untitled-dbase-177321_18
  -OEChem-11132313473D

 45 46  0     1  0  0  0  0  0999 V2000
    7.8260   13.0361   25.0937 C   0  0  0  0  0  0  0  0  0  0  0  0
    6.6024   12.4639   25.4886 C   0  0  0  0  0  0  0  0  0  0  0  0
    8.4927   12.0435   24.3985 C   0  0  0  0  0  0  0  0  0  0  0  0
   10.4297   13.2021   23.5661 C   0  0  0  0  0  0  0  0  0  0  0  0
    9.3765    9.4619   23.6929 C   0  0  0  0  0  0  0  0  0  0  0  0
   10.2173   10.6604   23.1535 C   0  0  0  0  0  0  0  0  0  0  0  0
    7.8671    9.6889   23.7891 C   0  0  2  0  0  0  0  0  0  0  0  0
   11.6720   10.3459   23.5935 C   0  0  0  0  0  0  0  0  0  0  0  0
   10.1631   10.6953   21.6130 C   0  0  0  0  0  0  0  0  0  0  0  0
    7.1201    9.5996   22.4590 C   0  0  0  0  0  0  0  0  0  0  0  0
   12.8650   14.6882   23.2279 C   0  0  0  0  0  0  0  0  0  0  0  0
   12.5173   14.3326   20.7658 C   0  0  0  0  0  0  0  0  0  0  0  0
   10.8320   15.6413   22.0907 C   0  0  0  0  0  0  0  0  0  0  0  0
   11.8309   14.4854   22.1214 C   0  0  0  0  0  0  0  0  0  0  0  0
    6.4743   11.2033   25.0810 N   0  0  0  0  0  0  0  0  0  0  0  0
    7.6344   10.9695   24.4383 N   0  0  0  0  0  0  0  0  0  0  0  0
    9.7348   11.9770   23.7321 N   0  0  0  0  0  0  0  0  0  0  0  0
    5.5323   12.9837   26.2295 N   0  3  0  0  0  0  0  0  0  0  0  0
    5.5874   14.1700   26.6617 O   0  5  0  0  0  0  0  0  0  0  0  0
   10.4358   14.1434   24.3568 O   0  0  0  0  0  0  0  0  0  0  0  0
    4.5208   12.2618   26.4600 O   0  0  0  0  0  0  0  0  0  0  0  0
    7.3420    8.6668   24.6469 O   0  0  0  0  0  0  0  0  0  0  0  0
   11.1157   13.2712   22.3826 O   0  0  0  0  0  0  0  0  0  0  0  0
    8.1534   14.0421   25.3076 H   0  0  0  0  0  0  0  0  0  0  0  0
    9.5534    8.5916   23.0332 H   0  0  0  0  0  0  0  0  0  0  0  0
    9.7639    9.1690   24.6854 H   0  0  0  0  0  0  0  0  0  0  0  0
   12.3249   11.1410   23.2526 H   0  0  0  0  0  0  0  0  0  0  0  0
   11.9789    9.4037   23.1544 H   0  0  0  0  0  0  0  0  0  0  0  0
   11.7082   10.2776   24.6746 H   0  0  0  0  0  0  0  0  0  0  0  0
   10.7520   11.5325   21.2656 H   0  0  0  0  0  0  0  0  0  0  0  0
    9.1329   10.8087   21.3062 H   0  0  0  0  0  0  0  0  0  0  0  0
   10.5681    9.7682   21.2321 H   0  0  0  0  0  0  0  0  0  0  0  0
    6.0613    9.7736   22.6271 H   0  0  0  0  0  0  0  0  0  0  0  0
    7.2620    8.6117   22.0308 H   0  0  0  0  0  0  0  0  0  0  0  0
    7.5074   10.3503   21.7763 H   0  0  0  0  0  0  0  0  0  0  0  0
   12.3763   14.7983   24.2026 H   0  0  0  0  0  0  0  0  0  0  0  0
   13.5663   13.8492   23.2833 H   0  0  0  0  0  0  0  0  0  0  0  0
   13.4380   15.6079   23.0637 H   0  0  0  0  0  0  0  0  0  0  0  0
   11.7790   14.1868   19.9689 H   0  0  0  0  0  0  0  0  0  0  0  0
   13.1638   13.4476   20.7532 H   0  0  0  0  0  0  0  0  0  0  0  0
   13.1248   15.2093   20.5194 H   0  0  0  0  0  0  0  0  0  0  0  0
   10.0902   15.4961   21.2971 H   0  0  0  0  0  0  0  0  0  0  0  0
   10.3031   15.7427   23.0439 H   0  0  0  0  0  0  0  0  0  0  0  0
   11.3385   16.5882   21.8710 H   0  0  0  0  0  0  0  0  0  0  0  0
    6.3856    8.8174   24.7027 H   0  0  0  0  0  0  0  0  0  0  0  0
  1  2  1  0  0  0  0
  1  3  2  0  0  0  0
  2 15  2  0  0  0  0
  2 18  1  0  0  0  0
  3 16  1  0  0  0  0
  3 17  1  0  0  0  0
  4 17  1  0  0  0  0
  4 20  2  0  0  0  0
  4 23  1  0  0  0  0
  5  6  1  0  0  0  0
  5  7  1  0  0  0  0
  6  8  1  0  0  0  0
  6  9  1  0  0  0  0
  6 17  1  0  0  0  0
  7 10  1  0  0  0  0
  7 16  1  0  0  0  0
  7 22  1  0  0  0  0
 11 14  1  0  0  0  0
 12 14  1  0  0  0  0
 13 14  1  0  0  0  0
 14 23  1  0  0  0  0
 15 16  1  0  0  0  0
 18 19  1  0  0  0  0
 18 21  2  0  0  0  0
  1 24  1  0  0  0  0
  5 25  1  0  0  0  0
  5 26  1  0  0  0  0
  8 27  1  0  0  0  0
  8 28  1  0  0  0  0
  8 29  1  0  0  0  0
  9 30  1  0  0  0  0
  9 31  1  0  0  0  0
  9 32  1  0  0  0  0
 10 33  1  0  0  0  0
 10 34  1  0  0  0  0
 10 35  1  0  0  0  0
 11 36  1  0  0  0  0
 11 37  1  0  0  0  0
 11 38  1  0  0  0  0
 12 39  1  0  0  0  0
 12 40  1  0  0  0  0
 12 41  1  0  0  0  0
 13 42  1  0  0  0  0
 13 43  1  0  0  0  0
 13 44  1  0  0  0  0
 22 45  1  0  0  0  0
M  CHG  2  18   1  19  -1
M  END
> <id>
EN300-45377373

> <smiles>
CC(C)(C)OC(=O)N1C2=CC(=NN2C(C)(O)CC1(C)C)[N+](=O)[O-]

> <IUPAC Name>
tert-butyl 7-hydroxy-5,5,7-trimethyl-2-nitro-4H,5H,6H,7H-pyrazolo[1,5-a]pyrimidine-4-carboxylate

> <URL>
https://www.enaminestore.com/catalog/EN300-45377373

> <ROCS_ShapeQuery>
A71EV2A-x0451_0A_A71EV2A-x0310_0A_A71EV2A-x0416_0A_peptide

> <ROCS_TanimotoCombo>
0.574 

> <ROCS_ShapeTanimoto>
0.385 

> <ROCS_ColorTanimoto>
0.189 

> <ROCS_RefTversky>
0.333 

> <ROCS_RefColorTversky>
0.216 

> <ROCS_RefTverskyCombo>
0.549 

> <ROCS_FitTversky>
1.697 

> <ROCS_FitColorTversky>
0.596 

> <ROCS_FitTverskyCombo>
2.293 

> <ROCS_ColorScore>
-6.627

> <ROCS_Overlap>
2311.707

> <ROCS_Rank>
1                   

$$$$
untitled-dbase-148613_117
  -OEChem-11132313473D

 42 43  0     1  0  0  0  0  0999 V2000
    7.7501   12.9688   25.1193 C   0  0  0  0  0  0  0  0  0  0  0  0
    6.6171   12.2840   25.5990 C   0  0  0  0  0  0  0  0  0  0  0  0
    8.4570   12.0307   24.3956 C   0  0  0  0  0  0  0  0  0  0  0  0
    5.5489   12.8157   26.3966 C   0  0  0  0  0  0  0  0  0  0  0  0
   10.3651   13.2619   23.5616 C   0  0  0  0  0  0  0  0  0  0  0  0
    9.5993    9.5646   23.6191 C   0  0  0  0  0  0  0  0  0  0  0  0
    8.0983    9.5814   23.9420 C   0  0  1  0  0  0  0  0  0  0  0  0
   10.0584   10.8431   22.8993 C   0  0  1  0  0  0  0  0  0  0  0  0
    9.5512   10.8977   21.4543 C   0  0  0  0  0  0  0  0  0  0  0  0
   12.8612   14.6345   23.2280 C   0  0  0  0  0  0  0  0  0  0  0  0
   12.3744   14.5380   20.7657 C   0  0  0  0  0  0  0  0  0  0  0  0
   10.8341   15.7998   22.2966 C   0  0  0  0  0  0  0  0  0  0  0  0
    7.7463    8.3891   24.8353 C   0  0  0  0  0  0  0  0  0  0  0  0
   11.7646   14.5950   22.1646 C   0  0  0  0  0  0  0  0  0  0  0  0
    6.5931   11.0047   25.2262 N   0  0  0  0  0  0  0  0  0  0  0  0
    7.7365   10.8656   24.5299 N   0  0  0  0  0  0  0  0  0  0  0  0
    9.6378   12.0588   23.6429 N   0  0  0  0  0  0  0  0  0  0  0  0
    4.8665   12.1839   27.2267 O   0  0  0  0  0  0  0  0  0  0  0  0
   10.4568   14.1133   24.4427 O   0  0  0  0  0  0  0  0  0  0  0  0
    5.3171   14.1456   26.1707 O   0  0  0  0  0  0  0  0  0  0  0  0
   10.9942   13.4014   22.3485 O   0  0  0  0  0  0  0  0  0  0  0  0
    8.0422    7.2436   24.2051 F   0  0  0  0  0  0  0  0  0  0  0  0
    8.4448    8.4529   25.9776 F   0  0  0  0  0  0  0  0  0  0  0  0
    6.4369    8.4048   25.1220 F   0  0  0  0  0  0  0  0  0  0  0  0
    7.9882   14.0108   25.2737 H   0  0  0  0  0  0  0  0  0  0  0  0
   10.1750    9.4712   24.5508 H   0  0  0  0  0  0  0  0  0  0  0  0
    9.8424    8.6820   23.0147 H   0  0  0  0  0  0  0  0  0  0  0  0
    7.5166    9.5096   23.0147 H   0  0  0  0  0  0  0  0  0  0  0  0
   11.1543   10.8199   22.8659 H   0  0  0  0  0  0  0  0  0  0  0  0
    8.4644   10.9219   21.4508 H   0  0  0  0  0  0  0  0  0  0  0  0
    9.8942   10.0186   20.9148 H   0  0  0  0  0  0  0  0  0  0  0  0
    9.9335   11.7916   20.9680 H   0  0  0  0  0  0  0  0  0  0  0  0
   12.4276   14.6754   24.2336 H   0  0  0  0  0  0  0  0  0  0  0  0
   13.5145   13.7580   23.1664 H   0  0  0  0  0  0  0  0  0  0  0  0
   13.4780   15.5341   23.1204 H   0  0  0  0  0  0  0  0  0  0  0  0
   11.5911   14.5096   19.9995 H   0  0  0  0  0  0  0  0  0  0  0  0
   12.9671   13.6254   20.6351 H   0  0  0  0  0  0  0  0  0  0  0  0
   13.0190   15.4011   20.5705 H   0  0  0  0  0  0  0  0  0  0  0  0
   10.0474   15.7717   21.5340 H   0  0  0  0  0  0  0  0  0  0  0  0
   10.3588   15.8363   23.2822 H   0  0  0  0  0  0  0  0  0  0  0  0
   11.3833   16.7353   22.1400 H   0  0  0  0  0  0  0  0  0  0  0  0
    5.9108   14.5432   25.4986 H   0  0  0  0  0  0  0  0  0  0  0  0
  1  2  1  0  0  0  0
  1  3  2  0  0  0  0
  2  4  1  0  0  0  0
  2 15  2  0  0  0  0
  3 16  1  0  0  0  0
  3 17  1  0  0  0  0
  4 18  2  0  0  0  0
  4 20  1  0  0  0  0
  5 17  1  0  0  0  0
  5 19  2  0  0  0  0
  5 21  1  0  0  0  0
  6  7  1  0  0  0  0
  6  8  1  0  0  0  0
  7 13  1  0  0  0  0
  7 16  1  0  0  0  0
  8  9  1  0  0  0  0
  8 17  1  0  0  0  0
 10 14  1  0  0  0  0
 11 14  1  0  0  0  0
 12 14  1  0  0  0  0
 13 22  1  0  0  0  0
 13 23  1  0  0  0  0
 13 24  1  0  0  0  0
 14 21  1  0  0  0  0
 15 16  1  0  0  0  0
  1 25  1  0  0  0  0
  6 26  1  0  0  0  0
  6 27  1  0  0  0  0
  7 28  1  0  0  0  0
  8 29  1  0  0  0  0
  9 30  1  0  0  0  0
  9 31  1  0  0  0  0
  9 32  1  0  0  0  0
 10 33  1  0  0  0  0
 10 34  1  0  0  0  0
 10 35  1  0  0  0  0
 11 36  1  0  0  0  0
 11 37  1  0  0  0  0
 11 38  1  0  0  0  0
 12 39  1  0  0  0  0
 12 40  1  0  0  0  0
 12 41  1  0  0  0  0
 20 42  1  0  0  0  0
M  END
> <id>
EN300-27782533

> <smiles>
CC1CC(N2N=C(C=C2N1C(=O)OC(C)(C)C)C(=O)O)C(F)(F)F

> <IUPAC Name>
4-[(tert-butoxy)carbonyl]-5-methyl-7-(trifluoromethyl)-4H,5H,6H,7H-pyrazolo[1,5-a]pyrimidine-2-carboxylic acid

> <CAS>
2639422-46-9

> <URL>
https://www.enaminestore.com/catalog/EN300-27782533

> <ROCS_ShapeQuery>
A71EV2A-x0451_0A_A71EV2A-x0310_0A_A71EV2A-x0416_0A_peptide

> <ROCS_TanimotoCombo>
0.570 

> <ROCS_ShapeTanimoto>
0.390 

> <ROCS_ColorTanimoto>
0.181 

> <ROCS_RefTversky>
0.337 

> <ROCS_RefColorTversky>
0.199 

> <ROCS_RefTverskyCombo>
0.537 

> <ROCS_FitTversky>
1.660 

> <ROCS_FitColorTversky>
0.660 

> <ROCS_FitTverskyCombo>
2.320 

> <ROCS_ColorScore>
-6.087

> <ROCS_Overlap>
2344.823

> <ROCS_Rank>
2                   

$$$$
untitled-dbase-146812_88
  -OEChem-11132313473D

 42 43  0     1  0  0  0  0  0999 V2000
    7.6167   13.0054   24.8598 C   0  0  0  0  0  0  0  0  0  0  0  0
    6.6109   12.2900   25.5390 C   0  0  0  0  0  0  0  0  0  0  0  0
    8.4233   12.0399   24.2937 C   0  0  0  0  0  0  0  0  0  0  0  0
    5.5084   12.8279   26.2840 C   0  0  0  0  0  0  0  0  0  0  0  0
   10.3619   13.2489   23.5558 C   0  0  0  0  0  0  0  0  0  0  0  0
    9.1324    9.6116   23.0357 C   0  0  0  0  0  0  0  0  0  0  0  0
    8.4688    9.5494   24.4104 C   0  0  2  0  0  0  0  0  0  0  0  0
   10.0990   10.8108   22.8863 C   0  0  1  0  0  0  0  0  0  0  0  0
   10.3478   11.0025   21.3800 C   0  0  0  0  0  0  0  0  0  0  0  0
   12.9391   14.5032   23.6799 C   0  0  0  0  0  0  0  0  0  0  0  0
   12.9126   14.3829   21.1711 C   0  0  0  0  0  0  0  0  0  0  0  0
   11.1773   15.7409   22.3765 C   0  0  0  0  0  0  0  0  0  0  0  0
    7.4860    8.3790   24.4744 C   0  0  0  0  0  0  0  0  0  0  0  0
   12.0577   14.4933   22.4318 C   0  0  0  0  0  0  0  0  0  0  0  0
    6.7635   10.9691   25.4402 N   0  0  0  0  0  0  0  0  0  0  0  0
    7.8591   10.8454   24.6711 N   0  0  0  0  0  0  0  0  0  0  0  0
    9.6017   12.0599   23.5364 N   0  0  0  0  0  0  0  0  0  0  0  0
    4.6309   12.1700   26.8765 O   0  0  0  0  0  0  0  0  0  0  0  0
   10.3308   14.1130   24.4294 O   0  0  0  0  0  0  0  0  0  0  0  0
    5.4855   14.1963   26.3017 O   0  0  0  0  0  0  0  0  0  0  0  0
   11.2104   13.3390   22.4811 O   0  0  0  0  0  0  0  0  0  0  0  0
    6.9379    8.3056   25.6966 F   0  0  0  0  0  0  0  0  0  0  0  0
    6.5102    8.5486   23.5696 F   0  0  0  0  0  0  0  0  0  0  0  0
    8.1248    7.2283   24.2146 F   0  0  0  0  0  0  0  0  0  0  0  0
    7.7187   14.0783   24.8042 H   0  0  0  0  0  0  0  0  0  0  0  0
    9.7306    8.7055   22.9087 H   0  0  0  0  0  0  0  0  0  0  0  0
    8.3918    9.6114   22.2380 H   0  0  0  0  0  0  0  0  0  0  0  0
    9.2427    9.3971   25.1408 H   0  0  0  0  0  0  0  0  0  0  0  0
   11.0346   10.5077   23.3253 H   0  0  0  0  0  0  0  0  0  0  0  0
    9.4251   11.3103   20.8938 H   0  0  0  0  0  0  0  0  0  0  0  0
   10.6890   10.0664   20.9444 H   0  0  0  0  0  0  0  0  0  0  0  0
   11.1062   11.7671   21.2297 H   0  0  0  0  0  0  0  0  0  0  0  0
   12.3292   14.5823   24.5870 H   0  0  0  0  0  0  0  0  0  0  0  0
   13.5500   13.5973   23.7496 H   0  0  0  0  0  0  0  0  0  0  0  0
   13.6072   15.3720   23.6800 H   0  0  0  0  0  0  0  0  0  0  0  0
   12.2843   14.3755   20.2731 H   0  0  0  0  0  0  0  0  0  0  0  0
   13.4751   13.4424   21.1621 H   0  0  0  0  0  0  0  0  0  0  0  0
   13.6226   15.2124   21.0906 H   0  0  0  0  0  0  0  0  0  0  0  0
   10.5450   15.7341   21.4813 H   0  0  0  0  0  0  0  0  0  0  0  0
   10.5301   15.8171   23.2562 H   0  0  0  0  0  0  0  0  0  0  0  0
   11.7900   16.6477   22.3154 H   0  0  0  0  0  0  0  0  0  0  0  0
    4.7359   14.5739   26.8094 H   0  0  0  0  0  0  0  0  0  0  0  0
  1  2  1  0  0  0  0
  1  3  2  0  0  0  0
  2  4  1  0  0  0  0
  2 15  2  0  0  0  0
  3 16  1  0  0  0  0
  3 17  1  0  0  0  0
  4 18  2  0  0  0  0
  4 20  1  0  0  0  0
  5 17  1  0  0  0  0
  5 19  2  0  0  0  0
  5 21  1  0  0  0  0
  6  7  1  0  0  0  0
  6  8  1  0  0  0  0
  7 13  1  6  0  0  0
  7 16  1  0  0  0  0
  8  9  1  6  0  0  0
  8 17  1  0  0  0  0
 10 14  1  0  0  0  0
 11 14  1  0  0  0  0
 12 14  1  0  0  0  0
 13 22  1  0  0  0  0
 13 23  1  0  0  0  0
 13 24  1  0  0  0  0
 14 21  1  0  0  0  0
 15 16  1  0  0  0  0
  1 25  1  0  0  0  0
  6 26  1  0  0  0  0
  6 27  1  0  0  0  0
  7 28  1  0  0  0  0
  8 29  1  0  0  0  0
  9 30  1  0  0  0  0
  9 31  1  0  0  0  0
  9 32  1  0  0  0  0
 10 33  1  0  0  0  0
 10 34  1  0  0  0  0
 10 35  1  0  0  0  0
 11 36  1  0  0  0  0
 11 37  1  0  0  0  0
 11 38  1  0  0  0  0
 12 39  1  0  0  0  0
 12 40  1  0  0  0  0
 12 41  1  0  0  0  0
 20 42  1  0  0  0  0
M  END
> <id>
EN300-27783274

> <smiles>
C[C@@H]1C[C@@H](N2N=C(C=C2N1C(=O)OC(C)(C)C)C(=O)O)C(F)(F)F |&1:1,3,r|

> <IUPAC Name>
rac-(5R,7R)-4-[(tert-butoxy)carbonyl]-5-methyl-7-(trifluoromethyl)-4H,5H,6H,7H-pyrazolo[1,5-a]pyrimidine-2-carboxylic acid

> <CAS>
2639389-25-4

> <URL>
https://www.enaminestore.com/catalog/EN300-27783274

> <ROCS_ShapeQuery>
A71EV2A-x0451_0A_A71EV2A-x0310_0A_A71EV2A-x0416_0A_peptide

> <ROCS_TanimotoCombo>
0.566 

> <ROCS_ShapeTanimoto>
0.386 

> <ROCS_ColorTanimoto>
0.180 

> <ROCS_RefTversky>
0.335 

> <ROCS_RefColorTversky>
0.199 

> <ROCS_RefTverskyCombo>
0.534 

> <ROCS_FitTversky>
1.649 

> <ROCS_FitColorTversky>
0.658 

> <ROCS_FitTverskyCombo>
2.307 

> <ROCS_ColorScore>
-6.065

> <ROCS_Overlap>
2329.465

> <ROCS_Rank>
3                   

$$$$
untitled-dbase-151068_20
  -OEChem-11132313473D

 36 37  0     0  0  0  0  0  0999 V2000
    5.0392   11.9041   26.7051 C   0  0  0  0  0  0  0  0  0  0  0  0
    6.7089   10.6183   25.4961 C   0  0  0  0  0  0  0  0  0  0  0  0
    7.9587   13.0231   24.6446 C   0  0  0  0  0  0  0  0  0  0  0  0
    6.2048   11.8673   25.8735 C   0  0  0  0  0  0  0  0  0  0  0  0
    8.4769   11.7762   24.2570 C   0  0  0  0  0  0  0  0  0  0  0  0
    6.8176   13.0504   25.4561 C   0  0  0  0  0  0  0  0  0  0  0  0
    7.8471   10.6135   24.6868 C   0  0  0  0  0  0  0  0  0  0  0  0
    9.5621   11.3190   23.4788 C   0  0  0  0  0  0  0  0  0  0  0  0
   10.9196   13.4165   23.2164 C   0  0  0  0  0  0  0  0  0  0  0  0
    6.2781   14.3868   25.8607 C   0  0  0  0  0  0  0  0  0  0  0  0
   11.3193   16.1945   22.6668 C   0  0  0  0  0  0  0  0  0  0  0  0
   12.6232   15.4214   20.6640 C   0  0  0  0  0  0  0  0  0  0  0  0
   10.1812   14.8665   20.8569 C   0  0  0  0  0  0  0  0  0  0  0  0
   11.4835   15.0892   21.6247 C   0  0  0  0  0  0  0  0  0  0  0  0
    4.0947   11.9340   27.3789 N   0  0  0  0  0  0  0  0  0  0  0  0
    9.6273    9.9874   23.4118 N   0  0  0  0  0  0  0  0  0  0  0  0
    8.5787    9.5882   24.1508 N   0  0  0  0  0  0  0  0  0  0  0  0
   10.4740   12.1414   22.8445 N   0  0  0  0  0  0  0  0  0  0  0  0
   10.5719   14.0554   24.2019 O   0  0  0  0  0  0  0  0  0  0  0  0
   11.8284   13.8739   22.2997 O   0  0  0  0  0  0  0  0  0  0  0  0
    6.2442    9.6893   25.8114 H   0  0  0  0  0  0  0  0  0  0  0  0
    8.4320   13.9461   24.3215 H   0  0  0  0  0  0  0  0  0  0  0  0
    5.5468   14.7362   25.1244 H   0  0  0  0  0  0  0  0  0  0  0  0
    5.7929   14.3340   26.8417 H   0  0  0  0  0  0  0  0  0  0  0  0
    7.0818   15.1277   25.9384 H   0  0  0  0  0  0  0  0  0  0  0  0
   10.5022   15.9598   23.3583 H   0  0  0  0  0  0  0  0  0  0  0  0
   12.2357   16.3402   23.2481 H   0  0  0  0  0  0  0  0  0  0  0  0
   11.0570   17.1458   22.1899 H   0  0  0  0  0  0  0  0  0  0  0  0
   12.7445   14.6309   19.9145 H   0  0  0  0  0  0  0  0  0  0  0  0
   13.5774   15.4886   21.1989 H   0  0  0  0  0  0  0  0  0  0  0  0
   12.4498   16.3689   20.1437 H   0  0  0  0  0  0  0  0  0  0  0  0
   10.2987   14.0737   20.1093 H   0  0  0  0  0  0  0  0  0  0  0  0
    9.3602   14.5909   21.5267 H   0  0  0  0  0  0  0  0  0  0  0  0
    9.8937   15.7699   20.3070 H   0  0  0  0  0  0  0  0  0  0  0  0
    8.4152    8.5941   24.2500 H   0  0  0  0  0  0  0  0  0  0  0  0
   10.8835   11.7639   21.9765 H   0  0  0  0  0  0  0  0  0  0  0  0
  1  4  1  0  0  0  0
  1 15  3  0  0  0  0
  2  4  2  0  0  0  0
  2  7  1  0  0  0  0
  3  5  1  0  0  0  0
  3  6  2  0  0  0  0
  4  6  1  0  0  0  0
  5  7  2  0  0  0  0
  5  8  1  0  0  0  0
  6 10  1  0  0  0  0
  7 17  1  0  0  0  0
  8 16  2  0  0  0  0
  8 18  1  0  0  0  0
  9 18  1  0  0  0  0
  9 19  2  0  0  0  0
  9 20  1  0  0  0  0
 11 14  1  0  0  0  0
 12 14  1  0  0  0  0
 13 14  1  0  0  0  0
 14 20  1  0  0  0  0
 16 17  1  0  0  0  0
  2 21  1  0  0  0  0
  3 22  1  0  0  0  0
 10 23  1  0  0  0  0
 10 24  1  0  0  0  0
 10 25  1  0  0  0  0
 11 26  1  0  0  0  0
 11 27  1  0  0  0  0
 11 28  1  0  0  0  0
 12 29  1  0  0  0  0
 12 30  1  0  0  0  0
 12 31  1  0  0  0  0
 13 32  1  0  0  0  0
 13 33  1  0  0  0  0
 13 34  1  0  0  0  0
 17 35  1  0  0  0  0
 18 36  1  0  0  0  0
M  END
> <id>
EN300-28283738

> <smiles>
CC=1C=C2C(NC(=O)OC(C)(C)C)=NNC2=CC1C#N

> <IUPAC Name>
tert-butyl N-(6-cyano-5-methyl-1H-indazol-3-yl)carbamate

> <CAS>
2680814-43-9

> <URL>
https://www.enaminestore.com/catalog/EN300-28283738

> <ROCS_ShapeQuery>
A71EV2A-x0451_0A_A71EV2A-x0310_0A_A71EV2A-x0416_0A_peptide

> <ROCS_TanimotoCombo>
0.565 

> <ROCS_ShapeTanimoto>
0.364 

> <ROCS_ColorTanimoto>
0.200 

> <ROCS_RefTversky>
0.314 

> <ROCS_RefColorTversky>
0.217 

> <ROCS_RefTverskyCombo>
0.532 

> <ROCS_FitTversky>
1.779 

> <ROCS_FitColorTversky>
0.721 

> <ROCS_FitTverskyCombo>
2.499 

> <ROCS_ColorScore>
-6.633

> <ROCS_Overlap>
2181.224

> <ROCS_Rank>
4                   

$$$$
untitled-dbase-148795_147
  -OEChem-11132313473D

 39 40  0     1  0  0  0  0  0999 V2000
    7.7910   13.0212   25.0978 C   0  0  0  0  0  0  0  0  0  0  0  0
    6.6157   12.3916   25.5521 C   0  0  0  0  0  0  0  0  0  0  0  0
    8.4815   12.0407   24.4168 C   0  0  0  0  0  0  0  0  0  0  0  0
    5.5504   12.9782   26.3151 C   0  0  0  0  0  0  0  0  0  0  0  0
   10.4327   13.1815   23.5562 C   0  0  0  0  0  0  0  0  0  0  0  0
    9.5395    9.5056   23.7451 C   0  0  0  0  0  0  0  0  0  0  0  0
   10.0986   10.7454   23.0501 C   0  0  0  0  0  0  0  0  0  0  0  0
    8.0231    9.6159   23.9480 C   0  0  1  0  0  0  0  0  0  0  0  0
   12.1316   15.3488   22.7573 C   0  0  0  0  0  0  0  0  0  0  0  0
   11.9993   14.3608   20.4518 C   0  0  0  0  0  0  0  0  0  0  0  0
    9.9147   15.1977   21.5754 C   0  0  0  0  0  0  0  0  0  0  0  0
    7.5185    8.4312   24.7740 C   0  0  0  0  0  0  0  0  0  0  0  0
   11.2764   14.5371   21.7855 C   0  0  0  0  0  0  0  0  0  0  0  0
    6.5488   11.1082   25.1977 N   0  0  0  0  0  0  0  0  0  0  0  0
    7.7048   10.9111   24.5380 N   0  0  0  0  0  0  0  0  0  0  0  0
    9.6854   11.9999   23.7063 N   0  0  0  0  0  0  0  0  0  0  0  0
    5.1919   14.1715   26.2799 O   0  0  0  0  0  0  0  0  0  0  0  0
   10.5286   14.0873   24.3808 O   0  0  0  0  0  0  0  0  0  0  0  0
    4.9157   12.0827   27.1327 O   0  0  0  0  0  0  0  0  0  0  0  0
   11.0698   13.2326   22.3402 O   0  0  0  0  0  0  0  0  0  0  0  0
    7.8335    7.2791   24.1636 F   0  0  0  0  0  0  0  0  0  0  0  0
    8.0819    8.4474   25.9910 F   0  0  0  0  0  0  0  0  0  0  0  0
    6.1860    8.5015   24.9101 F   0  0  0  0  0  0  0  0  0  0  0  0
    8.0745   14.0521   25.2509 H   0  0  0  0  0  0  0  0  0  0  0  0
    9.7534    8.6311   23.1207 H   0  0  0  0  0  0  0  0  0  0  0  0
   10.0469    9.3473   24.7002 H   0  0  0  0  0  0  0  0  0  0  0  0
   11.1938   10.7317   23.0442 H   0  0  0  0  0  0  0  0  0  0  0  0
    9.7669   10.7513   22.0068 H   0  0  0  0  0  0  0  0  0  0  0  0
    7.5484    9.5819   22.9564 H   0  0  0  0  0  0  0  0  0  0  0  0
   11.6163   15.4776   23.7159 H   0  0  0  0  0  0  0  0  0  0  0  0
   13.0973   14.8677   22.9437 H   0  0  0  0  0  0  0  0  0  0  0  0
   12.3164   16.3565   22.3679 H   0  0  0  0  0  0  0  0  0  0  0  0
   11.3893   13.7789   19.7514 H   0  0  0  0  0  0  0  0  0  0  0  0
   12.9332   13.8029   20.5849 H   0  0  0  0  0  0  0  0  0  0  0  0
   12.2341   15.3247   19.9890 H   0  0  0  0  0  0  0  0  0  0  0  0
    9.3011   14.6156   20.8783 H   0  0  0  0  0  0  0  0  0  0  0  0
    9.3659   15.2989   22.5173 H   0  0  0  0  0  0  0  0  0  0  0  0
   10.0289   16.1927   21.1302 H   0  0  0  0  0  0  0  0  0  0  0  0
    5.2783   11.1726   27.0815 H   0  0  0  0  0  0  0  0  0  0  0  0
  1  2  1  0  0  0  0
  1  3  2  0  0  0  0
  2  4  1  0  0  0  0
  2 14  2  0  0  0  0
  3 15  1  0  0  0  0
  3 16  1  0  0  0  0
  4 17  2  0  0  0  0
  4 19  1  0  0  0  0
  5 16  1  0  0  0  0
  5 18  2  0  0  0  0
  5 20  1  0  0  0  0
  6  7  1  0  0  0  0
  6  8  1  0  0  0  0
  7 16  1  0  0  0  0
  8 12  1  0  0  0  0
  8 15  1  0  0  0  0
  9 13  1  0  0  0  0
 10 13  1  0  0  0  0
 11 13  1  0  0  0  0
 12 21  1  0  0  0  0
 12 22  1  0  0  0  0
 12 23  1  0  0  0  0
 13 20  1  0  0  0  0
 14 15  1  0  0  0  0
  1 24  1  0  0  0  0
  6 25  1  0  0  0  0
  6 26  1  0  0  0  0
  7 27  1  0  0  0  0
  7 28  1  0  0  0  0
  8 29  1  0  0  0  0
  9 30  1  0  0  0  0
  9 31  1  0  0  0  0
  9 32  1  0  0  0  0
 10 33  1  0  0  0  0
 10 34  1  0  0  0  0
 10 35  1  0  0  0  0
 11 36  1  0  0  0  0
 11 37  1  0  0  0  0
 11 38  1  0  0  0  0
 19 39  1  0  0  0  0
M  END
> <id>
EN300-27782231

> <smiles>
CC(C)(C)OC(=O)N1CCC(N2N=C(C=C12)C(=O)O)C(F)(F)F

> <IUPAC Name>
4-[(tert-butoxy)carbonyl]-7-(trifluoromethyl)-4H,5H,6H,7H-pyrazolo[1,5-a]pyrimidine-2-carboxylic acid

> <CAS>
2639448-26-1

> <URL>
https://www.enaminestore.com/catalog/EN300-27782231

> <ROCS_ShapeQuery>
A71EV2A-x0451_0A_A71EV2A-x0310_0A_A71EV2A-x0416_0A_peptide

> <ROCS_TanimotoCombo>
0.564 

> <ROCS_ShapeTanimoto>
0.383 

> <ROCS_ColorTanimoto>
0.180 

> <ROCS_RefTversky>
0.332 

> <ROCS_RefColorTversky>
0.199 

> <ROCS_RefTverskyCombo>
0.531 

> <ROCS_FitTversky>
1.679 

> <ROCS_FitColorTversky>
0.659 

> <ROCS_FitTverskyCombo>
2.338 

> <ROCS_ColorScore>
-6.077

> <ROCS_Overlap>
2306.683

> <ROCS_Rank>
5                   

$$$$
untitled-dbase-145793_66
  -OEChem-11132313473D

 37 38  0     0  0  0  0  0  0999 V2000
    6.8804   12.8865   26.2480 C   0  0  0  0  0  0  0  0  0  0  0  0
    7.9466   13.0483   25.3544 C   0  0  0  0  0  0  0  0  0  0  0  0
    6.6974   10.5773   25.6234 C   0  0  0  0  0  0  0  0  0  0  0  0
    6.2546   11.6538   26.3814 C   0  0  0  0  0  0  0  0  0  0  0  0
    8.4173   11.9765   24.5799 C   0  0  0  0  0  0  0  0  0  0  0  0
    7.7740   10.7325   24.7406 C   0  0  0  0  0  0  0  0  0  0  0  0
    5.1420   11.4931   27.3036 C   0  0  0  0  0  0  0  0  0  0  0  0
   10.2522   13.2673   23.4319 C   0  0  0  0  0  0  0  0  0  0  0  0
    9.6861   10.9305   22.7586 C   0  0  0  0  0  0  0  0  0  0  0  0
    9.4244    9.6525   23.5127 C   0  0  0  0  0  0  0  0  0  0  0  0
   12.7199   14.5055   22.6489 C   0  0  0  0  0  0  0  0  0  0  0  0
   11.7514   14.5464   20.3317 C   0  0  0  0  0  0  0  0  0  0  0  0
   10.6308   15.8279   22.1784 C   0  0  0  0  0  0  0  0  0  0  0  0
   11.4349   14.5774   21.8254 C   0  0  0  0  0  0  0  0  0  0  0  0
    9.4805   12.1034   23.6173 N   0  0  0  0  0  0  0  0  0  0  0  0
    4.0743   12.1129   27.2530 O   0  0  0  0  0  0  0  0  0  0  0  0
   10.5750   14.0748   24.2983 O   0  0  0  0  0  0  0  0  0  0  0  0
    8.1188    9.5934   24.0564 O   0  0  0  0  0  0  0  0  0  0  0  0
    5.3921   10.5612   28.2641 O   0  0  0  0  0  0  0  0  0  0  0  0
   10.6382   13.4240   22.1219 O   0  0  0  0  0  0  0  0  0  0  0  0
   10.3273    9.4819   24.5099 F   0  0  0  0  0  0  0  0  0  0  0  0
    9.5659    8.5954   22.6738 F   0  0  0  0  0  0  0  0  0  0  0  0
    6.5417   13.7424   26.8273 H   0  0  0  0  0  0  0  0  0  0  0  0
    8.3570   14.0480   25.2837 H   0  0  0  0  0  0  0  0  0  0  0  0
    6.2142    9.6071   25.7204 H   0  0  0  0  0  0  0  0  0  0  0  0
   10.7092   10.9098   22.3705 H   0  0  0  0  0  0  0  0  0  0  0  0
    9.0062   11.0306   21.9043 H   0  0  0  0  0  0  0  0  0  0  0  0
   12.4970   14.5275   23.7217 H   0  0  0  0  0  0  0  0  0  0  0  0
   13.2886   13.5957   22.4305 H   0  0  0  0  0  0  0  0  0  0  0  0
   13.3616   15.3711   22.4487 H   0  0  0  0  0  0  0  0  0  0  0  0
   10.8322   14.5978   19.7370 H   0  0  0  0  0  0  0  0  0  0  0  0
   12.2448   13.6071   20.0567 H   0  0  0  0  0  0  0  0  0  0  0  0
   12.4007   15.3778   20.0389 H   0  0  0  0  0  0  0  0  0  0  0  0
    9.7090   15.8797   21.5878 H   0  0  0  0  0  0  0  0  0  0  0  0
   10.3629   15.8488   23.2397 H   0  0  0  0  0  0  0  0  0  0  0  0
   11.1991   16.7354   21.9447 H   0  0  0  0  0  0  0  0  0  0  0  0
    4.6467   10.4447   28.8912 H   0  0  0  0  0  0  0  0  0  0  0  0
  1  2  1  0  0  0  0
  1  4  2  0  0  0  0
  2  5  2  0  0  0  0
  3  4  1  0  0  0  0
  3  6  2  0  0  0  0
  4  7  1  0  0  0  0
  5  6  1  0  0  0  0
  5 15  1  0  0  0  0
  6 18  1  0  0  0  0
  7 16  2  0  0  0  0
  7 19  1  0  0  0  0
  8 15  1  0  0  0  0
  8 17  2  0  0  0  0
  8 20  1  0  0  0  0
  9 10  1  0  0  0  0
  9 15  1  0  0  0  0
 10 18  1  0  0  0  0
 10 21  1  0  0  0  0
 10 22  1  0  0  0  0
 11 14  1  0  0  0  0
 12 14  1  0  0  0  0
 13 14  1  0  0  0  0
 14 20  1  0  0  0  0
  1 23  1  0  0  0  0
  2 24  1  0  0  0  0
  3 25  1  0  0  0  0
  9 26  1  0  0  0  0
  9 27  1  0  0  0  0
 11 28  1  0  0  0  0
 11 29  1  0  0  0  0
 11 30  1  0  0  0  0
 12 31  1  0  0  0  0
 12 32  1  0  0  0  0
 12 33  1  0  0  0  0
 13 34  1  0  0  0  0
 13 35  1  0  0  0  0
 13 36  1  0  0  0  0
 19 37  1  0  0  0  0
M  END
> <id>
EN300-27754930

> <smiles>
CC(C)(C)OC(=O)N1CC(F)(F)OC=2C=C(C=CC12)C(=O)O

> <IUPAC Name>
4-[(tert-butoxy)carbonyl]-2,2-difluoro-3,4-dihydro-2H-1,4-benzoxazine-7-carboxylic acid

> <CAS>
2639446-54-9

> <URL>
https://www.enaminestore.com/catalog/EN300-27754930

> <ROCS_ShapeQuery>
A71EV2A-x0451_0A_A71EV2A-x0310_0A_A71EV2A-x0416_0A_peptide

> <ROCS_TanimotoCombo>
0.563 

> <ROCS_ShapeTanimoto>
0.384 

> <ROCS_ColorTanimoto>
0.179 

> <ROCS_RefTversky>
0.330 

> <ROCS_RefColorTversky>
0.198 

> <ROCS_RefTverskyCombo>
0.528 

> <ROCS_FitTversky>
1.733 

> <ROCS_FitColorTversky>
0.655 

> <ROCS_FitTverskyCombo>
2.389 

> <ROCS_ColorScore>
-6.031

> <ROCS_Overlap>
2293.710

> <ROCS_Rank>
6                   

$$$$
untitled-dbase-115771_71
  -OEChem-11132313473D

 41 43  0     0  0  0  0  0  0999 V2000
    6.8641   12.8949   26.2211 C   0  0  0  0  0  0  0  0  0  0  0  0
    7.9362   13.0495   25.3324 C   0  0  0  0  0  0  0  0  0  0  0  0
    6.6794   10.5822   25.6103 C   0  0  0  0  0  0  0  0  0  0  0  0
    6.2357   11.6637   26.3601 C   0  0  0  0  0  0  0  0  0  0  0  0
    8.4115   11.9728   24.5677 C   0  0  0  0  0  0  0  0  0  0  0  0
    7.7581   10.7347   24.7309 C   0  0  0  0  0  0  0  0  0  0  0  0
    5.1268   11.5075   27.2873 C   0  0  0  0  0  0  0  0  0  0  0  0
   10.2789   13.2508   23.4599 C   0  0  0  0  0  0  0  0  0  0  0  0
    9.9865    8.3589   22.9739 C   0  0  0  0  0  0  0  0  0  0  0  0
   10.5223    8.9524   24.2458 C   0  0  0  0  0  0  0  0  0  0  0  0
    9.7132   10.9241   22.7501 C   0  0  0  0  0  0  0  0  0  0  0  0
    9.4299    9.6617   23.4864 C   0  0  0  0  0  0  0  0  0  0  0  0
   12.7756   14.4719   22.7437 C   0  0  0  0  0  0  0  0  0  0  0  0
   11.8607   14.5406   20.4054 C   0  0  0  0  0  0  0  0  0  0  0  0
   10.7102   15.8179   22.2365 C   0  0  0  0  0  0  0  0  0  0  0  0
   11.5104   14.5627   21.8916 C   0  0  0  0  0  0  0  0  0  0  0  0
    9.4927   12.0910   23.6194 N   0  0  0  0  0  0  0  0  0  0  0  0
    4.0603   12.1297   27.2401 O   0  0  0  0  0  0  0  0  0  0  0  0
   10.5896   14.0485   24.3399 O   0  0  0  0  0  0  0  0  0  0  0  0
    8.1106    9.5959   24.0456 O   0  0  0  0  0  0  0  0  0  0  0  0
    5.3788   10.5771   28.2488 O   0  0  0  0  0  0  0  0  0  0  0  0
   10.6965   13.4147   22.1604 O   0  0  0  0  0  0  0  0  0  0  0  0
    6.5376   13.7499   26.8086 H   0  0  0  0  0  0  0  0  0  0  0  0
    8.3833   14.0354   25.2988 H   0  0  0  0  0  0  0  0  0  0  0  0
    6.1867    9.6164   25.6997 H   0  0  0  0  0  0  0  0  0  0  0  0
   10.6271    8.3779   22.1001 H   0  0  0  0  0  0  0  0  0  0  0  0
    9.3696    7.4714   23.0529 H   0  0  0  0  0  0  0  0  0  0  0  0
   10.2640    8.4631   25.1769 H   0  0  0  0  0  0  0  0  0  0  0  0
   11.5221    9.3679   24.2238 H   0  0  0  0  0  0  0  0  0  0  0  0
   10.7592   10.9544   22.4221 H   0  0  0  0  0  0  0  0  0  0  0  0
    9.0875   10.9903   21.8538 H   0  0  0  0  0  0  0  0  0  0  0  0
   12.5284   14.4875   23.8112 H   0  0  0  0  0  0  0  0  0  0  0  0
   13.3406   13.5586   22.5308 H   0  0  0  0  0  0  0  0  0  0  0  0
   13.4298   15.3330   22.5653 H   0  0  0  0  0  0  0  0  0  0  0  0
   10.9559   14.6056   19.7903 H   0  0  0  0  0  0  0  0  0  0  0  0
   12.3515   13.5990   20.1340 H   0  0  0  0  0  0  0  0  0  0  0  0
   12.5243   15.3681   20.1343 H   0  0  0  0  0  0  0  0  0  0  0  0
    9.8027   15.8833   21.6255 H   0  0  0  0  0  0  0  0  0  0  0  0
   10.4183   15.8329   23.2916 H   0  0  0  0  0  0  0  0  0  0  0  0
   11.2922   16.7219   22.0233 H   0  0  0  0  0  0  0  0  0  0  0  0
    4.6359   10.4636   28.8794 H   0  0  0  0  0  0  0  0  0  0  0  0
  1  2  1  0  0  0  0
  1  4  2  0  0  0  0
  2  5  2  0  0  0  0
  3  4  1  0  0  0  0
  3  6  2  0  0  0  0
  4  7  1  0  0  0  0
  5  6  1  0  0  0  0
  5 17  1  0  0  0  0
  6 20  1  0  0  0  0
  7 18  2  0  0  0  0
  7 21  1  0  0  0  0
  8 17  1  0  0  0  0
  8 19  2  0  0  0  0
  8 22  1  0  0  0  0
  9 10  1  0  0  0  0
  9 12  1  0  0  0  0
 10 12  1  0  0  0  0
 11 12  1  0  0  0  0
 11 17  1  0  0  0  0
 12 20  1  0  0  0  0
 13 16  1  0  0  0  0
 14 16  1  0  0  0  0
 15 16  1  0  0  0  0
 16 22  1  0  0  0  0
  1 23  1  0  0  0  0
  2 24  1  0  0  0  0
  3 25  1  0  0  0  0
  9 26  1  0  0  0  0
  9 27  1  0  0  0  0
 10 28  1  0  0  0  0
 10 29  1  0  0  0  0
 11 30  1  0  0  0  0
 11 31  1  0  0  0  0
 13 32  1  0  0  0  0
 13 33  1  0  0  0  0
 13 34  1  0  0  0  0
 14 35  1  0  0  0  0
 14 36  1  0  0  0  0
 14 37  1  0  0  0  0
 15 38  1  0  0  0  0
 15 39  1  0  0  0  0
 15 40  1  0  0  0  0
 21 41  1  0  0  0  0
M  END
> <id>
EN300-1129127

> <smiles>
CC(C)(C)OC(=O)N1CC2(CC2)OC=3C=C(C=CC13)C(=O)O

> <IUPAC Name>
4-[(tert-butoxy)carbonyl]-3,4-dihydrospiro[1,4-benzoxazine-2,1'-cyclopropane]-7-carboxylic acid

> <CAS>
2137588-24-8

> <URL>
https://www.enaminestore.com/catalog/EN300-1129127

> <ROCS_ShapeQuery>
A71EV2A-x0451_0A_A71EV2A-x0310_0A_A71EV2A-x0416_0A_peptide

> <ROCS_TanimotoCombo>
0.560 

> <ROCS_ShapeTanimoto>
0.381 

> <ROCS_ColorTanimoto>
0.179 

> <ROCS_RefTversky>
0.328 

> <ROCS_RefColorTversky>
0.197 

> <ROCS_RefTverskyCombo>
0.526 

> <ROCS_FitTversky>
1.732 

> <ROCS_FitColorTversky>
0.655 

> <ROCS_FitTverskyCombo>
2.387 

> <ROCS_ColorScore>
-6.028

> <ROCS_Overlap>
2280.649

> <ROCS_Rank>
7                   

$$$$
untitled-dbase-37103_91
  -OEChem-11132313473D

 42 44  0     0  0  0  0  0  0999 V2000
    6.2364   11.5832   26.2753 C   0  0  0  0  0  0  0  0  0  0  0  0
    6.7239   10.5087   25.5431 C   0  0  0  0  0  0  0  0  0  0  0  0
    7.9132   13.0090   25.2635 C   0  0  0  0  0  0  0  0  0  0  0  0
    6.8311   12.8310   26.1355 C   0  0  0  0  0  0  0  0  0  0  0  0
    8.4325   11.9399   24.5168 C   0  0  0  0  0  0  0  0  0  0  0  0
    7.8126   10.6848   24.6805 C   0  0  0  0  0  0  0  0  0  0  0  0
   10.2806   13.2622   23.4287 C   0  0  0  0  0  0  0  0  0  0  0  0
   10.1386    8.3597   22.9831 C   0  0  0  0  0  0  0  0  0  0  0  0
   10.6352    8.9797   24.2583 C   0  0  0  0  0  0  0  0  0  0  0  0
    9.7948   10.9138   22.7311 C   0  0  0  0  0  0  0  0  0  0  0  0
    9.5358    9.6502   23.4741 C   0  0  0  0  0  0  0  0  0  0  0  0
   12.7526   14.5493   22.7431 C   0  0  0  0  0  0  0  0  0  0  0  0
   11.8760   14.5708   20.3893 C   0  0  0  0  0  0  0  0  0  0  0  0
   10.6580   15.8299   22.1890 C   0  0  0  0  0  0  0  0  0  0  0  0
    6.3203   13.9876   26.9292 C   0  0  0  0  0  0  0  0  0  0  0  0
   11.5000   14.5956   21.8692 C   0  0  0  0  0  0  0  0  0  0  0  0
    9.5258   12.0814   23.5858 N   0  0  0  0  0  0  0  0  0  0  0  0
   10.5530   14.0763   24.3064 O   0  0  0  0  0  0  0  0  0  0  0  0
    8.2096    9.5508   24.0118 O   0  0  0  0  0  0  0  0  0  0  0  0
    5.0926   14.4368   26.3702 O   0  0  0  0  0  0  0  0  0  0  0  0
   10.7152   13.4267   22.1349 O   0  0  0  0  0  0  0  0  0  0  0  0
    5.3989   11.4388   26.9520 H   0  0  0  0  0  0  0  0  0  0  0  0
    6.2508    9.5349   25.6407 H   0  0  0  0  0  0  0  0  0  0  0  0
    8.3397   14.0042   25.2212 H   0  0  0  0  0  0  0  0  0  0  0  0
   10.7929    8.3897   22.1197 H   0  0  0  0  0  0  0  0  0  0  0  0
    9.5465    7.4551   23.0603 H   0  0  0  0  0  0  0  0  0  0  0  0
   10.3750    8.4916   25.1896 H   0  0  0  0  0  0  0  0  0  0  0  0
   11.6230    9.4237   24.2494 H   0  0  0  0  0  0  0  0  0  0  0  0
   10.8449   10.9714   22.4203 H   0  0  0  0  0  0  0  0  0  0  0  0
    9.1826   10.9535   21.8239 H   0  0  0  0  0  0  0  0  0  0  0  0
   12.4869   14.5670   23.8062 H   0  0  0  0  0  0  0  0  0  0  0  0
   13.3474   13.6509   22.5482 H   0  0  0  0  0  0  0  0  0  0  0  0
   13.3845   15.4275   22.5678 H   0  0  0  0  0  0  0  0  0  0  0  0
   10.9803   14.6039   19.7586 H   0  0  0  0  0  0  0  0  0  0  0  0
   12.3985   13.6415   20.1349 H   0  0  0  0  0  0  0  0  0  0  0  0
   12.5198   15.4149   20.1218 H   0  0  0  0  0  0  0  0  0  0  0  0
    9.7594   15.8634   21.5623 H   0  0  0  0  0  0  0  0  0  0  0  0
   10.3478   15.8456   23.2389 H   0  0  0  0  0  0  0  0  0  0  0  0
   11.2170   16.7486   21.9773 H   0  0  0  0  0  0  0  0  0  0  0  0
    6.1484   13.7081   27.9771 H   0  0  0  0  0  0  0  0  0  0  0  0
    7.0375   14.8191   26.9226 H   0  0  0  0  0  0  0  0  0  0  0  0
    4.4756   13.6885   26.4128 H   0  0  0  0  0  0  0  0  0  0  0  0
  1  2  1  0  0  0  0
  1  4  2  0  0  0  0
  2  6  2  0  0  0  0
  3  4  1  0  0  0  0
  3  5  2  0  0  0  0
  4 15  1  0  0  0  0
  5  6  1  0  0  0  0
  5 17  1  0  0  0  0
  6 19  1  0  0  0  0
  7 17  1  0  0  0  0
  7 18  2  0  0  0  0
  7 21  1  0  0  0  0
  8  9  1  0  0  0  0
  8 11  1  0  0  0  0
  9 11  1  0  0  0  0
 10 11  1  0  0  0  0
 10 17  1  0  0  0  0
 11 19  1  0  0  0  0
 12 16  1  0  0  0  0
 13 16  1  0  0  0  0
 14 16  1  0  0  0  0
 15 20  1  0  0  0  0
 16 21  1  0  0  0  0
  1 22  1  0  0  0  0
  2 23  1  0  0  0  0
  3 24  1  0  0  0  0
  8 25  1  0  0  0  0
  8 26  1  0  0  0  0
  9 27  1  0  0  0  0
  9 28  1  0  0  0  0
 10 29  1  0  0  0  0
 10 30  1  0  0  0  0
 12 31  1  0  0  0  0
 12 32  1  0  0  0  0
 12 33  1  0  0  0  0
 13 34  1  0  0  0  0
 13 35  1  0  0  0  0
 13 36  1  0  0  0  0
 14 37  1  0  0  0  0
 14 38  1  0  0  0  0
 14 39  1  0  0  0  0
 15 40  1  0  0  0  0
 15 41  1  0  0  0  0
 20 42  1  0  0  0  0
M  END
> <id>
EN300-1129132

> <smiles>
CC(C)(C)OC(=O)N1CC2(CC2)OC=3C=CC(CO)=CC13

> <IUPAC Name>
tert-butyl 6-(hydroxymethyl)-3,4-dihydrospiro[1,4-benzoxazine-2,1'-cyclopropane]-4-carboxylate

> <CAS>
2138000-37-8

> <URL>
https://www.enaminestore.com/catalog/EN300-1129132

> <ROCS_ShapeQuery>
A71EV2A-x0451_0A_A71EV2A-x0310_0A_A71EV2A-x0416_0A_peptide

> <ROCS_TanimotoCombo>
0.560 

> <ROCS_ShapeTanimoto>
0.375 

> <ROCS_ColorTanimoto>
0.185 

> <ROCS_RefTversky>
0.322 

> <ROCS_RefColorTversky>
0.198 

> <ROCS_RefTverskyCombo>
0.520 

> <ROCS_FitTversky>
1.768 

> <ROCS_FitColorTversky>
0.733 

> <ROCS_FitTverskyCombo>
2.501 

> <ROCS_ColorScore>
-6.043

> <ROCS_Overlap>
2236.616

> <ROCS_Rank>
8                   

$$$$
untitled-dbase-96038_442
  -OEChem-11132313473D

 42 44  0     0  0  0  0  0  0999 V2000
    6.9241   12.7780   26.3622 C   0  0  0  0  0  0  0  0  0  0  0  0
    7.9450   12.9857   25.4255 C   0  0  0  0  0  0  0  0  0  0  0  0
    6.7647   10.4798   25.6928 C   0  0  0  0  0  0  0  0  0  0  0  0
    6.3339   11.5275   26.4960 C   0  0  0  0  0  0  0  0  0  0  0  0
    8.4066   11.9439   24.6058 C   0  0  0  0  0  0  0  0  0  0  0  0
    7.7928   10.6851   24.7649 C   0  0  0  0  0  0  0  0  0  0  0  0
   10.1829   13.3010   23.4436 C   0  0  0  0  0  0  0  0  0  0  0  0
    9.9855    8.4190   22.8273 C   0  0  0  0  0  0  0  0  0  0  0  0
   10.5712    8.9896   24.0876 C   0  0  0  0  0  0  0  0  0  0  0  0
    9.6384   10.9816   22.6942 C   0  0  0  0  0  0  0  0  0  0  0  0
    9.4242    9.6918   23.4059 C   0  0  0  0  0  0  0  0  0  0  0  0
   12.8988   13.4064   22.5217 C   0  0  0  0  0  0  0  0  0  0  0  0
   11.9453   14.3254   20.3874 C   0  0  0  0  0  0  0  0  0  0  0  0
   11.6585   15.5964   22.5346 C   0  0  0  0  0  0  0  0  0  0  0  0
    5.2513   11.3114   27.4973 C   0  0  0  0  0  0  0  0  0  0  0  0
   11.7587   14.2106   21.8987 C   0  0  0  0  0  0  0  0  0  0  0  0
    9.4344   12.1171   23.6080 N   0  0  0  0  0  0  0  0  0  0  0  0
   10.5188   14.0811   24.3301 O   0  0  0  0  0  0  0  0  0  0  0  0
    8.1374    9.5759   24.0289 O   0  0  0  0  0  0  0  0  0  0  0  0
    4.1596   12.1766   27.2083 O   0  0  0  0  0  0  0  0  0  0  0  0
   10.5290   13.5126   22.1301 O   0  0  0  0  0  0  0  0  0  0  0  0
    6.6057   13.6053   26.9920 H   0  0  0  0  0  0  0  0  0  0  0  0
    8.3654   13.9835   25.3987 H   0  0  0  0  0  0  0  0  0  0  0  0
    6.2997    9.5003   25.7802 H   0  0  0  0  0  0  0  0  0  0  0  0
   10.5795    8.4795   21.9230 H   0  0  0  0  0  0  0  0  0  0  0  0
    9.3952    7.5140   22.9108 H   0  0  0  0  0  0  0  0  0  0  0  0
   10.3728    8.4678   25.0157 H   0  0  0  0  0  0  0  0  0  0  0  0
   11.5580    9.4316   24.0278 H   0  0  0  0  0  0  0  0  0  0  0  0
   10.6651   11.0482   22.3149 H   0  0  0  0  0  0  0  0  0  0  0  0
    8.9661   11.0572   21.8330 H   0  0  0  0  0  0  0  0  0  0  0  0
   12.7686   13.3217   23.6065 H   0  0  0  0  0  0  0  0  0  0  0  0
   12.9593   12.3982   22.0990 H   0  0  0  0  0  0  0  0  0  0  0  0
   13.8615   13.9061   22.3640 H   0  0  0  0  0  0  0  0  0  0  0  0
   11.1294   14.9017   19.9362 H   0  0  0  0  0  0  0  0  0  0  0  0
   11.9227   13.3367   19.9151 H   0  0  0  0  0  0  0  0  0  0  0  0
   12.8937   14.8096   20.1330 H   0  0  0  0  0  0  0  0  0  0  0  0
   10.8408   16.1735   22.0879 H   0  0  0  0  0  0  0  0  0  0  0  0
   11.4876   15.5334   23.6142 H   0  0  0  0  0  0  0  0  0  0  0  0
   12.5746   16.1723   22.3601 H   0  0  0  0  0  0  0  0  0  0  0  0
    4.8897   10.2737   27.4805 H   0  0  0  0  0  0  0  0  0  0  0  0
    5.6051   11.5190   28.5168 H   0  0  0  0  0  0  0  0  0  0  0  0
    4.5015   13.0834   27.2594 H   0  0  0  0  0  0  0  0  0  0  0  0
  1  2  1  0  0  0  0
  1  4  2  0  0  0  0
  2  5  2  0  0  0  0
  3  4  1  0  0  0  0
  3  6  2  0  0  0  0
  4 15  1  0  0  0  0
  5  6  1  0  0  0  0
  5 17  1  0  0  0  0
  6 19  1  0  0  0  0
  7 17  1  0  0  0  0
  7 18  2  0  0  0  0
  7 21  1  0  0  0  0
  8  9  1  0  0  0  0
  8 11  1  0  0  0  0
  9 11  1  0  0  0  0
 10 11  1  0  0  0  0
 10 17  1  0  0  0  0
 11 19  1  0  0  0  0
 12 16  1  0  0  0  0
 13 16  1  0  0  0  0
 14 16  1  0  0  0  0
 15 20  1  0  0  0  0
 16 21  1  0  0  0  0
  1 22  1  0  0  0  0
  2 23  1  0  0  0  0
  3 24  1  0  0  0  0
  8 25  1  0  0  0  0
  8 26  1  0  0  0  0
  9 27  1  0  0  0  0
  9 28  1  0  0  0  0
 10 29  1  0  0  0  0
 10 30  1  0  0  0  0
 12 31  1  0  0  0  0
 12 32  1  0  0  0  0
 12 33  1  0  0  0  0
 13 34  1  0  0  0  0
 13 35  1  0  0  0  0
 13 36  1  0  0  0  0
 14 37  1  0  0  0  0
 14 38  1  0  0  0  0
 14 39  1  0  0  0  0
 15 40  1  0  0  0  0
 15 41  1  0  0  0  0
 20 42  1  0  0  0  0
M  END
> <id>
EN300-1129133

> <smiles>
CC(C)(C)OC(=O)N1CC2(CC2)OC=3C=C(CO)C=CC13

> <IUPAC Name>
tert-butyl 7-(hydroxymethyl)-3,4-dihydrospiro[1,4-benzoxazine-2,1'-cyclopropane]-4-carboxylate

> <CAS>
2138531-31-2

> <URL>
https://www.enaminestore.com/catalog/EN300-1129133

> <ROCS_ShapeQuery>
A71EV2A-x0451_0A_A71EV2A-x0310_0A_A71EV2A-x0416_0A_peptide

> <ROCS_TanimotoCombo>
0.557 

> <ROCS_ShapeTanimoto>
0.375 

> <ROCS_ColorTanimoto>
0.182 

> <ROCS_RefTversky>
0.322 

> <ROCS_RefColorTversky>
0.196 

> <ROCS_RefTverskyCombo>
0.518 

> <ROCS_FitTversky>
1.769 

> <ROCS_FitColorTversky>
0.725 

> <ROCS_FitTverskyCombo>
2.494 

> <ROCS_ColorScore>
-5.974

> <ROCS_Overlap>
2237.838

> <ROCS_Rank>
9                   

$$$$
untitled-dbase-37099_93
  -OEChem-11132313473D

 41 43  0     0  0  0  0  0  0999 V2000
    6.1690   11.7117   26.1645 C   0  0  0  0  0  0  0  0  0  0  0  0
    6.6629   10.6048   25.4868 C   0  0  0  0  0  0  0  0  0  0  0  0
    7.9110   13.0722   25.1732 C   0  0  0  0  0  0  0  0  0  0  0  0
    6.7931   12.9430   26.0078 C   0  0  0  0  0  0  0  0  0  0  0  0
    8.4373   11.9697   24.4820 C   0  0  0  0  0  0  0  0  0  0  0  0
    7.7869   10.7322   24.6619 C   0  0  0  0  0  0  0  0  0  0  0  0
    6.2897   14.1024   26.7286 C   0  0  0  0  0  0  0  0  0  0  0  0
   10.3513   13.2209   23.4244 C   0  0  0  0  0  0  0  0  0  0  0  0
   10.1298    8.3099   23.1320 C   0  0  0  0  0  0  0  0  0  0  0  0
   10.5894    8.9623   24.4048 C   0  0  0  0  0  0  0  0  0  0  0  0
    9.8463   10.8602   22.7845 C   0  0  0  0  0  0  0  0  0  0  0  0
    9.5342    9.6268   23.5573 C   0  0  0  0  0  0  0  0  0  0  0  0
   12.8726   14.4389   22.7943 C   0  0  0  0  0  0  0  0  0  0  0  0
   12.0872   14.3990   20.4087 C   0  0  0  0  0  0  0  0  0  0  0  0
   10.8263   15.7391   22.1182 C   0  0  0  0  0  0  0  0  0  0  0  0
   11.6555   14.4796   21.8713 C   0  0  0  0  0  0  0  0  0  0  0  0
    9.5679   12.0601   23.5901 N   0  0  0  0  0  0  0  0  0  0  0  0
    6.9323   14.7732   27.5423 O   0  0  0  0  0  0  0  0  0  0  0  0
   10.6060   14.0584   24.2853 O   0  0  0  0  0  0  0  0  0  0  0  0
    8.1868    9.5697   24.0460 O   0  0  0  0  0  0  0  0  0  0  0  0
    4.9981   14.3913   26.4110 O   0  0  0  0  0  0  0  0  0  0  0  0
   10.8382   13.3347   22.1439 O   0  0  0  0  0  0  0  0  0  0  0  0
    5.3037   11.6027   26.8126 H   0  0  0  0  0  0  0  0  0  0  0  0
    6.1672    9.6437   25.5970 H   0  0  0  0  0  0  0  0  0  0  0  0
    8.3609   14.0563   25.1149 H   0  0  0  0  0  0  0  0  0  0  0  0
   10.8174    8.2990   22.2944 H   0  0  0  0  0  0  0  0  0  0  0  0
    9.5179    7.4192   23.2149 H   0  0  0  0  0  0  0  0  0  0  0  0
   10.2847    8.5098   25.3404 H   0  0  0  0  0  0  0  0  0  0  0  0
   11.5854    9.3875   24.4197 H   0  0  0  0  0  0  0  0  0  0  0  0
   10.9086   10.8882   22.5134 H   0  0  0  0  0  0  0  0  0  0  0  0
    9.2705   10.8814   21.8533 H   0  0  0  0  0  0  0  0  0  0  0  0
   12.5669   14.4965   23.8451 H   0  0  0  0  0  0  0  0  0  0  0  0
   13.4566   13.5238   22.6517 H   0  0  0  0  0  0  0  0  0  0  0  0
   13.5279   15.2990   22.6153 H   0  0  0  0  0  0  0  0  0  0  0  0
   11.2171   14.4278   19.7429 H   0  0  0  0  0  0  0  0  0  0  0  0
   12.6006   13.4523   20.2049 H   0  0  0  0  0  0  0  0  0  0  0  0
   12.7573   15.2218   20.1393 H   0  0  0  0  0  0  0  0  0  0  0  0
    9.9532   15.7685   21.4564 H   0  0  0  0  0  0  0  0  0  0  0  0
   10.4767   15.7951   23.1542 H   0  0  0  0  0  0  0  0  0  0  0  0
   11.4111   16.6397   21.8989 H   0  0  0  0  0  0  0  0  0  0  0  0
    4.6495   15.1723   26.8914 H   0  0  0  0  0  0  0  0  0  0  0  0
  1  2  1  0  0  0  0
  1  4  2  0  0  0  0
  2  6  2  0  0  0  0
  3  4  1  0  0  0  0
  3  5  2  0  0  0  0
  4  7  1  0  0  0  0
  5  6  1  0  0  0  0
  5 17  1  0  0  0  0
  6 20  1  0  0  0  0
  7 18  2  0  0  0  0
  7 21  1  0  0  0  0
  8 17  1  0  0  0  0
  8 19  2  0  0  0  0
  8 22  1  0  0  0  0
  9 10  1  0  0  0  0
  9 12  1  0  0  0  0
 10 12  1  0  0  0  0
 11 12  1  0  0  0  0
 11 17  1  0  0  0  0
 12 20  1  0  0  0  0
 13 16  1  0  0  0  0
 14 16  1  0  0  0  0
 15 16  1  0  0  0  0
 16 22  1  0  0  0  0
  1 23  1  0  0  0  0
  2 24  1  0  0  0  0
  3 25  1  0  0  0  0
  9 26  1  0  0  0  0
  9 27  1  0  0  0  0
 10 28  1  0  0  0  0
 10 29  1  0  0  0  0
 11 30  1  0  0  0  0
 11 31  1  0  0  0  0
 13 32  1  0  0  0  0
 13 33  1  0  0  0  0
 13 34  1  0  0  0  0
 14 35  1  0  0  0  0
 14 36  1  0  0  0  0
 14 37  1  0  0  0  0
 15 38  1  0  0  0  0
 15 39  1  0  0  0  0
 15 40  1  0  0  0  0
 21 41  1  0  0  0  0
M  END
> <id>
EN300-1129126

> <smiles>
CC(C)(C)OC(=O)N1CC2(CC2)OC=3C=CC(=CC13)C(=O)O

> <IUPAC Name>
4-[(tert-butoxy)carbonyl]-3,4-dihydrospiro[1,4-benzoxazine-2,1'-cyclopropane]-6-carboxylic acid

> <CAS>
2138001-51-9

> <URL>
https://www.enaminestore.com/catalog/EN300-1129126

> <ROCS_ShapeQuery>
A71EV2A-x0451_0A_A71EV2A-x0310_0A_A71EV2A-x0416_0A_peptide

> <ROCS_TanimotoCombo>
0.553 

> <ROCS_ShapeTanimoto>
0.374 

> <ROCS_ColorTanimoto>
0.179 

> <ROCS_RefTversky>
0.324 

> <ROCS_RefColorTversky>
0.198 

> <ROCS_RefTverskyCombo>
0.522 

> <ROCS_FitTversky>
1.709 

> <ROCS_FitColorTversky>
0.656 

> <ROCS_FitTverskyCombo>
2.364 

> <ROCS_ColorScore>
-6.034

> <ROCS_Overlap>
2250.507

> <ROCS_Rank>
10                  

$$$$
untitled-dbase-106687_207
  -OEChem-11132313473D

 45 47  0     1  0  0  0  0  0999 V2000
    5.9684   13.5582   25.9591 C   0  0  0  0  0  0  0  0  0  0  0  0
    4.9714   11.5199   26.5138 C   0  0  0  0  0  0  0  0  0  0  0  0
    4.0714   13.4879   27.2096 C   0  0  0  0  0  0  0  0  0  0  0  0
    5.9969   12.1814   25.8696 C   0  0  0  0  0  0  0  0  0  0  0  0
   10.1276   13.2460   23.3664 C   0  0  0  0  0  0  0  0  0  0  0  0
    8.7539    9.9559   22.9401 C   0  0  0  0  0  0  0  0  0  0  0  0
    9.5693    9.7870   24.2366 C   0  0  0  0  0  0  0  0  0  0  0  0
    7.1379   11.8320   23.5877 C   0  0  0  0  0  0  0  0  0  0  0  0
    8.5160   11.5609   25.7549 C   0  0  0  0  0  0  0  0  0  0  0  0
    8.4483   11.4548   22.8632 C   0  0  1  0  0  0  0  0  0  0  0  0
    9.6850   11.2015   24.8134 C   0  0  2  0  0  0  0  0  0  0  0  0
    7.0965   11.4344   25.1027 C   0  0  0  0  0  0  0  0  0  0  0  0
   12.1728   12.4341   21.5424 C   0  0  0  0  0  0  0  0  0  0  0  0
   11.1220   14.0512   19.9331 C   0  0  0  0  0  0  0  0  0  0  0  0
   12.0965   14.8893   22.0908 C   0  0  0  0  0  0  0  0  0  0  0  0
   11.3754   13.7302   21.4044 C   0  0  0  0  0  0  0  0  0  0  0  0
    5.0170   14.2466   26.6234 N   0  0  0  0  0  0  0  0  0  0  0  0
    3.9886   12.1438   27.1957 N   0  0  0  0  0  0  0  0  0  0  0  0
    9.5308   12.0295   23.6321 N   0  0  0  0  0  0  0  0  0  0  0  0
   10.6265   13.9723   24.2229 O   0  0  0  0  0  0  0  0  0  0  0  0
    6.7161   10.0486   25.1595 O   0  0  0  0  0  0  0  0  0  0  0  0
   10.1011   13.5502   22.0323 O   0  0  0  0  0  0  0  0  0  0  0  0
    6.7300   14.1706   25.4865 H   0  0  0  0  0  0  0  0  0  0  0  0
    4.9040   10.4365   26.5032 H   0  0  0  0  0  0  0  0  0  0  0  0
    3.2956   14.0154   27.7507 H   0  0  0  0  0  0  0  0  0  0  0  0
    9.3704    9.6515   22.0859 H   0  0  0  0  0  0  0  0  0  0  0  0
    7.8535    9.3342   22.9347 H   0  0  0  0  0  0  0  0  0  0  0  0
    9.1048    9.0781   24.9285 H   0  0  0  0  0  0  0  0  0  0  0  0
   10.5635    9.3986   23.9853 H   0  0  0  0  0  0  0  0  0  0  0  0
    7.0075   12.9193   23.4936 H   0  0  0  0  0  0  0  0  0  0  0  0
    6.2942   11.3682   23.0602 H   0  0  0  0  0  0  0  0  0  0  0  0
    8.5681   10.9211   26.6456 H   0  0  0  0  0  0  0  0  0  0  0  0
    8.6695   12.5933   26.0991 H   0  0  0  0  0  0  0  0  0  0  0  0
    8.4371   11.8281   21.8344 H   0  0  0  0  0  0  0  0  0  0  0  0
   10.6440   11.3667   25.3134 H   0  0  0  0  0  0  0  0  0  0  0  0
   12.3568   12.2002   22.5971 H   0  0  0  0  0  0  0  0  0  0  0  0
   11.6499   11.5881   21.0847 H   0  0  0  0  0  0  0  0  0  0  0  0
   13.1575   12.5288   21.0705 H   0  0  0  0  0  0  0  0  0  0  0  0
   10.5501   14.9804   19.8293 H   0  0  0  0  0  0  0  0  0  0  0  0
   10.5224   13.2653   19.4597 H   0  0  0  0  0  0  0  0  0  0  0  0
   12.0582   14.1563   19.3754 H   0  0  0  0  0  0  0  0  0  0  0  0
   11.5247   15.8191   21.9920 H   0  0  0  0  0  0  0  0  0  0  0  0
   12.2540   14.6921   23.1562 H   0  0  0  0  0  0  0  0  0  0  0  0
   13.0703   15.0741   21.6232 H   0  0  0  0  0  0  0  0  0  0  0  0
    6.6831    9.8119   26.0987 H   0  0  0  0  0  0  0  0  0  0  0  0
  1  4  2  0  0  0  0
  1 17  1  0  0  0  0
  2  4  1  0  0  0  0
  2 18  2  0  0  0  0
  3 17  2  0  0  0  0
  3 18  1  0  0  0  0
  4 12  1  0  0  0  0
  5 19  1  0  0  0  0
  5 20  2  0  0  0  0
  5 22  1  0  0  0  0
  6  7  1  0  0  0  0
  6 10  1  0  0  0  0
  7 11  1  0  0  0  0
  8 10  1  0  0  0  0
  8 12  1  0  0  0  0
  9 11  1  0  0  0  0
  9 12  1  0  0  0  0
 10 19  1  0  0  0  0
 11 19  1  0  0  0  0
 12 21  1  0  0  0  0
 13 16  1  0  0  0  0
 14 16  1  0  0  0  0
 15 16  1  0  0  0  0
 16 22  1  0  0  0  0
  1 23  1  0  0  0  0
  2 24  1  0  0  0  0
  3 25  1  0  0  0  0
  6 26  1  0  0  0  0
  6 27  1  0  0  0  0
  7 28  1  0  0  0  0
  7 29  1  0  0  0  0
  8 30  1  0  0  0  0
  8 31  1  0  0  0  0
  9 32  1  0  0  0  0
  9 33  1  0  0  0  0
 10 34  1  0  0  0  0
 11 35  1  0  0  0  0
 13 36  1  0  0  0  0
 13 37  1  0  0  0  0
 13 38  1  0  0  0  0
 14 39  1  0  0  0  0
 14 40  1  0  0  0  0
 14 41  1  0  0  0  0
 15 42  1  0  0  0  0
 15 43  1  0  0  0  0
 15 44  1  0  0  0  0
 21 45  1  0  0  0  0
M  END
> <id>
EN300-26665881

> <smiles>
CC(C)(C)OC(=O)N1C2CCC1CC(O)(C2)C=3C=NC=NC3

> <IUPAC Name>
tert-butyl 3-hydroxy-3-(pyrimidin-5-yl)-8-azabicyclo[3.2.1]octane-8-carboxylate

> <CAS>
2649054-86-2

> <URL>
https://www.enaminestore.com/catalog/EN300-26665881

> <ROCS_ShapeQuery>
A71EV2A-x0451_0A_A71EV2A-x0310_0A_A71EV2A-x0416_0A_peptide

> <ROCS_TanimotoCombo>
0.552 

> <ROCS_ShapeTanimoto>
0.320 

> <ROCS_ColorTanimoto>
0.232 

> <ROCS_RefTversky>
0.288 

> <ROCS_RefColorTversky>
0.272 

> <ROCS_RefTverskyCombo>
0.561 

> <ROCS_FitTversky>
1.525 

> <ROCS_FitColorTversky>
0.609 

> <ROCS_FitTverskyCombo>
2.133 

> <ROCS_ColorScore>
-8.369

> <ROCS_Overlap>
2003.903

> <ROCS_Rank>
11                  

$$$$
untitled-dbase-164059_1308
  -OEChem-11132313473D

 42 44  0     0  0  0  0  0  0999 V2000
    6.8113   12.8519   26.1157 C   0  0  0  0  0  0  0  0  0  0  0  0
    6.3549   11.5568   26.3326 C   0  0  0  0  0  0  0  0  0  0  0  0
    7.8341   13.0974   25.1921 C   0  0  0  0  0  0  0  0  0  0  0  0
    6.9132   10.5038   25.6175 C   0  0  0  0  0  0  0  0  0  0  0  0
    8.4332   12.0488   24.4781 C   0  0  0  0  0  0  0  0  0  0  0  0
    7.9400   10.7476   24.6984 C   0  0  0  0  0  0  0  0  0  0  0  0
   10.2726   13.3956   23.3556 C   0  0  0  0  0  0  0  0  0  0  0  0
   10.2399    8.6255   22.6852 C   0  0  0  0  0  0  0  0  0  0  0  0
   10.8781    9.2655   23.8852 C   0  0  0  0  0  0  0  0  0  0  0  0
    9.6629   11.1471   22.5603 C   0  0  0  0  0  0  0  0  0  0  0  0
    9.6200    9.8537   23.2988 C   0  0  0  0  0  0  0  0  0  0  0  0
   12.9695   13.5898   22.4069 C   0  0  0  0  0  0  0  0  0  0  0  0
   11.9716   14.6246   20.3472 C   0  0  0  0  0  0  0  0  0  0  0  0
   11.7034   15.7588   22.5720 C   0  0  0  0  0  0  0  0  0  0  0  0
    6.3906    9.1224   25.8468 C   0  0  0  0  0  0  0  0  0  0  0  0
   11.8102   14.4157   21.8513 C   0  0  0  0  0  0  0  0  0  0  0  0
    9.4681   12.2509   23.5032 N   0  0  0  0  0  0  0  0  0  0  0  0
   10.6074   14.1168   24.2960 O   0  0  0  0  0  0  0  0  0  0  0  0
    8.4070    9.6339   24.0383 O   0  0  0  0  0  0  0  0  0  0  0  0
    6.5261    8.3646   24.6521 O   0  0  0  0  0  0  0  0  0  0  0  0
   10.5927   13.6891   22.0580 O   0  0  0  0  0  0  0  0  0  0  0  0
    6.3790   13.6775   26.6735 H   0  0  0  0  0  0  0  0  0  0  0  0
    5.5691   11.3792   27.0622 H   0  0  0  0  0  0  0  0  0  0  0  0
    8.1428   14.1291   25.0904 H   0  0  0  0  0  0  0  0  0  0  0  0
   10.7469    8.7228   21.7325 H   0  0  0  0  0  0  0  0  0  0  0  0
    9.7412    7.6739   22.8274 H   0  0  0  0  0  0  0  0  0  0  0  0
   10.8068    8.7432   24.8313 H   0  0  0  0  0  0  0  0  0  0  0  0
   11.8134    9.7909   23.7363 H   0  0  0  0  0  0  0  0  0  0  0  0
   10.6362   11.2862   22.0846 H   0  0  0  0  0  0  0  0  0  0  0  0
    8.9008   11.1637   21.7806 H   0  0  0  0  0  0  0  0  0  0  0  0
   12.8574   13.4376   23.4864 H   0  0  0  0  0  0  0  0  0  0  0  0
   13.0354   12.6101   21.9226 H   0  0  0  0  0  0  0  0  0  0  0  0
   13.9235   14.1106   22.2657 H   0  0  0  0  0  0  0  0  0  0  0  0
   11.1419   15.2167   19.9443 H   0  0  0  0  0  0  0  0  0  0  0  0
   11.9534   13.6662   19.8158 H   0  0  0  0  0  0  0  0  0  0  0  0
   12.9100   15.1355   20.1087 H   0  0  0  0  0  0  0  0  0  0  0  0
   10.8719   16.3514   22.1737 H   0  0  0  0  0  0  0  0  0  0  0  0
   11.5502   15.6280   23.6482 H   0  0  0  0  0  0  0  0  0  0  0  0
   12.6097   16.3560   22.4193 H   0  0  0  0  0  0  0  0  0  0  0  0
    6.9420    8.6171   26.6499 H   0  0  0  0  0  0  0  0  0  0  0  0
    5.3319    9.1452   26.1348 H   0  0  0  0  0  0  0  0  0  0  0  0
    6.1774    7.4785   24.8412 H   0  0  0  0  0  0  0  0  0  0  0  0
  1  2  2  0  0  0  0
  1  3  1  0  0  0  0
  2  4  1  0  0  0  0
  3  5  2  0  0  0  0
  4  6  2  0  0  0  0
  4 15  1  0  0  0  0
  5  6  1  0  0  0  0
  5 17  1  0  0  0  0
  6 19  1  0  0  0  0
  7 17  1  0  0  0  0
  7 18  2  0  0  0  0
  7 21  1  0  0  0  0
  8  9  1  0  0  0  0
  8 11  1  0  0  0  0
  9 11  1  0  0  0  0
 10 11  1  0  0  0  0
 10 17  1  0  0  0  0
 11 19  1  0  0  0  0
 12 16  1  0  0  0  0
 13 16  1  0  0  0  0
 14 16  1  0  0  0  0
 15 20  1  0  0  0  0
 16 21  1  0  0  0  0
  1 22  1  0  0  0  0
  2 23  1  0  0  0  0
  3 24  1  0  0  0  0
  8 25  1  0  0  0  0
  8 26  1  0  0  0  0
  9 27  1  0  0  0  0
  9 28  1  0  0  0  0
 10 29  1  0  0  0  0
 10 30  1  0  0  0  0
 12 31  1  0  0  0  0
 12 32  1  0  0  0  0
 12 33  1  0  0  0  0
 13 34  1  0  0  0  0
 13 35  1  0  0  0  0
 13 36  1  0  0  0  0
 14 37  1  0  0  0  0
 14 38  1  0  0  0  0
 14 39  1  0  0  0  0
 15 40  1  0  0  0  0
 15 41  1  0  0  0  0
 20 42  1  0  0  0  0
M  END
> <id>
EN300-1129134

> <smiles>
CC(C)(C)OC(=O)N1CC2(CC2)OC=3C(CO)=CC=CC13

> <IUPAC Name>
tert-butyl 8-(hydroxymethyl)-3,4-dihydrospiro[1,4-benzoxazine-2,1'-cyclopropane]-4-carboxylate

> <CAS>
2137875-53-5

> <URL>
https://www.enaminestore.com/catalog/EN300-1129134

> <ROCS_ShapeQuery>
A71EV2A-x0451_0A_A71EV2A-x0310_0A_A71EV2A-x0416_0A_peptide

> <ROCS_TanimotoCombo>
0.551 

> <ROCS_ShapeTanimoto>
0.374 

> <ROCS_ColorTanimoto>
0.178 

> <ROCS_RefTversky>
0.322 

> <ROCS_RefColorTversky>
0.192 

> <ROCS_RefTverskyCombo>
0.513 

> <ROCS_FitTversky>
1.763 

> <ROCS_FitColorTversky>
0.708 

> <ROCS_FitTverskyCombo>
2.472 

> <ROCS_ColorScore>
-5.838

> <ROCS_Overlap>
2233.927

> <ROCS_Rank>
12                  

$$$$
untitled-dbase-144783_27
  -OEChem-11132313473D

 45 47  0     1  0  0  0  0  0999 V2000
    5.6201   13.4830   25.5219 C   0  0  0  0  0  0  0  0  0  0  0  0
    5.3139   11.5936   26.8608 C   0  0  0  0  0  0  0  0  0  0  0  0
    4.0975   13.4818   27.2097 C   0  0  0  0  0  0  0  0  0  0  0  0
    5.9831   12.1826   25.8075 C   0  0  0  0  0  0  0  0  0  0  0  0
   10.2289   13.2133   23.4946 C   0  0  0  0  0  0  0  0  0  0  0  0
    8.7336    9.9926   22.8404 C   0  0  0  0  0  0  0  0  0  0  0  0
    9.5160    9.7542   24.1464 C   0  0  0  0  0  0  0  0  0  0  0  0
    7.1612   11.9001   23.5107 C   0  0  0  0  0  0  0  0  0  0  0  0
    8.4613   11.4895   25.7042 C   0  0  0  0  0  0  0  0  0  0  0  0
    8.4765   11.5024   22.8080 C   0  0  1  0  0  0  0  0  0  0  0  0
    9.6491   11.1418   24.7808 C   0  0  2  0  0  0  0  0  0  0  0  0
    7.0599   11.4392   25.0053 C   0  0  0  0  0  0  0  0  0  0  0  0
   12.4095   14.7220   22.4286 C   0  0  0  0  0  0  0  0  0  0  0  0
   10.9187   15.1288   20.4484 C   0  0  0  0  0  0  0  0  0  0  0  0
   10.2427   15.9696   22.7165 C   0  0  0  0  0  0  0  0  0  0  0  0
   10.9647   14.8615   21.9513 C   0  0  0  0  0  0  0  0  0  0  0  0
    4.6779   14.1654   26.2051 N   0  0  0  0  0  0  0  0  0  0  0  0
    4.3621   12.2163   27.5864 N   0  0  0  0  0  0  0  0  0  0  0  0
    9.5544   12.0163   23.6320 N   0  0  0  0  0  0  0  0  0  0  0  0
   10.7208   13.8401   24.4301 O   0  0  0  0  0  0  0  0  0  0  0  0
    6.6431   10.0627   25.0063 O   0  0  0  0  0  0  0  0  0  0  0  0
   10.2844   13.6245   22.1904 O   0  0  0  0  0  0  0  0  0  0  0  0
    6.0871   14.0347   24.7120 H   0  0  0  0  0  0  0  0  0  0  0  0
    5.5267   10.5735   27.1651 H   0  0  0  0  0  0  0  0  0  0  0  0
    3.3377   14.0068   27.7756 H   0  0  0  0  0  0  0  0  0  0  0  0
    9.3589    9.6978   21.9892 H   0  0  0  0  0  0  0  0  0  0  0  0
    7.8151    9.3998   22.7941 H   0  0  0  0  0  0  0  0  0  0  0  0
    9.0186    9.0303   24.7988 H   0  0  0  0  0  0  0  0  0  0  0  0
   10.5068    9.3527   23.9025 H   0  0  0  0  0  0  0  0  0  0  0  0
    7.0720   12.9942   23.4592 H   0  0  0  0  0  0  0  0  0  0  0  0
    6.3164   11.4886   22.9425 H   0  0  0  0  0  0  0  0  0  0  0  0
    8.4705   10.8088   26.5653 H   0  0  0  0  0  0  0  0  0  0  0  0
    8.6337   12.5000   26.1008 H   0  0  0  0  0  0  0  0  0  0  0  0
    8.5040   11.9047   21.7909 H   0  0  0  0  0  0  0  0  0  0  0  0
   10.5969   11.2703   25.3129 H   0  0  0  0  0  0  0  0  0  0  0  0
   12.4469   14.5301   23.5069 H   0  0  0  0  0  0  0  0  0  0  0  0
   12.9281   13.9076   21.9122 H   0  0  0  0  0  0  0  0  0  0  0  0
   12.9683   15.6498   22.2602 H   0  0  0  0  0  0  0  0  0  0  0  0
    9.8839   15.2296   20.1016 H   0  0  0  0  0  0  0  0  0  0  0  0
   11.3513   14.2910   19.8895 H   0  0  0  0  0  0  0  0  0  0  0  0
   11.4635   16.0406   20.1833 H   0  0  0  0  0  0  0  0  0  0  0  0
    9.2063   16.0699   22.3743 H   0  0  0  0  0  0  0  0  0  0  0  0
   10.2336   15.7758   23.7939 H   0  0  0  0  0  0  0  0  0  0  0  0
   10.7214   16.9399   22.5412 H   0  0  0  0  0  0  0  0  0  0  0  0
    5.7725   10.0399   24.5813 H   0  0  0  0  0  0  0  0  0  0  0  0
  1  4  2  0  0  0  0
  1 17  1  0  0  0  0
  2  4  1  0  0  0  0
  2 18  2  0  0  0  0
  3 17  2  0  0  0  0
  3 18  1  0  0  0  0
  4 12  1  0  0  0  0
  5 19  1  0  0  0  0
  5 20  2  0  0  0  0
  5 22  1  0  0  0  0
  6  7  1  0  0  0  0
  6 10  1  1  0  0  0
  7 11  1  1  0  0  0
  8 10  1  0  0  0  0
  8 12  1  0  0  0  0
  9 11  1  0  0  0  0
  9 12  1  0  0  0  0
 10 19  1  0  0  0  0
 11 19  1  0  0  0  0
 12 21  1  1  0  0  0
 13 16  1  0  0  0  0
 14 16  1  0  0  0  0
 15 16  1  0  0  0  0
 16 22  1  0  0  0  0
  1 23  1  0  0  0  0
  2 24  1  0  0  0  0
  3 25  1  0  0  0  0
  6 26  1  0  0  0  0
  6 27  1  0  0  0  0
  7 28  1  0  0  0  0
  7 29  1  0  0  0  0
  8 30  1  0  0  0  0
  8 31  1  0  0  0  0
  9 32  1  0  0  0  0
  9 33  1  0  0  0  0
 10 34  1  0  0  0  0
 11 35  1  0  0  0  0
 13 36  1  0  0  0  0
 13 37  1  0  0  0  0
 13 38  1  0  0  0  0
 14 39  1  0  0  0  0
 14 40  1  0  0  0  0
 14 41  1  0  0  0  0
 15 42  1  0  0  0  0
 15 43  1  0  0  0  0
 15 44  1  0  0  0  0
 21 45  1  0  0  0  0
M  END
> <id>
EN300-27718505

> <smiles>
CC(C)(C)OC(=O)N1[C@H]2CC[C@@H]1C[C@](O)(C2)C=3C=NC=NC3

> <IUPAC Name>
tert-butyl (1R,3R,5S)-3-hydroxy-3-(pyrimidin-5-yl)-8-azabicyclo[3.2.1]octane-8-carboxylate

> <CAS>
1346014-59-2

> <URL>
https://www.enaminestore.com/catalog/EN300-27718505

> <ROCS_ShapeQuery>
A71EV2A-x0451_0A_A71EV2A-x0310_0A_A71EV2A-x0416_0A_peptide

> <ROCS_TanimotoCombo>
0.551 

> <ROCS_ShapeTanimoto>
0.331 

> <ROCS_ColorTanimoto>
0.220 

> <ROCS_RefTversky>
0.296 

> <ROCS_RefColorTversky>
0.261 

> <ROCS_RefTverskyCombo>
0.557 

> <ROCS_FitTversky>
1.562 

> <ROCS_FitColorTversky>
0.584 

> <ROCS_FitTverskyCombo>
2.146 

> <ROCS_ColorScore>
-8.027

> <ROCS_Overlap>
2053.363

> <ROCS_Rank>
13                  

$$$$
untitled-dbase-154795_7
  -OEChem-11132313473D

 27 28  0     0  0  0  0  0  0999 V2000
    6.8735   12.9124   26.2056 C   0  0  0  0  0  0  0  0  0  0  0  0
    7.9298   13.0682   25.2998 C   0  0  0  0  0  0  0  0  0  0  0  0
    6.7202   10.5859   25.6364 C   0  0  0  0  0  0  0  0  0  0  0  0
    6.2687   11.6733   26.3741 C   0  0  0  0  0  0  0  0  0  0  0  0
    8.4136   11.9834   24.5510 C   0  0  0  0  0  0  0  0  0  0  0  0
    7.7866   10.7356   24.7404 C   0  0  0  0  0  0  0  0  0  0  0  0
    5.1664   11.5174   27.3090 C   0  0  0  0  0  0  0  0  0  0  0  0
   10.2539   13.2640   23.4275 C   0  0  0  0  0  0  0  0  0  0  0  0
    9.6521   10.9317   22.7183 C   0  0  0  0  0  0  0  0  0  0  0  0
    9.4258    9.6584   23.4931 C   0  0  0  0  0  0  0  0  0  0  0  0
   10.7718   13.5336   22.0319 C   0  0  0  0  0  0  0  0  0  0  0  0
    9.4683   12.1090   23.5769 N   0  0  0  0  0  0  0  0  0  0  0  0
    4.0882   12.1186   27.2524 O   0  0  0  0  0  0  0  0  0  0  0  0
   10.5661   14.0517   24.3224 O   0  0  0  0  0  0  0  0  0  0  0  0
    8.1373    9.5881   24.0743 O   0  0  0  0  0  0  0  0  0  0  0  0
    5.4390   10.6133   28.2899 O   0  0  0  0  0  0  0  0  0  0  0  0
    9.5569    8.5942   22.6613 F   0  0  0  0  0  0  0  0  0  0  0  0
   10.3583    9.5090   24.4662 F   0  0  0  0  0  0  0  0  0  0  0  0
   10.3582   12.5750   21.1867 F   0  0  0  0  0  0  0  0  0  0  0  0
   10.3223   14.7180   21.5854 F   0  0  0  0  0  0  0  0  0  0  0  0
   12.1149   13.5578   22.0238 F   0  0  0  0  0  0  0  0  0  0  0  0
    6.5248   13.7778   26.7643 H   0  0  0  0  0  0  0  0  0  0  0  0
    8.3184   14.0737   25.1892 H   0  0  0  0  0  0  0  0  0  0  0  0
    6.2502    9.6122   25.7584 H   0  0  0  0  0  0  0  0  0  0  0  0
   10.6607   10.9092   22.2982 H   0  0  0  0  0  0  0  0  0  0  0  0
    8.9416   11.0190   21.8877 H   0  0  0  0  0  0  0  0  0  0  0  0
    4.7006   10.5002   28.9258 H   0  0  0  0  0  0  0  0  0  0  0  0
  1  2  1  0  0  0  0
  1  4  2  0  0  0  0
  2  5  2  0  0  0  0
  3  4  1  0  0  0  0
  3  6  2  0  0  0  0
  4  7  1  0  0  0  0
  5  6  1  0  0  0  0
  5 12  1  0  0  0  0
  6 15  1  0  0  0  0
  7 13  2  0  0  0  0
  7 16  1  0  0  0  0
  8 11  1  0  0  0  0
  8 12  1  0  0  0  0
  8 14  2  0  0  0  0
  9 10  1  0  0  0  0
  9 12  1  0  0  0  0
 10 15  1  0  0  0  0
 10 17  1  0  0  0  0
 10 18  1  0  0  0  0
 11 19  1  0  0  0  0
 11 20  1  0  0  0  0
 11 21  1  0  0  0  0
  1 22  1  0  0  0  0
  2 23  1  0  0  0  0
  3 24  1  0  0  0  0
  9 25  1  0  0  0  0
  9 26  1  0  0  0  0
 16 27  1  0  0  0  0
M  END
> <id>
EN300-28292158

> <smiles>
OC(=O)C=1C=CC=2N(CC(F)(F)OC2C1)C(=O)C(F)(F)F

> <IUPAC Name>
2,2-difluoro-4-(2,2,2-trifluoroacetyl)-3,4-dihydro-2H-1,4-benzoxazine-7-carboxylic acid

> <CAS>
2680693-25-6

> <URL>
https://www.enaminestore.com/catalog/EN300-28292158

> <ROCS_ShapeQuery>
A71EV2A-x0451_0A_A71EV2A-x0310_0A_A71EV2A-x0416_0A_peptide

> <ROCS_TanimotoCombo>
0.551 

> <ROCS_ShapeTanimoto>
0.366 

> <ROCS_ColorTanimoto>
0.185 

> <ROCS_RefTversky>
0.318 

> <ROCS_RefColorTversky>
0.198 

> <ROCS_RefTverskyCombo>
0.516 

> <ROCS_FitTversky>
1.699 

> <ROCS_FitColorTversky>
0.731 

> <ROCS_FitTverskyCombo>
2.430 

> <ROCS_ColorScore>
-6.035

> <ROCS_Overlap>
2208.827

> <ROCS_Rank>
14                  

$$$$
untitled-dbase-132483_29
  -OEChem-11132313473D

 39 41  0     0  0  0  0  0  0999 V2000
    6.7230   13.0452   25.9292 C   0  0  0  0  0  0  0  0  0  0  0  0
    6.1130   11.8078   26.0932 C   0  0  0  0  0  0  0  0  0  0  0  0
    7.8507   13.1535   25.1205 C   0  0  0  0  0  0  0  0  0  0  0  0
    6.6317   10.6820   25.4486 C   0  0  0  0  0  0  0  0  0  0  0  0
    9.9965   10.9648   23.0262 C   0  0  0  0  0  0  0  0  0  0  0  0
    8.3722   12.0210   24.4723 C   0  0  0  0  0  0  0  0  0  0  0  0
    9.5061   12.1015   23.6526 C   0  0  0  0  0  0  0  0  0  0  0  0
    7.7580   10.7615   24.6341 C   0  0  0  0  0  0  0  0  0  0  0  0
    9.3283    9.7772   23.2447 C   0  0  0  0  0  0  0  0  0  0  0  0
   10.2217   13.3599   23.4135 C   0  0  0  0  0  0  0  0  0  0  0  0
    8.2171   14.6160   20.9808 C   0  0  0  0  0  0  0  0  0  0  0  0
    8.5685   16.0180   21.4830 C   0  0  0  0  0  0  0  0  0  0  0  0
    9.3256   13.5650   21.0473 C   0  0  0  0  0  0  0  0  0  0  0  0
   10.9711   16.2085   21.7946 C   0  0  0  0  0  0  0  0  0  0  0  0
   11.3937   14.7412   21.7392 C   0  0  0  0  0  0  0  0  0  0  0  0
    9.8208    8.5285   22.5927 C   0  0  0  0  0  0  0  0  0  0  0  0
    8.2317    9.6567   24.0276 N   0  0  0  0  0  0  0  0  0  0  0  0
    9.8240   16.5429   20.9430 N   0  0  0  0  0  0  0  0  0  0  0  0
   10.3152   13.8206   22.0963 N   0  0  0  0  0  0  0  0  0  0  0  0
   10.6826   13.9223   24.4054 O   0  0  0  0  0  0  0  0  0  0  0  0
    6.3239   13.9221   26.4297 H   0  0  0  0  0  0  0  0  0  0  0  0
    5.2318   11.7152   26.7215 H   0  0  0  0  0  0  0  0  0  0  0  0
    8.3088   14.1335   25.0110 H   0  0  0  0  0  0  0  0  0  0  0  0
    6.1359    9.7239   25.5943 H   0  0  0  0  0  0  0  0  0  0  0  0
   10.8729   11.0051   22.3869 H   0  0  0  0  0  0  0  0  0  0  0  0
    7.3622   14.2508   21.5813 H   0  0  0  0  0  0  0  0  0  0  0  0
    7.8275   14.6781   19.9455 H   0  0  0  0  0  0  0  0  0  0  0  0
    7.7679   16.6966   21.1798 H   0  0  0  0  0  0  0  0  0  0  0  0
    8.5862   16.0356   22.5752 H   0  0  0  0  0  0  0  0  0  0  0  0
    8.9191   12.5451   21.1757 H   0  0  0  0  0  0  0  0  0  0  0  0
    9.8430   13.5517   20.0710 H   0  0  0  0  0  0  0  0  0  0  0  0
   10.8107   16.5358   22.8358 H   0  0  0  0  0  0  0  0  0  0  0  0
   11.8232   16.8126   21.4438 H   0  0  0  0  0  0  0  0  0  0  0  0
   11.7429   14.5156   20.7398 H   0  0  0  0  0  0  0  0  0  0  0  0
   12.2048   14.5723   22.4375 H   0  0  0  0  0  0  0  0  0  0  0  0
   10.5467    8.0216   23.2396 H   0  0  0  0  0  0  0  0  0  0  0  0
    8.9951    7.8359   22.3855 H   0  0  0  0  0  0  0  0  0  0  0  0
   10.3029    8.7458   21.6309 H   0  0  0  0  0  0  0  0  0  0  0  0
    9.9746   16.1920   19.9986 H   0  0  0  0  0  0  0  0  0  0  0  0
  1  2  1  0  0  0  0
  1  3  2  0  0  0  0
  2  4  2  0  0  0  0
  3  6  1  0  0  0  0
  4  8  1  0  0  0  0
  5  7  1  0  0  0  0
  5  9  2  0  0  0  0
  6  7  2  0  0  0  0
  6  8  1  0  0  0  0
  7 10  1  0  0  0  0
  8 17  2  0  0  0  0
  9 16  1  0  0  0  0
  9 17  1  0  0  0  0
 10 19  1  0  0  0  0
 10 20  2  0  0  0  0
 11 12  1  0  0  0  0
 11 13  1  0  0  0  0
 12 18  1  0  0  0  0
 13 19  1  0  0  0  0
 14 15  1  0  0  0  0
 14 18  1  0  0  0  0
 15 19  1  0  0  0  0
  1 21  1  0  0  0  0
  2 22  1  0  0  0  0
  3 23  1  0  0  0  0
  4 24  1  0  0  0  0
  5 25  1  0  0  0  0
 11 26  1  0  0  0  0
 11 27  1  0  0  0  0
 12 28  1  0  0  0  0
 12 29  1  0  0  0  0
 13 30  1  0  0  0  0
 13 31  1  0  0  0  0
 14 32  1  0  0  0  0
 14 33  1  0  0  0  0
 15 34  1  0  0  0  0
 15 35  1  0  0  0  0
 16 36  1  0  0  0  0
 16 37  1  0  0  0  0
 16 38  1  0  0  0  0
 18 39  1  0  0  0  0
M  END
> <id>
EN300-26861329

> <smiles>
Cl.CC=1C=C(C(=O)N2CCCNCC2)C=3C=CC=CC3N1

> <MDLNUMBER>
MFCD32679666

> <IUPAC Name>
4-(1,4-diazepane-1-carbonyl)-2-methylquinoline hydrochloride

> <CAS>
2418715-49-6

> <Purity>
91

> <URL>
https://www.enaminestore.com/catalog/EN300-26861329

> <Saltdate>
Cl

> <ROCS_ShapeQuery>
A71EV2A-x0451_0A_A71EV2A-x0310_0A_A71EV2A-x0416_0A_peptide

> <ROCS_TanimotoCombo>
0.550 

> <ROCS_ShapeTanimoto>
0.330 

> <ROCS_ColorTanimoto>
0.220 

> <ROCS_RefTversky>
0.292 

> <ROCS_RefColorTversky>
0.229 

> <ROCS_RefTverskyCombo>
0.521 

> <ROCS_FitTversky>
1.657 

> <ROCS_FitColorTversky>
0.846 

> <ROCS_FitTverskyCombo>
2.503 

> <ROCS_ColorScore>
-6.973

> <ROCS_Overlap>
2027.868

> <ROCS_Rank>
15                  

$$$$
untitled-dbase-105249_29
  -OEChem-11132313473D

 39 41  0     0  0  0  0  0  0999 V2000
    6.7230   13.0452   25.9292 C   0  0  0  0  0  0  0  0  0  0  0  0
    6.1130   11.8078   26.0932 C   0  0  0  0  0  0  0  0  0  0  0  0
    7.8507   13.1535   25.1205 C   0  0  0  0  0  0  0  0  0  0  0  0
    6.6317   10.6820   25.4486 C   0  0  0  0  0  0  0  0  0  0  0  0
    9.9965   10.9648   23.0262 C   0  0  0  0  0  0  0  0  0  0  0  0
    8.3722   12.0210   24.4723 C   0  0  0  0  0  0  0  0  0  0  0  0
    9.5061   12.1015   23.6526 C   0  0  0  0  0  0  0  0  0  0  0  0
    7.7580   10.7615   24.6341 C   0  0  0  0  0  0  0  0  0  0  0  0
    9.3283    9.7772   23.2447 C   0  0  0  0  0  0  0  0  0  0  0  0
   10.2217   13.3599   23.4135 C   0  0  0  0  0  0  0  0  0  0  0  0
    8.2171   14.6160   20.9808 C   0  0  0  0  0  0  0  0  0  0  0  0
    8.5685   16.0180   21.4830 C   0  0  0  0  0  0  0  0  0  0  0  0
    9.3256   13.5650   21.0473 C   0  0  0  0  0  0  0  0  0  0  0  0
   10.9711   16.2085   21.7946 C   0  0  0  0  0  0  0  0  0  0  0  0
   11.3937   14.7412   21.7392 C   0  0  0  0  0  0  0  0  0  0  0  0
    9.8208    8.5285   22.5927 C   0  0  0  0  0  0  0  0  0  0  0  0
    8.2317    9.6567   24.0276 N   0  0  0  0  0  0  0  0  0  0  0  0
    9.8240   16.5429   20.9430 N   0  0  0  0  0  0  0  0  0  0  0  0
   10.3152   13.8206   22.0963 N   0  0  0  0  0  0  0  0  0  0  0  0
   10.6826   13.9223   24.4054 O   0  0  0  0  0  0  0  0  0  0  0  0
    6.3239   13.9221   26.4297 H   0  0  0  0  0  0  0  0  0  0  0  0
    5.2318   11.7152   26.7215 H   0  0  0  0  0  0  0  0  0  0  0  0
    8.3088   14.1335   25.0110 H   0  0  0  0  0  0  0  0  0  0  0  0
    6.1359    9.7239   25.5943 H   0  0  0  0  0  0  0  0  0  0  0  0
   10.8729   11.0051   22.3869 H   0  0  0  0  0  0  0  0  0  0  0  0
    7.3622   14.2508   21.5813 H   0  0  0  0  0  0  0  0  0  0  0  0
    7.8275   14.6781   19.9455 H   0  0  0  0  0  0  0  0  0  0  0  0
    7.7679   16.6966   21.1798 H   0  0  0  0  0  0  0  0  0  0  0  0
    8.5862   16.0356   22.5752 H   0  0  0  0  0  0  0  0  0  0  0  0
    8.9191   12.5451   21.1757 H   0  0  0  0  0  0  0  0  0  0  0  0
    9.8430   13.5517   20.0710 H   0  0  0  0  0  0  0  0  0  0  0  0
   10.8107   16.5358   22.8358 H   0  0  0  0  0  0  0  0  0  0  0  0
   11.8232   16.8126   21.4438 H   0  0  0  0  0  0  0  0  0  0  0  0
   11.7429   14.5156   20.7398 H   0  0  0  0  0  0  0  0  0  0  0  0
   12.2048   14.5723   22.4375 H   0  0  0  0  0  0  0  0  0  0  0  0
   10.5467    8.0216   23.2396 H   0  0  0  0  0  0  0  0  0  0  0  0
    8.9951    7.8359   22.3855 H   0  0  0  0  0  0  0  0  0  0  0  0
   10.3029    8.7458   21.6309 H   0  0  0  0  0  0  0  0  0  0  0  0
    9.9746   16.1920   19.9986 H   0  0  0  0  0  0  0  0  0  0  0  0
  1  2  1  0  0  0  0
  1  3  2  0  0  0  0
  2  4  2  0  0  0  0
  3  6  1  0  0  0  0
  4  8  1  0  0  0  0
  5  7  1  0  0  0  0
  5  9  2  0  0  0  0
  6  7  2  0  0  0  0
  6  8  1  0  0  0  0
  7 10  1  0  0  0  0
  8 17  2  0  0  0  0
  9 16  1  0  0  0  0
  9 17  1  0  0  0  0
 10 19  1  0  0  0  0
 10 20  2  0  0  0  0
 11 12  1  0  0  0  0
 11 13  1  0  0  0  0
 12 18  1  0  0  0  0
 13 19  1  0  0  0  0
 14 15  1  0  0  0  0
 14 18  1  0  0  0  0
 15 19  1  0  0  0  0
  1 21  1  0  0  0  0
  2 22  1  0  0  0  0
  3 23  1  0  0  0  0
  4 24  1  0  0  0  0
  5 25  1  0  0  0  0
 11 26  1  0  0  0  0
 11 27  1  0  0  0  0
 12 28  1  0  0  0  0
 12 29  1  0  0  0  0
 13 30  1  0  0  0  0
 13 31  1  0  0  0  0
 14 32  1  0  0  0  0
 14 33  1  0  0  0  0
 15 34  1  0  0  0  0
 15 35  1  0  0  0  0
 16 36  1  0  0  0  0
 16 37  1  0  0  0  0
 16 38  1  0  0  0  0
 18 39  1  0  0  0  0
M  END
> <id>
EN300-17933970

> <smiles>
CC=1C=C(C(=O)N2CCCNCC2)C=3C=CC=CC3N1

> <MDLNUMBER>
MFCD09939024

> <IUPAC Name>
4-(1,4-diazepane-1-carbonyl)-2-methylquinoline

> <CAS>
1832992-74-1

> <URL>
https://www.enaminestore.com/catalog/EN300-17933970

> <ROCS_ShapeQuery>
A71EV2A-x0451_0A_A71EV2A-x0310_0A_A71EV2A-x0416_0A_peptide

> <ROCS_TanimotoCombo>
0.550 

> <ROCS_ShapeTanimoto>
0.330 

> <ROCS_ColorTanimoto>
0.220 

> <ROCS_RefTversky>
0.292 

> <ROCS_RefColorTversky>
0.229 

> <ROCS_RefTverskyCombo>
0.521 

> <ROCS_FitTversky>
1.657 

> <ROCS_FitColorTversky>
0.846 

> <ROCS_FitTverskyCombo>
2.503 

> <ROCS_ColorScore>
-6.973

> <ROCS_Overlap>
2027.868

> <ROCS_Rank>
16                  

$$$$
untitled-dbase-154859_17
  -OEChem-11132313473D

 33 34  0     0  0  0  0  0  0999 V2000
    9.9800    9.1578   22.4630 C   0  0  0  0  0  0  0  0  0  0  0  0
    7.9670   13.0214   24.9614 C   0  0  0  0  0  0  0  0  0  0  0  0
    6.9218   12.9797   25.8943 C   0  0  0  0  0  0  0  0  0  0  0  0
    6.7105   10.5648   25.6560 C   0  0  0  0  0  0  0  0  0  0  0  0
    9.2730   10.0839   23.2640 C   0  0  0  0  0  0  0  0  0  0  0  0
    8.3894   11.8191   24.3677 C   0  0  0  0  0  0  0  0  0  0  0  0
    9.3745   11.4475   23.4151 C   0  0  0  0  0  0  0  0  0  0  0  0
    7.7514   10.6379   24.7322 C   0  0  0  0  0  0  0  0  0  0  0  0
    6.3065   11.7721   26.2338 C   0  0  0  0  0  0  0  0  0  0  0  0
   10.8415   13.4748   23.1937 C   0  0  0  0  0  0  0  0  0  0  0  0
   11.3769   16.2648   22.8642 C   0  0  0  0  0  0  0  0  0  0  0  0
   12.3934   15.6208   20.6594 C   0  0  0  0  0  0  0  0  0  0  0  0
    9.9540   15.1986   21.0828 C   0  0  0  0  0  0  0  0  0  0  0  0
   11.3454   15.2628   21.7110 C   0  0  0  0  0  0  0  0  0  0  0  0
   10.5604    8.3976   21.8057 N   0  0  0  0  0  0  0  0  0  0  0  0
   10.2637   12.2701   22.7610 N   0  0  0  0  0  0  0  0  0  0  0  0
   10.6512   14.0306   24.2686 O   0  0  0  0  0  0  0  0  0  0  0  0
    8.2915    9.5832   24.0588 O   0  0  0  0  0  0  0  0  0  0  0  0
   11.6744   13.9667   22.2243 O   0  0  0  0  0  0  0  0  0  0  0  0
    4.8978   11.7673   27.4991 Br  0  0  0  0  0  0  0  0  0  0  0  0
    8.4348   13.9681   24.7084 H   0  0  0  0  0  0  0  0  0  0  0  0
    6.5980   13.9126   26.3511 H   0  0  0  0  0  0  0  0  0  0  0  0
    6.2472    9.6165   25.9044 H   0  0  0  0  0  0  0  0  0  0  0  0
   10.6261   16.0113   23.6212 H   0  0  0  0  0  0  0  0  0  0  0  0
   12.3597   16.2950   23.3457 H   0  0  0  0  0  0  0  0  0  0  0  0
   11.1327   17.2737   22.5124 H   0  0  0  0  0  0  0  0  0  0  0  0
   12.3744   14.9045   19.8301 H   0  0  0  0  0  0  0  0  0  0  0  0
   13.4031   15.5754   21.0833 H   0  0  0  0  0  0  0  0  0  0  0  0
   12.2323   16.6249   20.2540 H   0  0  0  0  0  0  0  0  0  0  0  0
    9.9312   14.4799   20.2556 H   0  0  0  0  0  0  0  0  0  0  0  0
    9.1941   14.9069   21.8150 H   0  0  0  0  0  0  0  0  0  0  0  0
    9.6734   16.1688   20.6573 H   0  0  0  0  0  0  0  0  0  0  0  0
   10.5462   11.9565   21.8173 H   0  0  0  0  0  0  0  0  0  0  0  0
  1  5  1  0  0  0  0
  1 15  3  0  0  0  0
  2  3  1  0  0  0  0
  2  6  2  0  0  0  0
  3  9  2  0  0  0  0
  4  8  2  0  0  0  0
  4  9  1  0  0  0  0
  5  7  2  0  0  0  0
  5 18  1  0  0  0  0
  6  7  1  0  0  0  0
  6  8  1  0  0  0  0
  7 16  1  0  0  0  0
  8 18  1  0  0  0  0
  9 20  1  0  0  0  0
 10 16  1  0  0  0  0
 10 17  2  0  0  0  0
 10 19  1  0  0  0  0
 11 14  1  0  0  0  0
 12 14  1  0  0  0  0
 13 14  1  0  0  0  0
 14 19  1  0  0  0  0
  2 21  1  0  0  0  0
  3 22  1  0  0  0  0
  4 23  1  0  0  0  0
 11 24  1  0  0  0  0
 11 25  1  0  0  0  0
 11 26  1  0  0  0  0
 12 27  1  0  0  0  0
 12 28  1  0  0  0  0
 12 29  1  0  0  0  0
 13 30  1  0  0  0  0
 13 31  1  0  0  0  0
 13 32  1  0  0  0  0
 16 33  1  0  0  0  0
M  END
> <id>
EN300-28296526

> <smiles>
CC(C)(C)OC(=O)NC1=C(C#N)OC=2C=C(Br)C=CC12

> <IUPAC Name>
tert-butyl N-(6-bromo-2-cyano-1-benzofuran-3-yl)carbamate

> <CAS>
2680803-97-6

> <URL>
https://www.enaminestore.com/catalog/EN300-28296526

> <ROCS_ShapeQuery>
A71EV2A-x0451_0A_A71EV2A-x0310_0A_A71EV2A-x0416_0A_peptide

> <ROCS_TanimotoCombo>
0.548 

> <ROCS_ShapeTanimoto>
0.367 

> <ROCS_ColorTanimoto>
0.180 

> <ROCS_RefTversky>
0.316 

> <ROCS_RefColorTversky>
0.199 

> <ROCS_RefTverskyCombo>
0.515 

> <ROCS_FitTversky>
1.801 

> <ROCS_FitColorTversky>
0.660 

> <ROCS_FitTverskyCombo>
2.461 

> <ROCS_ColorScore>
-6.074

> <ROCS_Overlap>
2190.953

> <ROCS_Rank>
17                  

$$$$
untitled-dbase-172918_33
  -OEChem-11132313473D

 35 36  0     0  0  0  0  0  0999 V2000
    9.2552   10.0514   23.3495 C   0  0  0  0  0  0  0  0  0  0  0  0
    9.4113   11.4524   23.4172 C   0  0  0  0  0  0  0  0  0  0  0  0
    8.4246   11.8676   24.2807 C   0  0  0  0  0  0  0  0  0  0  0  0
   10.9009   13.4620   23.1858 C   0  0  0  0  0  0  0  0  0  0  0  0
    8.0199   13.1957   24.8154 C   0  0  0  0  0  0  0  0  0  0  0  0
    6.6146   10.7149   25.5327 C   0  0  0  0  0  0  0  0  0  0  0  0
    6.4560   12.0498   26.2683 C   0  0  0  0  0  0  0  0  0  0  0  0
   11.4699   16.2349   22.7780 C   0  0  0  0  0  0  0  0  0  0  0  0
   12.5764   15.5044   20.6446 C   0  0  0  0  0  0  0  0  0  0  0  0
   10.1180   15.1115   20.9766 C   0  0  0  0  0  0  0  0  0  0  0  0
   11.4813   15.1913   21.6620 C   0  0  0  0  0  0  0  0  0  0  0  0
    8.2494    9.6030   24.1080 N   0  0  0  0  0  0  0  0  0  0  0  0
    7.7743   10.7277   24.6649 N   0  0  0  0  0  0  0  0  0  0  0  0
    6.6511   13.1899   25.3601 N   0  0  0  0  0  0  0  0  0  0  0  0
   10.3315   12.2434   22.7744 N   0  0  0  0  0  0  0  0  0  0  0  0
   10.6682   14.0581   24.2303 O   0  0  0  0  0  0  0  0  0  0  0  0
   11.7785   13.9132   22.2362 O   0  0  0  0  0  0  0  0  0  0  0  0
    9.8326    9.3375   22.7792 H   0  0  0  0  0  0  0  0  0  0  0  0
    8.7092   13.5099   25.6092 H   0  0  0  0  0  0  0  0  0  0  0  0
    8.0901   13.9486   24.0191 H   0  0  0  0  0  0  0  0  0  0  0  0
    6.7639    9.8937   26.2417 H   0  0  0  0  0  0  0  0  0  0  0  0
    5.7336   10.5058   24.9187 H   0  0  0  0  0  0  0  0  0  0  0  0
    5.4611   12.1171   26.7308 H   0  0  0  0  0  0  0  0  0  0  0  0
    7.1839   12.1072   27.0875 H   0  0  0  0  0  0  0  0  0  0  0  0
   10.6852   16.0137   23.5103 H   0  0  0  0  0  0  0  0  0  0  0  0
   12.4311   16.2774   23.3004 H   0  0  0  0  0  0  0  0  0  0  0  0
   11.2484   17.2315   22.3792 H   0  0  0  0  0  0  0  0  0  0  0  0
   12.5883   14.7581   19.8421 H   0  0  0  0  0  0  0  0  0  0  0  0
   13.5664   15.4691   21.1136 H   0  0  0  0  0  0  0  0  0  0  0  0
   12.4402   16.4937   20.1961 H   0  0  0  0  0  0  0  0  0  0  0  0
   10.1260   14.3630   20.1760 H   0  0  0  0  0  0  0  0  0  0  0  0
    9.3250   14.8513   21.6851 H   0  0  0  0  0  0  0  0  0  0  0  0
    9.8630   16.0670   20.5040 H   0  0  0  0  0  0  0  0  0  0  0  0
    6.4941   14.0544   25.8753 H   0  0  0  0  0  0  0  0  0  0  0  0
   10.6524   11.8923   21.8546 H   0  0  0  0  0  0  0  0  0  0  0  0
  1  2  1  0  0  0  0
  1 12  2  0  0  0  0
  2  3  2  0  0  0  0
  2 15  1  0  0  0  0
  3  5  1  0  0  0  0
  3 13  1  0  0  0  0
  4 15  1  0  0  0  0
  4 16  2  0  0  0  0
  4 17  1  0  0  0  0
  5 14  1  0  0  0  0
  6  7  1  0  0  0  0
  6 13  1  0  0  0  0
  7 14  1  0  0  0  0
  8 11  1  0  0  0  0
  9 11  1  0  0  0  0
 10 11  1  0  0  0  0
 11 17  1  0  0  0  0
 12 13  1  0  0  0  0
  1 18  1  0  0  0  0
  5 19  1  0  0  0  0
  5 20  1  0  0  0  0
  6 21  1  0  0  0  0
  6 22  1  0  0  0  0
  7 23  1  0  0  0  0
  7 24  1  0  0  0  0
  8 25  1  0  0  0  0
  8 26  1  0  0  0  0
  8 27  1  0  0  0  0
  9 28  1  0  0  0  0
  9 29  1  0  0  0  0
  9 30  1  0  0  0  0
 10 31  1  0  0  0  0
 10 32  1  0  0  0  0
 10 33  1  0  0  0  0
 14 34  1  0  0  0  0
 15 35  1  0  0  0  0
M  END
> <id>
EN300-4354108

> <smiles>
CC(C)(C)OC(=O)NC=1C=NN2CCNCC12

> <MDLNUMBER>
MFCD22209828

> <IUPAC Name>
tert-butyl N-{4H,5H,6H,7H-pyrazolo[1,5-a]pyrazin-3-yl}carbamate

> <CAS>
1373028-88-6

> <URL>
https://www.enaminestore.com/catalog/EN300-4354108

> <ROCS_ShapeQuery>
A71EV2A-x0451_0A_A71EV2A-x0310_0A_A71EV2A-x0416_0A_peptide

> <ROCS_TanimotoCombo>
0.547 

> <ROCS_ShapeTanimoto>
0.334 

> <ROCS_ColorTanimoto>
0.213 

> <ROCS_RefTversky>
0.290 

> <ROCS_RefColorTversky>
0.229 

> <ROCS_RefTverskyCombo>
0.518 

> <ROCS_FitTversky>
1.844 

> <ROCS_FitColorTversky>
0.758 

> <ROCS_FitTverskyCombo>
2.602 

> <ROCS_ColorScore>
-6.982

> <ROCS_Overlap>
2008.697

> <ROCS_Rank>
18                  

$$$$
untitled-dbase-154092_32
  -OEChem-11132313473D

 35 36  0     0  0  0  0  0  0999 V2000
    5.5411   12.4136   26.3935 C   0  0  0  0  0  0  0  0  0  0  0  0
    7.3200   13.8103   25.2381 C   0  0  0  0  0  0  0  0  0  0  0  0
    6.6831   12.6099   25.5710 C   0  0  0  0  0  0  0  0  0  0  0  0
    7.4064   11.6351   24.9227 C   0  0  0  0  0  0  0  0  0  0  0  0
    9.2599   10.2337   23.3882 C   0  0  0  0  0  0  0  0  0  0  0  0
    9.3657   11.5763   23.4643 C   0  0  0  0  0  0  0  0  0  0  0  0
    8.1202    9.6203   24.1621 C   0  0  0  0  0  0  0  0  0  0  0  0
   10.8675   13.4706   23.2851 C   0  0  0  0  0  0  0  0  0  0  0  0
    7.9368    8.1176   24.1252 C   0  0  0  0  0  0  0  0  0  0  0  0
   11.4837   16.2375   22.9428 C   0  0  0  0  0  0  0  0  0  0  0  0
   12.7570   15.5114   20.9031 C   0  0  0  0  0  0  0  0  0  0  0  0
   10.2776   15.1312   21.0307 C   0  0  0  0  0  0  0  0  0  0  0  0
   11.5807   15.1995   21.8258 C   0  0  0  0  0  0  0  0  0  0  0  0
    4.6083   12.2533   27.0652 N   0  0  0  0  0  0  0  0  0  0  0  0
    8.3703   13.6333   24.4393 N   0  0  0  0  0  0  0  0  0  0  0  0
    7.2599   10.2863   24.8758 N   0  0  0  0  0  0  0  0  0  0  0  0
    8.4311   12.2851   24.2385 N   0  0  0  0  0  0  0  0  0  0  0  0
   10.3443   12.2826   22.8214 N   0  0  0  0  0  0  0  0  0  0  0  0
   10.5402   14.0526   24.3147 O   0  0  0  0  0  0  0  0  0  0  0  0
   11.8229   13.9171   22.4152 O   0  0  0  0  0  0  0  0  0  0  0  0
   10.4197    9.1528   22.4045 Br  0  0  0  0  0  0  0  0  0  0  0  0
    7.0678   14.8165   25.5424 H   0  0  0  0  0  0  0  0  0  0  0  0
    8.5024    7.6774   24.9370 H   0  0  0  0  0  0  0  0  0  0  0  0
    8.2947    7.7455   23.1729 H   0  0  0  0  0  0  0  0  0  0  0  0
    6.8831    7.8921   24.2356 H   0  0  0  0  0  0  0  0  0  0  0  0
   10.6405   16.0172   23.6073 H   0  0  0  0  0  0  0  0  0  0  0  0
   12.3992   16.2717   23.5424 H   0  0  0  0  0  0  0  0  0  0  0  0
   11.3010   17.2374   22.5327 H   0  0  0  0  0  0  0  0  0  0  0  0
   12.8305   14.7691   20.1001 H   0  0  0  0  0  0  0  0  0  0  0  0
   13.7052   15.4679   21.4512 H   0  0  0  0  0  0  0  0  0  0  0  0
   12.6634   16.5037   20.4504 H   0  0  0  0  0  0  0  0  0  0  0  0
   10.3470   14.3867   20.2294 H   0  0  0  0  0  0  0  0  0  0  0  0
    9.4279   14.8721   21.6706 H   0  0  0  0  0  0  0  0  0  0  0  0
   10.0673   16.0906   20.5441 H   0  0  0  0  0  0  0  0  0  0  0  0
   10.7069   11.9099   21.9511 H   0  0  0  0  0  0  0  0  0  0  0  0
  1  3  1  0  0  0  0
  1 14  3  0  0  0  0
  2  3  1  0  0  0  0
  2 15  2  0  0  0  0
  3  4  2  0  0  0  0
  4 16  1  0  0  0  0
  4 17  1  0  0  0  0
  5  6  2  0  0  0  0
  5  7  1  0  0  0  0
  5 21  1  0  0  0  0
  6 17  1  0  0  0  0
  6 18  1  0  0  0  0
  7  9  1  0  0  0  0
  7 16  2  0  0  0  0
  8 18  1  0  0  0  0
  8 19  2  0  0  0  0
  8 20  1  0  0  0  0
 10 13  1  0  0  0  0
 11 13  1  0  0  0  0
 12 13  1  0  0  0  0
 13 20  1  0  0  0  0
 15 17  1  0  0  0  0
  2 22  1  0  0  0  0
  9 23  1  0  0  0  0
  9 24  1  0  0  0  0
  9 25  1  0  0  0  0
 10 26  1  0  0  0  0
 10 27  1  0  0  0  0
 10 28  1  0  0  0  0
 11 29  1  0  0  0  0
 11 30  1  0  0  0  0
 11 31  1  0  0  0  0
 12 32  1  0  0  0  0
 12 33  1  0  0  0  0
 12 34  1  0  0  0  0
 18 35  1  0  0  0  0
M  END
> <id>
EN300-28298707

> <smiles>
CC1=NC2=C(C#N)C=NN2C(NC(=O)OC(C)(C)C)=C1Br

> <IUPAC Name>
tert-butyl N-{6-bromo-3-cyano-5-methylpyrazolo[1,5-a]pyrimidin-7-yl}carbamate

> <CAS>
2680885-23-6

> <URL>
https://www.enaminestore.com/catalog/EN300-28298707

> <ROCS_ShapeQuery>
A71EV2A-x0451_0A_A71EV2A-x0310_0A_A71EV2A-x0416_0A_peptide

> <ROCS_TanimotoCombo>
0.547 

> <ROCS_ShapeTanimoto>
0.380 

> <ROCS_ColorTanimoto>
0.166 

> <ROCS_RefTversky>
0.326 

> <ROCS_RefColorTversky>
0.190 

> <ROCS_RefTverskyCombo>
0.516 

> <ROCS_FitTversky>
1.788 

> <ROCS_FitColorTversky>
0.572 

> <ROCS_FitTverskyCombo>
2.360 

> <ROCS_ColorScore>
-5.813

> <ROCS_Overlap>
2261.022

> <ROCS_Rank>
19                  

$$$$
untitled-dbase-4263_30
  -OEChem-11132313473D

 43 44  0     1  0  0  0  0  0999 V2000
   11.1302   14.2420   22.6732 C   0  0  0  0  0  0  0  0  0  0  0  0
    8.1819   11.1922   25.7199 C   0  0  0  0  0  0  0  0  0  0  0  0
    7.0962   11.6332   24.7224 C   0  0  0  0  0  0  0  0  0  0  0  0
   10.2597   11.2065   24.2631 C   0  0  0  0  0  0  0  0  0  0  0  0
    8.4461   11.9427   22.5944 C   0  0  0  0  0  0  0  0  0  0  0  0
    9.1619   10.3273   24.8969 C   0  0  2  0  0  0  0  0  0  0  0  0
    7.5040   11.0016   23.3735 C   0  0  1  0  0  0  0  0  0  0  0  0
    9.6819   12.3574   23.4159 C   0  0  0  0  0  0  0  0  0  0  0  0
    8.2390    9.7259   23.8225 C   0  0  0  0  0  0  0  0  0  0  0  0
   11.5893   16.8290   21.5568 C   0  0  0  0  0  0  0  0  0  0  0  0
   12.9914   15.6383   19.8464 C   0  0  0  0  0  0  0  0  0  0  0  0
   10.5368   15.1355   20.0209 C   0  0  0  0  0  0  0  0  0  0  0  0
    8.9310    8.9253   22.7243 C   0  0  0  0  0  0  0  0  0  0  0  0
   11.7979   15.5227   20.7921 C   0  0  0  0  0  0  0  0  0  0  0  0
   10.6967   12.9364   22.5682 N   0  0  0  0  0  0  0  0  0  0  0  0
   10.7220   15.0688   23.4821 O   0  0  0  0  0  0  0  0  0  0  0  0
    7.3134    8.8338   24.4573 O   0  0  0  0  0  0  0  0  0  0  0  0
   12.0928   14.4853   21.7342 O   0  0  0  0  0  0  0  0  0  0  0  0
    9.5958    7.8883   23.2577 F   0  0  0  0  0  0  0  0  0  0  0  0
    8.0238    8.4561   21.8533 F   0  0  0  0  0  0  0  0  0  0  0  0
    9.8023    9.7044   22.0642 F   0  0  0  0  0  0  0  0  0  0  0  0
    8.6711   12.0463   26.1995 H   0  0  0  0  0  0  0  0  0  0  0  0
    7.7233   10.5940   26.5167 H   0  0  0  0  0  0  0  0  0  0  0  0
    6.1236   11.2436   25.0463 H   0  0  0  0  0  0  0  0  0  0  0  0
    7.0051   12.7230   24.6690 H   0  0  0  0  0  0  0  0  0  0  0  0
   10.8888   11.6289   25.0573 H   0  0  0  0  0  0  0  0  0  0  0  0
   10.9229   10.5797   23.6552 H   0  0  0  0  0  0  0  0  0  0  0  0
    8.7531   11.4578   21.6602 H   0  0  0  0  0  0  0  0  0  0  0  0
    7.8943   12.8447   22.2998 H   0  0  0  0  0  0  0  0  0  0  0  0
    9.6125    9.5581   25.5340 H   0  0  0  0  0  0  0  0  0  0  0  0
    6.6127   10.7785   22.7768 H   0  0  0  0  0  0  0  0  0  0  0  0
    9.3872   13.1677   24.0940 H   0  0  0  0  0  0  0  0  0  0  0  0
   10.7335   16.7502   22.2367 H   0  0  0  0  0  0  0  0  0  0  0  0
   12.4743   17.0997   22.1418 H   0  0  0  0  0  0  0  0  0  0  0  0
   11.3634   17.6525   20.8698 H   0  0  0  0  0  0  0  0  0  0  0  0
   13.1448   14.7032   19.2956 H   0  0  0  0  0  0  0  0  0  0  0  0
   13.9160   15.8224   20.4055 H   0  0  0  0  0  0  0  0  0  0  0  0
   12.8566   16.4487   19.1228 H   0  0  0  0  0  0  0  0  0  0  0  0
   10.6862   14.1985   19.4723 H   0  0  0  0  0  0  0  0  0  0  0  0
    9.6779   15.0120   20.6884 H   0  0  0  0  0  0  0  0  0  0  0  0
   10.2892   15.8963   19.2718 H   0  0  0  0  0  0  0  0  0  0  0  0
   11.1158   12.3488   21.8532 H   0  0  0  0  0  0  0  0  0  0  0  0
    6.7553    8.4798   23.7508 H   0  0  0  0  0  0  0  0  0  0  0  0
  1 15  1  0  0  0  0
  1 16  2  0  0  0  0
  1 18  1  0  0  0  0
  2  3  1  0  0  0  0
  2  6  1  0  0  0  0
  3  7  1  0  0  0  0
  4  6  1  0  0  0  0
  4  8  1  0  0  0  0
  5  7  1  0  0  0  0
  5  8  1  0  0  0  0
  6  9  1  0  0  0  0
  7  9  1  0  0  0  0
  8 15  1  0  0  0  0
  9 13  1  0  0  0  0
  9 17  1  0  0  0  0
 10 14  1  0  0  0  0
 11 14  1  0  0  0  0
 12 14  1  0  0  0  0
 13 19  1  0  0  0  0
 13 20  1  0  0  0  0
 13 21  1  0  0  0  0
 14 18  1  0  0  0  0
  2 22  1  0  0  0  0
  2 23  1  0  0  0  0
  3 24  1  0  0  0  0
  3 25  1  0  0  0  0
  4 26  1  0  0  0  0
  4 27  1  0  0  0  0
  5 28  1  0  0  0  0
  5 29  1  0  0  0  0
  6 30  1  0  0  0  0
  7 31  1  0  0  0  0
  8 32  1  0  0  0  0
 10 33  1  0  0  0  0
 10 34  1  0  0  0  0
 10 35  1  0  0  0  0
 11 36  1  0  0  0  0
 11 37  1  0  0  0  0
 11 38  1  0  0  0  0
 12 39  1  0  0  0  0
 12 40  1  0  0  0  0
 12 41  1  0  0  0  0
 15 42  1  0  0  0  0
 17 43  1  0  0  0  0
M  END
> <id>
EN300-89653

> <smiles>
CC(C)(C)OC(=O)NC1CC2CCC(C1)C2(O)C(F)(F)F

> <MDLNUMBER>
MFCD19442744

> <IUPAC Name>
tert-butyl N-[8-hydroxy-8-(trifluoromethyl)bicyclo[3.2.1]octan-3-yl]carbamate

> <CAS>
1251924-94-3

> <URL>
https://www.enaminestore.com/catalog/EN300-89653

> <ROCS_ShapeQuery>
A71EV2A-x0451_0A_A71EV2A-x0310_0A_A71EV2A-x0416_0A_peptide

> <ROCS_TanimotoCombo>
0.547 

> <ROCS_ShapeTanimoto>
0.329 

> <ROCS_ColorTanimoto>
0.218 

> <ROCS_RefTversky>
0.292 

> <ROCS_RefColorTversky>
0.248 

> <ROCS_RefTverskyCombo>
0.540 

> <ROCS_FitTversky>
1.610 

> <ROCS_FitColorTversky>
0.642 

> <ROCS_FitTverskyCombo>
2.251 

> <ROCS_ColorScore>
-7.597

> <ROCS_Overlap>
2030.631

> <ROCS_Rank>
20                  

$$$$
untitled-dbase-106949_116
  -OEChem-11132313473D

 46 48  0     1  0  0  0  0  0999 V2000
    5.2807   10.4186   26.3308 C   0  0  0  0  0  0  0  0  0  0  0  0
    4.2410   10.8525   27.1373 C   0  0  0  0  0  0  0  0  0  0  0  0
    4.8952   13.0471   26.9529 C   0  0  0  0  0  0  0  0  0  0  0  0
    6.1550   11.3744   25.8256 C   0  0  0  0  0  0  0  0  0  0  0  0
    5.9656   12.7160   26.1379 C   0  0  0  0  0  0  0  0  0  0  0  0
   10.0349   13.3396   23.4706 C   0  0  0  0  0  0  0  0  0  0  0  0
    9.0598   10.0137   22.5322 C   0  0  0  0  0  0  0  0  0  0  0  0
    9.9343    9.7435   23.7718 C   0  0  0  0  0  0  0  0  0  0  0  0
    7.2500   11.5424   23.5010 C   0  0  0  0  0  0  0  0  0  0  0  0
    8.7256   11.1034   25.5746 C   0  0  0  0  0  0  0  0  0  0  0  0
    8.5708   11.4547   22.7057 C   0  0  1  0  0  0  0  0  0  0  0  0
    9.8963   11.0503   24.5703 C   0  0  2  0  0  0  0  0  0  0  0  0
    7.3103   10.9050   24.9311 C   0  0  0  0  0  0  0  0  0  0  0  0
   12.2932   13.4406   22.1461 C   0  0  0  0  0  0  0  0  0  0  0  0
   11.0049   14.0865   20.0888 C   0  0  0  0  0  0  0  0  0  0  0  0
   11.3501   15.7637   21.9262 C   0  0  0  0  0  0  0  0  0  0  0  0
   11.1451   14.2859   21.5964 C   0  0  0  0  0  0  0  0  0  0  0  0
    4.0249   12.1468   27.4625 N   0  0  0  0  0  0  0  0  0  0  0  0
    9.6010   12.0308   23.5425 N   0  0  0  0  0  0  0  0  0  0  0  0
   10.4708   13.9763   24.4271 O   0  0  0  0  0  0  0  0  0  0  0  0
    7.1044    9.4911   24.7661 O   0  0  0  0  0  0  0  0  0  0  0  0
    9.9250   13.8480   22.2047 O   0  0  0  0  0  0  0  0  0  0  0  0
    7.1050   14.0790   25.4950 Br  0  0  0  0  0  0  0  0  0  0  0  0
    5.4001    9.3640   26.1065 H   0  0  0  0  0  0  0  0  0  0  0  0
    3.5314   10.1467   27.5565 H   0  0  0  0  0  0  0  0  0  0  0  0
    4.6903   14.0755   27.2352 H   0  0  0  0  0  0  0  0  0  0  0  0
    9.6788    9.9305   21.6309 H   0  0  0  0  0  0  0  0  0  0  0  0
    8.2425    9.2922   22.4382 H   0  0  0  0  0  0  0  0  0  0  0  0
    9.5844    8.8798   24.3451 H   0  0  0  0  0  0  0  0  0  0  0  0
   10.9593    9.5291   23.4460 H   0  0  0  0  0  0  0  0  0  0  0  0
    6.9845   12.6054   23.5878 H   0  0  0  0  0  0  0  0  0  0  0  0
    6.4516   11.0664   22.9170 H   0  0  0  0  0  0  0  0  0  0  0  0
    8.8864   10.3409   26.3479 H   0  0  0  0  0  0  0  0  0  0  0  0
    8.7635   12.0783   26.0807 H   0  0  0  0  0  0  0  0  0  0  0  0
    8.4782   11.9838   21.7521 H   0  0  0  0  0  0  0  0  0  0  0  0
   10.8447   11.2529   25.0766 H   0  0  0  0  0  0  0  0  0  0  0  0
   12.3971   13.5809   23.2280 H   0  0  0  0  0  0  0  0  0  0  0  0
   12.1409   12.3749   21.9468 H   0  0  0  0  0  0  0  0  0  0  0  0
   13.2486   13.7427   21.7021 H   0  0  0  0  0  0  0  0  0  0  0  0
   10.1823   14.6911   19.6901 H   0  0  0  0  0  0  0  0  0  0  0  0
   10.7634   13.0436   19.8539 H   0  0  0  0  0  0  0  0  0  0  0  0
   11.9233   14.3578   19.5583 H   0  0  0  0  0  0  0  0  0  0  0  0
   10.5267   16.3703   21.5320 H   0  0  0  0  0  0  0  0  0  0  0  0
   11.4159   15.9306   23.0062 H   0  0  0  0  0  0  0  0  0  0  0  0
   12.2656   16.1439   21.4586 H   0  0  0  0  0  0  0  0  0  0  0  0
    6.2365    9.3878   24.3474 H   0  0  0  0  0  0  0  0  0  0  0  0
  1  2  1  0  0  0  0
  1  4  2  0  0  0  0
  2 18  2  0  0  0  0
  3  5  2  0  0  0  0
  3 18  1  0  0  0  0
  4  5  1  0  0  0  0
  4 13  1  0  0  0  0
  5 23  1  0  0  0  0
  6 19  1  0  0  0  0
  6 20  2  0  0  0  0
  6 22  1  0  0  0  0
  7  8  1  0  0  0  0
  7 11  1  0  0  0  0
  8 12  1  0  0  0  0
  9 11  1  0  0  0  0
  9 13  1  0  0  0  0
 10 12  1  0  0  0  0
 10 13  1  0  0  0  0
 11 19  1  0  0  0  0
 12 19  1  0  0  0  0
 13 21  1  0  0  0  0
 14 17  1  0  0  0  0
 15 17  1  0  0  0  0
 16 17  1  0  0  0  0
 17 22  1  0  0  0  0
  1 24  1  0  0  0  0
  2 25  1  0  0  0  0
  3 26  1  0  0  0  0
  7 27  1  0  0  0  0
  7 28  1  0  0  0  0
  8 29  1  0  0  0  0
  8 30  1  0  0  0  0
  9 31  1  0  0  0  0
  9 32  1  0  0  0  0
 10 33  1  0  0  0  0
 10 34  1  0  0  0  0
 11 35  1  0  0  0  0
 12 36  1  0  0  0  0
 14 37  1  0  0  0  0
 14 38  1  0  0  0  0
 14 39  1  0  0  0  0
 15 40  1  0  0  0  0
 15 41  1  0  0  0  0
 15 42  1  0  0  0  0
 16 43  1  0  0  0  0
 16 44  1  0  0  0  0
 16 45  1  0  0  0  0
 21 46  1  0  0  0  0
M  END
> <id>
EN300-7428213

> <smiles>
CC(C)(C)OC(=O)N1C2CCC1CC(O)(C2)C=3C=CN=CC3Br

> <IUPAC Name>
tert-butyl 3-(3-bromopyridin-4-yl)-3-hydroxy-8-azabicyclo[3.2.1]octane-8-carboxylate

> <CAS>
2309467-22-7

> <URL>
https://www.enaminestore.com/catalog/EN300-7428213

> <ROCS_ShapeQuery>
A71EV2A-x0451_0A_A71EV2A-x0310_0A_A71EV2A-x0416_0A_peptide

> <ROCS_TanimotoCombo>
0.546 

> <ROCS_ShapeTanimoto>
0.337 

> <ROCS_ColorTanimoto>
0.209 

> <ROCS_RefTversky>
0.301 

> <ROCS_RefColorTversky>
0.250 

> <ROCS_RefTverskyCombo>
0.551 

> <ROCS_FitTversky>
1.557 

> <ROCS_FitColorTversky>
0.559 

> <ROCS_FitTverskyCombo>
2.116 

> <ROCS_ColorScore>
-7.684

> <ROCS_Overlap>
2091.253

> <ROCS_Rank>
21                  

$$$$
untitled-dbase-146690_10
  -OEChem-11132313473D

 58 61  0     1  0  0  0  0  0999 V2000
    7.6875   12.7940   25.7402 C   0  0  0  0  0  0  0  0  0  0  0  0
    8.5352   12.2802   24.7983 C   0  0  0  0  0  0  0  0  0  0  0  0
    8.0430   11.0046   24.4903 C   0  0  0  0  0  0  0  0  0  0  0  0
   11.6960   15.2369   20.5730 C   0  0  0  0  0  0  0  0  0  0  0  0
    4.1696   13.1394   28.3028 C   0  0  0  0  0  0  0  0  0  0  0  0
    4.6881   11.9092   29.0507 C   0  0  0  0  0  0  0  0  0  0  0  0
    5.0512   13.2965   27.0670 C   0  0  0  0  0  0  0  0  0  0  0  0
    5.8703   11.3814   28.2433 C   0  0  0  0  0  0  0  0  0  0  0  0
    9.5002   12.6660   21.8614 C   0  0  0  0  0  0  0  0  0  0  0  0
   11.6916   12.5966   23.0945 C   0  0  0  0  0  0  0  0  0  0  0  0
   10.1323   10.6289   23.2953 C   0  0  0  0  0  0  0  0  0  0  0  0
    9.7167   14.1577   21.6062 C   0  0  0  0  0  0  0  0  0  0  0  0
   11.8771   14.0889   22.8165 C   0  0  0  0  0  0  0  0  0  0  0  0
    8.6985   10.1102   23.5140 C   0  0  1  0  0  0  0  0  0  0  0  0
    5.6032   11.8906   26.8262 C   0  0  0  0  0  0  0  0  0  0  0  0
   10.2032   12.1813   23.1520 C   0  0  0  0  0  0  0  0  0  0  0  0
   13.0137   17.5906   19.6159 C   0  0  0  0  0  0  0  0  0  0  0  0
   15.1525   16.3669   20.1031 C   0  0  0  0  0  0  0  0  0  0  0  0
   13.5511   15.4556   18.3962 C   0  0  0  0  0  0  0  0  0  0  0  0
   13.6835   16.2206   19.7123 C   0  0  0  0  0  0  0  0  0  0  0  0
    6.9295   10.7170   25.1687 N   0  0  0  0  0  0  0  0  0  0  0  0
    6.7411   11.8220   25.9222 N   0  0  0  0  0  0  0  0  0  0  0  0
   11.1370   14.4980   21.6207 N   0  0  0  0  0  0  0  0  0  0  0  0
   11.0660   15.6422   19.5977 O   0  0  0  0  0  0  0  0  0  0  0  0
    9.6345   12.8788   24.2961 O   0  0  0  0  0  0  0  0  0  0  0  0
    8.7729    8.7600   23.9606 O   0  0  0  0  0  0  0  0  0  0  0  0
   13.0353   15.4680   20.7443 O   0  0  0  0  0  0  0  0  0  0  0  0
    7.6646   13.7320   26.2778 H   0  0  0  0  0  0  0  0  0  0  0  0
    3.1017   13.0423   28.0419 H   0  0  0  0  0  0  0  0  0  0  0  0
    4.2623   14.0331   28.9470 H   0  0  0  0  0  0  0  0  0  0  0  0
    4.9722   12.1488   30.0916 H   0  0  0  0  0  0  0  0  0  0  0  0
    3.8931   11.1408   29.1079 H   0  0  0  0  0  0  0  0  0  0  0  0
    4.4278   13.5917   26.2200 H   0  0  0  0  0  0  0  0  0  0  0  0
    5.8140   14.0607   27.2127 H   0  0  0  0  0  0  0  0  0  0  0  0
    6.8036   11.7852   28.6496 H   0  0  0  0  0  0  0  0  0  0  0  0
    5.9299   10.2914   28.2847 H   0  0  0  0  0  0  0  0  0  0  0  0
    8.4195   12.4922   21.9176 H   0  0  0  0  0  0  0  0  0  0  0  0
    9.8728   12.0980   20.9995 H   0  0  0  0  0  0  0  0  0  0  0  0
   12.2124   12.0229   22.3171 H   0  0  0  0  0  0  0  0  0  0  0  0
   12.1780   12.3663   24.0507 H   0  0  0  0  0  0  0  0  0  0  0  0
   10.7451   10.3221   24.1560 H   0  0  0  0  0  0  0  0  0  0  0  0
   10.5736   10.1314   22.4223 H   0  0  0  0  0  0  0  0  0  0  0  0
    9.2624   14.4365   20.6499 H   0  0  0  0  0  0  0  0  0  0  0  0
    9.2297   14.7586   22.3831 H   0  0  0  0  0  0  0  0  0  0  0  0
   11.4977   14.6890   23.6517 H   0  0  0  0  0  0  0  0  0  0  0  0
   12.9439   14.3097   22.7216 H   0  0  0  0  0  0  0  0  0  0  0  0
    8.1438   10.1232   22.5706 H   0  0  0  0  0  0  0  0  0  0  0  0
    4.8090   11.2680   26.3451 H   0  0  0  0  0  0  0  0  0  0  0  0
   11.9591   17.4899   19.3356 H   0  0  0  0  0  0  0  0  0  0  0  0
   13.0711   18.1352   20.5639 H   0  0  0  0  0  0  0  0  0  0  0  0
   13.4836   18.2016   18.8367 H   0  0  0  0  0  0  0  0  0  0  0  0
   15.6370   15.3863   20.1734 H   0  0  0  0  0  0  0  0  0  0  0  0
   15.2491   16.8305   21.0915 H   0  0  0  0  0  0  0  0  0  0  0  0
   15.7045   16.9752   19.3793 H   0  0  0  0  0  0  0  0  0  0  0  0
   14.0315   14.4729   18.4651 H   0  0  0  0  0  0  0  0  0  0  0  0
   12.5023   15.3089   18.1187 H   0  0  0  0  0  0  0  0  0  0  0  0
   14.0552   15.9897   17.5827 H   0  0  0  0  0  0  0  0  0  0  0  0
    7.8601    8.4636   24.1028 H   0  0  0  0  0  0  0  0  0  0  0  0
  1  2  2  0  0  0  0
  1 22  1  0  0  0  0
  2  3  1  0  0  0  0
  2 25  1  0  0  0  0
  3 14  1  0  0  0  0
  3 21  2  0  0  0  0
  4 23  1  0  0  0  0
  4 24  2  0  0  0  0
  4 27  1  0  0  0  0
  5  6  1  0  0  0  0
  5  7  1  0  0  0  0
  6  8  1  0  0  0  0
  7 15  1  0  0  0  0
  8 15  1  0  0  0  0
  9 12  1  0  0  0  0
  9 16  1  0  0  0  0
 10 13  1  0  0  0  0
 10 16  1  0  0  0  0
 11 14  1  0  0  0  0
 11 16  1  0  0  0  0
 12 23  1  0  0  0  0
 13 23  1  0  0  0  0
 14 26  1  0  0  0  0
 15 22  1  0  0  0  0
 16 25  1  0  0  0  0
 17 20  1  0  0  0  0
 18 20  1  0  0  0  0
 19 20  1  0  0  0  0
 20 27  1  0  0  0  0
 21 22  1  0  0  0  0
  1 28  1  0  0  0  0
  5 29  1  0  0  0  0
  5 30  1  0  0  0  0
  6 31  1  0  0  0  0
  6 32  1  0  0  0  0
  7 33  1  0  0  0  0
  7 34  1  0  0  0  0
  8 35  1  0  0  0  0
  8 36  1  0  0  0  0
  9 37  1  0  0  0  0
  9 38  1  0  0  0  0
 10 39  1  0  0  0  0
 10 40  1  0  0  0  0
 11 41  1  0  0  0  0
 11 42  1  0  0  0  0
 12 43  1  0  0  0  0
 12 44  1  0  0  0  0
 13 45  1  0  0  0  0
 13 46  1  0  0  0  0
 14 47  1  0  0  0  0
 15 48  1  0  0  0  0
 17 49  1  0  0  0  0
 17 50  1  0  0  0  0
 17 51  1  0  0  0  0
 18 52  1  0  0  0  0
 18 53  1  0  0  0  0
 18 54  1  0  0  0  0
 19 55  1  0  0  0  0
 19 56  1  0  0  0  0
 19 57  1  0  0  0  0
 26 58  1  0  0  0  0
M  END
> <id>
EN300-27718475

> <smiles>
CC(C)(C)OC(=O)N1CCC2(CC1)CC(O)C3=NN(C=C3O2)C4CCCC4

> <IUPAC Name>
tert-butyl 2'-cyclopentyl-7'-hydroxy-6',7'-dihydro-2'H-spiro[piperidine-4,5'-pyrano[3,2-c]pyrazole]-1-carboxylate

> <CAS>
2639434-53-8

> <URL>
https://www.enaminestore.com/catalog/EN300-27718475

> <ROCS_ShapeQuery>
A71EV2A-x0451_0A_A71EV2A-x0310_0A_A71EV2A-x0416_0A_peptide

> <ROCS_TanimotoCombo>
0.546 

> <ROCS_ShapeTanimoto>
0.393 

> <ROCS_ColorTanimoto>
0.153 

> <ROCS_RefTversky>
0.344 

> <ROCS_RefColorTversky>
0.181 

> <ROCS_RefTverskyCombo>
0.525 

> <ROCS_FitTversky>
1.564 

> <ROCS_FitColorTversky>
0.499 

> <ROCS_FitTverskyCombo>
2.063 

> <ROCS_ColorScore>
-5.548

> <ROCS_Overlap>
2392.218

> <ROCS_Rank>
22                  

$$$$
untitled-dbase-148510_326
  -OEChem-11132313473D

 36 37  0     0  0  0  0  0  0999 V2000
    7.8507   13.1271   25.0326 C   0  0  0  0  0  0  0  0  0  0  0  0
    6.2476   11.6583   25.9957 C   0  0  0  0  0  0  0  0  0  0  0  0
    6.7388   12.9389   25.8511 C   0  0  0  0  0  0  0  0  0  0  0  0
    8.4604   12.0421   24.3933 C   0  0  0  0  0  0  0  0  0  0  0  0
    7.8672   10.7877   24.6003 C   0  0  0  0  0  0  0  0  0  0  0  0
    6.1193   14.0563   26.5419 C   0  0  0  0  0  0  0  0  0  0  0  0
   10.4335   13.2675   23.3532 C   0  0  0  0  0  0  0  0  0  0  0  0
    9.8323   10.9789   22.6817 C   0  0  0  0  0  0  0  0  0  0  0  0
    9.6504    9.7254   23.5091 C   0  0  0  0  0  0  0  0  0  0  0  0
   12.9359   14.5200   22.7361 C   0  0  0  0  0  0  0  0  0  0  0  0
   12.0948   14.6047   20.3708 C   0  0  0  0  0  0  0  0  0  0  0  0
   10.8736   15.8504   22.1777 C   0  0  0  0  0  0  0  0  0  0  0  0
   11.6974   14.6072   21.8453 C   0  0  0  0  0  0  0  0  0  0  0  0
    6.7790   10.5826   25.3833 N   0  0  0  0  0  0  0  0  0  0  0  0
    9.5850   12.1575   23.5128 N   0  0  0  0  0  0  0  0  0  0  0  0
    4.9485   14.4273   26.4009 O   0  0  0  0  0  0  0  0  0  0  0  0
   10.7005   14.0527   24.2637 O   0  0  0  0  0  0  0  0  0  0  0  0
    8.3173    9.6358   24.0021 O   0  0  0  0  0  0  0  0  0  0  0  0
    6.9771   14.6833   27.3938 O   0  0  0  0  0  0  0  0  0  0  0  0
   10.8875   13.4481   22.0759 O   0  0  0  0  0  0  0  0  0  0  0  0
    8.2157   14.1410   24.9301 H   0  0  0  0  0  0  0  0  0  0  0  0
    5.3891   11.4465   26.6257 H   0  0  0  0  0  0  0  0  0  0  0  0
   10.8566   11.0591   22.3141 H   0  0  0  0  0  0  0  0  0  0  0  0
    9.1520   10.9496   21.8322 H   0  0  0  0  0  0  0  0  0  0  0  0
    9.9023    8.8172   22.9421 H   0  0  0  0  0  0  0  0  0  0  0  0
   10.3200    9.7550   24.3775 H   0  0  0  0  0  0  0  0  0  0  0  0
   12.6548   14.5215   23.7953 H   0  0  0  0  0  0  0  0  0  0  0  0
   13.5169   13.6148   22.5317 H   0  0  0  0  0  0  0  0  0  0  0  0
   13.5863   15.3896   22.5876 H   0  0  0  0  0  0  0  0  0  0  0  0
   11.2093   14.6671   19.7279 H   0  0  0  0  0  0  0  0  0  0  0  0
   12.6038   13.6711   20.1052 H   0  0  0  0  0  0  0  0  0  0  0  0
   12.7580   15.4418   20.1297 H   0  0  0  0  0  0  0  0  0  0  0  0
    9.9852   15.9131   21.5389 H   0  0  0  0  0  0  0  0  0  0  0  0
   10.5482   15.8509   23.2231 H   0  0  0  0  0  0  0  0  0  0  0  0
   11.4525   16.7624   21.9927 H   0  0  0  0  0  0  0  0  0  0  0  0
    7.8725   14.2826   27.4041 H   0  0  0  0  0  0  0  0  0  0  0  0
  1  3  1  0  0  0  0
  1  4  2  0  0  0  0
  2  3  2  0  0  0  0
  2 14  1  0  0  0  0
  3  6  1  0  0  0  0
  4  5  1  0  0  0  0
  4 15  1  0  0  0  0
  5 14  2  0  0  0  0
  5 18  1  0  0  0  0
  6 16  2  0  0  0  0
  6 19  1  0  0  0  0
  7 15  1  0  0  0  0
  7 17  2  0  0  0  0
  7 20  1  0  0  0  0
  8  9  1  0  0  0  0
  8 15  1  0  0  0  0
  9 18  1  0  0  0  0
 10 13  1  0  0  0  0
 11 13  1  0  0  0  0
 12 13  1  0  0  0  0
 13 20  1  0  0  0  0
  1 21  1  0  0  0  0
  2 22  1  0  0  0  0
  8 23  1  0  0  0  0
  8 24  1  0  0  0  0
  9 25  1  0  0  0  0
  9 26  1  0  0  0  0
 10 27  1  0  0  0  0
 10 28  1  0  0  0  0
 10 29  1  0  0  0  0
 11 30  1  0  0  0  0
 11 31  1  0  0  0  0
 11 32  1  0  0  0  0
 12 33  1  0  0  0  0
 12 34  1  0  0  0  0
 12 35  1  0  0  0  0
 19 36  1  0  0  0  0
M  END
> <id>
EN300-21683374

> <smiles>
CC(C)(C)OC(=O)N1CCOC=2N=CC(=CC12)C(=O)O

> <MDLNUMBER>
MFCD29765408

> <IUPAC Name>
1-[(tert-butoxy)carbonyl]-1H,2H,3H-pyrido[2,3-b][1,4]oxazine-7-carboxylic acid

> <CAS>
1188529-62-5

> <URL>
https://www.enaminestore.com/catalog/EN300-21683374

> <ROCS_ShapeQuery>
A71EV2A-x0451_0A_A71EV2A-x0310_0A_A71EV2A-x0416_0A_peptide

> <ROCS_TanimotoCombo>
0.546 

> <ROCS_ShapeTanimoto>
0.349 

> <ROCS_ColorTanimoto>
0.197 

> <ROCS_RefTversky>
0.304 

> <ROCS_RefColorTversky>
0.219 

> <ROCS_RefTverskyCombo>
0.523 

> <ROCS_FitTversky>
1.721 

> <ROCS_FitColorTversky>
0.659 

> <ROCS_FitTverskyCombo>
2.379 

> <ROCS_ColorScore>
-6.695

> <ROCS_Overlap>
2113.314

> <ROCS_Rank>
23                  

$$$$
untitled-dbase-139008_460
  -OEChem-11132313473D

 52 54  0     1  0  0  0  0  0999 V2000
    5.8419   10.6376   25.8895 C   0  0  0  0  0  0  0  0  0  0  0  0
    6.8731   12.6999   25.1856 C   0  0  0  0  0  0  0  0  0  0  0  0
    5.8847   12.0286   25.9028 C   0  0  0  0  0  0  0  0  0  0  0  0
    7.7902   10.5821   24.4316 C   0  0  0  0  0  0  0  0  0  0  0  0
    6.7867    9.9187   25.1568 C   0  0  0  0  0  0  0  0  0  0  0  0
    7.8282   11.9819   24.4584 C   0  0  0  0  0  0  0  0  0  0  0  0
    4.8887   12.7816   26.6487 C   0  0  0  0  0  0  0  0  0  0  0  0
   11.9749   15.0258   22.3982 C   0  0  0  0  0  0  0  0  0  0  0  0
   11.0078   12.0387   24.3252 C   0  0  0  0  0  0  0  0  0  0  0  0
    9.5272   10.7012   22.6527 C   0  0  0  0  0  0  0  0  0  0  0  0
   11.5724   13.4534   24.2869 C   0  0  0  0  0  0  0  0  0  0  0  0
   10.5027   12.9791   22.1840 C   0  0  0  0  0  0  0  0  0  0  0  0
    8.7908    9.7842   23.6338 C   0  0  1  0  0  0  0  0  0  0  0  0
    9.8974   12.0584   23.2590 C   0  0  2  0  0  0  0  0  0  0  0  0
    6.6448    8.4295   25.1532 C   0  0  0  0  0  0  0  0  0  0  0  0
   12.0761   17.2518   20.5386 C   0  0  0  0  0  0  0  0  0  0  0  0
   12.0432   15.4916   18.7470 C   0  0  0  0  0  0  0  0  0  0  0  0
   10.0855   15.7298   20.3023 C   0  0  0  0  0  0  0  0  0  0  0  0
   11.6028   15.8478   20.1652 C   0  0  0  0  0  0  0  0  0  0  0  0
   11.3779   13.8884   22.9167 N   0  0  0  0  0  0  0  0  0  0  0  0
    9.7307    9.0541   24.4868 N   0  0  0  0  0  0  0  0  0  0  0  0
    3.9630   12.2917   27.3042 O   0  0  0  0  0  0  0  0  0  0  0  0
   12.2541   16.0184   23.0663 O   0  0  0  0  0  0  0  0  0  0  0  0
    8.7427   12.7408   23.7785 O   0  0  0  0  0  0  0  0  0  0  0  0
    5.0767   14.1268   26.5567 O   0  0  0  0  0  0  0  0  0  0  0  0
   12.2167   14.9066   21.0577 O   0  0  0  0  0  0  0  0  0  0  0  0
    5.0673   10.1130   26.4436 H   0  0  0  0  0  0  0  0  0  0  0  0
    6.8955   13.7881   25.1789 H   0  0  0  0  0  0  0  0  0  0  0  0
   11.7965   11.3239   24.0579 H   0  0  0  0  0  0  0  0  0  0  0  0
   10.6314   11.7934   25.3243 H   0  0  0  0  0  0  0  0  0  0  0  0
   10.4648   10.2108   22.3151 H   0  0  0  0  0  0  0  0  0  0  0  0
    8.9178   10.8390   21.7366 H   0  0  0  0  0  0  0  0  0  0  0  0
   11.0077   14.1317   24.9369 H   0  0  0  0  0  0  0  0  0  0  0  0
   12.6298   13.5010   24.5654 H   0  0  0  0  0  0  0  0  0  0  0  0
   11.1330   12.4283   21.4756 H   0  0  0  0  0  0  0  0  0  0  0  0
    9.7599   13.5610   21.6277 H   0  0  0  0  0  0  0  0  0  0  0  0
    8.2006    9.0333   23.0624 H   0  0  0  0  0  0  0  0  0  0  0  0
    6.0085    8.1139   24.3198 H   0  0  0  0  0  0  0  0  0  0  0  0
    7.6211    7.9418   25.0554 H   0  0  0  0  0  0  0  0  0  0  0  0
    6.2001    8.0751   26.0900 H   0  0  0  0  0  0  0  0  0  0  0  0
   11.7619   17.5112   21.5560 H   0  0  0  0  0  0  0  0  0  0  0  0
   13.1658   17.3396   20.4781 H   0  0  0  0  0  0  0  0  0  0  0  0
   11.6310   18.0034   19.8766 H   0  0  0  0  0  0  0  0  0  0  0  0
   11.7058   14.4850   18.4749 H   0  0  0  0  0  0  0  0  0  0  0  0
   13.1364   15.4825   18.6685 H   0  0  0  0  0  0  0  0  0  0  0  0
   11.6487   16.2001   18.0115 H   0  0  0  0  0  0  0  0  0  0  0  0
    9.7458   14.7227   20.0346 H   0  0  0  0  0  0  0  0  0  0  0  0
    9.7548   15.9460   21.3234 H   0  0  0  0  0  0  0  0  0  0  0  0
    9.5777   16.4195   19.6184 H   0  0  0  0  0  0  0  0  0  0  0  0
   10.6476    9.3292   24.2331 H   0  0  0  0  0  0  0  0  0  0  0  0
    9.5347    9.2934   25.4276 H   0  0  0  0  0  0  0  0  0  0  0  0
    4.4102   14.6440   27.0573 H   0  0  0  0  0  0  0  0  0  0  0  0
  1  3  1  0  0  0  0
  1  5  2  0  0  0  0
  2  3  2  0  0  0  0
  2  6  1  0  0  0  0
  3  7  1  0  0  0  0
  4  5  1  0  0  0  0
  4  6  2  0  0  0  0
  4 13  1  0  0  0  0
  5 15  1  0  0  0  0
  6 24  1  0  0  0  0
  7 22  2  0  0  0  0
  7 25  1  0  0  0  0
  8 20  1  0  0  0  0
  8 23  2  0  0  0  0
  8 26  1  0  0  0  0
  9 11  1  0  0  0  0
  9 14  1  0  0  0  0
 10 13  1  0  0  0  0
 10 14  1  0  0  0  0
 11 20  1  0  0  0  0
 12 14  1  0  0  0  0
 12 20  1  0  0  0  0
 13 21  1  0  0  0  0
 14 24  1  0  0  0  0
 16 19  1  0  0  0  0
 17 19  1  0  0  0  0
 18 19  1  0  0  0  0
 19 26  1  0  0  0  0
  1 27  1  0  0  0  0
  2 28  1  0  0  0  0
  9 29  1  0  0  0  0
  9 30  1  0  0  0  0
 10 31  1  0  0  0  0
 10 32  1  0  0  0  0
 11 33  1  0  0  0  0
 11 34  1  0  0  0  0
 12 35  1  0  0  0  0
 12 36  1  0  0  0  0
 13 37  1  0  0  0  0
 15 38  1  0  0  0  0
 15 39  1  0  0  0  0
 15 40  1  0  0  0  0
 16 41  1  0  0  0  0
 16 42  1  0  0  0  0
 16 43  1  0  0  0  0
 17 44  1  0  0  0  0
 17 45  1  0  0  0  0
 17 46  1  0  0  0  0
 18 47  1  0  0  0  0
 18 48  1  0  0  0  0
 18 49  1  0  0  0  0
 21 50  1  0  0  0  0
 21 51  1  0  0  0  0
 25 52  1  0  0  0  0
M  END
> <id>
EN300-1129091

> <smiles>
CC=1C=C(C=C2OC3(CCN(C3)C(=O)OC(C)(C)C)CC(N)C12)C(=O)O

> <IUPAC Name>
4-amino-1'-[(tert-butoxy)carbonyl]-5-methyl-3,4-dihydrospiro[1-benzopyran-2,3'-pyrrolidine]-7-carboxylic acid

> <CAS>
2137668-01-8

> <URL>
https://www.enaminestore.com/catalog/EN300-1129091

> <ROCS_ShapeQuery>
A71EV2A-x0451_0A_A71EV2A-x0310_0A_A71EV2A-x0416_0A_peptide

> <ROCS_TanimotoCombo>
0.545 

> <ROCS_ShapeTanimoto>
0.394 

> <ROCS_ColorTanimoto>
0.151 

> <ROCS_RefTversky>
0.343 

> <ROCS_RefColorTversky>
0.182 

> <ROCS_RefTverskyCombo>
0.526 

> <ROCS_FitTversky>
1.609 

> <ROCS_FitColorTversky>
0.464 

> <ROCS_FitTverskyCombo>
2.073 

> <ROCS_ColorScore>
-5.598

> <ROCS_Overlap>
2386.429

> <ROCS_Rank>
24                  

$$$$
untitled-dbase-55972_46
  -OEChem-11132313473D

 35 37  0     1  0  0  0  0  0999 V2000
   11.2306   13.6941   23.3007 C   0  0  0  0  0  0  0  0  0  0  0  0
    9.6244   10.8953   24.9339 C   0  0  0  0  0  0  0  0  0  0  0  0
    9.4378   10.4838   22.6054 C   0  0  0  0  0  0  0  0  0  0  0  0
    8.9209    9.9354   23.9568 C   0  0  2  0  0  0  0  0  0  0  0  0
    8.9714   12.1435   24.3081 C   0  0  1  0  0  0  0  0  0  0  0  0
    9.4446   12.0223   22.8357 C   0  0  1  0  0  0  0  0  0  0  0  0
    7.4561   10.3255   24.0744 C   0  0  2  0  0  0  0  0  0  0  0  0
    7.4873   11.7987   24.3157 C   0  0  1  0  0  0  0  0  0  0  0  0
   12.3105   16.3362   23.3517 C   0  0  0  0  0  0  0  0  0  0  0  0
   14.1416   15.4163   21.8992 C   0  0  0  0  0  0  0  0  0  0  0  0
   11.7690   15.4094   21.0752 C   0  0  0  0  0  0  0  0  0  0  0  0
   12.6738   15.2884   22.3006 C   0  0  0  0  0  0  0  0  0  0  0  0
   10.7485   12.5913   22.6207 N   0  0  0  0  0  0  0  0  0  0  0  0
   10.6232   14.3225   24.1614 O   0  0  0  0  0  0  0  0  0  0  0  0
    7.0117   10.8888   25.3120 O   0  0  0  0  0  0  0  0  0  0  0  0
   12.4948   13.9879   22.8728 O   0  0  0  0  0  0  0  0  0  0  0  0
    9.3368   10.7362   25.9786 H   0  0  0  0  0  0  0  0  0  0  0  0
   10.7161   10.8754   24.8566 H   0  0  0  0  0  0  0  0  0  0  0  0
   10.4452   10.1038   22.3978 H   0  0  0  0  0  0  0  0  0  0  0  0
    8.7871   10.2099   21.7682 H   0  0  0  0  0  0  0  0  0  0  0  0
    9.1136    8.8741   24.1219 H   0  0  0  0  0  0  0  0  0  0  0  0
    9.2014   13.0919   24.7978 H   0  0  0  0  0  0  0  0  0  0  0  0
    8.7583   12.5243   22.1448 H   0  0  0  0  0  0  0  0  0  0  0  0
    6.7595    9.8963   23.3744 H   0  0  0  0  0  0  0  0  0  0  0  0
    6.8124   12.4564   23.7946 H   0  0  0  0  0  0  0  0  0  0  0  0
   11.2576   16.2477   23.6425 H   0  0  0  0  0  0  0  0  0  0  0  0
   12.9288   16.2378   24.2499 H   0  0  0  0  0  0  0  0  0  0  0  0
   12.4371   17.3495   22.9537 H   0  0  0  0  0  0  0  0  0  0  0  0
   14.4066   14.6663   21.1451 H   0  0  0  0  0  0  0  0  0  0  0  0
   14.7983   15.2360   22.7579 H   0  0  0  0  0  0  0  0  0  0  0  0
   14.3648   16.4087   21.4944 H   0  0  0  0  0  0  0  0  0  0  0  0
   12.0294   14.6579   20.3211 H   0  0  0  0  0  0  0  0  0  0  0  0
   10.7139   15.2833   21.3389 H   0  0  0  0  0  0  0  0  0  0  0  0
   11.8934   16.3863   20.5940 H   0  0  0  0  0  0  0  0  0  0  0  0
   11.3522   12.1557   21.9262 H   0  0  0  0  0  0  0  0  0  0  0  0
  1 13  1  0  0  0  0
  1 14  2  0  0  0  0
  1 16  1  0  0  0  0
  2  4  1  0  0  0  0
  2  5  1  0  0  0  0
  3  4  1  0  0  0  0
  3  6  1  0  0  0  0
  4  7  1  0  0  0  0
  5  6  1  0  0  0  0
  5  8  1  0  0  0  0
  6 13  1  0  0  0  0
  7  8  1  0  0  0  0
  7 15  1  0  0  0  0
  8 15  1  0  0  0  0
  9 12  1  0  0  0  0
 10 12  1  0  0  0  0
 11 12  1  0  0  0  0
 12 16  1  0  0  0  0
  2 17  1  0  0  0  0
  2 18  1  0  0  0  0
  3 19  1  0  0  0  0
  3 20  1  0  0  0  0
  4 21  1  0  0  0  0
  5 22  1  0  0  0  0
  6 23  1  0  0  0  0
  7 24  1  0  0  0  0
  8 25  1  0  0  0  0
  9 26  1  0  0  0  0
  9 27  1  0  0  0  0
  9 28  1  0  0  0  0
 10 29  1  0  0  0  0
 10 30  1  0  0  0  0
 10 31  1  0  0  0  0
 11 32  1  0  0  0  0
 11 33  1  0  0  0  0
 11 34  1  0  0  0  0
 13 35  1  0  0  0  0
M  END
> <id>
EN300-1708416

> <smiles>
CC(C)(C)OC(=O)NC1CC2CC1C3OC32

> <MDLNUMBER>
MFCD32762801

> <IUPAC Name>
tert-butyl N-{3-oxatricyclo[3.2.1.0,2,4]octan-6-yl}carbamate

> <CAS>
2219408-55-4

> <URL>
https://www.enaminestore.com/catalog/EN300-1708416

> <ROCS_ShapeQuery>
A71EV2A-x0451_0A_A71EV2A-x0310_0A_A71EV2A-x0416_0A_peptide

> <ROCS_TanimotoCombo>
0.545 

> <ROCS_ShapeTanimoto>
0.287 

> <ROCS_ColorTanimoto>
0.258 

> <ROCS_RefTversky>
0.257 

> <ROCS_RefColorTversky>
0.348 

> <ROCS_RefTverskyCombo>
0.605 

> <ROCS_FitTversky>
1.697 

> <ROCS_FitColorTversky>
0.499 

> <ROCS_FitTverskyCombo>
2.197 

> <ROCS_ColorScore>
-10.858

> <ROCS_Overlap>
1779.392

> <ROCS_Rank>
25                  

$$$$
untitled-dbase-39097_650
  -OEChem-11132313473D

 49 51  0     1  0  0  0  0  0999 V2000
    6.9179   12.7979   25.1543 C   0  0  0  0  0  0  0  0  0  0  0  0
    5.8330   10.7727   25.8849 C   0  0  0  0  0  0  0  0  0  0  0  0
    5.9111   12.1622   25.8784 C   0  0  0  0  0  0  0  0  0  0  0  0
    7.7826   10.6469   24.4330 C   0  0  0  0  0  0  0  0  0  0  0  0
    7.8561   12.0455   24.4399 C   0  0  0  0  0  0  0  0  0  0  0  0
    6.7609   10.0196   25.1649 C   0  0  0  0  0  0  0  0  0  0  0  0
    4.9334   12.9498   26.6130 C   0  0  0  0  0  0  0  0  0  0  0  0
   12.0834   14.9533   22.3474 C   0  0  0  0  0  0  0  0  0  0  0  0
   11.0363   12.0197   24.3143 C   0  0  0  0  0  0  0  0  0  0  0  0
    9.5260   10.6963   22.6571 C   0  0  0  0  0  0  0  0  0  0  0  0
   11.6368   13.4189   24.2573 C   0  0  0  0  0  0  0  0  0  0  0  0
   10.5602   12.9418   22.1586 C   0  0  0  0  0  0  0  0  0  0  0  0
    8.7643    9.8125   23.6492 C   0  0  1  0  0  0  0  0  0  0  0  0
    9.9292   12.0523   23.2450 C   0  0  2  0  0  0  0  0  0  0  0  0
   13.4370   16.9196   20.6966 C   0  0  0  0  0  0  0  0  0  0  0  0
   12.6387   15.5395   18.7556 C   0  0  0  0  0  0  0  0  0  0  0  0
   10.9713   16.6544   20.2671 C   0  0  0  0  0  0  0  0  0  0  0  0
   12.3420   15.9840   20.1862 C   0  0  0  0  0  0  0  0  0  0  0  0
   11.4566   13.8390   22.8805 N   0  0  0  0  0  0  0  0  0  0  0  0
    9.6834    9.0710   24.5151 N   0  0  0  0  0  0  0  0  0  0  0  0
    4.9005   14.1837   26.6646 O   0  0  0  0  0  0  0  0  0  0  0  0
   12.3862   15.9479   23.0020 O   0  0  0  0  0  0  0  0  0  0  0  0
    8.7911   12.7711   23.7517 O   0  0  0  0  0  0  0  0  0  0  0  0
    4.0223   12.1743   27.2624 O   0  0  0  0  0  0  0  0  0  0  0  0
   12.3252   14.8088   21.0093 O   0  0  0  0  0  0  0  0  0  0  0  0
    6.6503    8.6839   25.1774 F   0  0  0  0  0  0  0  0  0  0  0  0
    6.9687   13.8849   25.1332 H   0  0  0  0  0  0  0  0  0  0  0  0
    5.0527   10.2639   26.4437 H   0  0  0  0  0  0  0  0  0  0  0  0
   11.8069   11.2811   24.0601 H   0  0  0  0  0  0  0  0  0  0  0  0
   10.6512   11.7990   25.3160 H   0  0  0  0  0  0  0  0  0  0  0  0
   10.4501   10.1748   22.3298 H   0  0  0  0  0  0  0  0  0  0  0  0
    8.9225   10.8353   21.7375 H   0  0  0  0  0  0  0  0  0  0  0  0
   11.0878   14.1202   24.8960 H   0  0  0  0  0  0  0  0  0  0  0  0
   12.6945   13.4439   24.5379 H   0  0  0  0  0  0  0  0  0  0  0  0
   11.1779   12.3655   21.4594 H   0  0  0  0  0  0  0  0  0  0  0  0
    9.8335   13.5343   21.5926 H   0  0  0  0  0  0  0  0  0  0  0  0
    8.1619    9.0697   23.0877 H   0  0  0  0  0  0  0  0  0  0  0  0
   13.2277   17.2409   21.7232 H   0  0  0  0  0  0  0  0  0  0  0  0
   14.4203   16.4384   20.6765 H   0  0  0  0  0  0  0  0  0  0  0  0
   13.4856   17.8318   20.0910 H   0  0  0  0  0  0  0  0  0  0  0  0
   11.8556   14.8681   18.3853 H   0  0  0  0  0  0  0  0  0  0  0  0
   13.5769   14.9748   18.7090 H   0  0  0  0  0  0  0  0  0  0  0  0
   12.7139   16.3934   18.0746 H   0  0  0  0  0  0  0  0  0  0  0  0
   10.1856   15.9835   19.9011 H   0  0  0  0  0  0  0  0  0  0  0  0
   10.7254   16.9470   21.2931 H   0  0  0  0  0  0  0  0  0  0  0  0
   10.9360   17.5472   19.6324 H   0  0  0  0  0  0  0  0  0  0  0  0
   10.6084    9.3206   24.2626 H   0  0  0  0  0  0  0  0  0  0  0  0
    9.4904    9.3258   25.4528 H   0  0  0  0  0  0  0  0  0  0  0  0
    3.3576   12.6962   27.7604 H   0  0  0  0  0  0  0  0  0  0  0  0
  1  3  1  0  0  0  0
  1  5  2  0  0  0  0
  2  3  2  0  0  0  0
  2  6  1  0  0  0  0
  3  7  1  0  0  0  0
  4  5  1  0  0  0  0
  4  6  2  0  0  0  0
  4 13  1  0  0  0  0
  5 23  1  0  0  0  0
  6 26  1  0  0  0  0
  7 21  2  0  0  0  0
  7 24  1  0  0  0  0
  8 19  1  0  0  0  0
  8 22  2  0  0  0  0
  8 25  1  0  0  0  0
  9 11  1  0  0  0  0
  9 14  1  0  0  0  0
 10 13  1  0  0  0  0
 10 14  1  0  0  0  0
 11 19  1  0  0  0  0
 12 14  1  0  0  0  0
 12 19  1  0  0  0  0
 13 20  1  0  0  0  0
 14 23  1  0  0  0  0
 15 18  1  0  0  0  0
 16 18  1  0  0  0  0
 17 18  1  0  0  0  0
 18 25  1  0  0  0  0
  1 27  1  0  0  0  0
  2 28  1  0  0  0  0
  9 29  1  0  0  0  0
  9 30  1  0  0  0  0
 10 31  1  0  0  0  0
 10 32  1  0  0  0  0
 11 33  1  0  0  0  0
 11 34  1  0  0  0  0
 12 35  1  0  0  0  0
 12 36  1  0  0  0  0
 13 37  1  0  0  0  0
 15 38  1  0  0  0  0
 15 39  1  0  0  0  0
 15 40  1  0  0  0  0
 16 41  1  0  0  0  0
 16 42  1  0  0  0  0
 16 43  1  0  0  0  0
 17 44  1  0  0  0  0
 17 45  1  0  0  0  0
 17 46  1  0  0  0  0
 20 47  1  0  0  0  0
 20 48  1  0  0  0  0
 24 49  1  0  0  0  0
M  END
> <id>
EN300-1129090

> <smiles>
CC(C)(C)OC(=O)N1CCC2(C1)CC(N)C=3C(F)=CC(=CC3O2)C(=O)O

> <IUPAC Name>
4-amino-1'-[(tert-butoxy)carbonyl]-5-fluoro-3,4-dihydrospiro[1-benzopyran-2,3'-pyrrolidine]-7-carboxylic acid

> <CAS>
2137602-21-0

> <URL>
https://www.enaminestore.com/catalog/EN300-1129090

> <ROCS_ShapeQuery>
A71EV2A-x0451_0A_A71EV2A-x0310_0A_A71EV2A-x0416_0A_peptide

> <ROCS_TanimotoCombo>
0.545 

> <ROCS_ShapeTanimoto>
0.397 

> <ROCS_ColorTanimoto>
0.148 

> <ROCS_RefTversky>
0.345 

> <ROCS_RefColorTversky>
0.180 

> <ROCS_RefTverskyCombo>
0.525 

> <ROCS_FitTversky>
1.609 

> <ROCS_FitColorTversky>
0.458 

> <ROCS_FitTverskyCombo>
2.067 

> <ROCS_ColorScore>
-5.517

> <ROCS_Overlap>
2399.177

> <ROCS_Rank>
26                  

$$$$
untitled-dbase-139462_19
  -OEChem-11132313473D

 36 37  0     1  0  0  0  0  0999 V2000
   10.8149   13.6885   22.9953 C   0  0  0  0  0  0  0  0  0  0  0  0
    9.7499   10.2827   24.1468 C   0  0  0  0  0  0  0  0  0  0  0  0
    7.6767   10.7274   23.0557 C   0  0  0  0  0  0  0  0  0  0  0  0
    7.5549   10.2334   25.3386 C   0  0  0  0  0  0  0  0  0  0  0  0
    9.5771   11.8162   24.0740 C   0  0  2  0  0  0  0  0  0  0  0  0
    8.0545   11.9479   23.8839 C   0  0  2  0  0  0  0  0  0  0  0  0
    8.2926    9.7771   24.0748 C   0  0  2  0  0  0  0  0  0  0  0  0
   12.1023   16.1764   22.4455 C   0  0  0  0  0  0  0  0  0  0  0  0
   12.2612   15.3586   20.0759 C   0  0  0  0  0  0  0  0  0  0  0  0
   10.0084   15.7036   21.1314 C   0  0  0  0  0  0  0  0  0  0  0  0
   11.4606   15.2952   21.3748 C   0  0  0  0  0  0  0  0  0  0  0  0
    8.1722    8.3664   23.7993 N   0  0  0  0  0  0  0  0  0  0  0  0
   10.3270   12.3940   22.9930 N   0  0  0  0  0  0  0  0  0  0  0  0
   10.6747   14.5002   23.9042 O   0  0  0  0  0  0  0  0  0  0  0  0
    7.4571   11.6686   25.1753 O   0  0  0  0  0  0  0  0  0  0  0  0
   11.4823   13.9373   21.8291 O   0  0  0  0  0  0  0  0  0  0  0  0
   10.3420    9.9079   23.3021 H   0  0  0  0  0  0  0  0  0  0  0  0
   10.2542    9.9767   25.0703 H   0  0  0  0  0  0  0  0  0  0  0  0
    6.5929   10.5979   22.9595 H   0  0  0  0  0  0  0  0  0  0  0  0
    8.1461   10.6962   22.0674 H   0  0  0  0  0  0  0  0  0  0  0  0
    6.5357    9.8366   25.4037 H   0  0  0  0  0  0  0  0  0  0  0  0
    8.0886   10.0058   26.2667 H   0  0  0  0  0  0  0  0  0  0  0  0
    9.9114   12.2881   25.0043 H   0  0  0  0  0  0  0  0  0  0  0  0
    7.7141   12.9152   23.5082 H   0  0  0  0  0  0  0  0  0  0  0  0
   11.5306   16.1337   23.3794 H   0  0  0  0  0  0  0  0  0  0  0  0
   13.1329   15.8716   22.6544 H   0  0  0  0  0  0  0  0  0  0  0  0
   12.1085   17.2275   22.1347 H   0  0  0  0  0  0  0  0  0  0  0  0
   11.8043   14.7277   19.3048 H   0  0  0  0  0  0  0  0  0  0  0  0
   13.2776   14.9766   20.2248 H   0  0  0  0  0  0  0  0  0  0  0  0
   12.3280   16.3817   19.6920 H   0  0  0  0  0  0  0  0  0  0  0  0
    9.5479   15.0716   20.3635 H   0  0  0  0  0  0  0  0  0  0  0  0
    9.4099   15.6288   22.0451 H   0  0  0  0  0  0  0  0  0  0  0  0
    9.9502   16.7332   20.7603 H   0  0  0  0  0  0  0  0  0  0  0  0
    7.6899    7.9243   24.5532 H   0  0  0  0  0  0  0  0  0  0  0  0
    7.6605    8.2402   22.9514 H   0  0  0  0  0  0  0  0  0  0  0  0
   10.5105   11.8149   22.1748 H   0  0  0  0  0  0  0  0  0  0  0  0
  1 13  1  0  0  0  0
  1 14  2  0  0  0  0
  1 16  1  0  0  0  0
  2  5  1  0  0  0  0
  2  7  1  0  0  0  0
  3  6  1  0  0  0  0
  3  7  1  0  0  0  0
  4  7  1  0  0  0  0
  4 15  1  0  0  0  0
  5  6  1  0  0  0  0
  5 13  1  1  0  0  0
  6 15  1  6  0  0  0
  7 12  1  1  0  0  0
  8 11  1  0  0  0  0
  9 11  1  0  0  0  0
 10 11  1  0  0  0  0
 11 16  1  0  0  0  0
  2 17  1  0  0  0  0
  2 18  1  0  0  0  0
  3 19  1  0  0  0  0
  3 20  1  0  0  0  0
  4 21  1  0  0  0  0
  4 22  1  0  0  0  0
  5 23  1  0  0  0  0
  6 24  1  0  0  0  0
  8 25  1  0  0  0  0
  8 26  1  0  0  0  0
  8 27  1  0  0  0  0
  9 28  1  0  0  0  0
  9 29  1  0  0  0  0
  9 30  1  0  0  0  0
 10 31  1  0  0  0  0
 10 32  1  0  0  0  0
 10 33  1  0  0  0  0
 12 34  1  0  0  0  0
 12 35  1  0  0  0  0
 13 36  1  0  0  0  0
M  END
> <id>
EN300-27150444

> <smiles>
CC(C)(C)OC(=O)N[C@@H]1C[C@@]2(N)CO[C@@H]1C2 |&1:8,10,14,r|

> <IUPAC Name>
rac-tert-butyl N-[(1R,4S,6R)-4-amino-2-oxabicyclo[2.2.1]heptan-6-yl]carbamate

> <Purity>
95

> <URL>
https://www.enaminestore.com/catalog/EN300-27150444

> <ROCS_ShapeQuery>
A71EV2A-x0451_0A_A71EV2A-x0310_0A_A71EV2A-x0416_0A_peptide

> <ROCS_TanimotoCombo>
0.545 

> <ROCS_ShapeTanimoto>
0.301 

> <ROCS_ColorTanimoto>
0.244 

> <ROCS_RefTversky>
0.266 

> <ROCS_RefColorTversky>
0.281 

> <ROCS_RefTverskyCombo>
0.547 

> <ROCS_FitTversky>
1.775 

> <ROCS_FitColorTversky>
0.648 

> <ROCS_FitTverskyCombo>
2.423 

> <ROCS_ColorScore>
-8.645

> <ROCS_Overlap>
1843.843

> <ROCS_Rank>
27                  

$$$$
untitled-dbase-142705_69
  -OEChem-11132313473D

 46 48  0     0  0  0  0  0  0999 V2000
    6.0231   10.8689   25.5495 C   0  0  0  0  0  0  0  0  0  0  0  0
    6.8493    9.9775   24.8629 C   0  0  0  0  0  0  0  0  0  0  0  0
    7.5568   12.6952   25.0944 C   0  0  0  0  0  0  0  0  0  0  0  0
    6.3768   12.2176   25.6677 C   0  0  0  0  0  0  0  0  0  0  0  0
    8.0283   10.4482   24.2971 C   0  0  0  0  0  0  0  0  0  0  0  0
    8.3686   11.8024   24.4073 C   0  0  0  0  0  0  0  0  0  0  0  0
    5.5025   13.1301   26.3880 C   0  0  0  0  0  0  0  0  0  0  0  0
   10.2394   13.2731   23.6477 C   0  0  0  0  0  0  0  0  0  0  0  0
    8.3375    7.4053   23.0621 C   0  0  0  0  0  0  0  0  0  0  0  0
    9.0670    7.4015   24.4035 C   0  0  0  0  0  0  0  0  0  0  0  0
    8.5859    8.7748   22.4278 C   0  0  0  0  0  0  0  0  0  0  0  0
    9.8668    8.6989   24.4524 C   0  0  0  0  0  0  0  0  0  0  0  0
    9.9944   10.8241   23.0403 C   0  0  0  0  0  0  0  0  0  0  0  0
    9.0973    9.6768   23.5546 C   0  0  0  0  0  0  0  0  0  0  0  0
   12.6799   14.7355   23.3224 C   0  0  0  0  0  0  0  0  0  0  0  0
   12.2301   14.5794   20.8561 C   0  0  0  0  0  0  0  0  0  0  0  0
   10.6199   15.8022   22.3461 C   0  0  0  0  0  0  0  0  0  0  0  0
   11.6000   14.6342   22.2461 C   0  0  0  0  0  0  0  0  0  0  0  0
    9.5740   12.0572   23.7284 N   0  0  0  0  0  0  0  0  0  0  0  0
    5.3783   14.3366   26.1542 O   0  0  0  0  0  0  0  0  0  0  0  0
   10.2770   14.1332   24.5229 O   0  0  0  0  0  0  0  0  0  0  0  0
    4.8066   12.5097   27.3798 O   0  0  0  0  0  0  0  0  0  0  0  0
   10.8761   13.4135   22.4402 O   0  0  0  0  0  0  0  0  0  0  0  0
    5.1015   10.5010   25.9945 H   0  0  0  0  0  0  0  0  0  0  0  0
    6.5593    8.9360   24.7887 H   0  0  0  0  0  0  0  0  0  0  0  0
    7.8063   13.7459   25.1865 H   0  0  0  0  0  0  0  0  0  0  0  0
    8.7057    6.6069   22.4087 H   0  0  0  0  0  0  0  0  0  0  0  0
    7.2666    7.2286   23.2094 H   0  0  0  0  0  0  0  0  0  0  0  0
    8.3444    7.3644   25.2261 H   0  0  0  0  0  0  0  0  0  0  0  0
    9.7167    6.5267   24.5092 H   0  0  0  0  0  0  0  0  0  0  0  0
    9.3564    8.6603   21.6544 H   0  0  0  0  0  0  0  0  0  0  0  0
    7.6860    9.1604   21.9367 H   0  0  0  0  0  0  0  0  0  0  0  0
    9.9968    9.0550   25.4801 H   0  0  0  0  0  0  0  0  0  0  0  0
   10.8651    8.5049   24.0398 H   0  0  0  0  0  0  0  0  0  0  0  0
   11.0618   10.6541   23.2206 H   0  0  0  0  0  0  0  0  0  0  0  0
    9.8623   11.0015   21.9653 H   0  0  0  0  0  0  0  0  0  0  0  0
   12.2316   14.7751   24.3216 H   0  0  0  0  0  0  0  0  0  0  0  0
   13.3688   13.8854   23.2838 H   0  0  0  0  0  0  0  0  0  0  0  0
   13.2611   15.6575   23.2076 H   0  0  0  0  0  0  0  0  0  0  0  0
   11.4589   14.5067   20.0807 H   0  0  0  0  0  0  0  0  0  0  0  0
   12.8610   13.6896   20.7483 H   0  0  0  0  0  0  0  0  0  0  0  0
   12.8419   15.4646   20.6546 H   0  0  0  0  0  0  0  0  0  0  0  0
    9.8452   15.7298   21.5741 H   0  0  0  0  0  0  0  0  0  0  0  0
   10.1305   15.8353   23.3248 H   0  0  0  0  0  0  0  0  0  0  0  0
   11.1329   16.7566   22.1807 H   0  0  0  0  0  0  0  0  0  0  0  0
    4.2131   13.1168   27.8713 H   0  0  0  0  0  0  0  0  0  0  0  0
  1  2  1  0  0  0  0
  1  4  2  0  0  0  0
  2  5  2  0  0  0  0
  3  4  1  0  0  0  0
  3  6  2  0  0  0  0
  4  7  1  0  0  0  0
  5  6  1  0  0  0  0
  5 14  1  0  0  0  0
  6 19  1  0  0  0  0
  7 20  2  0  0  0  0
  7 22  1  0  0  0  0
  8 19  1  0  0  0  0
  8 21  2  0  0  0  0
  8 23  1  0  0  0  0
  9 10  1  0  0  0  0
  9 11  1  0  0  0  0
 10 12  1  0  0  0  0
 11 14  1  0  0  0  0
 12 14  1  0  0  0  0
 13 14  1  0  0  0  0
 13 19  1  0  0  0  0
 15 18  1  0  0  0  0
 16 18  1  0  0  0  0
 17 18  1  0  0  0  0
 18 23  1  0  0  0  0
  1 24  1  0  0  0  0
  2 25  1  0  0  0  0
  3 26  1  0  0  0  0
  9 27  1  0  0  0  0
  9 28  1  0  0  0  0
 10 29  1  0  0  0  0
 10 30  1  0  0  0  0
 11 31  1  0  0  0  0
 11 32  1  0  0  0  0
 12 33  1  0  0  0  0
 12 34  1  0  0  0  0
 13 35  1  0  0  0  0
 13 36  1  0  0  0  0
 15 37  1  0  0  0  0
 15 38  1  0  0  0  0
 15 39  1  0  0  0  0
 16 40  1  0  0  0  0
 16 41  1  0  0  0  0
 16 42  1  0  0  0  0
 17 43  1  0  0  0  0
 17 44  1  0  0  0  0
 17 45  1  0  0  0  0
 22 46  1  0  0  0  0
M  END
> <id>
EN300-23012707

> <smiles>
CC(C)(C)OC(=O)N1CC2(CCCC2)C=3C=CC(=CC13)C(=O)O

> <IUPAC Name>
1'-[(tert-butoxy)carbonyl]-1',2'-dihydrospiro[cyclopentane-1,3'-indole]-6'-carboxylic acid

> <CAS>
2580250-95-7

> <URL>
https://www.enaminestore.com/catalog/EN300-23012707

> <ROCS_ShapeQuery>
A71EV2A-x0451_0A_A71EV2A-x0310_0A_A71EV2A-x0416_0A_peptide

> <ROCS_TanimotoCombo>
0.545 

> <ROCS_ShapeTanimoto>
0.392 

> <ROCS_ColorTanimoto>
0.153 

> <ROCS_RefTversky>
0.337 

> <ROCS_RefColorTversky>
0.173 

> <ROCS_RefTverskyCombo>
0.509 

> <ROCS_FitTversky>
1.724 

> <ROCS_FitColorTversky>
0.572 

> <ROCS_FitTverskyCombo>
2.295 

> <ROCS_ColorScore>
-5.268

> <ROCS_Overlap>
2338.082

> <ROCS_Rank>
28                  

$$$$
untitled-dbase-147134_44
  -OEChem-11132313473D

 40 41  0     1  0  0  0  0  0999 V2000
    6.8900   12.8765   26.2653 C   0  0  0  0  0  0  0  0  0  0  0  0
    7.9608   13.0392   25.3773 C   0  0  0  0  0  0  0  0  0  0  0  0
    6.6891   10.5755   25.6155 C   0  0  0  0  0  0  0  0  0  0  0  0
    6.2524   11.6478   26.3827 C   0  0  0  0  0  0  0  0  0  0  0  0
    8.4244   11.9720   24.5928 C   0  0  0  0  0  0  0  0  0  0  0  0
    7.7717   10.7319   24.7409 C   0  0  0  0  0  0  0  0  0  0  0  0
    5.1349   11.4871   27.2987 C   0  0  0  0  0  0  0  0  0  0  0  0
   10.2519   13.2633   23.4335 C   0  0  0  0  0  0  0  0  0  0  0  0
    9.7016   10.9129   22.7822 C   0  0  0  0  0  0  0  0  0  0  0  0
    9.4575    9.6330   23.5645 C   0  0  2  0  0  0  0  0  0  0  0  0
    9.6585    8.4077   22.6807 C   0  0  0  0  0  0  0  0  0  0  0  0
   12.7065   14.5169   22.6324 C   0  0  0  0  0  0  0  0  0  0  0  0
   11.7315   14.5275   20.3176 C   0  0  0  0  0  0  0  0  0  0  0  0
   10.6043   15.8160   22.1554 C   0  0  0  0  0  0  0  0  0  0  0  0
   11.4187   14.5696   21.8118 C   0  0  0  0  0  0  0  0  0  0  0  0
    9.4885   12.0957   23.6308 N   0  0  0  0  0  0  0  0  0  0  0  0
    4.0730   12.1170   27.2509 O   0  0  0  0  0  0  0  0  0  0  0  0
   10.5699   14.0818   24.2912 O   0  0  0  0  0  0  0  0  0  0  0  0
    8.1135    9.6009   24.0418 O   0  0  0  0  0  0  0  0  0  0  0  0
    5.3727   10.5424   28.2499 O   0  0  0  0  0  0  0  0  0  0  0  0
   10.6333   13.4118   22.1211 O   0  0  0  0  0  0  0  0  0  0  0  0
    6.5571   13.7287   26.8533 H   0  0  0  0  0  0  0  0  0  0  0  0
    8.3816   14.0353   25.3211 H   0  0  0  0  0  0  0  0  0  0  0  0
    6.1974    9.6086   25.6992 H   0  0  0  0  0  0  0  0  0  0  0  0
   10.7202   10.9059   22.3810 H   0  0  0  0  0  0  0  0  0  0  0  0
    9.0051   11.0063   21.9390 H   0  0  0  0  0  0  0  0  0  0  0  0
   10.1452    9.5589   24.4182 H   0  0  0  0  0  0  0  0  0  0  0  0
    8.9878    8.4532   21.8228 H   0  0  0  0  0  0  0  0  0  0  0  0
    9.4472    7.5011   23.2475 H   0  0  0  0  0  0  0  0  0  0  0  0
   10.6877    8.3706   22.3240 H   0  0  0  0  0  0  0  0  0  0  0  0
   12.4863   14.5469   23.7055 H   0  0  0  0  0  0  0  0  0  0  0  0
   13.2828   13.6103   22.4209 H   0  0  0  0  0  0  0  0  0  0  0  0
   13.3398   15.3865   22.4224 H   0  0  0  0  0  0  0  0  0  0  0  0
   10.8103   14.5651   19.7249 H   0  0  0  0  0  0  0  0  0  0  0  0
   12.2327   13.5903   20.0500 H   0  0  0  0  0  0  0  0  0  0  0  0
   12.3725   15.3620   20.0153 H   0  0  0  0  0  0  0  0  0  0  0  0
    9.6804   15.8540   21.5668 H   0  0  0  0  0  0  0  0  0  0  0  0
   10.3390   15.8443   23.2172 H   0  0  0  0  0  0  0  0  0  0  0  0
   11.1637   16.7264   21.9118 H   0  0  0  0  0  0  0  0  0  0  0  0
    4.6238   10.4257   28.8728 H   0  0  0  0  0  0  0  0  0  0  0  0
  1  2  1  0  0  0  0
  1  4  2  0  0  0  0
  2  5  2  0  0  0  0
  3  4  1  0  0  0  0
  3  6  2  0  0  0  0
  4  7  1  0  0  0  0
  5  6  1  0  0  0  0
  5 16  1  0  0  0  0
  6 19  1  0  0  0  0
  7 17  2  0  0  0  0
  7 20  1  0  0  0  0
  8 16  1  0  0  0  0
  8 18  2  0  0  0  0
  8 21  1  0  0  0  0
  9 10  1  0  0  0  0
  9 16  1  0  0  0  0
 10 11  1  0  0  0  0
 10 19  1  0  0  0  0
 12 15  1  0  0  0  0
 13 15  1  0  0  0  0
 14 15  1  0  0  0  0
 15 21  1  0  0  0  0
  1 22  1  0  0  0  0
  2 23  1  0  0  0  0
  3 24  1  0  0  0  0
  9 25  1  0  0  0  0
  9 26  1  0  0  0  0
 10 27  1  0  0  0  0
 11 28  1  0  0  0  0
 11 29  1  0  0  0  0
 11 30  1  0  0  0  0
 12 31  1  0  0  0  0
 12 32  1  0  0  0  0
 12 33  1  0  0  0  0
 13 34  1  0  0  0  0
 13 35  1  0  0  0  0
 13 36  1  0  0  0  0
 14 37  1  0  0  0  0
 14 38  1  0  0  0  0
 14 39  1  0  0  0  0
 20 40  1  0  0  0  0
M  END
> <id>
EN300-27782824

> <smiles>
CC1CN(C(=O)OC(C)(C)C)C=2C=CC(=CC2O1)C(=O)O

> <IUPAC Name>
4-[(tert-butoxy)carbonyl]-2-methyl-3,4-dihydro-2H-1,4-benzoxazine-7-carboxylic acid

> <CAS>
2639446-52-7

> <URL>
https://www.enaminestore.com/catalog/EN300-27782824

> <ROCS_ShapeQuery>
A71EV2A-x0451_0A_A71EV2A-x0310_0A_A71EV2A-x0416_0A_peptide

> <ROCS_TanimotoCombo>
0.544 

> <ROCS_ShapeTanimoto>
0.366 

> <ROCS_ColorTanimoto>
0.179 

> <ROCS_RefTversky>
0.317 

> <ROCS_RefColorTversky>
0.197 

> <ROCS_RefTverskyCombo>
0.514 

> <ROCS_FitTversky>
1.740 

> <ROCS_FitColorTversky>
0.654 

> <ROCS_FitTverskyCombo>
2.394 

> <ROCS_ColorScore>
-6.021

> <ROCS_Overlap>
2197.881

> <ROCS_Rank>
29                  

$$$$
untitled-dbase-118795_10
  -OEChem-11132313473D

 39 43  0     1  0  0  0  0  0999 V2000
   14.0903   15.7318   20.1307 B   0  0  0  0  0  0  0  0  0  0  0  0
   10.2109   14.2157   21.0866 C   0  0  0  0  0  0  0  0  0  0  0  0
   10.6109   14.7187   19.8480 C   0  0  0  0  0  0  0  0  0  0  0  0
   12.4241   14.6323   22.0147 C   0  0  0  0  0  0  0  0  0  0  0  0
   12.8194   15.1286   20.7938 C   0  0  0  0  0  0  0  0  0  0  0  0
   11.1109   14.1728   22.1612 C   0  0  0  0  0  0  0  0  0  0  0  0
   11.9172   15.1747   19.7042 C   0  0  0  0  0  0  0  0  0  0  0  0
   10.6673   13.6362   23.4595 C   0  0  0  0  0  0  0  0  0  0  0  0
   12.5023   15.7398   18.4472 C   0  0  0  0  0  0  0  0  0  0  0  0
    7.4195    9.6100   24.6352 C   0  0  0  0  0  0  0  0  0  0  0  0
    7.7039   10.6351   25.7520 C   0  0  0  0  0  0  0  0  0  0  0  0
    7.3942   11.7950   23.7022 C   0  0  0  0  0  0  0  0  0  0  0  0
   10.1157   11.3834   22.3859 C   0  0  0  0  0  0  0  0  0  0  0  0
    7.8343   10.3726   23.3613 C   0  0  1  0  0  0  0  0  0  0  0  0
    8.2478   11.8471   24.9692 C   0  0  2  0  0  0  0  0  0  0  0  0
    9.3761   10.4518   23.3631 C   0  0  2  0  0  0  0  0  0  0  0  0
    9.6575   11.4634   24.4908 C   0  0  1  0  0  0  0  0  0  0  0  0
   10.2315   12.3362   23.4799 N   0  0  0  0  0  0  0  0  0  0  0  0
   10.7296   14.3678   24.4445 O   0  0  0  0  0  0  0  0  0  0  0  0
   13.8715   16.0673   18.7959 O   0  0  0  0  0  0  0  0  0  0  0  0
   15.2761   15.9107   20.7793 O   0  0  0  0  0  0  0  0  0  0  0  0
    9.1919   13.8559   21.2087 H   0  0  0  0  0  0  0  0  0  0  0  0
    9.9135   14.7500   19.0173 H   0  0  0  0  0  0  0  0  0  0  0  0
   13.1173   14.5968   22.8508 H   0  0  0  0  0  0  0  0  0  0  0  0
   12.5086   15.0048   17.6343 H   0  0  0  0  0  0  0  0  0  0  0  0
   11.9871   16.6544   18.1334 H   0  0  0  0  0  0  0  0  0  0  0  0
    7.9876    8.6856   24.7800 H   0  0  0  0  0  0  0  0  0  0  0  0
    6.3523    9.3627   24.6147 H   0  0  0  0  0  0  0  0  0  0  0  0
    6.7755   10.8898   26.2752 H   0  0  0  0  0  0  0  0  0  0  0  0
    8.4203   10.2478   26.4837 H   0  0  0  0  0  0  0  0  0  0  0  0
    7.6766   12.5354   22.9488 H   0  0  0  0  0  0  0  0  0  0  0  0
    6.3201   11.8796   23.9002 H   0  0  0  0  0  0  0  0  0  0  0  0
   11.0887   11.0183   22.0450 H   0  0  0  0  0  0  0  0  0  0  0  0
    9.5326   11.7513   21.5381 H   0  0  0  0  0  0  0  0  0  0  0  0
    7.4200    9.9581   22.4403 H   0  0  0  0  0  0  0  0  0  0  0  0
    8.2041   12.7849   25.5263 H   0  0  0  0  0  0  0  0  0  0  0  0
    9.8658    9.4770   23.4725 H   0  0  0  0  0  0  0  0  0  0  0  0
   10.3797   11.1539   25.2521 H   0  0  0  0  0  0  0  0  0  0  0  0
   15.2307   15.6156   21.7060 H   0  0  0  0  0  0  0  0  0  0  0  0
  1  5  1  0  0  0  0
  1 20  1  0  0  0  0
  1 21  1  0  0  0  0
  2  3  1  0  0  0  0
  2  6  2  0  0  0  0
  3  7  2  0  0  0  0
  4  5  2  0  0  0  0
  4  6  1  0  0  0  0
  5  7  1  0  0  0  0
  6  8  1  0  0  0  0
  7  9  1  0  0  0  0
  8 18  1  0  0  0  0
  8 19  2  0  0  0  0
  9 20  1  0  0  0  0
 10 11  1  0  0  0  0
 10 14  1  0  0  0  0
 11 15  1  0  0  0  0
 12 14  1  0  0  0  0
 12 15  1  0  0  0  0
 13 16  1  0  0  0  0
 13 18  1  0  0  0  0
 14 16  1  0  0  0  0
 15 17  1  0  0  0  0
 16 17  1  0  0  0  0
 17 18  1  0  0  0  0
  2 22  1  0  0  0  0
  3 23  1  0  0  0  0
  4 24  1  0  0  0  0
  9 25  1  0  0  0  0
  9 26  1  0  0  0  0
 10 27  1  0  0  0  0
 10 28  1  0  0  0  0
 11 29  1  0  0  0  0
 11 30  1  0  0  0  0
 12 31  1  0  0  0  0
 12 32  1  0  0  0  0
 13 33  1  0  0  0  0
 13 34  1  0  0  0  0
 14 35  1  0  0  0  0
 15 36  1  0  0  0  0
 16 37  1  0  0  0  0
 17 38  1  0  0  0  0
 21 39  1  0  0  0  0
M  END
> <id>
EN300-7527787

> <smiles>
OB1OCC=2C=CC(=CC12)C(=O)N3CC4C3C5CCC4C5

> <IUPAC Name>
6-{3-azatricyclo[4.2.1.0,2,5]nonane-3-carbonyl}-1,3-dihydro-2,1-benzoxaborol-1-ol

> <URL>
https://www.enaminestore.com/catalog/EN300-7527787

> <ROCS_ShapeQuery>
A71EV2A-x0451_0A_A71EV2A-x0310_0A_A71EV2A-x0416_0A_peptide

> <ROCS_TanimotoCombo>
0.544 

> <ROCS_ShapeTanimoto>
0.322 

> <ROCS_ColorTanimoto>
0.222 

> <ROCS_RefTversky>
0.289 

> <ROCS_RefColorTversky>
0.273 

> <ROCS_RefTverskyCombo>
0.562 

> <ROCS_FitTversky>
1.545 

> <ROCS_FitColorTversky>
0.545 

> <ROCS_FitTverskyCombo>
2.090 

> <ROCS_ColorScore>
-8.427

> <ROCS_Overlap>
2007.348

> <ROCS_Rank>
30                  

$$$$
untitled-dbase-172324_8
  -OEChem-11132313473D

 35 36  0     0  0  0  0  0  0999 V2000
    8.3923   12.7375   24.1536 C   0  0  0  0  0  0  0  0  0  0  0  0
    8.9227    8.3150   23.6900 C   0  0  0  0  0  0  0  0  0  0  0  0
    9.0272   10.5211   23.6782 C   0  0  0  0  0  0  0  0  0  0  0  0
    9.2970   11.8778   23.5363 C   0  0  0  0  0  0  0  0  0  0  0  0
    7.9255   10.0600   24.3901 C   0  0  0  0  0  0  0  0  0  0  0  0
    7.3131   12.2022   24.8489 C   0  0  0  0  0  0  0  0  0  0  0  0
   11.1033   13.5528   23.0435 C   0  0  0  0  0  0  0  0  0  0  0  0
   12.1413   16.0555   22.1280 C   0  0  0  0  0  0  0  0  0  0  0  0
   13.2658   14.7187   20.3231 C   0  0  0  0  0  0  0  0  0  0  0  0
   10.7588   14.7634   20.4686 C   0  0  0  0  0  0  0  0  0  0  0  0
   10.8519    9.2952   22.4447 C   0  0  0  0  0  0  0  0  0  0  0  0
   12.0641   14.7989   21.2621 C   0  0  0  0  0  0  0  0  0  0  0  0
    7.8731    8.6888   24.3890 N   0  0  0  0  0  0  0  0  0  0  0  0
    7.0360   10.8851   24.9963 N   0  0  0  0  0  0  0  0  0  0  0  0
    9.6496    9.3842   23.2396 N   0  0  0  0  0  0  0  0  0  0  0  0
   10.4066   12.3811   22.8198 N   0  0  0  0  0  0  0  0  0  0  0  0
   10.8977   14.3934   23.9105 O   0  0  0  0  0  0  0  0  0  0  0  0
    6.4377   13.0768   25.4468 O   0  0  0  0  0  0  0  0  0  0  0  0
   12.1083   13.6551   22.1161 O   0  0  0  0  0  0  0  0  0  0  0  0
    8.5252   13.8145   24.0947 H   0  0  0  0  0  0  0  0  0  0  0  0
    9.2059    7.2931   23.4770 H   0  0  0  0  0  0  0  0  0  0  0  0
   11.2805   16.1168   22.8034 H   0  0  0  0  0  0  0  0  0  0  0  0
   13.0566   16.0760   22.7285 H   0  0  0  0  0  0  0  0  0  0  0  0
   12.1133   16.9594   21.5088 H   0  0  0  0  0  0  0  0  0  0  0  0
   13.2145   13.8186   19.6999 H   0  0  0  0  0  0  0  0  0  0  0  0
   14.2007   14.6482   20.8908 H   0  0  0  0  0  0  0  0  0  0  0  0
   13.3241   15.5924   19.6661 H   0  0  0  0  0  0  0  0  0  0  0  0
   10.7032   13.8621   19.8474 H   0  0  0  0  0  0  0  0  0  0  0  0
    9.8852   14.7829   21.1281 H   0  0  0  0  0  0  0  0  0  0  0  0
   10.6964   15.6160   19.7827 H   0  0  0  0  0  0  0  0  0  0  0  0
   10.5606    9.2979   21.3910 H   0  0  0  0  0  0  0  0  0  0  0  0
   11.4980   10.1496   22.6648 H   0  0  0  0  0  0  0  0  0  0  0  0
   11.3822    8.3718   22.6936 H   0  0  0  0  0  0  0  0  0  0  0  0
   10.7322   11.8101   22.0435 H   0  0  0  0  0  0  0  0  0  0  0  0
    5.7393   12.5805   25.8929 H   0  0  0  0  0  0  0  0  0  0  0  0
  1  4  1  0  0  0  0
  1  6  2  0  0  0  0
  2 13  2  0  0  0  0
  2 15  1  0  0  0  0
  3  4  2  0  0  0  0
  3  5  1  0  0  0  0
  3 15  1  0  0  0  0
  4 16  1  0  0  0  0
  5 13  1  0  0  0  0
  5 14  2  0  0  0  0
  6 14  1  0  0  0  0
  6 18  1  0  0  0  0
  7 16  1  0  0  0  0
  7 17  2  0  0  0  0
  7 19  1  0  0  0  0
  8 12  1  0  0  0  0
  9 12  1  0  0  0  0
 10 12  1  0  0  0  0
 11 15  1  0  0  0  0
 12 19  1  0  0  0  0
  1 20  1  0  0  0  0
  2 21  1  0  0  0  0
  8 22  1  0  0  0  0
  8 23  1  0  0  0  0
  8 24  1  0  0  0  0
  9 25  1  0  0  0  0
  9 26  1  0  0  0  0
  9 27  1  0  0  0  0
 10 28  1  0  0  0  0
 10 29  1  0  0  0  0
 10 30  1  0  0  0  0
 11 31  1  0  0  0  0
 11 32  1  0  0  0  0
 11 33  1  0  0  0  0
 16 34  1  0  0  0  0
 18 35  1  0  0  0  0
M  END
> <id>
EN300-37297288

> <smiles>
CN1C=NC=2N=C(O)C=C(NC(=O)OC(C)(C)C)C12

> <IUPAC Name>
tert-butyl N-{5-hydroxy-1-methyl-1H-imidazo[4,5-b]pyridin-7-yl}carbamate

> <CAS>
2770529-24-1

> <URL>
https://www.enaminestore.com/catalog/EN300-37297288

> <ROCS_ShapeQuery>
A71EV2A-x0451_0A_A71EV2A-x0310_0A_A71EV2A-x0416_0A_peptide

> <ROCS_TanimotoCombo>
0.543 

> <ROCS_ShapeTanimoto>
0.364 

> <ROCS_ColorTanimoto>
0.179 

> <ROCS_RefTversky>
0.313 

> <ROCS_RefColorTversky>
0.207 

> <ROCS_RefTverskyCombo>
0.520 

> <ROCS_FitTversky>
1.819 

> <ROCS_FitColorTversky>
0.570 

> <ROCS_FitTverskyCombo>
2.389 

> <ROCS_ColorScore>
-6.344

> <ROCS_Overlap>
2169.450

> <ROCS_Rank>
31                  

$$$$
untitled-dbase-105671_20
  -OEChem-11132313473D

 38 39  0     0  0  0  0  0  0999 V2000
    9.3510   11.4494   23.4221 C   0  0  0  0  0  0  0  0  0  0  0  0
    9.2140   10.0484   23.3188 C   0  0  0  0  0  0  0  0  0  0  0  0
    8.3779   11.8210   24.3174 C   0  0  0  0  0  0  0  0  0  0  0  0
   10.7961   13.4945   23.2218 C   0  0  0  0  0  0  0  0  0  0  0  0
    6.6364   11.8319   26.5224 C   0  0  0  0  0  0  0  0  0  0  0  0
    6.6570   10.5890   25.6341 C   0  0  0  0  0  0  0  0  0  0  0  0
    6.8201   13.1034   25.6887 C   0  0  0  0  0  0  0  0  0  0  0  0
   10.0056    9.1236   22.4876 C   0  0  0  0  0  0  0  0  0  0  0  0
   11.3024   16.2896   22.8898 C   0  0  0  0  0  0  0  0  0  0  0  0
   12.3741   15.6484   20.7104 C   0  0  0  0  0  0  0  0  0  0  0  0
    9.9318   15.1966   21.0839 C   0  0  0  0  0  0  0  0  0  0  0  0
   11.3086   15.2819   21.7412 C   0  0  0  0  0  0  0  0  0  0  0  0
    8.2348    9.5624   24.0897 N   0  0  0  0  0  0  0  0  0  0  0  0
    7.7540   10.6635   24.6906 N   0  0  0  0  0  0  0  0  0  0  0  0
    7.9978   13.0064   24.8376 N   0  0  0  0  0  0  0  0  0  0  0  0
   10.2416   12.2788   22.7842 N   0  0  0  0  0  0  0  0  0  0  0  0
   10.5757   14.0529   24.2896 O   0  0  0  0  0  0  0  0  0  0  0  0
   11.6431   13.9926   22.2679 O   0  0  0  0  0  0  0  0  0  0  0  0
    5.6962   11.8768   27.0826 H   0  0  0  0  0  0  0  0  0  0  0  0
    7.4463   11.7686   27.2610 H   0  0  0  0  0  0  0  0  0  0  0  0
    6.7783    9.6826   26.2357 H   0  0  0  0  0  0  0  0  0  0  0  0
    5.7378   10.5108   25.0434 H   0  0  0  0  0  0  0  0  0  0  0  0
    5.9373   13.2687   25.0596 H   0  0  0  0  0  0  0  0  0  0  0  0
    6.9185   13.9713   26.3490 H   0  0  0  0  0  0  0  0  0  0  0  0
   10.8880    8.7508   23.0345 H   0  0  0  0  0  0  0  0  0  0  0  0
    9.4174    8.2462   22.1662 H   0  0  0  0  0  0  0  0  0  0  0  0
   10.3659    9.6028   21.5603 H   0  0  0  0  0  0  0  0  0  0  0  0
   10.5389   16.0301   23.6318 H   0  0  0  0  0  0  0  0  0  0  0  0
   12.2743   16.3348   23.3920 H   0  0  0  0  0  0  0  0  0  0  0  0
   11.0529   17.2936   22.5278 H   0  0  0  0  0  0  0  0  0  0  0  0
   12.3820   14.9280   19.8845 H   0  0  0  0  0  0  0  0  0  0  0  0
   13.3750   15.6182   21.1560 H   0  0  0  0  0  0  0  0  0  0  0  0
   12.2088   16.6484   20.2966 H   0  0  0  0  0  0  0  0  0  0  0  0
    9.9360   14.4738   20.2600 H   0  0  0  0  0  0  0  0  0  0  0  0
    9.1602   14.8986   21.8011 H   0  0  0  0  0  0  0  0  0  0  0  0
    9.6479   16.1611   20.6476 H   0  0  0  0  0  0  0  0  0  0  0  0
    8.4492   13.8752   24.5663 H   0  0  0  0  0  0  0  0  0  0  0  0
   10.5482   11.9635   21.8472 H   0  0  0  0  0  0  0  0  0  0  0  0
  1  2  1  0  0  0  0
  1  3  2  0  0  0  0
  1 16  1  0  0  0  0
  2  8  1  0  0  0  0
  2 13  2  0  0  0  0
  3 14  1  0  0  0  0
  3 15  1  0  0  0  0
  4 16  1  0  0  0  0
  4 17  2  0  0  0  0
  4 18  1  0  0  0  0
  5  6  1  0  0  0  0
  5  7  1  0  0  0  0
  6 14  1  0  0  0  0
  7 15  1  0  0  0  0
  9 12  1  0  0  0  0
 10 12  1  0  0  0  0
 11 12  1  0  0  0  0
 12 18  1  0  0  0  0
 13 14  1  0  0  0  0
  5 19  1  0  0  0  0
  5 20  1  0  0  0  0
  6 21  1  0  0  0  0
  6 22  1  0  0  0  0
  7 23  1  0  0  0  0
  7 24  1  0  0  0  0
  8 25  1  0  0  0  0
  8 26  1  0  0  0  0
  8 27  1  0  0  0  0
  9 28  1  0  0  0  0
  9 29  1  0  0  0  0
  9 30  1  0  0  0  0
 10 31  1  0  0  0  0
 10 32  1  0  0  0  0
 10 33  1  0  0  0  0
 11 34  1  0  0  0  0
 11 35  1  0  0  0  0
 11 36  1  0  0  0  0
 15 37  1  0  0  0  0
 16 38  1  0  0  0  0
M  END
> <id>
EN300-26618109

> <smiles>
CC1=NN2CCCNC2=C1NC(=O)OC(C)(C)C

> <MDLNUMBER>
MFCD32667244

> <IUPAC Name>
tert-butyl N-{2-methyl-4H,5H,6H,7H-pyrazolo[1,5-a]pyrimidin-3-yl}carbamate

> <CAS>
2416229-39-3

> <Purity>
95

> <URL>
https://www.enaminestore.com/catalog/EN300-26618109

> <ROCS_ShapeQuery>
A71EV2A-x0451_0A_A71EV2A-x0310_0A_A71EV2A-x0416_0A_peptide

> <ROCS_TanimotoCombo>
0.543 

> <ROCS_ShapeTanimoto>
0.351 

> <ROCS_ColorTanimoto>
0.192 

> <ROCS_RefTversky>
0.302 

> <ROCS_RefColorTversky>
0.205 

> <ROCS_RefTverskyCombo>
0.507 

> <ROCS_FitTversky>
1.844 

> <ROCS_FitColorTversky>
0.755 

> <ROCS_FitTverskyCombo>
2.599 

> <ROCS_ColorScore>
-6.235

> <ROCS_Overlap>
2097.630

> <ROCS_Rank>
32                  

$$$$
untitled-dbase-52339_182
  -OEChem-11132313473D

 34 35  0     0  0  0  0  0  0999 V2000
    7.6020   12.7290   25.0845 C   0  0  0  0  0  0  0  0  0  0  0  0
    6.1404   10.8250   25.4727 C   0  0  0  0  0  0  0  0  0  0  0  0
    9.2710   10.0136   23.4902 C   0  0  0  0  0  0  0  0  0  0  0  0
    8.1868   10.5180   24.2289 C   0  0  0  0  0  0  0  0  0  0  0  0
    6.4343   12.1780   25.6234 C   0  0  0  0  0  0  0  0  0  0  0  0
    8.4687   11.8740   24.3866 C   0  0  0  0  0  0  0  0  0  0  0  0
    7.0091    9.9794   24.7763 C   0  0  0  0  0  0  0  0  0  0  0  0
    5.5125   13.0353   26.3533 C   0  0  0  0  0  0  0  0  0  0  0  0
   10.3993   13.2749   23.6104 C   0  0  0  0  0  0  0  0  0  0  0  0
   12.0955   15.4193   22.8570 C   0  0  0  0  0  0  0  0  0  0  0  0
   12.1381   14.3431   20.5878 C   0  0  0  0  0  0  0  0  0  0  0  0
    9.9660   15.1716   21.5384 C   0  0  0  0  0  0  0  0  0  0  0  0
   11.3244   14.5518   21.8631 C   0  0  0  0  0  0  0  0  0  0  0  0
   10.1740   10.9451   23.1929 N   0  0  0  0  0  0  0  0  0  0  0  0
    9.6808   12.0838   23.7423 N   0  0  0  0  0  0  0  0  0  0  0  0
    5.3386   14.2400   26.1447 O   0  0  0  0  0  0  0  0  0  0  0  0
   10.3404   14.1468   24.4618 O   0  0  0  0  0  0  0  0  0  0  0  0
    6.6987    8.6533   24.6419 O   0  0  0  0  0  0  0  0  0  0  0  0
    4.8335   12.3625   27.3221 O   0  0  0  0  0  0  0  0  0  0  0  0
   11.1093   13.2661   22.4524 O   0  0  0  0  0  0  0  0  0  0  0  0
    7.8223   13.7841   25.2071 H   0  0  0  0  0  0  0  0  0  0  0  0
    5.2269   10.4154   25.8992 H   0  0  0  0  0  0  0  0  0  0  0  0
    9.4420    9.0005   23.1543 H   0  0  0  0  0  0  0  0  0  0  0  0
   11.5147   15.5715   23.7738 H   0  0  0  0  0  0  0  0  0  0  0  0
   13.0566   14.9685   23.1249 H   0  0  0  0  0  0  0  0  0  0  0  0
   12.2844   16.4159   22.4417 H   0  0  0  0  0  0  0  0  0  0  0  0
   11.5886   13.7212   19.8718 H   0  0  0  0  0  0  0  0  0  0  0  0
   13.0727   13.8129   20.8035 H   0  0  0  0  0  0  0  0  0  0  0  0
   12.3827   15.2944   20.1044 H   0  0  0  0  0  0  0  0  0  0  0  0
    9.4127   14.5496   20.8256 H   0  0  0  0  0  0  0  0  0  0  0  0
    9.3536   15.2948   22.4376 H   0  0  0  0  0  0  0  0  0  0  0  0
   10.0884   16.1518   21.0635 H   0  0  0  0  0  0  0  0  0  0  0  0
    5.8562    8.4666   25.0803 H   0  0  0  0  0  0  0  0  0  0  0  0
    4.2084   12.9318   27.8196 H   0  0  0  0  0  0  0  0  0  0  0  0
  1  5  1  0  0  0  0
  1  6  2  0  0  0  0
  2  5  2  0  0  0  0
  2  7  1  0  0  0  0
  3  4  1  0  0  0  0
  3 14  2  0  0  0  0
  4  6  1  0  0  0  0
  4  7  2  0  0  0  0
  5  8  1  0  0  0  0
  6 15  1  0  0  0  0
  7 18  1  0  0  0  0
  8 16  2  0  0  0  0
  8 19  1  0  0  0  0
  9 15  1  0  0  0  0
  9 17  2  0  0  0  0
  9 20  1  0  0  0  0
 10 13  1  0  0  0  0
 11 13  1  0  0  0  0
 12 13  1  0  0  0  0
 13 20  1  0  0  0  0
 14 15  1  0  0  0  0
  1 21  1  0  0  0  0
  2 22  1  0  0  0  0
  3 23  1  0  0  0  0
 10 24  1  0  0  0  0
 10 25  1  0  0  0  0
 10 26  1  0  0  0  0
 11 27  1  0  0  0  0
 11 28  1  0  0  0  0
 11 29  1  0  0  0  0
 12 30  1  0  0  0  0
 12 31  1  0  0  0  0
 12 32  1  0  0  0  0
 18 33  1  0  0  0  0
 19 34  1  0  0  0  0
M  END
> <id>
EN300-1592127

> <smiles>
CC(C)(C)OC(=O)N1N=CC=2C(O)=CC(=CC12)C(=O)O

> <IUPAC Name>
1-[(tert-butoxy)carbonyl]-4-hydroxy-1H-indazole-6-carboxylic acid

> <CAS>
2171920-78-6

> <URL>
https://www.enaminestore.com/catalog/EN300-1592127

> <ROCS_ShapeQuery>
A71EV2A-x0451_0A_A71EV2A-x0310_0A_A71EV2A-x0416_0A_peptide

> <ROCS_TanimotoCombo>
0.543 

> <ROCS_ShapeTanimoto>
0.361 

> <ROCS_ColorTanimoto>
0.182 

> <ROCS_RefTversky>
0.313 

> <ROCS_RefColorTversky>
0.209 

> <ROCS_RefTverskyCombo>
0.522 

> <ROCS_FitTversky>
1.752 

> <ROCS_FitColorTversky>
0.577 

> <ROCS_FitTverskyCombo>
2.329 

> <ROCS_ColorScore>
-6.414

> <ROCS_Overlap>
2170.693

> <ROCS_Rank>
33                  

$$$$
untitled-dbase-115540_27
  -OEChem-11132313473D

 34 35  0     0  0  0  0  0  0999 V2000
    8.3482   11.9035   24.3264 C   0  0  0  0  0  0  0  0  0  0  0  0
    7.7236   10.6878   24.6753 C   0  0  0  0  0  0  0  0  0  0  0  0
    9.3521   11.5207   23.4783 C   0  0  0  0  0  0  0  0  0  0  0  0
   10.9510   13.4327   23.1646 C   0  0  0  0  0  0  0  0  0  0  0  0
    7.9269   13.2222   24.8552 C   0  0  0  0  0  0  0  0  0  0  0  0
    6.5464   10.6297   25.5739 C   0  0  0  0  0  0  0  0  0  0  0  0
    6.3761   11.9833   26.2979 C   0  0  0  0  0  0  0  0  0  0  0  0
   11.6738   16.1478   22.6304 C   0  0  0  0  0  0  0  0  0  0  0  0
   12.7514   15.2566   20.5438 C   0  0  0  0  0  0  0  0  0  0  0  0
   10.2732   15.0147   20.8728 C   0  0  0  0  0  0  0  0  0  0  0  0
   11.6347   15.0528   21.5654 C   0  0  0  0  0  0  0  0  0  0  0  0
    8.2860    9.6314   24.0861 N   0  0  0  0  0  0  0  0  0  0  0  0
    6.5512   13.1358   25.3903 N   0  0  0  0  0  0  0  0  0  0  0  0
   10.3132   12.2250   22.8101 N   0  0  0  0  0  0  0  0  0  0  0  0
   10.7451   14.0900   24.1776 O   0  0  0  0  0  0  0  0  0  0  0  0
    9.3259   10.1677   23.3259 O   0  0  0  0  0  0  0  0  0  0  0  0
   11.8578   13.7894   22.2023 O   0  0  0  0  0  0  0  0  0  0  0  0
    8.6137   13.5435   25.6468 H   0  0  0  0  0  0  0  0  0  0  0  0
    7.9490   13.9774   24.0629 H   0  0  0  0  0  0  0  0  0  0  0  0
    5.6515   10.4186   24.9761 H   0  0  0  0  0  0  0  0  0  0  0  0
    6.6557    9.8269   26.3111 H   0  0  0  0  0  0  0  0  0  0  0  0
    5.3739   12.0245   26.7389 H   0  0  0  0  0  0  0  0  0  0  0  0
    7.0909   12.0609   27.1274 H   0  0  0  0  0  0  0  0  0  0  0  0
   10.8737   16.0051   23.3656 H   0  0  0  0  0  0  0  0  0  0  0  0
   12.6327   16.1628   23.1585 H   0  0  0  0  0  0  0  0  0  0  0  0
   11.5097   17.1347   22.1827 H   0  0  0  0  0  0  0  0  0  0  0  0
   12.7272   14.4732   19.7778 H   0  0  0  0  0  0  0  0  0  0  0  0
   13.7352   15.1900   21.0224 H   0  0  0  0  0  0  0  0  0  0  0  0
   12.6725   16.2293   20.0476 H   0  0  0  0  0  0  0  0  0  0  0  0
   10.2449   14.2294   20.1088 H   0  0  0  0  0  0  0  0  0  0  0  0
    9.4628   14.8324   21.5860 H   0  0  0  0  0  0  0  0  0  0  0  0
   10.0739   15.9589   20.3531 H   0  0  0  0  0  0  0  0  0  0  0  0
    6.3398   13.9967   25.8944 H   0  0  0  0  0  0  0  0  0  0  0  0
   10.6196   11.8104   21.9083 H   0  0  0  0  0  0  0  0  0  0  0  0
  1  2  1  0  0  0  0
  1  3  2  0  0  0  0
  1  5  1  0  0  0  0
  2  6  1  0  0  0  0
  2 12  2  0  0  0  0
  3 14  1  0  0  0  0
  3 16  1  0  0  0  0
  4 14  1  0  0  0  0
  4 15  2  0  0  0  0
  4 17  1  0  0  0  0
  5 13  1  0  0  0  0
  6  7  1  0  0  0  0
  7 13  1  0  0  0  0
  8 11  1  0  0  0  0
  9 11  1  0  0  0  0
 10 11  1  0  0  0  0
 11 17  1  0  0  0  0
 12 16  1  0  0  0  0
  5 18  1  0  0  0  0
  5 19  1  0  0  0  0
  6 20  1  0  0  0  0
  6 21  1  0  0  0  0
  7 22  1  0  0  0  0
  7 23  1  0  0  0  0
  8 24  1  0  0  0  0
  8 25  1  0  0  0  0
  8 26  1  0  0  0  0
  9 27  1  0  0  0  0
  9 28  1  0  0  0  0
  9 29  1  0  0  0  0
 10 30  1  0  0  0  0
 10 31  1  0  0  0  0
 10 32  1  0  0  0  0
 13 33  1  0  0  0  0
 14 34  1  0  0  0  0
M  END
> <id>
EN300-1179112

> <smiles>
CC(C)(C)OC(=O)NC=1ON=C2CCNCC12

> <IUPAC Name>
tert-butyl N-{4H,5H,6H,7H-[1,2]oxazolo[4,3-c]pyridin-3-yl}carbamate

> <CAS>
2138043-11-3

> <URL>
https://www.enaminestore.com/catalog/EN300-1179112

> <ROCS_ShapeQuery>
A71EV2A-x0451_0A_A71EV2A-x0310_0A_A71EV2A-x0416_0A_peptide

> <ROCS_TanimotoCombo>
0.543 

> <ROCS_ShapeTanimoto>
0.333 

> <ROCS_ColorTanimoto>
0.210 

> <ROCS_RefTversky>
0.289 

> <ROCS_RefColorTversky>
0.226 

> <ROCS_RefTverskyCombo>
0.515 

> <ROCS_FitTversky>
1.841 

> <ROCS_FitColorTversky>
0.749 

> <ROCS_FitTverskyCombo>
2.590 

> <ROCS_ColorScore>
-6.898

> <ROCS_Overlap>
2001.848

> <ROCS_Rank>
34                  

$$$$
untitled-dbase-151527_17
  -OEChem-11132313473D

 33 34  0     0  0  0  0  0  0999 V2000
    9.9761    9.1591   22.4602 C   0  0  0  0  0  0  0  0  0  0  0  0
    6.9235   12.9789   25.8993 C   0  0  0  0  0  0  0  0  0  0  0  0
    6.3082   11.7710   26.2381 C   0  0  0  0  0  0  0  0  0  0  0  0
    7.9676   13.0214   24.9652 C   0  0  0  0  0  0  0  0  0  0  0  0
    6.7113   10.5643   25.6585 C   0  0  0  0  0  0  0  0  0  0  0  0
    9.2710   10.0855   23.2631 C   0  0  0  0  0  0  0  0  0  0  0  0
    8.3890   11.8196   24.3697 C   0  0  0  0  0  0  0  0  0  0  0  0
    9.3730   11.4489   23.4156 C   0  0  0  0  0  0  0  0  0  0  0  0
    7.7512   10.6381   24.7336 C   0  0  0  0  0  0  0  0  0  0  0  0
   10.8409   13.4756   23.1956 C   0  0  0  0  0  0  0  0  0  0  0  0
   11.3777   16.2656   22.8685 C   0  0  0  0  0  0  0  0  0  0  0  0
   12.3934   15.6230   20.6629 C   0  0  0  0  0  0  0  0  0  0  0  0
    9.9539   15.2017   21.0865 C   0  0  0  0  0  0  0  0  0  0  0  0
   11.3455   15.2647   21.7144 C   0  0  0  0  0  0  0  0  0  0  0  0
   10.5548    8.3989   21.8014 N   0  0  0  0  0  0  0  0  0  0  0  0
   10.2624   12.2716   22.7620 N   0  0  0  0  0  0  0  0  0  0  0  0
   10.6512   14.0305   24.2711 O   0  0  0  0  0  0  0  0  0  0  0  0
    8.2902    9.5841   24.0584 O   0  0  0  0  0  0  0  0  0  0  0  0
   11.6739   13.9679   22.2265 O   0  0  0  0  0  0  0  0  0  0  0  0
    6.5878   13.9012   26.3662 H   0  0  0  0  0  0  0  0  0  0  0  0
    5.5003   11.7690   26.9657 H   0  0  0  0  0  0  0  0  0  0  0  0
    8.4354   13.9683   24.7128 H   0  0  0  0  0  0  0  0  0  0  0  0
    6.2394    9.6237   25.9156 H   0  0  0  0  0  0  0  0  0  0  0  0
   10.6270   16.0119   23.6254 H   0  0  0  0  0  0  0  0  0  0  0  0
   12.3607   16.2948   23.3498 H   0  0  0  0  0  0  0  0  0  0  0  0
   11.1340   17.2749   22.5177 H   0  0  0  0  0  0  0  0  0  0  0  0
   12.3738   14.9075   19.8329 H   0  0  0  0  0  0  0  0  0  0  0  0
   13.4032   15.5768   21.0866 H   0  0  0  0  0  0  0  0  0  0  0  0
   12.2328   16.6276   20.2584 H   0  0  0  0  0  0  0  0  0  0  0  0
    9.9305   14.4838   20.2587 H   0  0  0  0  0  0  0  0  0  0  0  0
    9.1940   14.9098   21.8186 H   0  0  0  0  0  0  0  0  0  0  0  0
    9.6737   16.1725   20.6619 H   0  0  0  0  0  0  0  0  0  0  0  0
   10.5446   11.9587   21.8179 H   0  0  0  0  0  0  0  0  0  0  0  0
  1  6  1  0  0  0  0
  1 15  3  0  0  0  0
  2  3  2  0  0  0  0
  2  4  1  0  0  0  0
  3  5  1  0  0  0  0
  4  7  2  0  0  0  0
  5  9  2  0  0  0  0
  6  8  2  0  0  0  0
  6 18  1  0  0  0  0
  7  8  1  0  0  0  0
  7  9  1  0  0  0  0
  8 16  1  0  0  0  0
  9 18  1  0  0  0  0
 10 16  1  0  0  0  0
 10 17  2  0  0  0  0
 10 19  1  0  0  0  0
 11 14  1  0  0  0  0
 12 14  1  0  0  0  0
 13 14  1  0  0  0  0
 14 19  1  0  0  0  0
  2 20  1  0  0  0  0
  3 21  1  0  0  0  0
  4 22  1  0  0  0  0
  5 23  1  0  0  0  0
 11 24  1  0  0  0  0
 11 25  1  0  0  0  0
 11 26  1  0  0  0  0
 12 27  1  0  0  0  0
 12 28  1  0  0  0  0
 12 29  1  0  0  0  0
 13 30  1  0  0  0  0
 13 31  1  0  0  0  0
 13 32  1  0  0  0  0
 16 33  1  0  0  0  0
M  END
> <id>
EN300-28280434

> <smiles>
CC(C)(C)OC(=O)NC1=C(C#N)OC=2C=CC=CC12

> <IUPAC Name>
tert-butyl N-(2-cyano-1-benzofuran-3-yl)carbamate

> <CAS>
2680842-04-8

> <URL>
https://www.enaminestore.com/catalog/EN300-28280434

> <ROCS_ShapeQuery>
A71EV2A-x0451_0A_A71EV2A-x0310_0A_A71EV2A-x0416_0A_peptide

> <ROCS_TanimotoCombo>
0.543 

> <ROCS_ShapeTanimoto>
0.357 

> <ROCS_ColorTanimoto>
0.186 

> <ROCS_RefTversky>
0.308 

> <ROCS_RefColorTversky>
0.199 

> <ROCS_RefTverskyCombo>
0.507 

> <ROCS_FitTversky>
1.800 

> <ROCS_FitColorTversky>
0.736 

> <ROCS_FitTverskyCombo>
2.536 

> <ROCS_ColorScore>
-6.074

> <ROCS_Overlap>
2135.485

> <ROCS_Rank>
35                  

$$$$
untitled-dbase-154384_15
  -OEChem-11132313473D

 31 33  0     0  0  0  0  0  0999 V2000
    6.1560   11.6529   26.0830 C   0  0  0  0  0  0  0  0  0  0  0  0
    6.6968   10.5448   25.4434 C   0  0  0  0  0  0  0  0  0  0  0  0
    7.8590   13.0457   25.0711 C   0  0  0  0  0  0  0  0  0  0  0  0
    6.7359   12.9015   25.8953 C   0  0  0  0  0  0  0  0  0  0  0  0
    8.4357   11.9410   24.4244 C   0  0  0  0  0  0  0  0  0  0  0  0
    7.8254   10.6877   24.6274 C   0  0  0  0  0  0  0  0  0  0  0  0
    6.1820   14.0630   26.5744 C   0  0  0  0  0  0  0  0  0  0  0  0
   10.3454   13.2220   23.4288 C   0  0  0  0  0  0  0  0  0  0  0  0
   10.6951    9.0053   24.3843 C   0  0  0  0  0  0  0  0  0  0  0  0
   10.2442    8.3179   23.1268 C   0  0  0  0  0  0  0  0  0  0  0  0
    9.8718   10.8526   22.7437 C   0  0  0  0  0  0  0  0  0  0  0  0
    9.6089    9.6204   23.5388 C   0  0  0  0  0  0  0  0  0  0  0  0
   10.9909   13.4595   22.0814 C   0  0  0  0  0  0  0  0  0  0  0  0
    9.5740   12.0523   23.5430 N   0  0  0  0  0  0  0  0  0  0  0  0
    5.0293   14.4864   26.4429 O   0  0  0  0  0  0  0  0  0  0  0  0
   10.5513   14.0459   24.3221 O   0  0  0  0  0  0  0  0  0  0  0  0
    8.2699    9.5246   24.0449 O   0  0  0  0  0  0  0  0  0  0  0  0
    7.0838   14.6618   27.3995 O   0  0  0  0  0  0  0  0  0  0  0  0
   10.6831   12.4640   21.2337 F   0  0  0  0  0  0  0  0  0  0  0  0
   10.5609   14.6171   21.5528 F   0  0  0  0  0  0  0  0  0  0  0  0
   12.3275   13.5177   22.2025 F   0  0  0  0  0  0  0  0  0  0  0  0
    5.2911   11.5306   26.7292 H   0  0  0  0  0  0  0  0  0  0  0  0
    6.2348    9.5701   25.5776 H   0  0  0  0  0  0  0  0  0  0  0  0
    8.2814   14.0414   24.9893 H   0  0  0  0  0  0  0  0  0  0  0  0
   10.4161    8.5577   25.3303 H   0  0  0  0  0  0  0  0  0  0  0  0
   11.6760    9.4641   24.3817 H   0  0  0  0  0  0  0  0  0  0  0  0
   10.9225    8.3178   22.2817 H   0  0  0  0  0  0  0  0  0  0  0  0
    9.6635    7.4090   23.2300 H   0  0  0  0  0  0  0  0  0  0  0  0
   10.9278   10.9055   22.4517 H   0  0  0  0  0  0  0  0  0  0  0  0
    9.2757   10.8412   21.8270 H   0  0  0  0  0  0  0  0  0  0  0  0
    6.7196   15.4459   27.8630 H   0  0  0  0  0  0  0  0  0  0  0  0
  1  2  1  0  0  0  0
  1  4  2  0  0  0  0
  2  6  2  0  0  0  0
  3  4  1  0  0  0  0
  3  5  2  0  0  0  0
  4  7  1  0  0  0  0
  5  6  1  0  0  0  0
  5 14  1  0  0  0  0
  6 17  1  0  0  0  0
  7 15  2  0  0  0  0
  7 18  1  0  0  0  0
  8 13  1  0  0  0  0
  8 14  1  0  0  0  0
  8 16  2  0  0  0  0
  9 10  1  0  0  0  0
  9 12  1  0  0  0  0
 10 12  1  0  0  0  0
 11 12  1  0  0  0  0
 11 14  1  0  0  0  0
 12 17  1  0  0  0  0
 13 19  1  0  0  0  0
 13 20  1  0  0  0  0
 13 21  1  0  0  0  0
  1 22  1  0  0  0  0
  2 23  1  0  0  0  0
  3 24  1  0  0  0  0
  9 25  1  0  0  0  0
  9 26  1  0  0  0  0
 10 27  1  0  0  0  0
 10 28  1  0  0  0  0
 11 29  1  0  0  0  0
 11 30  1  0  0  0  0
 18 31  1  0  0  0  0
M  END
> <id>
EN300-28290400

> <smiles>
OC(=O)C=1C=CC=2OC3(CC3)CN(C(=O)C(F)(F)F)C2C1

> <IUPAC Name>
4-(2,2,2-trifluoroacetyl)-3,4-dihydrospiro[1,4-benzoxazine-2,1'-cyclopropane]-6-carboxylic acid

> <CAS>
2680804-28-6

> <URL>
https://www.enaminestore.com/catalog/EN300-28290400

> <ROCS_ShapeQuery>
A71EV2A-x0451_0A_A71EV2A-x0310_0A_A71EV2A-x0416_0A_peptide

> <ROCS_TanimotoCombo>
0.543 

> <ROCS_ShapeTanimoto>
0.359 

> <ROCS_ColorTanimoto>
0.183 

> <ROCS_RefTversky>
0.313 

> <ROCS_RefColorTversky>
0.197 

> <ROCS_RefTverskyCombo>
0.510 

> <ROCS_FitTversky>
1.682 

> <ROCS_FitColorTversky>
0.728 

> <ROCS_FitTverskyCombo>
2.410 

> <ROCS_ColorScore>
-6.004

> <ROCS_Overlap>
2176.573

> <ROCS_Rank>
36                  

$$$$
untitled-dbase-154187_79
  -OEChem-11132313473D

 36 38  0     0  0  0  0  0  0999 V2000
    6.0724   10.7922   25.7275 C   0  0  0  0  0  0  0  0  0  0  0  0
    6.9581    9.9273   25.0904 C   0  0  0  0  0  0  0  0  0  0  0  0
    7.4427   12.6990   25.0906 C   0  0  0  0  0  0  0  0  0  0  0  0
    6.3134   12.1690   25.7257 C   0  0  0  0  0  0  0  0  0  0  0  0
    8.0774   10.4581   24.4566 C   0  0  0  0  0  0  0  0  0  0  0  0
    8.3294   11.8382   24.4587 C   0  0  0  0  0  0  0  0  0  0  0  0
    5.3826   13.0631   26.3995 C   0  0  0  0  0  0  0  0  0  0  0  0
   10.2183   13.2818   23.5193 C   0  0  0  0  0  0  0  0  0  0  0  0
   10.7171    7.8393   23.7422 C   0  0  0  0  0  0  0  0  0  0  0  0
    9.9165    7.8236   22.4390 C   0  0  0  0  0  0  0  0  0  0  0  0
   10.0055    8.8214   24.6735 C   0  0  0  0  0  0  0  0  0  0  0  0
    8.6869    8.6896   22.6940 C   0  0  0  0  0  0  0  0  0  0  0  0
    9.9804   10.8506   23.1256 C   0  0  0  0  0  0  0  0  0  0  0  0
    9.1588    9.6990   23.7433 C   0  0  0  0  0  0  0  0  0  0  0  0
   10.9432   13.4716   22.2170 C   0  0  0  0  0  0  0  0  0  0  0  0
    9.5173   12.1083   23.7429 N   0  0  0  0  0  0  0  0  0  0  0  0
    5.4911   14.2919   26.4641 O   0  0  0  0  0  0  0  0  0  0  0  0
   10.2603   14.1960   24.3518 O   0  0  0  0  0  0  0  0  0  0  0  0
    4.3432   12.3973   26.9732 O   0  0  0  0  0  0  0  0  0  0  0  0
   10.7806   12.3959   21.4280 F   0  0  0  0  0  0  0  0  0  0  0  0
   10.4706   14.5492   21.5674 F   0  0  0  0  0  0  0  0  0  0  0  0
   12.2588   13.6476   22.4284 F   0  0  0  0  0  0  0  0  0  0  0  0
    5.1937   10.3870   26.2204 H   0  0  0  0  0  0  0  0  0  0  0  0
    6.7595    8.8629   25.0937 H   0  0  0  0  0  0  0  0  0  0  0  0
    7.6063   13.7735   25.1202 H   0  0  0  0  0  0  0  0  0  0  0  0
   10.7545    6.8374   24.1783 H   0  0  0  0  0  0  0  0  0  0  0  0
   11.7490    8.1552   23.5665 H   0  0  0  0  0  0  0  0  0  0  0  0
   10.5055    8.2002   21.5976 H   0  0  0  0  0  0  0  0  0  0  0  0
    9.6204    6.7991   22.1917 H   0  0  0  0  0  0  0  0  0  0  0  0
    9.4205    8.3058   25.4341 H   0  0  0  0  0  0  0  0  0  0  0  0
   10.7617    9.4267   25.1785 H   0  0  0  0  0  0  0  0  0  0  0  0
    8.4241    9.1979   21.7616 H   0  0  0  0  0  0  0  0  0  0  0  0
    7.8305    8.0916   23.0089 H   0  0  0  0  0  0  0  0  0  0  0  0
   11.0485   10.7591   23.3606 H   0  0  0  0  0  0  0  0  0  0  0  0
    9.8810   10.9124   22.0370 H   0  0  0  0  0  0  0  0  0  0  0  0
    3.7103   12.9917   27.4298 H   0  0  0  0  0  0  0  0  0  0  0  0
  1  2  1  0  0  0  0
  1  4  2  0  0  0  0
  2  5  2  0  0  0  0
  3  4  1  0  0  0  0
  3  6  2  0  0  0  0
  4  7  1  0  0  0  0
  5  6  1  0  0  0  0
  5 14  1  0  0  0  0
  6 16  1  0  0  0  0
  7 17  2  0  0  0  0
  7 19  1  0  0  0  0
  8 15  1  0  0  0  0
  8 16  1  0  0  0  0
  8 18  2  0  0  0  0
  9 10  1  0  0  0  0
  9 11  1  0  0  0  0
 10 12  1  0  0  0  0
 11 14  1  0  0  0  0
 12 14  1  0  0  0  0
 13 14  1  0  0  0  0
 13 16  1  0  0  0  0
 15 20  1  0  0  0  0
 15 21  1  0  0  0  0
 15 22  1  0  0  0  0
  1 23  1  0  0  0  0
  2 24  1  0  0  0  0
  3 25  1  0  0  0  0
  9 26  1  0  0  0  0
  9 27  1  0  0  0  0
 10 28  1  0  0  0  0
 10 29  1  0  0  0  0
 11 30  1  0  0  0  0
 11 31  1  0  0  0  0
 12 32  1  0  0  0  0
 12 33  1  0  0  0  0
 13 34  1  0  0  0  0
 13 35  1  0  0  0  0
 19 36  1  0  0  0  0
M  END
> <id>
EN300-28292587

> <smiles>
OC(=O)C=1C=CC2=C(C1)N(CC32CCCC3)C(=O)C(F)(F)F

> <IUPAC Name>
1'-(2,2,2-trifluoroacetyl)-1',2'-dihydrospiro[cyclopentane-1,3'-indole]-6'-carboxylic acid

> <CAS>
2680782-44-7

> <URL>
https://www.enaminestore.com/catalog/EN300-28292587

> <ROCS_ShapeQuery>
A71EV2A-x0451_0A_A71EV2A-x0310_0A_A71EV2A-x0416_0A_peptide

> <ROCS_TanimotoCombo>
0.542 

> <ROCS_ShapeTanimoto>
0.375 

> <ROCS_ColorTanimoto>
0.168 

> <ROCS_RefTversky>
0.325 

> <ROCS_RefColorTversky>
0.183 

> <ROCS_RefTverskyCombo>
0.507 

> <ROCS_FitTversky>
1.692 

> <ROCS_FitColorTversky>
0.673 

> <ROCS_FitTverskyCombo>
2.365 

> <ROCS_ColorScore>
-5.565

> <ROCS_Overlap>
2256.556

> <ROCS_Rank>
37                  

$$$$
untitled-dbase-90584_4
  -OEChem-11132313473D

 45 47  0     1  0  0  0  0  0999 V2000
   10.9997   13.6393   23.0048 C   0  0  0  0  0  0  0  0  0  0  0  0
    7.3734   12.0112   25.6860 C   0  0  0  0  0  0  0  0  0  0  0  0
    6.8427   10.4614   23.7878 C   0  0  0  0  0  0  0  0  0  0  0  0
    8.4701    9.7597   25.5654 C   0  0  0  0  0  0  0  0  0  0  0  0
    8.1891   12.5350   23.3736 C   0  0  0  0  0  0  0  0  0  0  0  0
    9.8165   11.8332   25.1512 C   0  0  0  0  0  0  0  0  0  0  0  0
    9.2889   10.2806   23.2490 C   0  0  0  0  0  0  0  0  0  0  0  0
    7.0324   11.9337   24.1891 C   0  0  2  0  0  0  0  0  0  0  0  0
    8.6655   11.2296   25.9729 C   0  0  1  0  0  0  0  0  0  0  0  0
    8.1331    9.6587   24.0618 C   0  0  0  0  0  0  0  0  0  0  0  0
    9.4969   11.7589   23.6422 C   0  0  0  0  0  0  0  0  0  0  0  0
   12.3463   16.1521   22.8541 C   0  0  0  0  0  0  0  0  0  0  0  0
   13.3622   15.2706   20.7327 C   0  0  0  0  0  0  0  0  0  0  0  0
   10.8739   15.5703   20.8975 C   0  0  0  0  0  0  0  0  0  0  0  0
   12.1502   15.2185   21.6605 C   0  0  0  0  0  0  0  0  0  0  0  0
    7.9425    8.2636   23.6710 N   0  0  0  0  0  0  0  0  0  0  0  0
   10.5799   12.3335   22.8740 N   0  0  0  0  0  0  0  0  0  0  0  0
   10.5258   14.4723   23.7704 O   0  0  0  0  0  0  0  0  0  0  0  0
   12.0359   13.8761   22.1459 O   0  0  0  0  0  0  0  0  0  0  0  0
    7.4934   13.0589   25.9884 H   0  0  0  0  0  0  0  0  0  0  0  0
    6.5479   11.6009   26.2805 H   0  0  0  0  0  0  0  0  0  0  0  0
    5.9995   10.0356   24.3479 H   0  0  0  0  0  0  0  0  0  0  0  0
    6.5741   10.4035   22.7245 H   0  0  0  0  0  0  0  0  0  0  0  0
    9.3821    9.1920   25.7929 H   0  0  0  0  0  0  0  0  0  0  0  0
    7.6667    9.3166   26.1687 H   0  0  0  0  0  0  0  0  0  0  0  0
    7.9398   12.5020   22.3049 H   0  0  0  0  0  0  0  0  0  0  0  0
    8.3123   13.5929   23.6397 H   0  0  0  0  0  0  0  0  0  0  0  0
    9.9750   12.8757   25.4569 H   0  0  0  0  0  0  0  0  0  0  0  0
   10.7465   11.2925   25.3704 H   0  0  0  0  0  0  0  0  0  0  0  0
   10.2159    9.7157   23.4214 H   0  0  0  0  0  0  0  0  0  0  0  0
    9.0712   10.2068   22.1742 H   0  0  0  0  0  0  0  0  0  0  0  0
    6.1109   12.4922   23.9905 H   0  0  0  0  0  0  0  0  0  0  0  0
    8.9036   11.2886   27.0410 H   0  0  0  0  0  0  0  0  0  0  0  0
   11.4785   16.1176   23.5225 H   0  0  0  0  0  0  0  0  0  0  0  0
   13.2394   15.8885   23.4300 H   0  0  0  0  0  0  0  0  0  0  0  0
   12.4416   17.1931   22.5248 H   0  0  0  0  0  0  0  0  0  0  0  0
   13.2258   14.6023   19.8749 H   0  0  0  0  0  0  0  0  0  0  0  0
   14.2652   14.9278   21.2507 H   0  0  0  0  0  0  0  0  0  0  0  0
   13.5408   16.2836   20.3580 H   0  0  0  0  0  0  0  0  0  0  0  0
   10.7331   14.9007   20.0413 H   0  0  0  0  0  0  0  0  0  0  0  0
    9.9891   15.5022   21.5386 H   0  0  0  0  0  0  0  0  0  0  0  0
   10.9312   16.5860   20.4897 H   0  0  0  0  0  0  0  0  0  0  0  0
    7.1930    7.8921   24.2047 H   0  0  0  0  0  0  0  0  0  0  0  0
    7.7294    8.2403   22.7022 H   0  0  0  0  0  0  0  0  0  0  0  0
   11.0565   11.7422   22.2017 H   0  0  0  0  0  0  0  0  0  0  0  0
  1 17  1  0  0  0  0
  1 18  2  0  0  0  0
  1 19  1  0  0  0  0
  2  8  1  0  0  0  0
  2  9  1  0  0  0  0
  3  8  1  0  0  0  0
  3 10  1  0  0  0  0
  4  9  1  0  0  0  0
  4 10  1  0  0  0  0
  5  8  1  0  0  0  0
  5 11  1  0  0  0  0
  6  9  1  0  0  0  0
  6 11  1  0  0  0  0
  7 10  1  0  0  0  0
  7 11  1  0  0  0  0
 10 16  1  0  0  0  0
 11 17  1  0  0  0  0
 12 15  1  0  0  0  0
 13 15  1  0  0  0  0
 14 15  1  0  0  0  0
 15 19  1  0  0  0  0
  2 20  1  0  0  0  0
  2 21  1  0  0  0  0
  3 22  1  0  0  0  0
  3 23  1  0  0  0  0
  4 24  1  0  0  0  0
  4 25  1  0  0  0  0
  5 26  1  0  0  0  0
  5 27  1  0  0  0  0
  6 28  1  0  0  0  0
  6 29  1  0  0  0  0
  7 30  1  0  0  0  0
  7 31  1  0  0  0  0
  8 32  1  0  0  0  0
  9 33  1  0  0  0  0
 12 34  1  0  0  0  0
 12 35  1  0  0  0  0
 12 36  1  0  0  0  0
 13 37  1  0  0  0  0
 13 38  1  0  0  0  0
 13 39  1  0  0  0  0
 14 40  1  0  0  0  0
 14 41  1  0  0  0  0
 14 42  1  0  0  0  0
 16 43  1  0  0  0  0
 16 44  1  0  0  0  0
 17 45  1  0  0  0  0
M  END
> <id>
EN300-6729056

> <smiles>
CC(C)(C)OC(=O)NC1(CC2CC3CC(N)(C2)C1)C3

> <IUPAC Name>
tert-butyl N-(3-aminoadamantan-1-yl)carbamate

> <CAS>
372963-43-4

> <Purity>
95

> <URL>
https://www.enaminestore.com/catalog/EN300-6729056

> <ROCS_ShapeQuery>
A71EV2A-x0451_0A_A71EV2A-x0310_0A_A71EV2A-x0416_0A_peptide

> <ROCS_TanimotoCombo>
0.542 

> <ROCS_ShapeTanimoto>
0.322 

> <ROCS_ColorTanimoto>
0.220 

> <ROCS_RefTversky>
0.285 

> <ROCS_RefColorTversky>
0.254 

> <ROCS_RefTverskyCombo>
0.539 

> <ROCS_FitTversky>
1.684 

> <ROCS_FitColorTversky>
0.624 

> <ROCS_FitTverskyCombo>
2.308 

> <ROCS_ColorScore>
-7.792

> <ROCS_Overlap>
1976.267

> <ROCS_Rank>
38                  

$$$$
untitled-dbase-172598_998
  -OEChem-11132313473D

 56 58  0     0  0  0  0  0  0999 V2000
    7.2983   13.3014   25.6598 C   0  0  0  0  0  0  0  0  0  0  0  0
    8.5245   13.2238   24.9706 C   0  0  0  0  0  0  0  0  0  0  0  0
    6.4501   12.1864   25.7639 C   0  0  0  0  0  0  0  0  0  0  0  0
    9.4026    9.4330   23.2863 C   0  0  0  0  0  0  0  0  0  0  0  0
   10.3318   10.4725   23.1143 C   0  0  0  0  0  0  0  0  0  0  0  0
    8.9194   12.0135   24.3707 C   0  0  0  0  0  0  0  0  0  0  0  0
    8.0350   10.9415   24.5081 C   0  0  0  0  0  0  0  0  0  0  0  0
    6.8390   10.9964   25.1735 C   0  0  0  0  0  0  0  0  0  0  0  0
    8.2422    9.6879   23.9964 C   0  0  0  0  0  0  0  0  0  0  0  0
   10.0995   11.7550   23.6490 C   0  0  0  0  0  0  0  0  0  0  0  0
   10.8265   14.9058   22.3636 C   0  0  0  0  0  0  0  0  0  0  0  0
   12.1722   13.0649   24.2854 C   0  0  0  0  0  0  0  0  0  0  0  0
    6.1328    9.6737   25.1351 C   0  0  0  0  0  0  0  0  0  0  0  0
    7.1008    8.7709   24.3220 C   0  0  0  0  0  0  0  0  0  0  0  0
   13.0535   16.0848   21.6642 C   0  0  0  0  0  0  0  0  0  0  0  0
   12.1298   16.3511   19.3436 C   0  0  0  0  0  0  0  0  0  0  0  0
   11.2767   17.8070   21.2039 C   0  0  0  0  0  0  0  0  0  0  0  0
   13.3249   14.6006   26.4179 C   0  0  0  0  0  0  0  0  0  0  0  0
   12.5388   12.7544   27.9290 C   0  0  0  0  0  0  0  0  0  0  0  0
   14.2263   12.2680   26.1335 C   0  0  0  0  0  0  0  0  0  0  0  0
   11.8152   16.4251   20.8362 C   0  0  0  0  0  0  0  0  0  0  0  0
   13.0105   13.1088   26.5204 C   0  0  0  0  0  0  0  0  0  0  0  0
   10.9995   13.5401   22.2711 N   0  0  0  0  0  0  0  0  0  0  0  0
   11.0571   12.7528   23.4481 N   0  0  0  0  0  0  0  0  0  0  0  0
   10.7116   15.5429   23.4060 O   0  0  0  0  0  0  0  0  0  0  0  0
   13.2388   13.5309   23.8951 O   0  0  0  0  0  0  0  0  0  0  0  0
   10.8011   15.4524   21.1121 O   0  0  0  0  0  0  0  0  0  0  0  0
   11.9403   12.8054   25.6178 O   0  0  0  0  0  0  0  0  0  0  0  0
    7.0037   14.2416   26.1194 H   0  0  0  0  0  0  0  0  0  0  0  0
    9.1519   14.1093   24.9125 H   0  0  0  0  0  0  0  0  0  0  0  0
    5.5091   12.2638   26.2985 H   0  0  0  0  0  0  0  0  0  0  0  0
    9.5975    8.4509   22.8683 H   0  0  0  0  0  0  0  0  0  0  0  0
   11.2445   10.2715   22.5567 H   0  0  0  0  0  0  0  0  0  0  0  0
    5.9853    9.2759   26.1444 H   0  0  0  0  0  0  0  0  0  0  0  0
    5.1643    9.7575   24.6312 H   0  0  0  0  0  0  0  0  0  0  0  0
    6.6175    8.4040   23.4107 H   0  0  0  0  0  0  0  0  0  0  0  0
    7.4368    7.9205   24.9241 H   0  0  0  0  0  0  0  0  0  0  0  0
   12.8318   16.1368   22.7362 H   0  0  0  0  0  0  0  0  0  0  0  0
   13.4289   15.0822   21.4350 H   0  0  0  0  0  0  0  0  0  0  0  0
   13.8577   16.8062   21.4796 H   0  0  0  0  0  0  0  0  0  0  0  0
   11.2441   16.5945   18.7457 H   0  0  0  0  0  0  0  0  0  0  0  0
   12.4260   15.3355   19.0571 H   0  0  0  0  0  0  0  0  0  0  0  0
   12.9353   17.0386   19.0659 H   0  0  0  0  0  0  0  0  0  0  0  0
   10.3885   18.0513   20.6101 H   0  0  0  0  0  0  0  0  0  0  0  0
   11.0108   17.8671   22.2643 H   0  0  0  0  0  0  0  0  0  0  0  0
   12.0178   18.5846   20.9861 H   0  0  0  0  0  0  0  0  0  0  0  0
   13.6638   14.8590   25.4083 H   0  0  0  0  0  0  0  0  0  0  0  0
   12.4509   15.2144   26.6591 H   0  0  0  0  0  0  0  0  0  0  0  0
   14.1395   14.8761   27.0975 H   0  0  0  0  0  0  0  0  0  0  0  0
   12.3122   11.6850   28.0070 H   0  0  0  0  0  0  0  0  0  0  0  0
   11.6120   13.2852   28.1752 H   0  0  0  0  0  0  0  0  0  0  0  0
   13.2925   13.0050   28.6824 H   0  0  0  0  0  0  0  0  0  0  0  0
   14.0011   11.1979   26.2069 H   0  0  0  0  0  0  0  0  0  0  0  0
   14.5564   12.4824   25.1118 H   0  0  0  0  0  0  0  0  0  0  0  0
   15.0630   12.4554   26.8163 H   0  0  0  0  0  0  0  0  0  0  0  0
   11.0762   13.0478   21.3875 H   0  0  0  0  0  0  0  0  0  0  0  0
  1  2  1  0  0  0  0
  1  3  2  0  0  0  0
  2  6  2  0  0  0  0
  3  8  1  0  0  0  0
  4  5  1  0  0  0  0
  4  9  2  0  0  0  0
  5 10  2  0  0  0  0
  6  7  1  0  0  0  0
  6 10  1  0  0  0  0
  7  8  2  0  0  0  0
  7  9  1  0  0  0  0
  8 13  1  0  0  0  0
  9 14  1  0  0  0  0
 10 24  1  0  0  0  0
 11 23  1  0  0  0  0
 11 25  2  0  0  0  0
 11 27  1  0  0  0  0
 12 24  1  0  0  0  0
 12 26  2  0  0  0  0
 12 28  1  0  0  0  0
 13 14  1  0  0  0  0
 15 21  1  0  0  0  0
 16 21  1  0  0  0  0
 17 21  1  0  0  0  0
 18 22  1  0  0  0  0
 19 22  1  0  0  0  0
 20 22  1  0  0  0  0
 21 27  1  0  0  0  0
 22 28  1  0  0  0  0
 23 24  1  0  0  0  0
  1 29  1  0  0  0  0
  2 30  1  0  0  0  0
  3 31  1  0  0  0  0
  4 32  1  0  0  0  0
  5 33  1  0  0  0  0
 13 34  1  0  0  0  0
 13 35  1  0  0  0  0
 14 36  1  0  0  0  0
 14 37  1  0  0  0  0
 15 38  1  0  0  0  0
 15 39  1  0  0  0  0
 15 40  1  0  0  0  0
 16 41  1  0  0  0  0
 16 42  1  0  0  0  0
 16 43  1  0  0  0  0
 17 44  1  0  0  0  0
 17 45  1  0  0  0  0
 17 46  1  0  0  0  0
 18 47  1  0  0  0  0
 18 48  1  0  0  0  0
 18 49  1  0  0  0  0
 19 50  1  0  0  0  0
 19 51  1  0  0  0  0
 19 52  1  0  0  0  0
 20 53  1  0  0  0  0
 20 54  1  0  0  0  0
 20 55  1  0  0  0  0
 23 56  1  0  0  0  0
M  END
> <id>
EN300-1666581

> <smiles>
CC(C)(C)OC(=O)NN(C(=O)OC(C)(C)C)C=1C=CC=2CCC3=CC=CC1C32

> <MDLNUMBER>
MFCD31689969

> <IUPAC Name>
N'-[(tert-butoxy)carbonyl]-N-(1,2-dihydroacenaphthylen-5-yl)(tert-butoxy)carbohydrazide

> <CAS>
2225136-39-8

> <Purity>
95

> <URL>
https://www.enaminestore.com/catalog/EN300-1666581

> <ROCS_ShapeQuery>
A71EV2A-x0451_0A_A71EV2A-x0310_0A_A71EV2A-x0416_0A_peptide

> <ROCS_TanimotoCombo>
0.542 

> <ROCS_ShapeTanimoto>
0.395 

> <ROCS_ColorTanimoto>
0.146 

> <ROCS_RefTversky>
0.348 

> <ROCS_RefColorTversky>
0.166 

> <ROCS_RefTverskyCombo>
0.514 

> <ROCS_FitTversky>
1.530 

> <ROCS_FitColorTversky>
0.550 

> <ROCS_FitTverskyCombo>
2.081 

> <ROCS_ColorScore>
-5.077

> <ROCS_Overlap>
2420.929

> <ROCS_Rank>
39                  

$$$$
untitled-dbase-148586_33
  -OEChem-11132313473D

 40 41  0     1  0  0  0  0  0999 V2000
    6.6782   12.8329   25.9963 C   0  0  0  0  0  0  0  0  0  0  0  0
    7.7949   13.0144   25.1680 C   0  0  0  0  0  0  0  0  0  0  0  0
    6.7093   10.4810   25.5411 C   0  0  0  0  0  0  0  0  0  0  0  0
    6.1450   11.5666   26.1959 C   0  0  0  0  0  0  0  0  0  0  0  0
    8.4152   11.9319   24.5269 C   0  0  0  0  0  0  0  0  0  0  0  0
    7.8103   10.6680   24.6956 C   0  0  0  0  0  0  0  0  0  0  0  0
    5.0108   11.3798   27.0850 C   0  0  0  0  0  0  0  0  0  0  0  0
   10.4269   13.1710   23.5253 C   0  0  0  0  0  0  0  0  0  0  0  0
    8.8818    9.8433   22.8265 C   0  0  0  0  0  0  0  0  0  0  0  0
   10.0491   10.7903   23.0549 C   0  0  2  0  0  0  0  0  0  0  0  0
   11.1576   10.1230   23.8805 C   0  0  0  0  0  0  0  0  0  0  0  0
   12.9578   14.4675   23.1559 C   0  0  0  0  0  0  0  0  0  0  0  0
   12.4995   14.2386   20.6968 C   0  0  0  0  0  0  0  0  0  0  0  0
   10.9714   15.6236   22.1302 C   0  0  0  0  0  0  0  0  0  0  0  0
   11.8739   14.3916   22.0815 C   0  0  0  0  0  0  0  0  0  0  0  0
    9.6011   12.0371   23.7094 N   0  0  0  0  0  0  0  0  0  0  0  0
    4.1268   12.2151   27.3038 O   0  0  0  0  0  0  0  0  0  0  0  0
   10.5273   14.0720   24.3605 O   0  0  0  0  0  0  0  0  0  0  0  0
    8.2461    9.5298   24.0605 O   0  0  0  0  0  0  0  0  0  0  0  0
    5.0092   10.1539   27.6772 O   0  0  0  0  0  0  0  0  0  0  0  0
   11.0721   13.2288   22.3240 O   0  0  0  0  0  0  0  0  0  0  0  0
    6.2424   13.6990   26.4905 H   0  0  0  0  0  0  0  0  0  0  0  0
    8.1551   14.0332   25.0825 H   0  0  0  0  0  0  0  0  0  0  0  0
    6.2939    9.4853   25.6753 H   0  0  0  0  0  0  0  0  0  0  0  0
    8.1486   10.2685   22.1348 H   0  0  0  0  0  0  0  0  0  0  0  0
    9.2332    8.9059   22.3903 H   0  0  0  0  0  0  0  0  0  0  0  0
   10.4690   11.0287   22.0714 H   0  0  0  0  0  0  0  0  0  0  0  0
   10.7756    9.8715   24.8666 H   0  0  0  0  0  0  0  0  0  0  0  0
   11.9968   10.8062   23.9823 H   0  0  0  0  0  0  0  0  0  0  0  0
   11.4887    9.2167   23.3798 H   0  0  0  0  0  0  0  0  0  0  0  0
   12.5128   14.5773   24.1513 H   0  0  0  0  0  0  0  0  0  0  0  0
   13.5904   13.5738   23.1545 H   0  0  0  0  0  0  0  0  0  0  0  0
   13.5975   15.3445   23.0047 H   0  0  0  0  0  0  0  0  0  0  0  0
   11.7254   14.1837   19.9229 H   0  0  0  0  0  0  0  0  0  0  0  0
   13.0715   13.3062   20.6278 H   0  0  0  0  0  0  0  0  0  0  0  0
   13.1673   15.0733   20.4607 H   0  0  0  0  0  0  0  0  0  0  0  0
   10.1938   15.5695   21.3597 H   0  0  0  0  0  0  0  0  0  0  0  0
   10.4849   15.7289   23.1054 H   0  0  0  0  0  0  0  0  0  0  0  0
   11.5450   16.5352   21.9271 H   0  0  0  0  0  0  0  0  0  0  0  0
    4.2466   10.0177   28.2791 H   0  0  0  0  0  0  0  0  0  0  0  0
  1  2  1  0  0  0  0
  1  4  2  0  0  0  0
  2  5  2  0  0  0  0
  3  4  1  0  0  0  0
  3  6  2  0  0  0  0
  4  7  1  0  0  0  0
  5  6  1  0  0  0  0
  5 16  1  0  0  0  0
  6 19  1  0  0  0  0
  7 17  2  0  0  0  0
  7 20  1  0  0  0  0
  8 16  1  0  0  0  0
  8 18  2  0  0  0  0
  8 21  1  0  0  0  0
  9 10  1  0  0  0  0
  9 19  1  0  0  0  0
 10 11  1  0  0  0  0
 10 16  1  0  0  0  0
 12 15  1  0  0  0  0
 13 15  1  0  0  0  0
 14 15  1  0  0  0  0
 15 21  1  0  0  0  0
  1 22  1  0  0  0  0
  2 23  1  0  0  0  0
  3 24  1  0  0  0  0
  9 25  1  0  0  0  0
  9 26  1  0  0  0  0
 10 27  1  0  0  0  0
 11 28  1  0  0  0  0
 11 29  1  0  0  0  0
 11 30  1  0  0  0  0
 12 31  1  0  0  0  0
 12 32  1  0  0  0  0
 12 33  1  0  0  0  0
 13 34  1  0  0  0  0
 13 35  1  0  0  0  0
 13 36  1  0  0  0  0
 14 37  1  0  0  0  0
 14 38  1  0  0  0  0
 14 39  1  0  0  0  0
 20 40  1  0  0  0  0
M  END
> <id>
EN300-27782869

> <smiles>
CC1COC=2C=C(C=CC2N1C(=O)OC(C)(C)C)C(=O)O

> <IUPAC Name>
4-[(tert-butoxy)carbonyl]-3-methyl-3,4-dihydro-2H-1,4-benzoxazine-7-carboxylic acid

> <CAS>
2639415-17-9

> <URL>
https://www.enaminestore.com/catalog/EN300-27782869

> <ROCS_ShapeQuery>
A71EV2A-x0451_0A_A71EV2A-x0310_0A_A71EV2A-x0416_0A_peptide

> <ROCS_TanimotoCombo>
0.542 

> <ROCS_ShapeTanimoto>
0.363 

> <ROCS_ColorTanimoto>
0.178 

> <ROCS_RefTversky>
0.315 

> <ROCS_RefColorTversky>
0.197 

> <ROCS_RefTverskyCombo>
0.512 

> <ROCS_FitTversky>
1.730 

> <ROCS_FitColorTversky>
0.653 

> <ROCS_FitTverskyCombo>
2.383 

> <ROCS_ColorScore>
-6.010

> <ROCS_Overlap>
2187.170

> <ROCS_Rank>
40                  

$$$$
untitled-dbase-174611_19
  -OEChem-11132313473D

 31 32  0     0  0  0  0  0  0999 V2000
    8.0162   12.9679   24.7099 C   0  0  0  0  0  0  0  0  0  0  0  0
    6.4490   11.5678   25.8679 C   0  0  0  0  0  0  0  0  0  0  0  0
    8.5837   11.7871   24.2149 C   0  0  0  0  0  0  0  0  0  0  0  0
    6.9176   12.8406   25.5600 C   0  0  0  0  0  0  0  0  0  0  0  0
    8.0175   10.5825   24.6018 C   0  0  0  0  0  0  0  0  0  0  0  0
    9.6467   11.4110   23.3699 C   0  0  0  0  0  0  0  0  0  0  0  0
   10.9206   13.5664   23.1639 C   0  0  0  0  0  0  0  0  0  0  0  0
   11.2058   16.3820   22.7513 C   0  0  0  0  0  0  0  0  0  0  0  0
   12.4509   15.7625   20.6596 C   0  0  0  0  0  0  0  0  0  0  0  0
   10.0385   15.1129   20.9178 C   0  0  0  0  0  0  0  0  0  0  0  0
   11.3632   15.3400   21.6448 C   0  0  0  0  0  0  0  0  0  0  0  0
    6.9628   10.3985   25.4151 N   0  0  0  0  0  0  0  0  0  0  0  0
    9.7520   10.0856   23.2283 N   0  0  0  0  0  0  0  0  0  0  0  0
    8.7492    9.6091   23.9881 N   0  0  0  0  0  0  0  0  0  0  0  0
   10.5214   12.3175   22.7288 N   0  0  0  0  0  0  0  0  0  0  0  0
   10.5951   14.1402   24.1961 O   0  0  0  0  0  0  0  0  0  0  0  0
   11.7742   14.1071   22.2368 O   0  0  0  0  0  0  0  0  0  0  0  0
    6.3248   13.9261   26.0713 F   0  0  0  0  0  0  0  0  0  0  0  0
    8.4071   13.9455   24.4494 H   0  0  0  0  0  0  0  0  0  0  0  0
    5.5940   11.4545   26.5292 H   0  0  0  0  0  0  0  0  0  0  0  0
   10.4260   16.0824   23.4606 H   0  0  0  0  0  0  0  0  0  0  0  0
   12.1400   16.5286   23.3031 H   0  0  0  0  0  0  0  0  0  0  0  0
   10.8931   17.3475   22.3376 H   0  0  0  0  0  0  0  0  0  0  0  0
   12.5672   15.0177   19.8639 H   0  0  0  0  0  0  0  0  0  0  0  0
   13.4236   15.8346   21.1594 H   0  0  0  0  0  0  0  0  0  0  0  0
   12.2253   16.7296   20.1989 H   0  0  0  0  0  0  0  0  0  0  0  0
   10.1512   14.3656   20.1241 H   0  0  0  0  0  0  0  0  0  0  0  0
    9.2553   14.7736   21.6034 H   0  0  0  0  0  0  0  0  0  0  0  0
    9.6991   16.0337   20.4297 H   0  0  0  0  0  0  0  0  0  0  0  0
    8.6219    8.6063   24.0431 H   0  0  0  0  0  0  0  0  0  0  0  0
   10.9042   12.0127   21.8371 H   0  0  0  0  0  0  0  0  0  0  0  0
  1  3  2  0  0  0  0
  1  4  1  0  0  0  0
  2  4  2  0  0  0  0
  2 12  1  0  0  0  0
  3  5  1  0  0  0  0
  3  6  1  0  0  0  0
  4 18  1  0  0  0  0
  5 12  2  0  0  0  0
  5 14  1  0  0  0  0
  6 13  2  0  0  0  0
  6 15  1  0  0  0  0
  7 15  1  0  0  0  0
  7 16  2  0  0  0  0
  7 17  1  0  0  0  0
  8 11  1  0  0  0  0
  9 11  1  0  0  0  0
 10 11  1  0  0  0  0
 11 17  1  0  0  0  0
 13 14  1  0  0  0  0
  1 19  1  0  0  0  0
  2 20  1  0  0  0  0
  8 21  1  0  0  0  0
  8 22  1  0  0  0  0
  8 23  1  0  0  0  0
  9 24  1  0  0  0  0
  9 25  1  0  0  0  0
  9 26  1  0  0  0  0
 10 27  1  0  0  0  0
 10 28  1  0  0  0  0
 10 29  1  0  0  0  0
 14 30  1  0  0  0  0
 15 31  1  0  0  0  0
M  END
> <id>
EN300-43381928

> <smiles>
CC(C)(C)OC(=O)NC1=NNC=2N=CC(F)=CC12

> <IUPAC Name>
tert-butyl N-{5-fluoro-1H-pyrazolo[3,4-b]pyridin-3-yl}carbamate

> <URL>
https://www.enaminestore.com/catalog/EN300-43381928

> <ROCS_ShapeQuery>
A71EV2A-x0451_0A_A71EV2A-x0310_0A_A71EV2A-x0416_0A_peptide

> <ROCS_TanimotoCombo>
0.541 

> <ROCS_ShapeTanimoto>
0.348 

> <ROCS_ColorTanimoto>
0.194 

> <ROCS_RefTversky>
0.301 

> <ROCS_RefColorTversky>
0.211 

> <ROCS_RefTverskyCombo>
0.512 

> <ROCS_FitTversky>
1.815 

> <ROCS_FitColorTversky>
0.700 

> <ROCS_FitTverskyCombo>
2.515 

> <ROCS_ColorScore>
-6.442

> <ROCS_Overlap>
2086.884

> <ROCS_Rank>
41                  

$$$$
untitled-dbase-114599_9
  -OEChem-11132313473D

 29 31  0     0  0  0  0  0  0999 V2000
    7.0519   13.0250   26.1425 C   0  0  0  0  0  0  0  0  0  0  0  0
    6.3568   11.8306   26.2856 C   0  0  0  0  0  0  0  0  0  0  0  0
    8.1384   13.0879   25.2748 C   0  0  0  0  0  0  0  0  0  0  0  0
    6.7495   10.7024   25.5612 C   0  0  0  0  0  0  0  0  0  0  0  0
    9.9878   10.8506   22.9608 C   0  0  0  0  0  0  0  0  0  0  0  0
    8.5332   11.9530   24.5462 C   0  0  0  0  0  0  0  0  0  0  0  0
    9.6230   11.9884   23.6660 C   0  0  0  0  0  0  0  0  0  0  0  0
    7.8320   10.7370   24.6864 C   0  0  0  0  0  0  0  0  0  0  0  0
    9.2416    9.7075   23.1639 C   0  0  0  0  0  0  0  0  0  0  0  0
   11.7483   14.4124   21.7926 C   0  0  0  0  0  0  0  0  0  0  0  0
   10.4175   13.1931   23.4444 C   0  0  0  0  0  0  0  0  0  0  0  0
   12.9212   16.3586   21.7370 C   0  0  0  0  0  0  0  0  0  0  0  0
   12.6957   16.1595   20.2494 C   0  0  0  0  0  0  0  0  0  0  0  0
    8.1837    9.6312   24.0035 N   0  0  0  0  0  0  0  0  0  0  0  0
   12.0427   15.4541   22.5039 N   0  0  0  0  0  0  0  0  0  0  0  0
   11.0012   13.3388   22.1770 N   0  0  0  0  0  0  0  0  0  0  0  0
   10.5303   14.0411   24.3435 O   0  0  0  0  0  0  0  0  0  0  0  0
   12.3578   14.3953   20.1440 S   0  0  0  0  0  0  0  0  0  0  0  0
    9.6105    8.2478   22.3410 Cl  0  0  0  0  0  0  0  0  0  0  0  0
    6.7491   13.9040   26.7033 H   0  0  0  0  0  0  0  0  0  0  0  0
    5.5084   11.7730   26.9612 H   0  0  0  0  0  0  0  0  0  0  0  0
    8.6642   14.0352   25.1830 H   0  0  0  0  0  0  0  0  0  0  0  0
    6.1881    9.7787   25.6905 H   0  0  0  0  0  0  0  0  0  0  0  0
   10.8292   10.8593   22.2748 H   0  0  0  0  0  0  0  0  0  0  0  0
   13.9649   16.1582   22.0102 H   0  0  0  0  0  0  0  0  0  0  0  0
   12.7093   17.3972   22.0126 H   0  0  0  0  0  0  0  0  0  0  0  0
   11.8149   16.7130   19.9093 H   0  0  0  0  0  0  0  0  0  0  0  0
   13.5615   16.4550   19.6517 H   0  0  0  0  0  0  0  0  0  0  0  0
   10.8589   12.6071   21.4870 H   0  0  0  0  0  0  0  0  0  0  0  0
  1  2  1  0  0  0  0
  1  3  2  0  0  0  0
  2  4  2  0  0  0  0
  3  6  1  0  0  0  0
  4  8  1  0  0  0  0
  5  7  1  0  0  0  0
  5  9  2  0  0  0  0
  6  7  2  0  0  0  0
  6  8  1  0  0  0  0
  7 11  1  0  0  0  0
  8 14  2  0  0  0  0
  9 14  1  0  0  0  0
  9 19  1  0  0  0  0
 10 15  2  0  0  0  0
 10 16  1  0  0  0  0
 10 18  1  0  0  0  0
 11 16  1  0  0  0  0
 11 17  2  0  0  0  0
 12 13  1  0  0  0  0
 12 15  1  0  0  0  0
 13 18  1  0  0  0  0
  1 20  1  0  0  0  0
  2 21  1  0  0  0  0
  3 22  1  0  0  0  0
  4 23  1  0  0  0  0
  5 24  1  0  0  0  0
 12 25  1  0  0  0  0
 12 26  1  0  0  0  0
 13 27  1  0  0  0  0
 13 28  1  0  0  0  0
 16 29  1  0  0  0  0
M  END
> <id>
EN300-26604292

> <smiles>
ClC=1C=C(C(=O)NC2=NCCS2)C=3C=CC=CC3N1

> <IUPAC Name>
2-chloro-N-(4,5-dihydro-1,3-thiazol-2-yl)quinoline-4-carboxamide

> <CAS>
1118799-38-4

> <URL>
https://www.enaminestore.com/catalog/EN300-26604292

> <ROCS_ShapeQuery>
A71EV2A-x0451_0A_A71EV2A-x0310_0A_A71EV2A-x0416_0A_peptide

> <ROCS_TanimotoCombo>
0.541 

> <ROCS_ShapeTanimoto>
0.351 

> <ROCS_ColorTanimoto>
0.190 

> <ROCS_RefTversky>
0.304 

> <ROCS_RefColorTversky>
0.198 

> <ROCS_RefTverskyCombo>
0.502 

> <ROCS_FitTversky>
1.794 

> <ROCS_FitColorTversky>
0.827 

> <ROCS_FitTverskyCombo>
2.621 

> <ROCS_ColorScore>
-6.027

> <ROCS_Overlap>
2107.474

> <ROCS_Rank>
42                  

$$$$
untitled-dbase-149498_231
  -OEChem-11132313473D

 48 49  0     0  0  0  0  0  0999 V2000
    9.4671    7.8146   22.9179 C   0  0  0  0  0  0  0  0  0  0  0  0
    8.3807    7.5127   23.7291 C   0  0  0  0  0  0  0  0  0  0  0  0
    9.8818    9.1381   22.7561 C   0  0  0  0  0  0  0  0  0  0  0  0
    7.6799    8.5210   24.3987 C   0  0  0  0  0  0  0  0  0  0  0  0
    9.1905   10.1721   23.4215 C   0  0  0  0  0  0  0  0  0  0  0  0
    8.0952    9.8568   24.2372 C   0  0  0  0  0  0  0  0  0  0  0  0
    9.3577   11.5762   23.4626 C   0  0  0  0  0  0  0  0  0  0  0  0
    8.3839   12.0869   24.2839 C   0  0  0  0  0  0  0  0  0  0  0  0
    6.5060   11.1926   25.6374 C   0  0  0  0  0  0  0  0  0  0  0  0
   10.9179   13.5244   23.1774 C   0  0  0  0  0  0  0  0  0  0  0  0
    5.4711   12.0313   28.1428 C   0  0  0  0  0  0  0  0  0  0  0  0
    5.1774   14.2777   27.0581 C   0  0  0  0  0  0  0  0  0  0  0  0
    3.9346   12.2859   26.1657 C   0  0  0  0  0  0  0  0  0  0  0  0
   11.5870   16.2577   22.6670 C   0  0  0  0  0  0  0  0  0  0  0  0
   12.7060   15.4029   20.5870 C   0  0  0  0  0  0  0  0  0  0  0  0
   10.2303   15.1053   20.8877 C   0  0  0  0  0  0  0  0  0  0  0  0
    5.2244   12.7688   26.8275 C   0  0  0  0  0  0  0  0  0  0  0  0
   11.5832   15.1686   21.5952 C   0  0  0  0  0  0  0  0  0  0  0  0
    7.6010   11.0532   24.7678 N   0  0  0  0  0  0  0  0  0  0  0  0
   10.3191   12.3120   22.8029 N   0  0  0  0  0  0  0  0  0  0  0  0
    5.8653   10.2269   26.0186 O   0  0  0  0  0  0  0  0  0  0  0  0
   10.6869   14.1708   24.1919 O   0  0  0  0  0  0  0  0  0  0  0  0
    6.3175   12.5016   25.9438 O   0  0  0  0  0  0  0  0  0  0  0  0
   11.8269   13.9065   22.2270 O   0  0  0  0  0  0  0  0  0  0  0  0
    8.1549   13.7418   24.6654 Cl  0  0  0  0  0  0  0  0  0  0  0  0
    9.9988    7.0175   22.4058 H   0  0  0  0  0  0  0  0  0  0  0  0
    8.0686    6.4780   23.8458 H   0  0  0  0  0  0  0  0  0  0  0  0
   10.7333    9.3612   22.1188 H   0  0  0  0  0  0  0  0  0  0  0  0
    6.8385    8.2405   25.0210 H   0  0  0  0  0  0  0  0  0  0  0  0
    5.5055   10.9479   27.9815 H   0  0  0  0  0  0  0  0  0  0  0  0
    6.4108   12.3433   28.6101 H   0  0  0  0  0  0  0  0  0  0  0  0
    4.6551   12.2125   28.8517 H   0  0  0  0  0  0  0  0  0  0  0  0
    5.0006   14.8109   26.1170 H   0  0  0  0  0  0  0  0  0  0  0  0
    6.1355   14.6435   27.4448 H   0  0  0  0  0  0  0  0  0  0  0  0
    4.3895   14.5538   27.7663 H   0  0  0  0  0  0  0  0  0  0  0  0
    3.7574   12.8148   25.2222 H   0  0  0  0  0  0  0  0  0  0  0  0
    3.9652   11.2112   25.9590 H   0  0  0  0  0  0  0  0  0  0  0  0
    3.0679   12.4932   26.8038 H   0  0  0  0  0  0  0  0  0  0  0  0
   10.7825   16.0931   23.3927 H   0  0  0  0  0  0  0  0  0  0  0  0
   12.5398   16.2903   23.2055 H   0  0  0  0  0  0  0  0  0  0  0  0
   11.4063   17.2435   22.2234 H   0  0  0  0  0  0  0  0  0  0  0  0
   12.7069   14.6238   19.8161 H   0  0  0  0  0  0  0  0  0  0  0  0
   13.6858   15.3547   21.0758 H   0  0  0  0  0  0  0  0  0  0  0  0
   12.6111   16.3766   20.0956 H   0  0  0  0  0  0  0  0  0  0  0  0
   10.2272   14.3241   20.1189 H   0  0  0  0  0  0  0  0  0  0  0  0
    9.4165   14.9010   21.5911 H   0  0  0  0  0  0  0  0  0  0  0  0
   10.0160   16.0480   20.3715 H   0  0  0  0  0  0  0  0  0  0  0  0
   10.6444   11.9148   21.9067 H   0  0  0  0  0  0  0  0  0  0  0  0
  1  2  2  0  0  0  0
  1  3  1  0  0  0  0
  2  4  1  0  0  0  0
  3  5  2  0  0  0  0
  4  6  2  0  0  0  0
  5  6  1  0  0  0  0
  5  7  1  0  0  0  0
  6 19  1  0  0  0  0
  7  8  2  0  0  0  0
  7 20  1  0  0  0  0
  8 19  1  0  0  0  0
  8 25  1  0  0  0  0
  9 19  1  0  0  0  0
  9 21  2  0  0  0  0
  9 23  1  0  0  0  0
 10 20  1  0  0  0  0
 10 22  2  0  0  0  0
 10 24  1  0  0  0  0
 11 17  1  0  0  0  0
 12 17  1  0  0  0  0
 13 17  1  0  0  0  0
 14 18  1  0  0  0  0
 15 18  1  0  0  0  0
 16 18  1  0  0  0  0
 17 23  1  0  0  0  0
 18 24  1  0  0  0  0
  1 26  1  0  0  0  0
  2 27  1  0  0  0  0
  3 28  1  0  0  0  0
  4 29  1  0  0  0  0
 11 30  1  0  0  0  0
 11 31  1  0  0  0  0
 11 32  1  0  0  0  0
 12 33  1  0  0  0  0
 12 34  1  0  0  0  0
 12 35  1  0  0  0  0
 13 36  1  0  0  0  0
 13 37  1  0  0  0  0
 13 38  1  0  0  0  0
 14 39  1  0  0  0  0
 14 40  1  0  0  0  0
 14 41  1  0  0  0  0
 15 42  1  0  0  0  0
 15 43  1  0  0  0  0
 15 44  1  0  0  0  0
 16 45  1  0  0  0  0
 16 46  1  0  0  0  0
 16 47  1  0  0  0  0
 20 48  1  0  0  0  0
M  END
> <id>
EN300-27736036

> <smiles>
CC(C)(C)OC(=O)NC1=C(Cl)N(C(=O)OC(C)(C)C)C=2C=CC=CC12

> <MDLNUMBER>
MFCD33550445

> <IUPAC Name>
tert-butyl 3-{[(tert-butoxy)carbonyl]amino}-2-chloro-1H-indole-1-carboxylate

> <CAS>
2624122-31-0

> <Purity>
95

> <URL>
https://www.enaminestore.com/catalog/EN300-27736036

> <ROCS_ShapeQuery>
A71EV2A-x0451_0A_A71EV2A-x0310_0A_A71EV2A-x0416_0A_peptide

> <ROCS_TanimotoCombo>
0.541 

> <ROCS_ShapeTanimoto>
0.413 

> <ROCS_ColorTanimoto>
0.128 

> <ROCS_RefTversky>
0.353 

> <ROCS_RefColorTversky>
0.144 

> <ROCS_RefTverskyCombo>
0.496 

> <ROCS_FitTversky>
1.709 

> <ROCS_FitColorTversky>
0.531 

> <ROCS_FitTverskyCombo>
2.240 

> <ROCS_ColorScore>
-4.382

> <ROCS_Overlap>
2451.833

> <ROCS_Rank>
43                  

$$$$
untitled-dbase-146720_143
  -OEChem-11132313473D

 38 39  0     1  0  0  0  0  0999 V2000
    6.7784   12.3011   25.5168 C   0  0  0  0  0  0  0  0  0  0  0  0
    8.5349   11.9751   24.4115 C   0  0  0  0  0  0  0  0  0  0  0  0
    5.7666   12.9799   26.2686 C   0  0  0  0  0  0  0  0  0  0  0  0
   10.4500   13.1853   23.6445 C   0  0  0  0  0  0  0  0  0  0  0  0
    8.2218    9.5219   24.0424 C   0  0  0  0  0  0  0  0  0  0  0  0
   10.2687   10.7151   23.1579 C   0  0  0  0  0  0  0  0  0  0  0  0
    9.1605    9.6930   22.8425 C   0  0  1  0  0  0  0  0  0  0  0  0
    9.7575    8.3524   22.4249 C   0  0  0  0  0  0  0  0  0  0  0  0
   12.1731   15.4009   23.0716 C   0  0  0  0  0  0  0  0  0  0  0  0
   12.4262   14.3776   20.7916 C   0  0  0  0  0  0  0  0  0  0  0  0
   10.1675   15.1512   21.5716 C   0  0  0  0  0  0  0  0  0  0  0  0
   11.5039   14.5448   21.9973 C   0  0  0  0  0  0  0  0  0  0  0  0
    7.8789   12.9429   25.0182 N   0  0  0  0  0  0  0  0  0  0  0  0
    6.7022   10.9928   25.2614 N   0  0  0  0  0  0  0  0  0  0  0  0
    7.8253   10.8146   24.5537 N   0  0  0  0  0  0  0  0  0  0  0  0
    9.7408   11.9778   23.7130 N   0  0  0  0  0  0  0  0  0  0  0  0
    5.4334   14.1770   26.1460 O   0  0  0  0  0  0  0  0  0  0  0  0
   10.3816   14.1013   24.4620 O   0  0  0  0  0  0  0  0  0  0  0  0
    5.1460   12.1789   27.1908 O   0  0  0  0  0  0  0  0  0  0  0  0
   11.2612   13.2412   22.5390 O   0  0  0  0  0  0  0  0  0  0  0  0
    7.3173    8.9748   23.7556 H   0  0  0  0  0  0  0  0  0  0  0  0
    8.7110    8.9931   24.8684 H   0  0  0  0  0  0  0  0  0  0  0  0
   10.9714   10.3155   23.8999 H   0  0  0  0  0  0  0  0  0  0  0  0
   10.8411   10.9288   22.2482 H   0  0  0  0  0  0  0  0  0  0  0  0
    8.5764   10.0831   21.9972 H   0  0  0  0  0  0  0  0  0  0  0  0
   10.3446    7.9372   23.2431 H   0  0  0  0  0  0  0  0  0  0  0  0
   10.4025    8.4880   21.5577 H   0  0  0  0  0  0  0  0  0  0  0  0
    8.9604    7.6551   22.1698 H   0  0  0  0  0  0  0  0  0  0  0  0
   11.5143   15.5232   23.9387 H   0  0  0  0  0  0  0  0  0  0  0  0
   13.1156   14.9587   23.4106 H   0  0  0  0  0  0  0  0  0  0  0  0
   12.3795   16.4094   22.6954 H   0  0  0  0  0  0  0  0  0  0  0  0
   11.9500   13.7640   20.0183 H   0  0  0  0  0  0  0  0  0  0  0  0
   13.3481   13.8568   21.0747 H   0  0  0  0  0  0  0  0  0  0  0  0
   12.6947   15.3434   20.3514 H   0  0  0  0  0  0  0  0  0  0  0  0
    9.6873   14.5373   20.8010 H   0  0  0  0  0  0  0  0  0  0  0  0
    9.4791   15.2444   22.4178 H   0  0  0  0  0  0  0  0  0  0  0  0
   10.3130   16.1437   21.1300 H   0  0  0  0  0  0  0  0  0  0  0  0
    5.4807   11.2569   27.2076 H   0  0  0  0  0  0  0  0  0  0  0  0
  1  3  1  0  0  0  0
  1 13  1  0  0  0  0
  1 14  2  0  0  0  0
  2 13  2  0  0  0  0
  2 15  1  0  0  0  0
  2 16  1  0  0  0  0
  3 17  2  0  0  0  0
  3 19  1  0  0  0  0
  4 16  1  0  0  0  0
  4 18  2  0  0  0  0
  4 20  1  0  0  0  0
  5  7  1  0  0  0  0
  5 15  1  0  0  0  0
  6  7  1  0  0  0  0
  6 16  1  0  0  0  0
  7  8  1  0  0  0  0
  9 12  1  0  0  0  0
 10 12  1  0  0  0  0
 11 12  1  0  0  0  0
 12 20  1  0  0  0  0
 14 15  1  0  0  0  0
  5 21  1  0  0  0  0
  5 22  1  0  0  0  0
  6 23  1  0  0  0  0
  6 24  1  0  0  0  0
  7 25  1  0  0  0  0
  8 26  1  0  0  0  0
  8 27  1  0  0  0  0
  8 28  1  0  0  0  0
  9 29  1  0  0  0  0
  9 30  1  0  0  0  0
  9 31  1  0  0  0  0
 10 32  1  0  0  0  0
 10 33  1  0  0  0  0
 10 34  1  0  0  0  0
 11 35  1  0  0  0  0
 11 36  1  0  0  0  0
 11 37  1  0  0  0  0
 19 38  1  0  0  0  0
M  END
> <id>
EN300-27783378

> <smiles>
CC1CN(C(=O)OC(C)(C)C)C2=NC(=NN2C1)C(=O)O

> <IUPAC Name>
4-[(tert-butoxy)carbonyl]-6-methyl-4H,5H,6H,7H-[1,2,4]triazolo[1,5-a]pyrimidine-2-carboxylic acid

> <CAS>
2639451-78-6

> <URL>
https://www.enaminestore.com/catalog/EN300-27783378

> <ROCS_ShapeQuery>
A71EV2A-x0451_0A_A71EV2A-x0310_0A_A71EV2A-x0416_0A_peptide

> <ROCS_TanimotoCombo>
0.541 

> <ROCS_ShapeTanimoto>
0.373 

> <ROCS_ColorTanimoto>
0.168 

> <ROCS_RefTversky>
0.320 

> <ROCS_RefColorTversky>
0.192 

> <ROCS_RefTverskyCombo>
0.511 

> <ROCS_FitTversky>
1.803 

> <ROCS_FitColorTversky>
0.575 

> <ROCS_FitTverskyCombo>
2.378 

> <ROCS_ColorScore>
-5.859

> <ROCS_Overlap>
2219.309

> <ROCS_Rank>
44                  

$$$$
untitled-dbase-107783_36
  -OEChem-11132313473D

 40 41  0     1  0  0  0  0  0999 V2000
   11.0727   13.8632   23.1804 C   0  0  0  0  0  0  0  0  0  0  0  0
    9.4534    9.8731   23.5733 C   0  0  0  0  0  0  0  0  0  0  0  0
    9.3721   11.8769   24.8359 C   0  0  0  0  0  0  0  0  0  0  0  0
    7.2438   10.6662   23.1431 C   0  0  0  0  0  0  0  0  0  0  0  0
    8.8875   10.4169   24.8939 C   0  0  1  0  0  0  0  0  0  0  0  0
    8.7123   10.9113   22.7284 C   0  0  1  0  0  0  0  0  0  0  0  0
    9.1854   12.2475   23.3488 C   0  0  2  0  0  0  0  0  0  0  0  0
    7.3634   10.3070   24.6402 C   0  0  1  0  0  0  0  0  0  0  0  0
   12.1980   16.4390   22.6817 C   0  0  0  0  0  0  0  0  0  0  0  0
   13.5865   15.2891   20.9327 C   0  0  0  0  0  0  0  0  0  0  0  0
   11.0841   15.3231   20.7200 C   0  0  0  0  0  0  0  0  0  0  0  0
    6.4771   11.1624   25.5356 C   0  0  0  0  0  0  0  0  0  0  0  0
   12.2618   15.2762   21.6924 C   0  0  0  0  0  0  0  0  0  0  0  0
   10.4094   12.7256   22.7613 N   0  0  0  0  0  0  0  0  0  0  0  0
   10.7146   14.6029   24.0910 O   0  0  0  0  0  0  0  0  0  0  0  0
    6.9654    8.9438   24.8130 O   0  0  0  0  0  0  0  0  0  0  0  0
   12.1978   14.0488   22.4272 O   0  0  0  0  0  0  0  0  0  0  0  0
    5.1871   11.0103   25.1936 F   0  0  0  0  0  0  0  0  0  0  0  0
    6.6281   10.8005   26.8202 F   0  0  0  0  0  0  0  0  0  0  0  0
    6.8057   12.4588   25.4115 F   0  0  0  0  0  0  0  0  0  0  0  0
   10.5436    9.9500   23.5066 H   0  0  0  0  0  0  0  0  0  0  0  0
    9.1513    8.8434   23.3557 H   0  0  0  0  0  0  0  0  0  0  0  0
    8.8233   12.5477   25.5019 H   0  0  0  0  0  0  0  0  0  0  0  0
   10.4290   11.9278   25.1271 H   0  0  0  0  0  0  0  0  0  0  0  0
    6.6306   11.5554   22.9619 H   0  0  0  0  0  0  0  0  0  0  0  0
    6.8223    9.8352   22.5653 H   0  0  0  0  0  0  0  0  0  0  0  0
    9.2322    9.8697   25.7749 H   0  0  0  0  0  0  0  0  0  0  0  0
    8.8662   10.8408   21.6490 H   0  0  0  0  0  0  0  0  0  0  0  0
    8.4413   13.0410   23.2226 H   0  0  0  0  0  0  0  0  0  0  0  0
   11.2487   16.4333   23.2291 H   0  0  0  0  0  0  0  0  0  0  0  0
   13.0176   16.3974   23.4065 H   0  0  0  0  0  0  0  0  0  0  0  0
   12.2474   17.4008   22.1584 H   0  0  0  0  0  0  0  0  0  0  0  0
   13.6365   14.4565   20.2217 H   0  0  0  0  0  0  0  0  0  0  0  0
   14.4313   15.1602   21.6189 H   0  0  0  0  0  0  0  0  0  0  0  0
   13.7270   16.2245   20.3815 H   0  0  0  0  0  0  0  0  0  0  0  0
   11.1296   14.4891   20.0103 H   0  0  0  0  0  0  0  0  0  0  0  0
   10.1249   15.2774   21.2457 H   0  0  0  0  0  0  0  0  0  0  0  0
   11.1096   16.2406   20.1210 H   0  0  0  0  0  0  0  0  0  0  0  0
   10.8102   12.1942   21.9912 H   0  0  0  0  0  0  0  0  0  0  0  0
    7.0525    8.7540   25.7584 H   0  0  0  0  0  0  0  0  0  0  0  0
  1 14  1  0  0  0  0
  1 15  2  0  0  0  0
  1 17  1  0  0  0  0
  2  5  1  0  0  0  0
  2  6  1  0  0  0  0
  3  5  1  0  0  0  0
  3  7  1  0  0  0  0
  4  6  1  0  0  0  0
  4  8  1  0  0  0  0
  5  8  1  0  0  0  0
  6  7  1  0  0  0  0
  7 14  1  0  0  0  0
  8 12  1  0  0  0  0
  8 16  1  0  0  0  0
  9 13  1  0  0  0  0
 10 13  1  0  0  0  0
 11 13  1  0  0  0  0
 12 18  1  0  0  0  0
 12 19  1  0  0  0  0
 12 20  1  0  0  0  0
 13 17  1  0  0  0  0
  2 21  1  0  0  0  0
  2 22  1  0  0  0  0
  3 23  1  0  0  0  0
  3 24  1  0  0  0  0
  4 25  1  0  0  0  0
  4 26  1  0  0  0  0
  5 27  1  0  0  0  0
  6 28  1  0  0  0  0
  7 29  1  0  0  0  0
  9 30  1  0  0  0  0
  9 31  1  0  0  0  0
  9 32  1  0  0  0  0
 10 33  1  0  0  0  0
 10 34  1  0  0  0  0
 10 35  1  0  0  0  0
 11 36  1  0  0  0  0
 11 37  1  0  0  0  0
 11 38  1  0  0  0  0
 14 39  1  0  0  0  0
 16 40  1  0  0  0  0
M  END
> <id>
EN300-7548570

> <smiles>
CC(C)(C)OC(=O)NC1CC2CC1CC2(O)C(F)(F)F

> <IUPAC Name>
tert-butyl N-[5-hydroxy-5-(trifluoromethyl)bicyclo[2.2.1]heptan-2-yl]carbamate

> <CAS>
2408974-12-7

> <URL>
https://www.enaminestore.com/catalog/EN300-7548570

> <ROCS_ShapeQuery>
A71EV2A-x0451_0A_A71EV2A-x0310_0A_A71EV2A-x0416_0A_peptide

> <ROCS_TanimotoCombo>
0.540 

> <ROCS_ShapeTanimoto>
0.330 

> <ROCS_ColorTanimoto>
0.210 

> <ROCS_RefTversky>
0.292 

> <ROCS_RefColorTversky>
0.243 

> <ROCS_RefTverskyCombo>
0.535 

> <ROCS_FitTversky>
1.658 

> <ROCS_FitColorTversky>
0.606 

> <ROCS_FitTverskyCombo>
2.264 

> <ROCS_ColorScore>
-7.463

> <ROCS_Overlap>
2027.015

> <ROCS_Rank>
45                  

$$$$
untitled-dbase-104080_610
  -OEChem-11132313473D

 46 48  0     1  0  0  0  0  0999 V2000
    5.9173   12.8008   28.6521 C   0  0  0  0  0  0  0  0  0  0  0  0
    6.7814   12.3096   27.6798 C   0  0  0  0  0  0  0  0  0  0  0  0
    4.5552   12.6642   28.4380 C   0  0  0  0  0  0  0  0  0  0  0  0
    4.8868   11.6177   26.4198 C   0  0  0  0  0  0  0  0  0  0  0  0
    6.2644   11.7054   26.5393 C   0  0  0  0  0  0  0  0  0  0  0  0
    9.8634   13.3481   23.5711 C   0  0  0  0  0  0  0  0  0  0  0  0
    8.3948   10.1721   22.7650 C   0  0  0  0  0  0  0  0  0  0  0  0
    9.4373    9.7723   23.8270 C   0  0  0  0  0  0  0  0  0  0  0  0
    6.9519   11.8417   24.0614 C   0  0  0  0  0  0  0  0  0  0  0  0
    8.7095   11.1847   25.8359 C   0  0  0  0  0  0  0  0  0  0  0  0
    8.0982   11.6484   23.0451 C   0  0  1  0  0  0  0  0  0  0  0  0
    9.6763   11.0480   24.6407 C   0  0  2  0  0  0  0  0  0  0  0  0
    7.1913   11.1526   25.4481 C   0  0  0  0  0  0  0  0  0  0  0  0
   11.9445   14.3926   22.3702 C   0  0  0  0  0  0  0  0  0  0  0  0
   10.5331   14.7346   20.3208 C   0  0  0  0  0  0  0  0  0  0  0  0
   10.2223   16.2272   22.3167 C   0  0  0  0  0  0  0  0  0  0  0  0
   10.5737   14.8169   21.8451 C   0  0  0  0  0  0  0  0  0  0  0  0
    4.0158   12.0832   27.3430 N   0  0  0  0  0  0  0  0  0  0  0  0
    9.3127   12.0881   23.6969 N   0  0  0  0  0  0  0  0  0  0  0  0
   10.5230   13.9041   24.4461 O   0  0  0  0  0  0  0  0  0  0  0  0
    6.8117    9.7734   25.2991 O   0  0  0  0  0  0  0  0  0  0  0  0
    9.5903   13.9082   22.3526 O   0  0  0  0  0  0  0  0  0  0  0  0
    6.2979   13.2754   29.5493 H   0  0  0  0  0  0  0  0  0  0  0  0
    7.8551   12.4018   27.8192 H   0  0  0  0  0  0  0  0  0  0  0  0
    3.8396   13.0313   29.1664 H   0  0  0  0  0  0  0  0  0  0  0  0
    4.4255   11.1565   25.5520 H   0  0  0  0  0  0  0  0  0  0  0  0
    8.8362   10.0578   21.7677 H   0  0  0  0  0  0  0  0  0  0  0  0
    7.5021    9.5406   22.8044 H   0  0  0  0  0  0  0  0  0  0  0  0
    9.1027    8.9292   24.4388 H   0  0  0  0  0  0  0  0  0  0  0  0
   10.3619    9.4667   23.3226 H   0  0  0  0  0  0  0  0  0  0  0  0
    6.8192   12.9225   24.2108 H   0  0  0  0  0  0  0  0  0  0  0  0
    6.0186   11.4692   23.6193 H   0  0  0  0  0  0  0  0  0  0  0  0
    8.9204   10.3837   26.5565 H   0  0  0  0  0  0  0  0  0  0  0  0
    8.9372   12.1328   26.3432 H   0  0  0  0  0  0  0  0  0  0  0  0
    7.8983   12.2166   22.1312 H   0  0  0  0  0  0  0  0  0  0  0  0
   10.7141   11.1362   24.9757 H   0  0  0  0  0  0  0  0  0  0  0  0
   11.9778   14.4503   23.4640 H   0  0  0  0  0  0  0  0  0  0  0  0
   12.1933   13.3700   22.0681 H   0  0  0  0  0  0  0  0  0  0  0  0
   12.7292   15.0631   22.0013 H   0  0  0  0  0  0  0  0  0  0  0  0
    9.5513   15.0382   19.9397 H   0  0  0  0  0  0  0  0  0  0  0  0
   10.6910   13.7046   19.9811 H   0  0  0  0  0  0  0  0  0  0  0  0
   11.2955   15.3719   19.8613 H   0  0  0  0  0  0  0  0  0  0  0  0
    9.2391   16.5318   21.9403 H   0  0  0  0  0  0  0  0  0  0  0  0
   10.2105   16.2959   23.4093 H   0  0  0  0  0  0  0  0  0  0  0  0
   10.9416   16.9580   21.9296 H   0  0  0  0  0  0  0  0  0  0  0  0
    6.9531    9.3556   26.1620 H   0  0  0  0  0  0  0  0  0  0  0  0
  1  2  1  0  0  0  0
  1  3  2  0  0  0  0
  2  5  2  0  0  0  0
  3 18  1  0  0  0  0
  4  5  1  0  0  0  0
  4 18  2  0  0  0  0
  5 13  1  0  0  0  0
  6 19  1  0  0  0  0
  6 20  2  0  0  0  0
  6 22  1  0  0  0  0
  7  8  1  0  0  0  0
  7 11  1  0  0  0  0
  8 12  1  0  0  0  0
  9 11  1  0  0  0  0
  9 13  1  0  0  0  0
 10 12  1  0  0  0  0
 10 13  1  0  0  0  0
 11 19  1  0  0  0  0
 12 19  1  0  0  0  0
 13 21  1  0  0  0  0
 14 17  1  0  0  0  0
 15 17  1  0  0  0  0
 16 17  1  0  0  0  0
 17 22  1  0  0  0  0
  1 23  1  0  0  0  0
  2 24  1  0  0  0  0
  3 25  1  0  0  0  0
  4 26  1  0  0  0  0
  7 27  1  0  0  0  0
  7 28  1  0  0  0  0
  8 29  1  0  0  0  0
  8 30  1  0  0  0  0
  9 31  1  0  0  0  0
  9 32  1  0  0  0  0
 10 33  1  0  0  0  0
 10 34  1  0  0  0  0
 11 35  1  0  0  0  0
 12 36  1  0  0  0  0
 14 37  1  0  0  0  0
 14 38  1  0  0  0  0
 14 39  1  0  0  0  0
 15 40  1  0  0  0  0
 15 41  1  0  0  0  0
 15 42  1  0  0  0  0
 16 43  1  0  0  0  0
 16 44  1  0  0  0  0
 16 45  1  0  0  0  0
 21 46  1  0  0  0  0
M  END
> <id>
EN300-12457528

> <smiles>
CC(C)(C)OC(=O)N1C2CCC1CC(O)(C2)C=3C=CC=NC3

> <MDLNUMBER>
MFCD24474907

> <IUPAC Name>
tert-butyl 3-hydroxy-3-(pyridin-3-yl)-8-azabicyclo[3.2.1]octane-8-carboxylate

> <CAS>
1824295-79-5

> <URL>
https://www.enaminestore.com/catalog/EN300-12457528

> <ROCS_ShapeQuery>
A71EV2A-x0451_0A_A71EV2A-x0310_0A_A71EV2A-x0416_0A_peptide

> <ROCS_TanimotoCombo>
0.540 

> <ROCS_ShapeTanimoto>
0.314 

> <ROCS_ColorTanimoto>
0.226 

> <ROCS_RefTversky>
0.284 

> <ROCS_RefColorTversky>
0.261 

> <ROCS_RefTverskyCombo>
0.545 

> <ROCS_FitTversky>
1.506 

> <ROCS_FitColorTversky>
0.626 

> <ROCS_FitTverskyCombo>
2.132 

> <ROCS_ColorScore>
-8.012

> <ROCS_Overlap>
1973.017

> <ROCS_Rank>
46                  

$$$$
untitled-dbase-144784_377
  -OEChem-11132313473D

 46 48  0     1  0  0  0  0  0999 V2000
    5.9287   12.8297   28.6271 C   0  0  0  0  0  0  0  0  0  0  0  0
    6.7859   12.3387   27.6486 C   0  0  0  0  0  0  0  0  0  0  0  0
    4.5656   12.6758   28.4317 C   0  0  0  0  0  0  0  0  0  0  0  0
    4.8833   11.6133   26.4196 C   0  0  0  0  0  0  0  0  0  0  0  0
    6.2613   11.7176   26.5206 C   0  0  0  0  0  0  0  0  0  0  0  0
    9.8723   13.3494   23.5650 C   0  0  0  0  0  0  0  0  0  0  0  0
    8.4306   10.1319   22.7864 C   0  0  0  0  0  0  0  0  0  0  0  0
    9.4802    9.7919   23.8621 C   0  0  0  0  0  0  0  0  0  0  0  0
    6.9434   11.8154   24.0171 C   0  0  0  0  0  0  0  0  0  0  0  0
    8.6932   11.2331   25.8252 C   0  0  0  0  0  0  0  0  0  0  0  0
    8.0997   11.6100   23.0156 C   0  0  1  0  0  0  0  0  0  0  0  0
    9.6762   11.0951   24.6424 C   0  0  2  0  0  0  0  0  0  0  0  0
    7.1804   11.1645   25.4230 C   0  0  0  0  0  0  0  0  0  0  0  0
   11.5748   12.9670   21.3015 C   0  0  0  0  0  0  0  0  0  0  0  0
   10.3050   14.8665   20.2581 C   0  0  0  0  0  0  0  0  0  0  0  0
   11.6358   15.2530   22.3528 C   0  0  0  0  0  0  0  0  0  0  0  0
   10.7901   14.2507   21.5686 C   0  0  0  0  0  0  0  0  0  0  0  0
    4.0189   12.0782   27.3493 N   0  0  0  0  0  0  0  0  0  0  0  0
    9.3003   12.0969   23.6685 N   0  0  0  0  0  0  0  0  0  0  0  0
   10.5186   13.8896   24.4597 O   0  0  0  0  0  0  0  0  0  0  0  0
    6.8402    9.7711   25.3175 O   0  0  0  0  0  0  0  0  0  0  0  0
    9.6330   13.9239   22.3461 O   0  0  0  0  0  0  0  0  0  0  0  0
    6.3153   13.3172   29.5147 H   0  0  0  0  0  0  0  0  0  0  0  0
    7.8601   12.4442   27.7733 H   0  0  0  0  0  0  0  0  0  0  0  0
    3.8552   13.0420   29.1656 H   0  0  0  0  0  0  0  0  0  0  0  0
    4.4162   11.1387   25.5623 H   0  0  0  0  0  0  0  0  0  0  0  0
    8.8769    9.9945   21.7942 H   0  0  0  0  0  0  0  0  0  0  0  0
    7.5526    9.4816   22.8446 H   0  0  0  0  0  0  0  0  0  0  0  0
    9.1664    8.9562   24.4949 H   0  0  0  0  0  0  0  0  0  0  0  0
   10.4160    9.5006   23.3705 H   0  0  0  0  0  0  0  0  0  0  0  0
    6.7926   12.8975   24.1364 H   0  0  0  0  0  0  0  0  0  0  0  0
    6.0192   11.4155   23.5794 H   0  0  0  0  0  0  0  0  0  0  0  0
    8.9158   10.4525   26.5642 H   0  0  0  0  0  0  0  0  0  0  0  0
    8.8959   12.1961   26.3149 H   0  0  0  0  0  0  0  0  0  0  0  0
    7.8937   12.1375   22.0795 H   0  0  0  0  0  0  0  0  0  0  0  0
   10.7072   11.2275   24.9852 H   0  0  0  0  0  0  0  0  0  0  0  0
   11.9247   12.5219   22.2398 H   0  0  0  0  0  0  0  0  0  0  0  0
   10.9680   12.2265   20.7704 H   0  0  0  0  0  0  0  0  0  0  0  0
   12.4704   13.1733   20.7043 H   0  0  0  0  0  0  0  0  0  0  0  0
    9.7415   15.7878   20.4450 H   0  0  0  0  0  0  0  0  0  0  0  0
    9.6212   14.1868   19.7370 H   0  0  0  0  0  0  0  0  0  0  0  0
   11.1390   15.1001   19.5883 H   0  0  0  0  0  0  0  0  0  0  0  0
   11.0732   16.1739   22.5445 H   0  0  0  0  0  0  0  0  0  0  0  0
   11.9622   14.8411   23.3132 H   0  0  0  0  0  0  0  0  0  0  0  0
   12.5231   15.5463   21.7801 H   0  0  0  0  0  0  0  0  0  0  0  0
    7.0132    9.3803   26.1873 H   0  0  0  0  0  0  0  0  0  0  0  0
  1  2  1  0  0  0  0
  1  3  2  0  0  0  0
  2  5  2  0  0  0  0
  3 18  1  0  0  0  0
  4  5  1  0  0  0  0
  4 18  2  0  0  0  0
  5 13  1  0  0  0  0
  6 19  1  0  0  0  0
  6 20  2  0  0  0  0
  6 22  1  0  0  0  0
  7  8  1  0  0  0  0
  7 11  1  1  0  0  0
  8 12  1  1  0  0  0
  9 11  1  0  0  0  0
  9 13  1  0  0  0  0
 10 12  1  0  0  0  0
 10 13  1  0  0  0  0
 11 19  1  0  0  0  0
 12 19  1  0  0  0  0
 13 21  1  1  0  0  0
 14 17  1  0  0  0  0
 15 17  1  0  0  0  0
 16 17  1  0  0  0  0
 17 22  1  0  0  0  0
  1 23  1  0  0  0  0
  2 24  1  0  0  0  0
  3 25  1  0  0  0  0
  4 26  1  0  0  0  0
  7 27  1  0  0  0  0
  7 28  1  0  0  0  0
  8 29  1  0  0  0  0
  8 30  1  0  0  0  0
  9 31  1  0  0  0  0
  9 32  1  0  0  0  0
 10 33  1  0  0  0  0
 10 34  1  0  0  0  0
 11 35  1  0  0  0  0
 12 36  1  0  0  0  0
 14 37  1  0  0  0  0
 14 38  1  0  0  0  0
 14 39  1  0  0  0  0
 15 40  1  0  0  0  0
 15 41  1  0  0  0  0
 15 42  1  0  0  0  0
 16 43  1  0  0  0  0
 16 44  1  0  0  0  0
 16 45  1  0  0  0  0
 21 46  1  0  0  0  0
M  END
> <id>
EN300-27718508

> <smiles>
CC(C)(C)OC(=O)N1[C@H]2CC[C@@H]1C[C@](O)(C2)C=3C=CC=NC3

> <IUPAC Name>
tert-butyl (1R,3R,5S)-3-hydroxy-3-(pyridin-3-yl)-8-azabicyclo[3.2.1]octane-8-carboxylate

> <CAS>
214901-39-0

> <URL>
https://www.enaminestore.com/catalog/EN300-27718508

> <ROCS_ShapeQuery>
A71EV2A-x0451_0A_A71EV2A-x0310_0A_A71EV2A-x0416_0A_peptide

> <ROCS_TanimotoCombo>
0.540 

> <ROCS_ShapeTanimoto>
0.315 

> <ROCS_ColorTanimoto>
0.225 

> <ROCS_RefTversky>
0.285 

> <ROCS_RefColorTversky>
0.260 

> <ROCS_RefTverskyCombo>
0.545 

> <ROCS_FitTversky>
1.508 

> <ROCS_FitColorTversky>
0.624 

> <ROCS_FitTverskyCombo>
2.133 

> <ROCS_ColorScore>
-7.990

> <ROCS_Overlap>
1976.540

> <ROCS_Rank>
47                  

$$$$
untitled-dbase-175370_188
  -OEChem-11132313473D

 43 44  0     0  0  0  0  0  0999 V2000
    6.6281   12.6961   25.6232 C   0  0  0  0  0  0  0  0  0  0  0  0
    7.7720   12.8938   24.8424 C   0  0  0  0  0  0  0  0  0  0  0  0
    6.9356   10.3232   25.4607 C   0  0  0  0  0  0  0  0  0  0  0  0
    6.2163   11.4097   25.9436 C   0  0  0  0  0  0  0  0  0  0  0  0
    8.5399   11.8108   24.3772 C   0  0  0  0  0  0  0  0  0  0  0  0
    8.0746   10.5266   24.6676 C   0  0  0  0  0  0  0  0  0  0  0  0
    9.7934    9.4463   23.3193 C   0  0  0  0  0  0  0  0  0  0  0  0
    5.0292   11.2016   26.7563 C   0  0  0  0  0  0  0  0  0  0  0  0
   10.3631   13.2392   23.4498 C   0  0  0  0  0  0  0  0  0  0  0  0
   10.1866   10.8265   22.7533 C   0  0  0  0  0  0  0  0  0  0  0  0
    9.5557   10.9298   21.3518 C   0  0  0  0  0  0  0  0  0  0  0  0
   11.7303   10.7853   22.6216 C   0  0  0  0  0  0  0  0  0  0  0  0
   13.0721   13.8289   22.7243 C   0  0  0  0  0  0  0  0  0  0  0  0
   12.1293   14.5432   20.5085 C   0  0  0  0  0  0  0  0  0  0  0  0
   11.4575   15.7558   22.6029 C   0  0  0  0  0  0  0  0  0  0  0  0
   11.8546   14.4070   22.0045 C   0  0  0  0  0  0  0  0  0  0  0  0
    8.7341    9.3995   24.1824 N   0  0  0  0  0  0  0  0  0  0  0  0
    9.7344   11.9803   23.5901 N   0  0  0  0  0  0  0  0  0  0  0  0
   10.3182    8.4041   22.9159 O   0  0  0  0  0  0  0  0  0  0  0  0
    4.3099   12.0950   27.2164 O   0  0  0  0  0  0  0  0  0  0  0  0
   10.4814   14.0675   24.3508 O   0  0  0  0  0  0  0  0  0  0  0  0
    4.7702    9.8825   26.9724 O   0  0  0  0  0  0  0  0  0  0  0  0
   10.7584   13.4982   22.1611 O   0  0  0  0  0  0  0  0  0  0  0  0
    6.0645   13.5601   25.9666 H   0  0  0  0  0  0  0  0  0  0  0  0
    8.0103   13.9214   24.5853 H   0  0  0  0  0  0  0  0  0  0  0  0
    6.6040    9.3121   25.6899 H   0  0  0  0  0  0  0  0  0  0  0  0
    9.8095   11.8903   20.9171 H   0  0  0  0  0  0  0  0  0  0  0  0
    8.4786   10.8397   21.4387 H   0  0  0  0  0  0  0  0  0  0  0  0
    9.9417   10.1312   20.7279 H   0  0  0  0  0  0  0  0  0  0  0  0
   12.0697   11.7329   22.2264 H   0  0  0  0  0  0  0  0  0  0  0  0
   11.9994    9.9819   21.9498 H   0  0  0  0  0  0  0  0  0  0  0  0
   12.1570   10.6137   23.6002 H   0  0  0  0  0  0  0  0  0  0  0  0
   12.8790   13.7296   23.7985 H   0  0  0  0  0  0  0  0  0  0  0  0
   13.3459   12.8457   22.3279 H   0  0  0  0  0  0  0  0  0  0  0  0
   13.9371   14.4947   22.6261 H   0  0  0  0  0  0  0  0  0  0  0  0
   11.2584   14.9577   19.9880 H   0  0  0  0  0  0  0  0  0  0  0  0
   12.3218   13.5636   20.0562 H   0  0  0  0  0  0  0  0  0  0  0  0
   12.9904   15.1905   20.3131 H   0  0  0  0  0  0  0  0  0  0  0  0
   10.5842   16.1707   22.0867 H   0  0  0  0  0  0  0  0  0  0  0  0
   11.2209   15.6703   23.6684 H   0  0  0  0  0  0  0  0  0  0  0  0
   12.2643   16.4879   22.4830 H   0  0  0  0  0  0  0  0  0  0  0  0
    8.4081    8.4870   24.4888 H   0  0  0  0  0  0  0  0  0  0  0  0
    3.9700    9.7314   27.5195 H   0  0  0  0  0  0  0  0  0  0  0  0
  1  2  1  0  0  0  0
  1  4  2  0  0  0  0
  2  5  2  0  0  0  0
  3  4  1  0  0  0  0
  3  6  2  0  0  0  0
  4  8  1  0  0  0  0
  5  6  1  0  0  0  0
  5 18  1  0  0  0  0
  6 17  1  0  0  0  0
  7 10  1  0  0  0  0
  7 17  1  0  0  0  0
  7 19  2  0  0  0  0
  8 20  2  0  0  0  0
  8 22  1  0  0  0  0
  9 18  1  0  0  0  0
  9 21  2  0  0  0  0
  9 23  1  0  0  0  0
 10 11  1  0  0  0  0
 10 12  1  0  0  0  0
 10 18  1  0  0  0  0
 13 16  1  0  0  0  0
 14 16  1  0  0  0  0
 15 16  1  0  0  0  0
 16 23  1  0  0  0  0
  1 24  1  0  0  0  0
  2 25  1  0  0  0  0
  3 26  1  0  0  0  0
 11 27  1  0  0  0  0
 11 28  1  0  0  0  0
 11 29  1  0  0  0  0
 12 30  1  0  0  0  0
 12 31  1  0  0  0  0
 12 32  1  0  0  0  0
 13 33  1  0  0  0  0
 13 34  1  0  0  0  0
 13 35  1  0  0  0  0
 14 36  1  0  0  0  0
 14 37  1  0  0  0  0
 14 38  1  0  0  0  0
 15 39  1  0  0  0  0
 15 40  1  0  0  0  0
 15 41  1  0  0  0  0
 17 42  1  0  0  0  0
 22 43  1  0  0  0  0
M  END
> <id>
EN300-39917904

> <smiles>
CC(C)(C)OC(=O)N1C=2C=CC(=CC2NC(=O)C1(C)C)C(=O)O

> <IUPAC Name>
1-[(tert-butoxy)carbonyl]-2,2-dimethyl-3-oxo-1,2,3,4-tetrahydroquinoxaline-6-carboxylic acid

> <URL>
https://www.enaminestore.com/catalog/EN300-39917904

> <ROCS_ShapeQuery>
A71EV2A-x0451_0A_A71EV2A-x0310_0A_A71EV2A-x0416_0A_peptide

> <ROCS_TanimotoCombo>
0.540 

> <ROCS_ShapeTanimoto>
0.383 

> <ROCS_ColorTanimoto>
0.157 

> <ROCS_RefTversky>
0.331 

> <ROCS_RefColorTversky>
0.184 

> <ROCS_RefTverskyCombo>
0.515 

> <ROCS_FitTversky>
1.697 

> <ROCS_FitColorTversky>
0.509 

> <ROCS_FitTverskyCombo>
2.206 

> <ROCS_ColorScore>
-5.647

> <ROCS_Overlap>
2299.517

> <ROCS_Rank>
48                  

$$$$
untitled-dbase-155511_27
  -OEChem-11132313473D

 32 33  0     1  0  0  0  0  0999 V2000
    7.8500   13.0021   25.0117 C   0  0  0  0  0  0  0  0  0  0  0  0
    6.6834   12.3781   25.4937 C   0  0  0  0  0  0  0  0  0  0  0  0
    8.5752   11.9971   24.4027 C   0  0  0  0  0  0  0  0  0  0  0  0
    5.5954   12.9887   26.2026 C   0  0  0  0  0  0  0  0  0  0  0  0
   10.6133   13.0993   23.7342 C   0  0  0  0  0  0  0  0  0  0  0  0
    9.6660    9.4434   23.8165 C   0  0  0  0  0  0  0  0  0  0  0  0
    8.1748    9.5171   24.1704 C   0  0  2  0  0  0  0  0  0  0  0  0
   10.2042   10.6743   23.0650 C   0  0  1  0  0  0  0  0  0  0  0  0
    9.7706   10.7054   21.5958 C   0  0  0  0  0  0  0  0  0  0  0  0
   11.9366   12.9975   23.0089 C   0  0  0  0  0  0  0  0  0  0  0  0
    7.2609    8.9764   23.0709 C   0  0  0  0  0  0  0  0  0  0  0  0
    6.6547   11.0722   25.2313 N   0  0  0  0  0  0  0  0  0  0  0  0
    7.8076   10.8674   24.5670 N   0  0  0  0  0  0  0  0  0  0  0  0
    9.8174   11.9394   23.7483 N   0  0  0  0  0  0  0  0  0  0  0  0
    5.5034   14.1926   26.5131 O   0  0  0  0  0  0  0  0  0  0  0  0
   10.3417   14.1708   24.2818 O   0  0  0  0  0  0  0  0  0  0  0  0
    4.6036   12.1054   26.5340 O   0  0  0  0  0  0  0  0  0  0  0  0
   12.0970   11.7649   22.4993 F   0  0  0  0  0  0  0  0  0  0  0  0
   11.9893   13.8846   22.0014 F   0  0  0  0  0  0  0  0  0  0  0  0
   12.9554   13.2467   23.8485 F   0  0  0  0  0  0  0  0  0  0  0  0
    5.9811    9.0372   23.4674 F   0  0  0  0  0  0  0  0  0  0  0  0
    7.4061    9.7053   21.9545 F   0  0  0  0  0  0  0  0  0  0  0  0
    7.5732    7.7002   22.8017 F   0  0  0  0  0  0  0  0  0  0  0  0
    8.1032   14.0478   25.1030 H   0  0  0  0  0  0  0  0  0  0  0  0
   10.2301    9.3682   24.7576 H   0  0  0  0  0  0  0  0  0  0  0  0
    9.8900    8.5229   23.2642 H   0  0  0  0  0  0  0  0  0  0  0  0
    8.0206    8.8904   25.0595 H   0  0  0  0  0  0  0  0  0  0  0  0
   11.2951   10.5845   23.0749 H   0  0  0  0  0  0  0  0  0  0  0  0
    8.6887   10.7943   21.5372 H   0  0  0  0  0  0  0  0  0  0  0  0
   10.0840    9.7880   21.1041 H   0  0  0  0  0  0  0  0  0  0  0  0
   10.2297   11.5562   21.0985 H   0  0  0  0  0  0  0  0  0  0  0  0
    4.7778   11.1852   26.2418 H   0  0  0  0  0  0  0  0  0  0  0  0
  1  2  1  0  0  0  0
  1  3  2  0  0  0  0
  2  4  1  0  0  0  0
  2 12  2  0  0  0  0
  3 13  1  0  0  0  0
  3 14  1  0  0  0  0
  4 15  2  0  0  0  0
  4 17  1  0  0  0  0
  5 10  1  0  0  0  0
  5 14  1  0  0  0  0
  5 16  2  0  0  0  0
  6  7  1  0  0  0  0
  6  8  1  0  0  0  0
  7 11  1  6  0  0  0
  7 13  1  0  0  0  0
  8  9  1  6  0  0  0
  8 14  1  0  0  0  0
 10 18  1  0  0  0  0
 10 19  1  0  0  0  0
 10 20  1  0  0  0  0
 11 21  1  0  0  0  0
 11 22  1  0  0  0  0
 11 23  1  0  0  0  0
 12 13  1  0  0  0  0
  1 24  1  0  0  0  0
  6 25  1  0  0  0  0
  6 26  1  0  0  0  0
  7 27  1  0  0  0  0
  8 28  1  0  0  0  0
  9 29  1  0  0  0  0
  9 30  1  0  0  0  0
  9 31  1  0  0  0  0
 17 32  1  0  0  0  0
M  END
> <id>
EN300-28297771

> <smiles>
C[C@@H]1C[C@@H](N2N=C(C=C2N1C(=O)C(F)(F)F)C(=O)O)C(F)(F)F |&1:1,3,r|

> <IUPAC Name>
rac-(5R,7R)-5-methyl-4-(2,2,2-trifluoroacetyl)-7-(trifluoromethyl)-4H,5H,6H,7H-pyrazolo[1,5-a]pyrimidine-2-carboxylic acid

> <CAS>
2679823-25-5

> <URL>
https://www.enaminestore.com/catalog/EN300-28297771

> <ROCS_ShapeQuery>
A71EV2A-x0451_0A_A71EV2A-x0310_0A_A71EV2A-x0416_0A_peptide

> <ROCS_TanimotoCombo>
0.539 

> <ROCS_ShapeTanimoto>
0.363 

> <ROCS_ColorTanimoto>
0.176 

> <ROCS_RefTversky>
0.320 

> <ROCS_RefColorTversky>
0.190 

> <ROCS_RefTverskyCombo>
0.510 

> <ROCS_FitTversky>
1.601 

> <ROCS_FitColorTversky>
0.700 

> <ROCS_FitTverskyCombo>
2.301 

> <ROCS_ColorScore>
-5.785

> <ROCS_Overlap>
2222.770

> <ROCS_Rank>
49                  

$$$$
untitled-dbase-104568_39
  -OEChem-11132313473D

 41 42  0     1  0  0  0  0  0999 V2000
    7.0852   13.0902   26.3128 C   0  0  0  0  0  0  0  0  0  0  0  0
    6.3142   11.9432   26.4547 C   0  0  0  0  0  0  0  0  0  0  0  0
    8.1577   13.1153   25.4138 C   0  0  0  0  0  0  0  0  0  0  0  0
    6.6172   10.8174   25.6985 C   0  0  0  0  0  0  0  0  0  0  0  0
    8.4865   11.9890   24.6436 C   0  0  0  0  0  0  0  0  0  0  0  0
    7.6978   10.8356   24.8075 C   0  0  0  0  0  0  0  0  0  0  0  0
   10.5170   12.9951   23.5585 C   0  0  0  0  0  0  0  0  0  0  0  0
    9.5343   10.8322   22.7620 C   0  0  0  0  0  0  0  0  0  0  0  0
    9.1690    9.5321   23.4796 C   0  0  2  0  0  0  0  0  0  0  0  0
   10.2401    9.0949   24.4910 C   0  0  0  0  0  0  0  0  0  0  0  0
   12.7309   14.7091   22.9323 C   0  0  0  0  0  0  0  0  0  0  0  0
   12.8901   13.4127   20.7868 C   0  0  0  0  0  0  0  0  0  0  0  0
   10.8201   14.7414   21.2946 C   0  0  0  0  0  0  0  0  0  0  0  0
    8.9953    8.4178   22.4380 C   0  0  0  0  0  0  0  0  0  0  0  0
   11.9550   13.9079   21.8880 C   0  0  0  0  0  0  0  0  0  0  0  0
    9.5515   11.9785   23.6810 N   0  0  0  0  0  0  0  0  0  0  0  0
   10.6178   13.9899   24.2714 O   0  0  0  0  0  0  0  0  0  0  0  0
    7.9025    9.6569   24.1369 O   0  0  0  0  0  0  0  0  0  0  0  0
    8.2396    7.3786   23.0256 O   0  0  0  0  0  0  0  0  0  0  0  0
   11.3899   12.7556   22.5249 O   0  0  0  0  0  0  0  0  0  0  0  0
    6.8466   13.9774   26.8930 H   0  0  0  0  0  0  0  0  0  0  0  0
    5.4795   11.9279   27.1487 H   0  0  0  0  0  0  0  0  0  0  0  0
    8.6860   14.0573   25.3256 H   0  0  0  0  0  0  0  0  0  0  0  0
    6.0130    9.9207   25.8111 H   0  0  0  0  0  0  0  0  0  0  0  0
   10.5011   10.7173   22.2607 H   0  0  0  0  0  0  0  0  0  0  0  0
    8.7921   11.0768   21.9904 H   0  0  0  0  0  0  0  0  0  0  0  0
    9.9288    8.1706   24.9679 H   0  0  0  0  0  0  0  0  0  0  0  0
   10.3625    9.8688   25.2425 H   0  0  0  0  0  0  0  0  0  0  0  0
   11.1813    8.9381   23.9730 H   0  0  0  0  0  0  0  0  0  0  0  0
   12.0632   15.0664   23.7245 H   0  0  0  0  0  0  0  0  0  0  0  0
   13.5256   14.1115   23.3906 H   0  0  0  0  0  0  0  0  0  0  0  0
   13.1835   15.6010   22.4840 H   0  0  0  0  0  0  0  0  0  0  0  0
   12.3376   12.8373   20.0353 H   0  0  0  0  0  0  0  0  0  0  0  0
   13.6505   12.7372   21.1951 H   0  0  0  0  0  0  0  0  0  0  0  0
   13.3974   14.2425   20.2841 H   0  0  0  0  0  0  0  0  0  0  0  0
   10.2633   14.1668   20.5454 H   0  0  0  0  0  0  0  0  0  0  0  0
   10.1184   15.0746   22.0661 H   0  0  0  0  0  0  0  0  0  0  0  0
   11.2139   15.6238   20.7775 H   0  0  0  0  0  0  0  0  0  0  0  0
    9.9714    8.0406   22.1446 H   0  0  0  0  0  0  0  0  0  0  0  0
    8.4684    8.8098   21.5721 H   0  0  0  0  0  0  0  0  0  0  0  0
    7.3803    7.7565   23.2826 H   0  0  0  0  0  0  0  0  0  0  0  0
  1  2  2  0  0  0  0
  1  3  1  0  0  0  0
  2  4  1  0  0  0  0
  3  5  2  0  0  0  0
  4  6  2  0  0  0  0
  5  6  1  0  0  0  0
  5 16  1  0  0  0  0
  6 18  1  0  0  0  0
  7 16  1  0  0  0  0
  7 17  2  0  0  0  0
  7 20  1  0  0  0  0
  8  9  1  0  0  0  0
  8 16  1  0  0  0  0
  9 10  1  0  0  0  0
  9 14  1  0  0  0  0
  9 18  1  0  0  0  0
 11 15  1  0  0  0  0
 12 15  1  0  0  0  0
 13 15  1  0  0  0  0
 14 19  1  0  0  0  0
 15 20  1  0  0  0  0
  1 21  1  0  0  0  0
  2 22  1  0  0  0  0
  3 23  1  0  0  0  0
  4 24  1  0  0  0  0
  8 25  1  0  0  0  0
  8 26  1  0  0  0  0
 10 27  1  0  0  0  0
 10 28  1  0  0  0  0
 10 29  1  0  0  0  0
 11 30  1  0  0  0  0
 11 31  1  0  0  0  0
 11 32  1  0  0  0  0
 12 33  1  0  0  0  0
 12 34  1  0  0  0  0
 12 35  1  0  0  0  0
 13 36  1  0  0  0  0
 13 37  1  0  0  0  0
 13 38  1  0  0  0  0
 14 39  1  0  0  0  0
 14 40  1  0  0  0  0
 19 41  1  0  0  0  0
M  END
> <id>
EN300-26665557

> <smiles>
CC(C)(C)OC(=O)N1CC(C)(CO)OC=2C=CC=CC12

> <IUPAC Name>
tert-butyl 2-(hydroxymethyl)-2-methyl-3,4-dihydro-2H-1,4-benzoxazine-4-carboxylate

> <CAS>
2413897-92-2

> <URL>
https://www.enaminestore.com/catalog/EN300-26665557

> <ROCS_ShapeQuery>
A71EV2A-x0451_0A_A71EV2A-x0310_0A_A71EV2A-x0416_0A_peptide

> <ROCS_TanimotoCombo>
0.539 

> <ROCS_ShapeTanimoto>
0.361 

> <ROCS_ColorTanimoto>
0.178 

> <ROCS_RefTversky>
0.312 

> <ROCS_RefColorTversky>
0.192 

> <ROCS_RefTverskyCombo>
0.504 

> <ROCS_FitTversky>
1.777 

> <ROCS_FitColorTversky>
0.710 

> <ROCS_FitTverskyCombo>
2.487 

> <ROCS_ColorScore>
-5.856

> <ROCS_Overlap>
2162.399

> <ROCS_Rank>
50                  

$$$$
untitled-dbase-74407_35
  -OEChem-11132313473D

 40 44  0     1  0  0  0  0  0999 V2000
   10.8319   13.2523   23.3805 C   0  0  0  0  0  0  0  0  0  0  0  0
    7.0405   12.0222   25.2312 C   0  0  0  0  0  0  0  0  0  0  0  0
    8.6737    8.9573   24.1494 C   0  0  0  0  0  0  0  0  0  0  0  0
    9.8991   12.1647   22.9527 C   0  0  0  0  0  0  0  0  0  0  0  0
    7.0887   10.7011   24.4943 C   0  0  2  0  0  0  0  0  0  0  0  0
    8.2618    9.9796   25.1873 C   0  0  2  0  0  0  0  0  0  0  0  0
    8.4674   12.3934   24.8809 C   0  0  2  0  0  0  0  0  0  0  0  0
    8.9536    9.9949   23.0824 C   0  0  2  0  0  0  0  0  0  0  0  0
    8.4478   12.3814   23.3380 C   0  0  2  0  0  0  0  0  0  0  0  0
   10.0285   10.8796   23.7473 C   0  0  2  0  0  0  0  0  0  0  0  0
    7.7494   10.9958   23.1105 C   0  0  2  0  0  0  0  0  0  0  0  0
    9.3315   11.1171   25.1318 C   0  0  2  0  0  0  0  0  0  0  0  0
   12.3395   15.6053   22.8447 C   0  0  0  0  0  0  0  0  0  0  0  0
   13.4283   14.2689   21.0177 C   0  0  0  0  0  0  0  0  0  0  0  0
   10.9583   14.7173   20.9372 C   0  0  0  0  0  0  0  0  0  0  0  0
   12.1600   14.4628   21.8460 C   0  0  0  0  0  0  0  0  0  0  0  0
   10.6156   14.0124   24.3147 O   0  0  0  0  0  0  0  0  0  0  0  0
   11.9319   13.2525   22.5749 O   0  0  0  0  0  0  0  0  0  0  0  0
    6.3035   12.7165   24.8164 H   0  0  0  0  0  0  0  0  0  0  0  0
    6.8821   11.9062   26.3077 H   0  0  0  0  0  0  0  0  0  0  0  0
    9.5635    8.3895   24.4381 H   0  0  0  0  0  0  0  0  0  0  0  0
    7.8641    8.2733   23.8774 H   0  0  0  0  0  0  0  0  0  0  0  0
   10.0190   12.0122   21.8742 H   0  0  0  0  0  0  0  0  0  0  0  0
    6.1622   10.1253   24.4500 H   0  0  0  0  0  0  0  0  0  0  0  0
    8.0384    9.6052   26.1883 H   0  0  0  0  0  0  0  0  0  0  0  0
    8.8522   13.3102   25.3314 H   0  0  0  0  0  0  0  0  0  0  0  0
    9.2202    9.6230   22.0911 H   0  0  0  0  0  0  0  0  0  0  0  0
    7.9353   13.2356   22.8900 H   0  0  0  0  0  0  0  0  0  0  0  0
   11.0208   10.4276   23.8131 H   0  0  0  0  0  0  0  0  0  0  0  0
    7.0799   10.9461   22.2502 H   0  0  0  0  0  0  0  0  0  0  0  0
   10.0042   11.1681   25.9896 H   0  0  0  0  0  0  0  0  0  0  0  0
   11.4313   15.7477   23.4412 H   0  0  0  0  0  0  0  0  0  0  0  0
   13.1767   15.4186   23.5251 H   0  0  0  0  0  0  0  0  0  0  0  0
   12.5202   16.5536   22.3256 H   0  0  0  0  0  0  0  0  0  0  0  0
   13.3040   13.4501   20.2998 H   0  0  0  0  0  0  0  0  0  0  0  0
   14.2740   13.9926   21.6577 H   0  0  0  0  0  0  0  0  0  0  0  0
   13.6932   15.1766   20.4659 H   0  0  0  0  0  0  0  0  0  0  0  0
   10.8294   13.8979   20.2208 H   0  0  0  0  0  0  0  0  0  0  0  0
   10.0327   14.8222   21.5124 H   0  0  0  0  0  0  0  0  0  0  0  0
   11.1045   15.6269   20.3435 H   0  0  0  0  0  0  0  0  0  0  0  0
  1  4  1  0  0  0  0
  1 17  2  0  0  0  0
  1 18  1  0  0  0  0
  2  5  1  0  0  0  0
  2  7  1  0  0  0  0
  3  6  1  0  0  0  0
  3  8  1  0  0  0  0
  4  9  1  0  0  0  0
  4 10  1  0  0  0  0
  5  6  1  0  0  0  0
  5 11  1  0  0  0  0
  6 12  1  0  0  0  0
  7  9  1  0  0  0  0
  7 12  1  0  0  0  0
  8 10  1  0  0  0  0
  8 11  1  0  0  0  0
  9 11  1  0  0  0  0
 10 12  1  0  0  0  0
 13 16  1  0  0  0  0
 14 16  1  0  0  0  0
 15 16  1  0  0  0  0
 16 18  1  0  0  0  0
  2 19  1  0  0  0  0
  2 20  1  0  0  0  0
  3 21  1  0  0  0  0
  3 22  1  0  0  0  0
  4 23  1  0  0  0  0
  5 24  1  0  0  0  0
  6 25  1  0  0  0  0
  7 26  1  0  0  0  0
  8 27  1  0  0  0  0
  9 28  1  0  0  0  0
 10 29  1  0  0  0  0
 11 30  1  0  0  0  0
 12 31  1  0  0  0  0
 13 32  1  0  0  0  0
 13 33  1  0  0  0  0
 13 34  1  0  0  0  0
 14 35  1  0  0  0  0
 14 36  1  0  0  0  0
 14 37  1  0  0  0  0
 15 38  1  0  0  0  0
 15 39  1  0  0  0  0
 15 40  1  0  0  0  0
M  END
> <id>
EN300-27701179

> <smiles>
CC(C)(C)OC(=O)C1C2C3CC4C5CC(C1C53)C42

> <MDLNUMBER>
MFCD34167910

> <IUPAC Name>
tert-butyl pentacyclo[6.3.0.0^{2,6}.0^{3,10}.0^{5,9}]undecane-4-carboxylate

> <CAS>
2648945-36-0

> <Purity>
95

> <URL>
https://www.enaminestore.com/catalog/EN300-27701179

> <ROCS_ShapeQuery>
A71EV2A-x0451_0A_A71EV2A-x0310_0A_A71EV2A-x0416_0A_peptide

> <ROCS_TanimotoCombo>
0.538 

> <ROCS_ShapeTanimoto>
0.340 

> <ROCS_ColorTanimoto>
0.198 

> <ROCS_RefTversky>
0.297 

> <ROCS_RefColorTversky>
0.483 

> <ROCS_RefTverskyCombo>
0.780 

> <ROCS_FitTversky>
1.736 

> <ROCS_FitColorTversky>
0.251 

> <ROCS_FitTverskyCombo>
1.987 

> <ROCS_ColorScore>
-16.157

> <ROCS_Overlap>
2060.331

> <ROCS_Rank>
51                  

$$$$
untitled-dbase-101608_16
  -OEChem-11132313473D

 33 35  0     1  0  0  0  0  0999 V2000
   10.8968   14.0539   22.8360 C   0  0  0  0  0  0  0  0  0  0  0  0
    9.9416   10.3927   23.1168 C   0  0  0  0  0  0  0  0  0  0  0  0
   10.1351   11.8301   23.6578 C   0  0  2  0  0  0  0  0  0  0  0  0
    8.4340   10.1850   23.3150 C   0  0  1  0  0  0  0  0  0  0  0  0
    8.6952   12.2164   24.0381 C   0  0  2  0  0  0  0  0  0  0  0  0
    8.1350   10.0660   24.7876 C   0  0  1  0  0  0  0  0  0  0  0  0
    8.3071   11.4553   25.2830 C   0  0  2  0  0  0  0  0  0  0  0  0
   13.4755   14.4858   22.9345 C   0  0  0  0  0  0  0  0  0  0  0  0
   13.4251   15.0658   20.4911 C   0  0  0  0  0  0  0  0  0  0  0  0
   12.5137   16.6859   22.1801 C   0  0  0  0  0  0  0  0  0  0  0  0
   12.7067   15.2109   21.8309 C   0  0  0  0  0  0  0  0  0  0  0  0
   10.6781   12.7023   22.6494 N   0  0  0  0  0  0  0  0  0  0  0  0
   10.6623   14.6791   23.8651 O   0  0  0  0  0  0  0  0  0  0  0  0
    7.9621   11.5202   22.9950 O   0  0  0  0  0  0  0  0  0  0  0  0
    7.0256   10.8189   25.2872 O   0  0  0  0  0  0  0  0  0  0  0  0
   11.4177   14.6015   21.6975 O   0  0  0  0  0  0  0  0  0  0  0  0
   10.1964   10.3354   22.0520 H   0  0  0  0  0  0  0  0  0  0  0  0
   10.5467    9.6599   23.6598 H   0  0  0  0  0  0  0  0  0  0  0  0
   10.8161   11.8598   24.5146 H   0  0  0  0  0  0  0  0  0  0  0  0
    7.9736    9.4220   22.6844 H   0  0  0  0  0  0  0  0  0  0  0  0
    8.4660   13.2841   24.0665 H   0  0  0  0  0  0  0  0  0  0  0  0
    8.5383    9.2284   25.3297 H   0  0  0  0  0  0  0  0  0  0  0  0
    8.8381   11.6578   26.1969 H   0  0  0  0  0  0  0  0  0  0  0  0
   12.9630   14.5876   23.8979 H   0  0  0  0  0  0  0  0  0  0  0  0
   13.5902   13.4198   22.7127 H   0  0  0  0  0  0  0  0  0  0  0  0
   14.4726   14.9210   23.0673 H   0  0  0  0  0  0  0  0  0  0  0  0
   12.8770   15.5845   19.6963 H   0  0  0  0  0  0  0  0  0  0  0  0
   13.4818   14.0133   20.1906 H   0  0  0  0  0  0  0  0  0  0  0  0
   14.4417   15.4700   20.5319 H   0  0  0  0  0  0  0  0  0  0  0  0
   11.9623   17.2062   21.3886 H   0  0  0  0  0  0  0  0  0  0  0  0
   11.9671   16.8095   23.1207 H   0  0  0  0  0  0  0  0  0  0  0  0
   13.4802   17.1948   22.2695 H   0  0  0  0  0  0  0  0  0  0  0  0
   10.9151   12.2995   21.7453 H   0  0  0  0  0  0  0  0  0  0  0  0
  1 12  1  0  0  0  0
  1 13  2  0  0  0  0
  1 16  1  0  0  0  0
  2  3  1  0  0  0  0
  2  4  1  0  0  0  0
  3  5  1  0  0  0  0
  3 12  1  0  0  0  0
  4  6  1  0  0  0  0
  4 14  1  0  0  0  0
  5  7  1  0  0  0  0
  5 14  1  0  0  0  0
  6  7  1  0  0  0  0
  6 15  1  0  0  0  0
  7 15  1  0  0  0  0
  8 11  1  0  0  0  0
  9 11  1  0  0  0  0
 10 11  1  0  0  0  0
 11 16  1  0  0  0  0
  2 17  1  0  0  0  0
  2 18  1  0  0  0  0
  3 19  1  0  0  0  0
  4 20  1  0  0  0  0
  5 21  1  0  0  0  0
  6 22  1  0  0  0  0
  7 23  1  0  0  0  0
  8 24  1  0  0  0  0
  8 25  1  0  0  0  0
  8 26  1  0  0  0  0
  9 27  1  0  0  0  0
  9 28  1  0  0  0  0
  9 29  1  0  0  0  0
 10 30  1  0  0  0  0
 10 31  1  0  0  0  0
 10 32  1  0  0  0  0
 12 33  1  0  0  0  0
M  END
> <id>
EN300-1708451

> <smiles>
CC(C)(C)OC(=O)NC1CC2OC1C3OC32

> <MDLNUMBER>
MFCD32760821

> <IUPAC Name>
tert-butyl N-{3,8-dioxatricyclo[3.2.1.0,2,4]octan-6-yl}carbamate

> <CAS>
2219369-54-5

> <URL>
https://www.enaminestore.com/catalog/EN300-1708451

> <ROCS_ShapeQuery>
A71EV2A-x0451_0A_A71EV2A-x0310_0A_A71EV2A-x0416_0A_peptide

> <ROCS_TanimotoCombo>
0.538 

> <ROCS_ShapeTanimoto>
0.291 

> <ROCS_ColorTanimoto>
0.247 

> <ROCS_RefTversky>
0.259 

> <ROCS_RefColorTversky>
0.343 

> <ROCS_RefTverskyCombo>
0.602 

> <ROCS_FitTversky>
1.700 

> <ROCS_FitColorTversky>
0.469 

> <ROCS_FitTverskyCombo>
2.170 

> <ROCS_ColorScore>
-10.709

> <ROCS_Overlap>
1798.927

> <ROCS_Rank>
52                  

$$$$
untitled-dbase-154901_10
  -OEChem-11132313473D

 36 37  0     0  0  0  0  0  0999 V2000
    9.9995    9.4591   22.8465 C   0  0  0  0  0  0  0  0  0  0  0  0
    9.8156    8.0801   22.8640 C   0  0  0  0  0  0  0  0  0  0  0  0
    7.8821    8.3764   24.2820 C   0  0  0  0  0  0  0  0  0  0  0  0
    9.1169   10.2950   23.5525 C   0  0  0  0  0  0  0  0  0  0  0  0
    8.0427    9.7599   24.2820 C   0  0  0  0  0  0  0  0  0  0  0  0
    8.7556    7.5385   23.5825 C   0  0  0  0  0  0  0  0  0  0  0  0
    9.2449   11.6809   23.5762 C   0  0  0  0  0  0  0  0  0  0  0  0
    7.4235   11.8774   24.9054 C   0  0  0  0  0  0  0  0  0  0  0  0
   10.9510   13.4793   23.1690 C   0  0  0  0  0  0  0  0  0  0  0  0
   11.8314   16.1010   22.4405 C   0  0  0  0  0  0  0  0  0  0  0  0
   12.9348   14.9849   20.4794 C   0  0  0  0  0  0  0  0  0  0  0  0
   10.4373   14.8922   20.7288 C   0  0  0  0  0  0  0  0  0  0  0  0
    6.4768   12.7469   25.6614 C   0  0  0  0  0  0  0  0  0  0  0  0
   11.7736   14.9228   21.4693 C   0  0  0  0  0  0  0  0  0  0  0  0
    7.1926   10.5500   24.9609 N   0  0  0  0  0  0  0  0  0  0  0  0
    8.4123   12.5010   24.2448 N   0  0  0  0  0  0  0  0  0  0  0  0
   10.2931   12.2950   22.8717 N   0  0  0  0  0  0  0  0  0  0  0  0
   10.7435   14.2293   24.1150 O   0  0  0  0  0  0  0  0  0  0  0  0
   11.9085   13.7087   22.2171 O   0  0  0  0  0  0  0  0  0  0  0  0
    5.4959   12.0531   26.3114 F   0  0  0  0  0  0  0  0  0  0  0  0
    7.0796   13.5006   26.6281 F   0  0  0  0  0  0  0  0  0  0  0  0
    5.8245   13.6365   24.8576 F   0  0  0  0  0  0  0  0  0  0  0  0
    8.4928    5.6664   23.6137 Br  0  0  0  0  0  0  0  0  0  0  0  0
   10.8350    9.8589   22.2779 H   0  0  0  0  0  0  0  0  0  0  0  0
   10.5045    7.4446   22.3143 H   0  0  0  0  0  0  0  0  0  0  0  0
    7.0538    7.9436   24.8417 H   0  0  0  0  0  0  0  0  0  0  0  0
   10.9995   16.0601   23.1527 H   0  0  0  0  0  0  0  0  0  0  0  0
   12.7705   16.1143   23.0031 H   0  0  0  0  0  0  0  0  0  0  0  0
   11.7345   17.0532   21.9064 H   0  0  0  0  0  0  0  0  0  0  0  0
   12.8972   14.1414   19.7806 H   0  0  0  0  0  0  0  0  0  0  0  0
   13.8962   14.9115   21.0004 H   0  0  0  0  0  0  0  0  0  0  0  0
   12.9237   15.9146   19.9014 H   0  0  0  0  0  0  0  0  0  0  0  0
   10.3956   14.0472   20.0321 H   0  0  0  0  0  0  0  0  0  0  0  0
    9.5938   14.8105   21.4220 H   0  0  0  0  0  0  0  0  0  0  0  0
   10.3055   15.7974   20.1251 H   0  0  0  0  0  0  0  0  0  0  0  0
   10.6119   11.8070   22.0332 H   0  0  0  0  0  0  0  0  0  0  0  0
  1  2  1  0  0  0  0
  1  4  2  0  0  0  0
  2  6  2  0  0  0  0
  3  5  2  0  0  0  0
  3  6  1  0  0  0  0
  4  5  1  0  0  0  0
  4  7  1  0  0  0  0
  5 15  1  0  0  0  0
  6 23  1  0  0  0  0
  7 16  2  0  0  0  0
  7 17  1  0  0  0  0
  8 13  1  0  0  0  0
  8 15  2  0  0  0  0
  8 16  1  0  0  0  0
  9 17  1  0  0  0  0
  9 18  2  0  0  0  0
  9 19  1  0  0  0  0
 10 14  1  0  0  0  0
 11 14  1  0  0  0  0
 12 14  1  0  0  0  0
 13 20  1  0  0  0  0
 13 21  1  0  0  0  0
 13 22  1  0  0  0  0
 14 19  1  0  0  0  0
  1 24  1  0  0  0  0
  2 25  1  0  0  0  0
  3 26  1  0  0  0  0
 10 27  1  0  0  0  0
 10 28  1  0  0  0  0
 10 29  1  0  0  0  0
 11 30  1  0  0  0  0
 11 31  1  0  0  0  0
 11 32  1  0  0  0  0
 12 33  1  0  0  0  0
 12 34  1  0  0  0  0
 12 35  1  0  0  0  0
 17 36  1  0  0  0  0
M  END
> <id>
EN300-28302734

> <smiles>
CC(C)(C)OC(=O)NC=1N=C(N=C2C=C(Br)C=CC12)C(F)(F)F

> <IUPAC Name>
tert-butyl N-[7-bromo-2-(trifluoromethyl)quinazolin-4-yl]carbamate

> <CAS>
2680670-34-0

> <URL>
https://www.enaminestore.com/catalog/EN300-28302734

> <ROCS_ShapeQuery>
A71EV2A-x0451_0A_A71EV2A-x0310_0A_A71EV2A-x0416_0A_peptide

> <ROCS_TanimotoCombo>
0.537 

> <ROCS_ShapeTanimoto>
0.391 

> <ROCS_ColorTanimoto>
0.147 

> <ROCS_RefTversky>
0.336 

> <ROCS_RefColorTversky>
0.166 

> <ROCS_RefTverskyCombo>
0.502 

> <ROCS_FitTversky>
1.718 

> <ROCS_FitColorTversky>
0.552 

> <ROCS_FitTverskyCombo>
2.271 

> <ROCS_ColorScore>
-5.080

> <ROCS_Overlap>
2334.090

> <ROCS_Rank>
53                  

$$$$
untitled-dbase-118263_131
  -OEChem-11132313473D

 42 43  0     1  0  0  0  0  0999 V2000
    7.7476   13.1522   24.8394 C   0  0  0  0  0  0  0  0  0  0  0  0
    6.6409   13.0346   25.6827 C   0  0  0  0  0  0  0  0  0  0  0  0
    6.8427   10.6437   25.5982 C   0  0  0  0  0  0  0  0  0  0  0  0
    7.9394   10.7409   24.7184 C   0  0  0  0  0  0  0  0  0  0  0  0
    8.4464   12.0210   24.3801 C   0  0  0  0  0  0  0  0  0  0  0  0
    6.2003   11.7816   26.0779 C   0  0  0  0  0  0  0  0  0  0  0  0
   10.4620   13.2760   23.4705 C   0  0  0  0  0  0  0  0  0  0  0  0
    9.1145    9.7996   22.7669 C   0  0  0  0  0  0  0  0  0  0  0  0
   10.0827   10.9662   22.8098 C   0  0  0  0  0  0  0  0  0  0  0  0
    8.6087    9.4914   24.1731 C   0  0  2  0  0  0  0  0  0  0  0  0
   12.1666   15.4953   22.8523 C   0  0  0  0  0  0  0  0  0  0  0  0
   12.0230   14.7012   20.4736 C   0  0  0  0  0  0  0  0  0  0  0  0
    9.9457   15.4523   21.6690 C   0  0  0  0  0  0  0  0  0  0  0  0
    4.5266   12.8692   27.3752 C   0  0  0  0  0  0  0  0  0  0  0  0
   11.3048   14.7704   21.8196 C   0  0  0  0  0  0  0  0  0  0  0  0
    9.6226   12.1398   23.5546 N   0  0  0  0  0  0  0  0  0  0  0  0
    7.7310    8.3200   24.0788 N   0  0  0  0  0  0  0  0  0  0  0  0
   10.5621   14.1096   24.3723 O   0  0  0  0  0  0  0  0  0  0  0  0
    5.1424   11.6620   26.9261 O   0  0  0  0  0  0  0  0  0  0  0  0
   11.0934   13.4255   22.2655 O   0  0  0  0  0  0  0  0  0  0  0  0
    8.0155   14.1626   24.5671 H   0  0  0  0  0  0  0  0  0  0  0  0
    6.1273   13.9280   26.0225 H   0  0  0  0  0  0  0  0  0  0  0  0
    6.4841    9.6639   25.9114 H   0  0  0  0  0  0  0  0  0  0  0  0
    8.2811   10.0276   22.0976 H   0  0  0  0  0  0  0  0  0  0  0  0
    9.6220    8.9222   22.3537 H   0  0  0  0  0  0  0  0  0  0  0  0
   11.0244   10.5937   23.2495 H   0  0  0  0  0  0  0  0  0  0  0  0
   10.3439   11.3084   21.7915 H   0  0  0  0  0  0  0  0  0  0  0  0
    9.4828    9.2327   24.7729 H   0  0  0  0  0  0  0  0  0  0  0  0
   11.6546   15.5470   23.8198 H   0  0  0  0  0  0  0  0  0  0  0  0
   13.1305   14.9960   22.9952 H   0  0  0  0  0  0  0  0  0  0  0  0
   12.3552   16.5308   22.5466 H   0  0  0  0  0  0  0  0  0  0  0  0
   11.4082   14.1819   19.7296 H   0  0  0  0  0  0  0  0  0  0  0  0
   12.9546   14.1300   20.5572 H   0  0  0  0  0  0  0  0  0  0  0  0
   12.2612   15.6989   20.0911 H   0  0  0  0  0  0  0  0  0  0  0  0
    9.3273   14.9325   20.9282 H   0  0  0  0  0  0  0  0  0  0  0  0
    9.4000   15.4780   22.6178 H   0  0  0  0  0  0  0  0  0  0  0  0
   10.0634   16.4801   21.3070 H   0  0  0  0  0  0  0  0  0  0  0  0
    3.6974   12.6287   28.0451 H   0  0  0  0  0  0  0  0  0  0  0  0
    4.1613   13.4350   26.5145 H   0  0  0  0  0  0  0  0  0  0  0  0
    5.2660   13.4663   27.9141 H   0  0  0  0  0  0  0  0  0  0  0  0
    8.2427    7.5887   23.6485 H   0  0  0  0  0  0  0  0  0  0  0  0
    7.4581    8.0687   24.9977 H   0  0  0  0  0  0  0  0  0  0  0  0
  1  2  1  0  0  0  0
  1  5  2  0  0  0  0
  2  6  2  0  0  0  0
  3  4  2  0  0  0  0
  3  6  1  0  0  0  0
  4  5  1  0  0  0  0
  4 10  1  0  0  0  0
  5 16  1  0  0  0  0
  6 19  1  0  0  0  0
  7 16  1  0  0  0  0
  7 18  2  0  0  0  0
  7 20  1  0  0  0  0
  8  9  1  0  0  0  0
  8 10  1  0  0  0  0
  9 16  1  0  0  0  0
 10 17  1  0  0  0  0
 11 15  1  0  0  0  0
 12 15  1  0  0  0  0
 13 15  1  0  0  0  0
 14 19  1  0  0  0  0
 15 20  1  0  0  0  0
  1 21  1  0  0  0  0
  2 22  1  0  0  0  0
  3 23  1  0  0  0  0
  8 24  1  0  0  0  0
  8 25  1  0  0  0  0
  9 26  1  0  0  0  0
  9 27  1  0  0  0  0
 10 28  1  0  0  0  0
 11 29  1  0  0  0  0
 11 30  1  0  0  0  0
 11 31  1  0  0  0  0
 12 32  1  0  0  0  0
 12 33  1  0  0  0  0
 12 34  1  0  0  0  0
 13 35  1  0  0  0  0
 13 36  1  0  0  0  0
 13 37  1  0  0  0  0
 14 38  1  0  0  0  0
 14 39  1  0  0  0  0
 14 40  1  0  0  0  0
 17 41  1  0  0  0  0
 17 42  1  0  0  0  0
M  END
> <id>
EN300-6494717

> <smiles>
COC=1C=CC=2N(CCC(N)C2C1)C(=O)OC(C)(C)C

> <MDLNUMBER>
MFCD30187715

> <IUPAC Name>
tert-butyl 4-amino-6-methoxy-1,2,3,4-tetrahydroquinoline-1-carboxylate

> <CAS>
2247106-59-6

> <Purity>
95

> <URL>
https://www.enaminestore.com/catalog/EN300-6494717

> <ROCS_ShapeQuery>
A71EV2A-x0451_0A_A71EV2A-x0310_0A_A71EV2A-x0416_0A_peptide

> <ROCS_TanimotoCombo>
0.537 

> <ROCS_ShapeTanimoto>
0.367 

> <ROCS_ColorTanimoto>
0.170 

> <ROCS_RefTversky>
0.315 

> <ROCS_RefColorTversky>
0.184 

> <ROCS_RefTverskyCombo>
0.500 

> <ROCS_FitTversky>
1.811 

> <ROCS_FitColorTversky>
0.682 

> <ROCS_FitTverskyCombo>
2.493 

> <ROCS_ColorScore>
-5.620

> <ROCS_Overlap>
2188.533

> <ROCS_Rank>
54                  

$$$$
untitled-dbase-155499_14
  -OEChem-11132313473D

 26 27  0     0  0  0  0  0  0999 V2000
    7.9403   13.0857   25.0662 C   0  0  0  0  0  0  0  0  0  0  0  0
    6.2421   11.6612   25.9286 C   0  0  0  0  0  0  0  0  0  0  0  0
    6.7951   12.9213   25.8439 C   0  0  0  0  0  0  0  0  0  0  0  0
    8.5197   11.9984   24.4011 C   0  0  0  0  0  0  0  0  0  0  0  0
    7.8721   10.7647   24.5634 C   0  0  0  0  0  0  0  0  0  0  0  0
    6.2097   14.0416   26.5599 C   0  0  0  0  0  0  0  0  0  0  0  0
   10.4342   13.2773   23.4047 C   0  0  0  0  0  0  0  0  0  0  0  0
   10.0102   10.8727   22.8162 C   0  0  0  0  0  0  0  0  0  0  0  0
    9.6917    9.6466   23.6435 C   0  0  0  0  0  0  0  0  0  0  0  0
   11.0987   13.4683   22.0587 C   0  0  0  0  0  0  0  0  0  0  0  0
    6.7491   10.5827   25.3018 N   0  0  0  0  0  0  0  0  0  0  0  0
    9.6797   12.1011   23.5537 N   0  0  0  0  0  0  0  0  0  0  0  0
    5.0633   14.4755   26.3994 O   0  0  0  0  0  0  0  0  0  0  0  0
   10.6105   14.1448   24.2619 O   0  0  0  0  0  0  0  0  0  0  0  0
    8.3062    9.6101   23.9604 O   0  0  0  0  0  0  0  0  0  0  0  0
    7.0699   14.5925   27.4605 O   0  0  0  0  0  0  0  0  0  0  0  0
   10.8203   12.4331   21.2495 F   0  0  0  0  0  0  0  0  0  0  0  0
   10.6597   14.5955   21.4751 F   0  0  0  0  0  0  0  0  0  0  0  0
   12.4318   13.5529   22.1992 F   0  0  0  0  0  0  0  0  0  0  0  0
    8.3682   14.0806   25.0287 H   0  0  0  0  0  0  0  0  0  0  0  0
    5.3537   11.4687   26.5218 H   0  0  0  0  0  0  0  0  0  0  0  0
   11.0808   10.9225   22.5836 H   0  0  0  0  0  0  0  0  0  0  0  0
    9.4544   10.8182   21.8769 H   0  0  0  0  0  0  0  0  0  0  0  0
    9.9841    8.7193   23.1345 H   0  0  0  0  0  0  0  0  0  0  0  0
   10.2439    9.6843   24.5884 H   0  0  0  0  0  0  0  0  0  0  0  0
    6.6835   15.3496   27.9502 H   0  0  0  0  0  0  0  0  0  0  0  0
  1  3  1  0  0  0  0
  1  4  2  0  0  0  0
  2  3  2  0  0  0  0
  2 11  1  0  0  0  0
  3  6  1  0  0  0  0
  4  5  1  0  0  0  0
  4 12  1  0  0  0  0
  5 11  2  0  0  0  0
  5 15  1  0  0  0  0
  6 13  2  0  0  0  0
  6 16  1  0  0  0  0
  7 10  1  0  0  0  0
  7 12  1  0  0  0  0
  7 14  2  0  0  0  0
  8  9  1  0  0  0  0
  8 12  1  0  0  0  0
  9 15  1  0  0  0  0
 10 17  1  0  0  0  0
 10 18  1  0  0  0  0
 10 19  1  0  0  0  0
  1 20  1  0  0  0  0
  2 21  1  0  0  0  0
  8 22  1  0  0  0  0
  8 23  1  0  0  0  0
  9 24  1  0  0  0  0
  9 25  1  0  0  0  0
 16 26  1  0  0  0  0
M  END
> <id>
EN300-28284684

> <smiles>
OC(=O)C=1C=NC=2OCCN(C(=O)C(F)(F)F)C2C1

> <IUPAC Name>
1-(2,2,2-trifluoroacetyl)-1H,2H,3H-pyrido[2,3-b][1,4]oxazine-7-carboxylic acid

> <CAS>
2680714-97-8

> <URL>
https://www.enaminestore.com/catalog/EN300-28284684

> <ROCS_ShapeQuery>
A71EV2A-x0451_0A_A71EV2A-x0310_0A_A71EV2A-x0416_0A_peptide

> <ROCS_TanimotoCombo>
0.537 

> <ROCS_ShapeTanimoto>
0.334 

> <ROCS_ColorTanimoto>
0.202 

> <ROCS_RefTversky>
0.294 

> <ROCS_RefColorTversky>
0.219 

> <ROCS_RefTverskyCombo>
0.513 

> <ROCS_FitTversky>
1.694 

> <ROCS_FitColorTversky>
0.726 

> <ROCS_FitTverskyCombo>
2.419 

> <ROCS_ColorScore>
-6.686

> <ROCS_Overlap>
2040.960

> <ROCS_Rank>
55                  

$$$$
untitled-dbase-38057_111
  -OEChem-11132313473D

 45 47  0     1  0  0  0  0  0999 V2000
    6.6422    9.6837   24.5561 C   0  0  0  0  0  0  0  0  0  0  0  0
   10.3145   13.2418   23.4122 C   0  0  0  0  0  0  0  0  0  0  0  0
    9.5058    9.7774   22.8868 C   0  0  0  0  0  0  0  0  0  0  0  0
   10.0305    9.8106   24.3336 C   0  0  0  0  0  0  0  0  0  0  0  0
    7.5334   11.3927   22.9457 C   0  0  0  0  0  0  0  0  0  0  0  0
    8.0306   12.7126   26.0592 C   0  0  0  0  0  0  0  0  0  0  0  0
    6.0957   12.0399   24.9500 C   0  0  0  0  0  0  0  0  0  0  0  0
    8.3418   11.3380   25.4439 C   0  0  2  0  0  0  0  0  0  0  0  0
    9.0215   11.2045   22.6102 C   0  0  1  0  0  0  0  0  0  0  0  0
    9.7533   11.2386   24.8219 C   0  0  2  0  0  0  0  0  0  0  0  0
    7.1799   11.0874   24.4347 C   0  0  1  0  0  0  0  0  0  0  0  0
   12.5176   14.9110   22.6839 C   0  0  0  0  0  0  0  0  0  0  0  0
   11.5853   14.8092   20.3537 C   0  0  0  0  0  0  0  0  0  0  0  0
   10.2273   15.8358   22.2003 C   0  0  0  0  0  0  0  0  0  0  0  0
   11.2509   14.7591   21.8429 C   0  0  0  0  0  0  0  0  0  0  0  0
    6.8605   13.2203   25.3443 N   0  0  0  0  0  0  0  0  0  0  0  0
    9.7692   11.9842   23.5797 N   0  0  0  0  0  0  0  0  0  0  0  0
    7.2517    8.6698   24.2497 O   0  0  0  0  0  0  0  0  0  0  0  0
   10.4599   14.0595   24.3179 O   0  0  0  0  0  0  0  0  0  0  0  0
    5.3809    9.6953   25.0521 O   0  0  0  0  0  0  0  0  0  0  0  0
   10.6758   13.4758   22.1129 O   0  0  0  0  0  0  0  0  0  0  0  0
   10.3316    9.5199   22.2127 H   0  0  0  0  0  0  0  0  0  0  0  0
    8.7240    9.0246   22.7484 H   0  0  0  0  0  0  0  0  0  0  0  0
    9.5626    9.0410   24.9555 H   0  0  0  0  0  0  0  0  0  0  0  0
   11.1105    9.6188   24.3282 H   0  0  0  0  0  0  0  0  0  0  0  0
    7.2803   12.4351   22.7097 H   0  0  0  0  0  0  0  0  0  0  0  0
    6.9276   10.7786   22.2676 H   0  0  0  0  0  0  0  0  0  0  0  0
    7.8322   12.6343   27.1479 H   0  0  0  0  0  0  0  0  0  0  0  0
    8.8724   13.4270   25.9487 H   0  0  0  0  0  0  0  0  0  0  0  0
    5.3878   12.3275   24.1768 H   0  0  0  0  0  0  0  0  0  0  0  0
    5.5357   11.6531   25.7975 H   0  0  0  0  0  0  0  0  0  0  0  0
    8.2999   10.5991   26.2593 H   0  0  0  0  0  0  0  0  0  0  0  0
    9.2280   11.5230   21.5857 H   0  0  0  0  0  0  0  0  0  0  0  0
   10.5172   11.5848   25.5294 H   0  0  0  0  0  0  0  0  0  0  0  0
   12.2817   14.8755   23.7535 H   0  0  0  0  0  0  0  0  0  0  0  0
   13.2458   14.1240   22.4621 H   0  0  0  0  0  0  0  0  0  0  0  0
   12.9922   15.8824   22.5040 H   0  0  0  0  0  0  0  0  0  0  0  0
   10.6794   14.7006   19.7465 H   0  0  0  0  0  0  0  0  0  0  0  0
   12.2456   13.9804   20.0738 H   0  0  0  0  0  0  0  0  0  0  0  0
   12.0748   15.7498   20.0809 H   0  0  0  0  0  0  0  0  0  0  0  0
    9.3186   15.7271   21.5972 H   0  0  0  0  0  0  0  0  0  0  0  0
    9.9475   15.7913   23.2578 H   0  0  0  0  0  0  0  0  0  0  0  0
   10.6225   16.8355   21.9865 H   0  0  0  0  0  0  0  0  0  0  0  0
    6.2981   13.7709   25.9950 H   0  0  0  0  0  0  0  0  0  0  0  0
    5.0121    8.7903   25.1370 H   0  0  0  0  0  0  0  0  0  0  0  0
  1 11  1  0  0  0  0
  1 18  2  0  0  0  0
  1 20  1  0  0  0  0
  2 17  1  0  0  0  0
  2 19  2  0  0  0  0
  2 21  1  0  0  0  0
  3  4  1  0  0  0  0
  3  9  1  0  0  0  0
  4 10  1  0  0  0  0
  5  9  1  0  0  0  0
  5 11  1  0  0  0  0
  6  8  1  0  0  0  0
  6 16  1  0  0  0  0
  7 11  1  0  0  0  0
  7 16  1  0  0  0  0
  8 10  1  0  0  0  0
  8 11  1  0  0  0  0
  9 17  1  0  0  0  0
 10 17  1  0  0  0  0
 12 15  1  0  0  0  0
 13 15  1  0  0  0  0
 14 15  1  0  0  0  0
 15 21  1  0  0  0  0
  3 22  1  0  0  0  0
  3 23  1  0  0  0  0
  4 24  1  0  0  0  0
  4 25  1  0  0  0  0
  5 26  1  0  0  0  0
  5 27  1  0  0  0  0
  6 28  1  0  0  0  0
  6 29  1  0  0  0  0
  7 30  1  0  0  0  0
  7 31  1  0  0  0  0
  8 32  1  0  0  0  0
  9 33  1  0  0  0  0
 10 34  1  0  0  0  0
 12 35  1  0  0  0  0
 12 36  1  0  0  0  0
 12 37  1  0  0  0  0
 13 38  1  0  0  0  0
 13 39  1  0  0  0  0
 13 40  1  0  0  0  0
 14 41  1  0  0  0  0
 14 42  1  0  0  0  0
 14 43  1  0  0  0  0
 16 44  1  0  0  0  0
 20 45  1  0  0  0  0
M  END
> <id>
EN300-1165330

> <smiles>
CC(C)(C)OC(=O)N1C2CCC1C3CNCC3(C2)C(=O)O

> <IUPAC Name>
11-[(tert-butoxy)carbonyl]-4,11-diazatricyclo[6.2.1.0,2,6]undecane-6-carboxylic acid

> <CAS>
2138229-73-7

> <URL>
https://www.enaminestore.com/catalog/EN300-1165330

> <ROCS_ShapeQuery>
A71EV2A-x0451_0A_A71EV2A-x0310_0A_A71EV2A-x0416_0A_peptide

> <ROCS_TanimotoCombo>
0.536 

> <ROCS_ShapeTanimoto>
0.340 

> <ROCS_ColorTanimoto>
0.196 

> <ROCS_RefTversky>
0.300 

> <ROCS_RefColorTversky>
0.242 

> <ROCS_RefTverskyCombo>
0.543 

> <ROCS_FitTversky>
1.642 

> <ROCS_FitColorTversky>
0.505 

> <ROCS_FitTverskyCombo>
2.148 

> <ROCS_ColorScore>
-7.465

> <ROCS_Overlap>
2086.057

> <ROCS_Rank>
56                  

$$$$
untitled-dbase-104837_18
  -OEChem-11132313473D

 32 33  0     0  0  0  0  0  0999 V2000
    7.9856   13.1298   24.7158 C   0  0  0  0  0  0  0  0  0  0  0  0
    6.8695   13.1062   25.5587 C   0  0  0  0  0  0  0  0  0  0  0  0
    8.3173   11.8390   24.3329 C   0  0  0  0  0  0  0  0  0  0  0  0
    7.6695   10.6200   24.6990 C   0  0  0  0  0  0  0  0  0  0  0  0
    6.2396   11.8879   25.9111 C   0  0  0  0  0  0  0  0  0  0  0  0
    9.3526   11.4847   23.5124 C   0  0  0  0  0  0  0  0  0  0  0  0
   10.9155   13.4279   23.2091 C   0  0  0  0  0  0  0  0  0  0  0  0
   13.2791   14.9167   23.8229 C   0  0  0  0  0  0  0  0  0  0  0  0
   13.4997   15.2361   21.3413 C   0  0  0  0  0  0  0  0  0  0  0  0
   11.4976   16.1552   22.5474 C   0  0  0  0  0  0  0  0  0  0  0  0
   12.5254   15.0256   22.4982 C   0  0  0  0  0  0  0  0  0  0  0  0
    6.5829   10.6184   25.5216 N   0  0  0  0  0  0  0  0  0  0  0  0
    8.2725    9.5673   24.1350 N   0  0  0  0  0  0  0  0  0  0  0  0
    9.2803   10.1209   23.4281 N   0  0  0  0  0  0  0  0  0  0  0  0
   10.3464   12.2264   22.8341 N   0  0  0  0  0  0  0  0  0  0  0  0
   10.6715   14.0938   24.2079 O   0  0  0  0  0  0  0  0  0  0  0  0
    5.1476   11.9776   26.7464 O   0  0  0  0  0  0  0  0  0  0  0  0
   11.8384   13.7957   22.2638 O   0  0  0  0  0  0  0  0  0  0  0  0
    8.4934   14.0374   24.4238 H   0  0  0  0  0  0  0  0  0  0  0  0
    6.4818   14.0449   25.9486 H   0  0  0  0  0  0  0  0  0  0  0  0
   12.5831   14.7655   24.6559 H   0  0  0  0  0  0  0  0  0  0  0  0
   13.9947   14.0881   23.8129 H   0  0  0  0  0  0  0  0  0  0  0  0
   13.8244   15.8423   24.0398 H   0  0  0  0  0  0  0  0  0  0  0  0
   12.9633   15.3148   20.3888 H   0  0  0  0  0  0  0  0  0  0  0  0
   14.1794   14.3819   21.2431 H   0  0  0  0  0  0  0  0  0  0  0  0
   14.0990   16.1421   21.4776 H   0  0  0  0  0  0  0  0  0  0  0  0
   10.9568   16.2335   21.5973 H   0  0  0  0  0  0  0  0  0  0  0  0
   10.7676   16.0017   23.3489 H   0  0  0  0  0  0  0  0  0  0  0  0
   11.9887   17.1224   22.7043 H   0  0  0  0  0  0  0  0  0  0  0  0
    9.8874    9.5046   22.9029 H   0  0  0  0  0  0  0  0  0  0  0  0
   10.6842   11.8260   21.9622 H   0  0  0  0  0  0  0  0  0  0  0  0
    4.8024   11.0930   26.9174 H   0  0  0  0  0  0  0  0  0  0  0  0
  1  2  2  0  0  0  0
  1  3  1  0  0  0  0
  2  5  1  0  0  0  0
  3  4  1  0  0  0  0
  3  6  2  0  0  0  0
  4 12  1  0  0  0  0
  4 13  2  0  0  0  0
  5 12  2  0  0  0  0
  5 17  1  0  0  0  0
  6 14  1  0  0  0  0
  6 15  1  0  0  0  0
  7 15  1  0  0  0  0
  7 16  2  0  0  0  0
  7 18  1  0  0  0  0
  8 11  1  0  0  0  0
  9 11  1  0  0  0  0
 10 11  1  0  0  0  0
 11 18  1  0  0  0  0
 13 14  1  0  0  0  0
  1 19  1  0  0  0  0
  2 20  1  0  0  0  0
  8 21  1  0  0  0  0
  8 22  1  0  0  0  0
  8 23  1  0  0  0  0
  9 24  1  0  0  0  0
  9 25  1  0  0  0  0
  9 26  1  0  0  0  0
 10 27  1  0  0  0  0
 10 28  1  0  0  0  0
 10 29  1  0  0  0  0
 14 30  1  0  0  0  0
 15 31  1  0  0  0  0
 17 32  1  0  0  0  0
M  END
> <id>
EN300-26665331

> <smiles>
CC(C)(C)OC(=O)NC=1NN=C2N=C(O)C=CC12

> <IUPAC Name>
tert-butyl N-{6-hydroxy-2H-pyrazolo[3,4-b]pyridin-3-yl}carbamate

> <CAS>
2413899-60-0

> <URL>
https://www.enaminestore.com/catalog/EN300-26665331

> <ROCS_ShapeQuery>
A71EV2A-x0451_0A_A71EV2A-x0310_0A_A71EV2A-x0416_0A_peptide

> <ROCS_TanimotoCombo>
0.536 

> <ROCS_ShapeTanimoto>
0.337 

> <ROCS_ColorTanimoto>
0.199 

> <ROCS_RefTversky>
0.294 

> <ROCS_RefColorTversky>
0.226 

> <ROCS_RefTverskyCombo>
0.520 

> <ROCS_FitTversky>
1.774 

> <ROCS_FitColorTversky>
0.623 

> <ROCS_FitTverskyCombo>
2.397 

> <ROCS_ColorScore>
-6.932

> <ROCS_Overlap>
2036.639

> <ROCS_Rank>
57                  

$$$$
untitled-dbase-154399_16
  -OEChem-11132313473D

 31 32  0     0  0  0  0  0  0999 V2000
    8.0170   12.9712   24.7053 C   0  0  0  0  0  0  0  0  0  0  0  0
    6.9175   12.8456   25.5546 C   0  0  0  0  0  0  0  0  0  0  0  0
    8.5842   11.7894   24.2123 C   0  0  0  0  0  0  0  0  0  0  0  0
    8.0169   10.5856   24.6001 C   0  0  0  0  0  0  0  0  0  0  0  0
    9.6478   11.4117   23.3687 C   0  0  0  0  0  0  0  0  0  0  0  0
    6.4479   11.5734   25.8635 C   0  0  0  0  0  0  0  0  0  0  0  0
   10.9233   13.5660   23.1621 C   0  0  0  0  0  0  0  0  0  0  0  0
   11.2110   16.3811   22.7473 C   0  0  0  0  0  0  0  0  0  0  0  0
   12.4577   15.7588   20.6574 C   0  0  0  0  0  0  0  0  0  0  0  0
   10.0447   15.1112   20.9138 C   0  0  0  0  0  0  0  0  0  0  0  0
   11.3688   15.3380   21.6419 C   0  0  0  0  0  0  0  0  0  0  0  0
    6.9614   10.4033   25.4126 N   0  0  0  0  0  0  0  0  0  0  0  0
    9.7524   10.0860   23.2288 N   0  0  0  0  0  0  0  0  0  0  0  0
    8.7486    9.6111   23.9882 N   0  0  0  0  0  0  0  0  0  0  0  0
   10.5238   12.3170   22.7277 N   0  0  0  0  0  0  0  0  0  0  0  0
   10.5973   14.1409   24.1934 O   0  0  0  0  0  0  0  0  0  0  0  0
   11.7783   14.1053   22.2354 O   0  0  0  0  0  0  0  0  0  0  0  0
    4.9439   11.4446   27.0271 Br  0  0  0  0  0  0  0  0  0  0  0  0
    8.4092   13.9481   24.4436 H   0  0  0  0  0  0  0  0  0  0  0  0
    6.4506   13.7396   25.9571 H   0  0  0  0  0  0  0  0  0  0  0  0
   10.4302   16.0827   23.4561 H   0  0  0  0  0  0  0  0  0  0  0  0
   12.1447   16.5275   23.3000 H   0  0  0  0  0  0  0  0  0  0  0  0
   10.8993   17.3464   22.3324 H   0  0  0  0  0  0  0  0  0  0  0  0
   12.5744   15.0133   19.8626 H   0  0  0  0  0  0  0  0  0  0  0  0
   13.4300   15.8308   21.1582 H   0  0  0  0  0  0  0  0  0  0  0  0
   12.2332   16.7258   20.1957 H   0  0  0  0  0  0  0  0  0  0  0  0
   10.1576   14.3631   20.1208 H   0  0  0  0  0  0  0  0  0  0  0  0
    9.2605   14.7730   21.5989 H   0  0  0  0  0  0  0  0  0  0  0  0
    9.7064   16.0318   20.4245 H   0  0  0  0  0  0  0  0  0  0  0  0
    8.6200    8.6085   24.0438 H   0  0  0  0  0  0  0  0  0  0  0  0
   10.9073   12.0112   21.8367 H   0  0  0  0  0  0  0  0  0  0  0  0
  1  2  1  0  0  0  0
  1  3  2  0  0  0  0
  2  6  2  0  0  0  0
  3  4  1  0  0  0  0
  3  5  1  0  0  0  0
  4 12  2  0  0  0  0
  4 14  1  0  0  0  0
  5 13  2  0  0  0  0
  5 15  1  0  0  0  0
  6 12  1  0  0  0  0
  6 18  1  0  0  0  0
  7 15  1  0  0  0  0
  7 16  2  0  0  0  0
  7 17  1  0  0  0  0
  8 11  1  0  0  0  0
  9 11  1  0  0  0  0
 10 11  1  0  0  0  0
 11 17  1  0  0  0  0
 13 14  1  0  0  0  0
  1 19  1  0  0  0  0
  2 20  1  0  0  0  0
  8 21  1  0  0  0  0
  8 22  1  0  0  0  0
  8 23  1  0  0  0  0
  9 24  1  0  0  0  0
  9 25  1  0  0  0  0
  9 26  1  0  0  0  0
 10 27  1  0  0  0  0
 10 28  1  0  0  0  0
 10 29  1  0  0  0  0
 14 30  1  0  0  0  0
 15 31  1  0  0  0  0
M  END
> <id>
EN300-28292535

> <smiles>
CC(C)(C)OC(=O)NC1=NNC=2N=C(Br)C=CC12

> <IUPAC Name>
tert-butyl N-{6-bromo-1H-pyrazolo[3,4-b]pyridin-3-yl}carbamate

> <CAS>
2680774-31-4

> <URL>
https://www.enaminestore.com/catalog/EN300-28292535

> <ROCS_ShapeQuery>
A71EV2A-x0451_0A_A71EV2A-x0310_0A_A71EV2A-x0416_0A_peptide

> <ROCS_TanimotoCombo>
0.536 

> <ROCS_ShapeTanimoto>
0.348 

> <ROCS_ColorTanimoto>
0.188 

> <ROCS_RefTversky>
0.300 

> <ROCS_RefColorTversky>
0.211 

> <ROCS_RefTverskyCombo>
0.511 

> <ROCS_FitTversky>
1.834 

> <ROCS_FitColorTversky>
0.634 

> <ROCS_FitTverskyCombo>
2.468 

> <ROCS_ColorScore>
-6.442

> <ROCS_Overlap>
2082.583

> <ROCS_Rank>
58                  

$$$$
untitled-dbase-174439_6
  -OEChem-11132313473D

 40 41  0     1  0  0  0  0  0999 V2000
    6.6060   12.7011   25.6055 C   0  0  0  0  0  0  0  0  0  0  0  0
    7.7388   12.9090   24.8110 C   0  0  0  0  0  0  0  0  0  0  0  0
    6.9315   10.3259   25.4529 C   0  0  0  0  0  0  0  0  0  0  0  0
    6.2054   11.4109   25.9312 C   0  0  0  0  0  0  0  0  0  0  0  0
    8.4936   11.8288   24.3271 C   0  0  0  0  0  0  0  0  0  0  0  0
    8.0592   10.5351   24.6478 C   0  0  0  0  0  0  0  0  0  0  0  0
    9.8390    9.4778   23.3580 C   0  0  0  0  0  0  0  0  0  0  0  0
    5.0311   11.1971   26.7614 C   0  0  0  0  0  0  0  0  0  0  0  0
   10.3824   13.2137   23.4563 C   0  0  0  0  0  0  0  0  0  0  0  0
   10.1075   10.8330   22.7242 C   0  0  1  0  0  0  0  0  0  0  0  0
    9.4582   10.8668   21.3375 C   0  0  0  0  0  0  0  0  0  0  0  0
   12.8715   14.6000   23.1192 C   0  0  0  0  0  0  0  0  0  0  0  0
   12.3388   14.5802   20.6646 C   0  0  0  0  0  0  0  0  0  0  0  0
   10.8265   15.7914   22.2627 C   0  0  0  0  0  0  0  0  0  0  0  0
   11.7552   14.5925   22.0758 C   0  0  0  0  0  0  0  0  0  0  0  0
    8.7685    9.4106   24.2116 N   0  0  0  0  0  0  0  0  0  0  0  0
    9.6729   11.9939   23.5259 N   0  0  0  0  0  0  0  0  0  0  0  0
   10.4599    8.4751   23.0000 O   0  0  0  0  0  0  0  0  0  0  0  0
    4.3149   12.0872   27.2322 O   0  0  0  0  0  0  0  0  0  0  0  0
   10.4914   14.0386   24.3603 O   0  0  0  0  0  0  0  0  0  0  0  0
    4.7815    9.8769   26.9807 O   0  0  0  0  0  0  0  0  0  0  0  0
   10.9892   13.3927   22.2365 O   0  0  0  0  0  0  0  0  0  0  0  0
    6.0423   13.5608   25.9596 H   0  0  0  0  0  0  0  0  0  0  0  0
    7.9747   13.9379   24.5617 H   0  0  0  0  0  0  0  0  0  0  0  0
    6.6203    9.3140   25.7049 H   0  0  0  0  0  0  0  0  0  0  0  0
   11.1964   10.8881   22.6046 H   0  0  0  0  0  0  0  0  0  0  0  0
    8.3770   10.8128   21.4396 H   0  0  0  0  0  0  0  0  0  0  0  0
    9.8071   10.0206   20.7507 H   0  0  0  0  0  0  0  0  0  0  0  0
    9.7264   11.7911   20.8316 H   0  0  0  0  0  0  0  0  0  0  0  0
   12.4567   14.6089   24.1335 H   0  0  0  0  0  0  0  0  0  0  0  0
   13.5241   13.7268   23.0181 H   0  0  0  0  0  0  0  0  0  0  0  0
   13.4855   15.5034   23.0285 H   0  0  0  0  0  0  0  0  0  0  0  0
   11.5415   14.5747   19.9127 H   0  0  0  0  0  0  0  0  0  0  0  0
   12.9297   13.6729   20.4945 H   0  0  0  0  0  0  0  0  0  0  0  0
   12.9792   15.4497   20.4846 H   0  0  0  0  0  0  0  0  0  0  0  0
   10.0258   15.7862   21.5144 H   0  0  0  0  0  0  0  0  0  0  0  0
   10.3697   15.7964   23.2577 H   0  0  0  0  0  0  0  0  0  0  0  0
   11.3720   16.7320   22.1253 H   0  0  0  0  0  0  0  0  0  0  0  0
    8.4820    8.4990   24.5570 H   0  0  0  0  0  0  0  0  0  0  0  0
    3.9902    9.7219   27.5394 H   0  0  0  0  0  0  0  0  0  0  0  0
  1  2  1  0  0  0  0
  1  4  2  0  0  0  0
  2  5  2  0  0  0  0
  3  4  1  0  0  0  0
  3  6  2  0  0  0  0
  4  8  1  0  0  0  0
  5  6  1  0  0  0  0
  5 17  1  0  0  0  0
  6 16  1  0  0  0  0
  7 10  1  0  0  0  0
  7 16  1  0  0  0  0
  7 18  2  0  0  0  0
  8 19  2  0  0  0  0
  8 21  1  0  0  0  0
  9 17  1  0  0  0  0
  9 20  2  0  0  0  0
  9 22  1  0  0  0  0
 10 11  1  0  0  0  0
 10 17  1  0  0  0  0
 12 15  1  0  0  0  0
 13 15  1  0  0  0  0
 14 15  1  0  0  0  0
 15 22  1  0  0  0  0
  1 23  1  0  0  0  0
  2 24  1  0  0  0  0
  3 25  1  0  0  0  0
 10 26  1  0  0  0  0
 11 27  1  0  0  0  0
 11 28  1  0  0  0  0
 11 29  1  0  0  0  0
 12 30  1  0  0  0  0
 12 31  1  0  0  0  0
 12 32  1  0  0  0  0
 13 33  1  0  0  0  0
 13 34  1  0  0  0  0
 13 35  1  0  0  0  0
 14 36  1  0  0  0  0
 14 37  1  0  0  0  0
 14 38  1  0  0  0  0
 16 39  1  0  0  0  0
 21 40  1  0  0  0  0
M  END
> <id>
EN300-28229454

> <smiles>
CC1N(C(=O)OC(C)(C)C)C=2C=CC(=CC2NC1=O)C(=O)O

> <IUPAC Name>
1-[(tert-butoxy)carbonyl]-2-methyl-3-oxo-1,2,3,4-tetrahydroquinoxaline-6-carboxylic acid

> <URL>
https://www.enaminestore.com/catalog/EN300-28229454

> <ROCS_ShapeQuery>
A71EV2A-x0451_0A_A71EV2A-x0310_0A_A71EV2A-x0416_0A_peptide

> <ROCS_TanimotoCombo>
0.536 

> <ROCS_ShapeTanimoto>
0.374 

> <ROCS_ColorTanimoto>
0.162 

> <ROCS_RefTversky>
0.323 

> <ROCS_RefColorTversky>
0.186 

> <ROCS_RefTverskyCombo>
0.509 

> <ROCS_FitTversky>
1.713 

> <ROCS_FitColorTversky>
0.559 

> <ROCS_FitTverskyCombo>
2.272 

> <ROCS_ColorScore>
-5.678

> <ROCS_Overlap>
2245.503

> <ROCS_Rank>
59                  

$$$$
untitled-dbase-118877_44
  -OEChem-11132313473D

 38 39  0     1  0  0  0  0  0999 V2000
    9.2170   10.0534   23.3140 C   0  0  0  0  0  0  0  0  0  0  0  0
    9.3507   11.4543   23.4225 C   0  0  0  0  0  0  0  0  0  0  0  0
    8.3757   11.8204   24.3179 C   0  0  0  0  0  0  0  0  0  0  0  0
   10.7996   13.4967   23.2219 C   0  0  0  0  0  0  0  0  0  0  0  0
    6.6557   10.5792   25.6288 C   0  0  0  0  0  0  0  0  0  0  0  0
    6.8112   13.0963   25.6882 C   0  0  0  0  0  0  0  0  0  0  0  0
    6.6331   11.8208   26.5320 C   0  0  1  0  0  0  0  0  0  0  0  0
    5.3436   11.8765   27.3457 C   0  0  0  0  0  0  0  0  0  0  0  0
   11.3111   16.2908   22.8899 C   0  0  0  0  0  0  0  0  0  0  0  0
   12.3808   15.6477   20.7101 C   0  0  0  0  0  0  0  0  0  0  0  0
    9.9378   15.2005   21.0844 C   0  0  0  0  0  0  0  0  0  0  0  0
   11.3149   15.2832   21.7412 C   0  0  0  0  0  0  0  0  0  0  0  0
    8.2383    9.5627   24.0823 N   0  0  0  0  0  0  0  0  0  0  0  0
    7.7541   10.6607   24.6863 N   0  0  0  0  0  0  0  0  0  0  0  0
    7.9930   13.0030   24.8415 N   0  0  0  0  0  0  0  0  0  0  0  0
   10.2423   12.2818   22.7846 N   0  0  0  0  0  0  0  0  0  0  0  0
   10.5806   14.0554   24.2898 O   0  0  0  0  0  0  0  0  0  0  0  0
   11.6473   13.9932   22.2677 O   0  0  0  0  0  0  0  0  0  0  0  0
    9.7917    9.3681   22.7070 H   0  0  0  0  0  0  0  0  0  0  0  0
    6.7822    9.6674   26.2225 H   0  0  0  0  0  0  0  0  0  0  0  0
    5.7396   10.4941   25.0333 H   0  0  0  0  0  0  0  0  0  0  0  0
    5.9325   13.2609   25.0526 H   0  0  0  0  0  0  0  0  0  0  0  0
    6.9072   13.9701   26.3423 H   0  0  0  0  0  0  0  0  0  0  0  0
    7.4755   11.7578   27.2348 H   0  0  0  0  0  0  0  0  0  0  0  0
    4.4858   11.9397   26.6773 H   0  0  0  0  0  0  0  0  0  0  0  0
    5.3528   12.7507   27.9955 H   0  0  0  0  0  0  0  0  0  0  0  0
    5.2523   10.9797   27.9574 H   0  0  0  0  0  0  0  0  0  0  0  0
   10.5474   16.0326   23.6322 H   0  0  0  0  0  0  0  0  0  0  0  0
   12.2832   16.3342   23.3917 H   0  0  0  0  0  0  0  0  0  0  0  0
   11.0633   17.2953   22.5280 H   0  0  0  0  0  0  0  0  0  0  0  0
   12.3871   14.9274   19.8841 H   0  0  0  0  0  0  0  0  0  0  0  0
   13.3818   15.6156   21.1553 H   0  0  0  0  0  0  0  0  0  0  0  0
   12.2173   16.6481   20.2964 H   0  0  0  0  0  0  0  0  0  0  0  0
    9.9403   14.4777   20.2604 H   0  0  0  0  0  0  0  0  0  0  0  0
    9.1659   14.9039   21.8018 H   0  0  0  0  0  0  0  0  0  0  0  0
    9.6556   16.1656   20.6482 H   0  0  0  0  0  0  0  0  0  0  0  0
    8.4456   13.8729   24.5758 H   0  0  0  0  0  0  0  0  0  0  0  0
   10.5480   11.9657   21.8473 H   0  0  0  0  0  0  0  0  0  0  0  0
  1  2  1  0  0  0  0
  1 13  2  0  0  0  0
  2  3  2  0  0  0  0
  2 16  1  0  0  0  0
  3 14  1  0  0  0  0
  3 15  1  0  0  0  0
  4 16  1  0  0  0  0
  4 17  2  0  0  0  0
  4 18  1  0  0  0  0
  5  7  1  0  0  0  0
  5 14  1  0  0  0  0
  6  7  1  0  0  0  0
  6 15  1  0  0  0  0
  7  8  1  0  0  0  0
  9 12  1  0  0  0  0
 10 12  1  0  0  0  0
 11 12  1  0  0  0  0
 12 18  1  0  0  0  0
 13 14  1  0  0  0  0
  1 19  1  0  0  0  0
  5 20  1  0  0  0  0
  5 21  1  0  0  0  0
  6 22  1  0  0  0  0
  6 23  1  0  0  0  0
  7 24  1  0  0  0  0
  8 25  1  0  0  0  0
  8 26  1  0  0  0  0
  8 27  1  0  0  0  0
  9 28  1  0  0  0  0
  9 29  1  0  0  0  0
  9 30  1  0  0  0  0
 10 31  1  0  0  0  0
 10 32  1  0  0  0  0
 10 33  1  0  0  0  0
 11 34  1  0  0  0  0
 11 35  1  0  0  0  0
 11 36  1  0  0  0  0
 15 37  1  0  0  0  0
 16 38  1  0  0  0  0
M  END
> <id>
EN300-7546653

> <smiles>
CC1CNC2=C(NC(=O)OC(C)(C)C)C=NN2C1

> <MDLNUMBER>
MFCD32663394

> <IUPAC Name>
tert-butyl N-{6-methyl-4H,5H,6H,7H-pyrazolo[1,5-a]pyrimidin-3-yl}carbamate

> <CAS>
2413899-02-0

> <Purity>
95

> <URL>
https://www.enaminestore.com/catalog/EN300-7546653

> <ROCS_ShapeQuery>
A71EV2A-x0451_0A_A71EV2A-x0310_0A_A71EV2A-x0416_0A_peptide

> <ROCS_TanimotoCombo>
0.535 

> <ROCS_ShapeTanimoto>
0.343 

> <ROCS_ColorTanimoto>
0.192 

> <ROCS_RefTversky>
0.297 

> <ROCS_RefColorTversky>
0.205 

> <ROCS_RefTverskyCombo>
0.502 

> <ROCS_FitTversky>
1.821 

> <ROCS_FitColorTversky>
0.755 

> <ROCS_FitTverskyCombo>
2.577 

> <ROCS_ColorScore>
-6.238

> <ROCS_Overlap>
2060.980

> <ROCS_Rank>
60                  

$$$$
untitled-dbase-105916_457
  -OEChem-11132313473D

 41 42  0     0  0  0  0  0  0999 V2000
    6.3923   10.8802   26.5115 C   0  0  0  0  0  0  0  0  0  0  0  0
    7.3467   10.0378   25.9409 C   0  0  0  0  0  0  0  0  0  0  0  0
    6.8800   12.5322   24.8368 C   0  0  0  0  0  0  0  0  0  0  0  0
    6.1544   12.1277   25.9545 C   0  0  0  0  0  0  0  0  0  0  0  0
    7.8568   11.6973   24.2581 C   0  0  0  0  0  0  0  0  0  0  0  0
    8.0879   10.4148   24.8016 C   0  0  0  0  0  0  0  0  0  0  0  0
    5.1492   13.0057   26.5310 C   0  0  0  0  0  0  0  0  0  0  0  0
   10.8726   13.1210   23.5841 C   0  0  0  0  0  0  0  0  0  0  0  0
    8.6163   12.2321   23.0655 C   0  0  0  0  0  0  0  0  0  0  0  0
    9.6211    9.5710   22.9924 C   0  0  0  0  0  0  0  0  0  0  0  0
   10.6150   10.7217   22.8967 C   0  0  0  0  0  0  0  0  0  0  0  0
   12.9192   15.0493   24.1140 C   0  0  0  0  0  0  0  0  0  0  0  0
   14.1787   13.9561   22.2357 C   0  0  0  0  0  0  0  0  0  0  0  0
   11.9704   15.0635   21.7829 C   0  0  0  0  0  0  0  0  0  0  0  0
   12.7969   14.2785   22.8004 C   0  0  0  0  0  0  0  0  0  0  0  0
    8.9955    9.4944   24.2961 N   0  0  0  0  0  0  0  0  0  0  0  0
   10.0607   12.0432   23.2037 N   0  0  0  0  0  0  0  0  0  0  0  0
    5.1802   14.2409   26.5109 O   0  0  0  0  0  0  0  0  0  0  0  0
   10.5038   14.0491   24.3016 O   0  0  0  0  0  0  0  0  0  0  0  0
    4.1306   12.3178   27.1165 O   0  0  0  0  0  0  0  0  0  0  0  0
   12.1367   13.0347   23.0617 O   0  0  0  0  0  0  0  0  0  0  0  0
    5.8468   10.5498   27.3917 H   0  0  0  0  0  0  0  0  0  0  0  0
    7.5208    9.0678   26.4047 H   0  0  0  0  0  0  0  0  0  0  0  0
    6.6793   13.5094   24.4000 H   0  0  0  0  0  0  0  0  0  0  0  0
    8.2877   11.7189   22.1541 H   0  0  0  0  0  0  0  0  0  0  0  0
    8.3954   13.2936   22.9088 H   0  0  0  0  0  0  0  0  0  0  0  0
    8.8351    9.7364   22.2457 H   0  0  0  0  0  0  0  0  0  0  0  0
   10.0800    8.6114   22.7276 H   0  0  0  0  0  0  0  0  0  0  0  0
   11.4372   10.5535   23.6020 H   0  0  0  0  0  0  0  0  0  0  0  0
   11.0561   10.7425   21.8934 H   0  0  0  0  0  0  0  0  0  0  0  0
   11.9294   15.2826   24.5225 H   0  0  0  0  0  0  0  0  0  0  0  0
   13.4800   14.4820   24.8639 H   0  0  0  0  0  0  0  0  0  0  0  0
   13.4235   16.0099   23.9582 H   0  0  0  0  0  0  0  0  0  0  0  0
   14.0957   13.4030   21.2932 H   0  0  0  0  0  0  0  0  0  0  0  0
   14.7407   13.3129   22.9226 H   0  0  0  0  0  0  0  0  0  0  0  0
   14.7630   14.8641   22.0546 H   0  0  0  0  0  0  0  0  0  0  0  0
   11.8825   14.5108   20.8405 H   0  0  0  0  0  0  0  0  0  0  0  0
   10.9626   15.2719   22.1566 H   0  0  0  0  0  0  0  0  0  0  0  0
   12.4551   16.0158   21.5387 H   0  0  0  0  0  0  0  0  0  0  0  0
    9.3624    8.8022   24.9407 H   0  0  0  0  0  0  0  0  0  0  0  0
    3.4463   12.9016   27.5079 H   0  0  0  0  0  0  0  0  0  0  0  0
  1  2  1  0  0  0  0
  1  4  2  0  0  0  0
  2  6  2  0  0  0  0
  3  4  1  0  0  0  0
  3  5  2  0  0  0  0
  4  7  1  0  0  0  0
  5  6  1  0  0  0  0
  5  9  1  0  0  0  0
  6 16  1  0  0  0  0
  7 18  2  0  0  0  0
  7 20  1  0  0  0  0
  8 17  1  0  0  0  0
  8 19  2  0  0  0  0
  8 21  1  0  0  0  0
  9 17  1  0  0  0  0
 10 11  1  0  0  0  0
 10 16  1  0  0  0  0
 11 17  1  0  0  0  0
 12 15  1  0  0  0  0
 13 15  1  0  0  0  0
 14 15  1  0  0  0  0
 15 21  1  0  0  0  0
  1 22  1  0  0  0  0
  2 23  1  0  0  0  0
  3 24  1  0  0  0  0
  9 25  1  0  0  0  0
  9 26  1  0  0  0  0
 10 27  1  0  0  0  0
 10 28  1  0  0  0  0
 11 29  1  0  0  0  0
 11 30  1  0  0  0  0
 12 31  1  0  0  0  0
 12 32  1  0  0  0  0
 12 33  1  0  0  0  0
 13 34  1  0  0  0  0
 13 35  1  0  0  0  0
 13 36  1  0  0  0  0
 14 37  1  0  0  0  0
 14 38  1  0  0  0  0
 14 39  1  0  0  0  0
 16 40  1  0  0  0  0
 20 41  1  0  0  0  0
M  END
> <id>
EN300-7493224

> <smiles>
CC(C)(C)OC(=O)N1CCNC=2C=CC(=CC2C1)C(=O)O

> <MDLNUMBER>
MFCD32667718

> <IUPAC Name>
4-[(tert-butoxy)carbonyl]-2,3,4,5-tetrahydro-1H-1,4-benzodiazepine-7-carboxylic acid

> <CAS>
2416243-43-9

> <Purity>
95

> <URL>
https://www.enaminestore.com/catalog/EN300-7493224

> <ROCS_ShapeQuery>
A71EV2A-x0451_0A_A71EV2A-x0310_0A_A71EV2A-x0416_0A_peptide

> <ROCS_TanimotoCombo>
0.535 

> <ROCS_ShapeTanimoto>
0.336 

> <ROCS_ColorTanimoto>
0.198 

> <ROCS_RefTversky>
0.297 

> <ROCS_RefColorTversky>
0.215 

> <ROCS_RefTverskyCombo>
0.512 

> <ROCS_FitTversky>
1.644 

> <ROCS_FitColorTversky>
0.714 

> <ROCS_FitTverskyCombo>
2.359 

> <ROCS_ColorScore>
-6.571

> <ROCS_Overlap>
2063.344

> <ROCS_Rank>
61                  

$$$$
untitled-dbase-91596_643
  -OEChem-11132313473D

 46 48  0     1  0  0  0  0  0999 V2000
    6.7823   12.3068   27.6805 C   0  0  0  0  0  0  0  0  0  0  0  0
    5.9181   12.7983   28.6526 C   0  0  0  0  0  0  0  0  0  0  0  0
    4.8877   11.6161   26.4196 C   0  0  0  0  0  0  0  0  0  0  0  0
    6.2653   11.7030   26.5397 C   0  0  0  0  0  0  0  0  0  0  0  0
    4.5560   12.6625   28.4378 C   0  0  0  0  0  0  0  0  0  0  0  0
    9.8629   13.3481   23.5712 C   0  0  0  0  0  0  0  0  0  0  0  0
    8.3949   10.1722   22.7639 C   0  0  0  0  0  0  0  0  0  0  0  0
    9.4378    9.7721   23.8253 C   0  0  0  0  0  0  0  0  0  0  0  0
    6.9519   11.8408   24.0617 C   0  0  0  0  0  0  0  0  0  0  0  0
    8.7102   11.1832   25.8353 C   0  0  0  0  0  0  0  0  0  0  0  0
    8.0980   11.6483   23.0449 C   0  0  1  0  0  0  0  0  0  0  0  0
    9.6768   11.0474   24.6397 C   0  0  2  0  0  0  0  0  0  0  0  0
    7.1919   11.1510   25.4480 C   0  0  0  0  0  0  0  0  0  0  0  0
   11.9435   14.3937   22.3702 C   0  0  0  0  0  0  0  0  0  0  0  0
   10.5313   14.7365   20.3215 C   0  0  0  0  0  0  0  0  0  0  0  0
   10.2208   16.2280   22.3183 C   0  0  0  0  0  0  0  0  0  0  0  0
   10.5724   14.8180   21.8459 C   0  0  0  0  0  0  0  0  0  0  0  0
    4.0166   12.0819   27.3425 N   0  0  0  0  0  0  0  0  0  0  0  0
    9.3126   12.0879   23.6966 N   0  0  0  0  0  0  0  0  0  0  0  0
   10.5228   13.9038   24.4464 O   0  0  0  0  0  0  0  0  0  0  0  0
    6.8127    9.7718   25.2983 O   0  0  0  0  0  0  0  0  0  0  0  0
    9.5893   13.9088   22.3531 O   0  0  0  0  0  0  0  0  0  0  0  0
    3.3577   13.3260   29.7532 Br  0  0  0  0  0  0  0  0  0  0  0  0
    7.8561   12.3989   27.8201 H   0  0  0  0  0  0  0  0  0  0  0  0
    6.3172   13.2700   29.5442 H   0  0  0  0  0  0  0  0  0  0  0  0
    4.4271   11.1562   25.5506 H   0  0  0  0  0  0  0  0  0  0  0  0
    8.8360   10.0585   21.7664 H   0  0  0  0  0  0  0  0  0  0  0  0
    7.5023    9.5405   22.8033 H   0  0  0  0  0  0  0  0  0  0  0  0
    9.1036    8.9286   24.4368 H   0  0  0  0  0  0  0  0  0  0  0  0
   10.3623    9.4670   23.3206 H   0  0  0  0  0  0  0  0  0  0  0  0
    6.8190   12.9215   24.2116 H   0  0  0  0  0  0  0  0  0  0  0  0
    6.0187   11.4683   23.6197 H   0  0  0  0  0  0  0  0  0  0  0  0
    8.9216   10.3819   26.5554 H   0  0  0  0  0  0  0  0  0  0  0  0
    8.9379   12.1311   26.3430 H   0  0  0  0  0  0  0  0  0  0  0  0
    7.8977   12.2169   22.1314 H   0  0  0  0  0  0  0  0  0  0  0  0
   10.7146   11.1357   24.9744 H   0  0  0  0  0  0  0  0  0  0  0  0
   11.9771   14.4508   23.4641 H   0  0  0  0  0  0  0  0  0  0  0  0
   12.1924   13.3714   22.0676 H   0  0  0  0  0  0  0  0  0  0  0  0
   12.7279   15.0646   22.0015 H   0  0  0  0  0  0  0  0  0  0  0  0
    9.5494   15.0401   19.9409 H   0  0  0  0  0  0  0  0  0  0  0  0
   10.6894   13.7067   19.9812 H   0  0  0  0  0  0  0  0  0  0  0  0
   11.2934   15.3743   19.8621 H   0  0  0  0  0  0  0  0  0  0  0  0
    9.2374   16.5325   21.9423 H   0  0  0  0  0  0  0  0  0  0  0  0
   10.2093   16.2961   23.4109 H   0  0  0  0  0  0  0  0  0  0  0  0
   10.9398   16.9592   21.9314 H   0  0  0  0  0  0  0  0  0  0  0  0
    6.9544    9.3536   26.1610 H   0  0  0  0  0  0  0  0  0  0  0  0
  1  2  1  0  0  0  0
  1  4  2  0  0  0  0
  2  5  2  0  0  0  0
  3  4  1  0  0  0  0
  3 18  2  0  0  0  0
  4 13  1  0  0  0  0
  5 18  1  0  0  0  0
  5 23  1  0  0  0  0
  6 19  1  0  0  0  0
  6 20  2  0  0  0  0
  6 22  1  0  0  0  0
  7  8  1  0  0  0  0
  7 11  1  0  0  0  0
  8 12  1  0  0  0  0
  9 11  1  0  0  0  0
  9 13  1  0  0  0  0
 10 12  1  0  0  0  0
 10 13  1  0  0  0  0
 11 19  1  0  0  0  0
 12 19  1  0  0  0  0
 13 21  1  0  0  0  0
 14 17  1  0  0  0  0
 15 17  1  0  0  0  0
 16 17  1  0  0  0  0
 17 22  1  0  0  0  0
  1 24  1  0  0  0  0
  2 25  1  0  0  0  0
  3 26  1  0  0  0  0
  7 27  1  0  0  0  0
  7 28  1  0  0  0  0
  8 29  1  0  0  0  0
  8 30  1  0  0  0  0
  9 31  1  0  0  0  0
  9 32  1  0  0  0  0
 10 33  1  0  0  0  0
 10 34  1  0  0  0  0
 11 35  1  0  0  0  0
 12 36  1  0  0  0  0
 14 37  1  0  0  0  0
 14 38  1  0  0  0  0
 14 39  1  0  0  0  0
 15 40  1  0  0  0  0
 15 41  1  0  0  0  0
 15 42  1  0  0  0  0
 16 43  1  0  0  0  0
 16 44  1  0  0  0  0
 16 45  1  0  0  0  0
 21 46  1  0  0  0  0
M  END
> <id>
EN300-7428212

> <smiles>
CC(C)(C)OC(=O)N1C2CCC1CC(O)(C2)C=3C=CC(Br)=NC3

> <IUPAC Name>
tert-butyl 3-(6-bromopyridin-3-yl)-3-hydroxy-8-azabicyclo[3.2.1]octane-8-carboxylate

> <CAS>
2309449-57-6

> <URL>
https://www.enaminestore.com/catalog/EN300-7428212

> <ROCS_ShapeQuery>
A71EV2A-x0451_0A_A71EV2A-x0310_0A_A71EV2A-x0416_0A_peptide

> <ROCS_TanimotoCombo>
0.534 

> <ROCS_ShapeTanimoto>
0.315 

> <ROCS_ColorTanimoto>
0.220 

> <ROCS_RefTversky>
0.286 

> <ROCS_RefColorTversky>
0.260 

> <ROCS_RefTverskyCombo>
0.546 

> <ROCS_FitTversky>
1.480 

> <ROCS_FitColorTversky>
0.583 

> <ROCS_FitTverskyCombo>
2.063 

> <ROCS_ColorScore>
-8.012

> <ROCS_Overlap>
1984.974

> <ROCS_Rank>
62                  

$$$$
untitled-dbase-154323_26
  -OEChem-11132313473D

 30 30  0     0  0  0  0  0  0999 V2000
    9.2376   11.5120   23.5413 C   0  0  0  0  0  0  0  0  0  0  0  0
    9.1423   10.1394   23.4349 C   0  0  0  0  0  0  0  0  0  0  0  0
    8.3022   12.1138   24.3582 C   0  0  0  0  0  0  0  0  0  0  0  0
    7.3552   10.1041   24.8391 C   0  0  0  0  0  0  0  0  0  0  0  0
   10.8301   13.4307   23.2357 C   0  0  0  0  0  0  0  0  0  0  0  0
   11.5471   16.1492   22.7111 C   0  0  0  0  0  0  0  0  0  0  0  0
   12.6401   15.2656   20.6293 C   0  0  0  0  0  0  0  0  0  0  0  0
   10.1608   15.0149   20.9429 C   0  0  0  0  0  0  0  0  0  0  0  0
   10.0984    9.3740   22.5791 C   0  0  0  0  0  0  0  0  0  0  0  0
   11.5180   15.0561   21.6438 C   0  0  0  0  0  0  0  0  0  0  0  0
    8.2101    9.4011   24.0721 N   0  0  0  0  0  0  0  0  0  0  0  0
    7.3433   11.4379   25.0245 N   0  0  0  0  0  0  0  0  0  0  0  0
   10.2314   12.2456   22.8543 N   0  0  0  0  0  0  0  0  0  0  0  0
   10.6183   14.0856   24.2490 O   0  0  0  0  0  0  0  0  0  0  0  0
   11.7408   13.7959   22.2777 O   0  0  0  0  0  0  0  0  0  0  0  0
   11.0217   10.1618   21.9548 F   0  0  0  0  0  0  0  0  0  0  0  0
   10.8256    8.4482   23.2697 F   0  0  0  0  0  0  0  0  0  0  0  0
    9.4713    8.6827   21.5846 F   0  0  0  0  0  0  0  0  0  0  0  0
    8.2554   13.8138   24.6201 Cl  0  0  0  0  0  0  0  0  0  0  0  0
    6.1571    9.2085   25.6649 Cl  0  0  0  0  0  0  0  0  0  0  0  0
   10.7431   16.0024   23.4412 H   0  0  0  0  0  0  0  0  0  0  0  0
   12.5028   16.1663   23.2450 H   0  0  0  0  0  0  0  0  0  0  0  0
   11.3825   17.1364   22.2644 H   0  0  0  0  0  0  0  0  0  0  0  0
   12.6230   14.4835   19.8616 H   0  0  0  0  0  0  0  0  0  0  0  0
   13.6212   15.2012   21.1136 H   0  0  0  0  0  0  0  0  0  0  0  0
   12.5609   16.2389   20.1345 H   0  0  0  0  0  0  0  0  0  0  0  0
   10.1397   14.2309   20.1773 H   0  0  0  0  0  0  0  0  0  0  0  0
    9.3468   14.8285   21.6510 H   0  0  0  0  0  0  0  0  0  0  0  0
    9.9615   15.9594   20.4239 H   0  0  0  0  0  0  0  0  0  0  0  0
   10.5444   11.8525   21.9700 H   0  0  0  0  0  0  0  0  0  0  0  0
  1  2  1  0  0  0  0
  1  3  2  0  0  0  0
  1 13  1  0  0  0  0
  2  9  1  0  0  0  0
  2 11  2  0  0  0  0
  3 12  1  0  0  0  0
  3 19  1  0  0  0  0
  4 11  1  0  0  0  0
  4 12  2  0  0  0  0
  4 20  1  0  0  0  0
  5 13  1  0  0  0  0
  5 14  2  0  0  0  0
  5 15  1  0  0  0  0
  6 10  1  0  0  0  0
  7 10  1  0  0  0  0
  8 10  1  0  0  0  0
  9 16  1  0  0  0  0
  9 17  1  0  0  0  0
  9 18  1  0  0  0  0
 10 15  1  0  0  0  0
  6 21  1  0  0  0  0
  6 22  1  0  0  0  0
  6 23  1  0  0  0  0
  7 24  1  0  0  0  0
  7 25  1  0  0  0  0
  7 26  1  0  0  0  0
  8 27  1  0  0  0  0
  8 28  1  0  0  0  0
  8 29  1  0  0  0  0
 13 30  1  0  0  0  0
M  END
> <id>
EN300-28295837

> <smiles>
CC(C)(C)OC(=O)NC=1C(Cl)=NC(Cl)=NC1C(F)(F)F

> <IUPAC Name>
tert-butyl N-[2,4-dichloro-6-(trifluoromethyl)pyrimidin-5-yl]carbamate

> <CAS>
2680719-43-9

> <URL>
https://www.enaminestore.com/catalog/EN300-28295837

> <ROCS_ShapeQuery>
A71EV2A-x0451_0A_A71EV2A-x0310_0A_A71EV2A-x0416_0A_peptide

> <ROCS_TanimotoCombo>
0.534 

> <ROCS_ShapeTanimoto>
0.348 

> <ROCS_ColorTanimoto>
0.186 

> <ROCS_RefTversky>
0.303 

> <ROCS_RefColorTversky>
0.195 

> <ROCS_RefTverskyCombo>
0.498 

> <ROCS_FitTversky>
1.742 

> <ROCS_FitColorTversky>
0.813 

> <ROCS_FitTverskyCombo>
2.554 

> <ROCS_ColorScore>
-5.924

> <ROCS_Overlap>
2103.677

> <ROCS_Rank>
63                  

$$$$
untitled-dbase-83844_25
  -OEChem-11132313473D

 38 41  0     1  0  0  0  0  0999 V2000
    5.6388   11.9784   26.3292 C   0  0  0  0  0  0  0  0  0  0  0  0
    5.3836   10.6254   26.1642 C   0  0  0  0  0  0  0  0  0  0  0  0
    6.7609   12.5425   25.7253 C   0  0  0  0  0  0  0  0  0  0  0  0
    6.2542    9.8523   25.3983 C   0  0  0  0  0  0  0  0  0  0  0  0
   10.8319   14.4073   20.8204 C   0  0  0  0  0  0  0  0  0  0  0  0
   12.7198   14.9555   22.1592 C   0  0  0  0  0  0  0  0  0  0  0  0
   11.4960   14.3170   22.0387 C   0  0  0  0  0  0  0  0  0  0  0  0
    7.6334   11.7729   24.9584 C   0  0  0  0  0  0  0  0  0  0  0  0
    7.3779   10.4121   24.7936 C   0  0  0  0  0  0  0  0  0  0  0  0
   11.4039   15.1232   19.7746 C   0  0  0  0  0  0  0  0  0  0  0  0
    9.5431   11.5682   23.6345 C   0  0  0  0  0  0  0  0  0  0  0  0
    9.3076   10.2040   23.4820 C   0  0  0  0  0  0  0  0  0  0  0  0
   12.6317   15.7257   19.9965 C   0  0  0  0  0  0  0  0  0  0  0  0
   10.9172   13.5657   23.1649 C   0  0  0  0  0  0  0  0  0  0  0  0
   11.4635   11.3488   22.0824 C   0  0  0  0  0  0  0  0  0  0  0  0
   11.5167    9.8990   22.5258 C   0  0  0  0  0  0  0  0  0  0  0  0
    9.9350    7.9679   22.6881 C   0  0  0  0  0  0  0  0  0  0  0  0
   13.3068   15.6600   21.1659 N   0  0  0  0  0  0  0  0  0  0  0  0
    8.7055   12.3300   24.3795 N   0  0  0  0  0  0  0  0  0  0  0  0
    8.2090    9.6548   24.0627 N   0  0  0  0  0  0  0  0  0  0  0  0
   10.6641   12.1933   22.9808 N   0  0  0  0  0  0  0  0  0  0  0  0
   10.1733    9.3999   22.7442 N   0  0  1  0  0  0  0  0  0  0  0  0
   10.7040   14.2257   24.1812 O   0  0  0  0  0  0  0  0  0  0  0  0
   10.5659   15.2259   18.2742 Cl  0  0  0  0  0  0  0  0  0  0  0  0
   13.4583   16.6434   18.7957 Cl  0  0  0  0  0  0  0  0  0  0  0  0
    4.9702   12.5938   26.9231 H   0  0  0  0  0  0  0  0  0  0  0  0
    4.5133   10.1713   26.6277 H   0  0  0  0  0  0  0  0  0  0  0  0
    6.9509   13.6054   25.8600 H   0  0  0  0  0  0  0  0  0  0  0  0
    6.0449    8.7914   25.2764 H   0  0  0  0  0  0  0  0  0  0  0  0
    9.8689   13.9182   20.6925 H   0  0  0  0  0  0  0  0  0  0  0  0
   13.2859   14.9213   23.0852 H   0  0  0  0  0  0  0  0  0  0  0  0
   12.4872   11.7316   22.0173 H   0  0  0  0  0  0  0  0  0  0  0  0
   11.0222   11.4342   21.0811 H   0  0  0  0  0  0  0  0  0  0  0  0
   12.0258    9.3093   21.7545 H   0  0  0  0  0  0  0  0  0  0  0  0
   12.1054    9.8020   23.4470 H   0  0  0  0  0  0  0  0  0  0  0  0
   10.7078    7.4911   22.0673 H   0  0  0  0  0  0  0  0  0  0  0  0
    9.9724    7.5501   23.7050 H   0  0  0  0  0  0  0  0  0  0  0  0
    8.9441    7.7781   22.2499 H   0  0  0  0  0  0  0  0  0  0  0  0
  1  2  2  0  0  0  0
  1  3  1  0  0  0  0
  2  4  1  0  0  0  0
  3  8  2  0  0  0  0
  4  9  2  0  0  0  0
  5  7  1  0  0  0  0
  5 10  2  0  0  0  0
  6  7  2  0  0  0  0
  6 18  1  0  0  0  0
  7 14  1  0  0  0  0
  8  9  1  0  0  0  0
  8 19  1  0  0  0  0
  9 20  1  0  0  0  0
 10 13  1  0  0  0  0
 10 24  1  0  0  0  0
 11 12  1  0  0  0  0
 11 19  2  0  0  0  0
 11 21  1  0  0  0  0
 12 20  2  0  0  0  0
 12 22  1  0  0  0  0
 13 18  2  0  0  0  0
 13 25  1  0  0  0  0
 14 21  1  0  0  0  0
 14 23  2  0  0  0  0
 15 16  1  0  0  0  0
 15 21  1  0  0  0  0
 16 22  1  0  0  0  0
 17 22  1  0  0  0  0
  1 26  1  0  0  0  0
  2 27  1  0  0  0  0
  3 28  1  0  0  0  0
  4 29  1  0  0  0  0
  5 30  1  0  0  0  0
  6 31  1  0  0  0  0
 15 32  1  0  0  0  0
 15 33  1  0  0  0  0
 16 34  1  0  0  0  0
 16 35  1  0  0  0  0
 17 36  1  0  0  0  0
 17 37  1  0  0  0  0
 17 38  1  0  0  0  0
M  END
> <id>
EN300-18488813

> <smiles>
CN1CCN(C(=O)C=2C=NC(Cl)=C(Cl)C2)C=3N=C4C=CC=CC4=NC13

> <MDLNUMBER>
MFCD09530718

> <IUPAC Name>
2,3-dichloro-5-{4-methyl-1H,2H,3H,4H-pyrazino[2,3-b]quinoxaline-1-carbonyl}pyridine

> <CAS>
938749-26-9

> <URL>
https://www.enaminestore.com/catalog/EN300-18488813

> <ROCS_ShapeQuery>
A71EV2A-x0451_0A_A71EV2A-x0310_0A_A71EV2A-x0416_0A_peptide

> <ROCS_TanimotoCombo>
0.534 

> <ROCS_ShapeTanimoto>
0.401 

> <ROCS_ColorTanimoto>
0.133 

> <ROCS_RefTversky>
0.347 

> <ROCS_RefColorTversky>
0.153 

> <ROCS_RefTverskyCombo>
0.500 

> <ROCS_FitTversky>
1.641 

> <ROCS_FitColorTversky>
0.506 

> <ROCS_FitTverskyCombo>
2.147 

> <ROCS_ColorScore>
-4.655

> <ROCS_Overlap>
2413.184

> <ROCS_Rank>
64                  

$$$$
untitled-dbase-66732_48
  -OEChem-11132313473D

 37 39  0     1  0  0  0  0  0999 V2000
   11.2070   13.3927   23.3705 C   0  0  0  0  0  0  0  0  0  0  0  0
    7.0511   10.4666   26.1092 C   0  0  0  0  0  0  0  0  0  0  0  0
    7.0591   12.0028   26.0590 C   0  0  0  0  0  0  0  0  0  0  0  0
    9.2844   10.3452   22.8666 C   0  0  0  0  0  0  0  0  0  0  0  0
    7.4127   10.4188   24.6204 C   0  0  1  0  0  0  0  0  0  0  0  0
    7.4309   11.9498   24.5727 C   0  0  2  0  0  0  0  0  0  0  0  0
    8.9221   10.3916   24.3590 C   0  0  2  0  0  0  0  0  0  0  0  0
    8.9442   11.9258   24.3206 C   0  0  1  0  0  0  0  0  0  0  0  0
    9.2996   11.8855   22.8268 C   0  0  1  0  0  0  0  0  0  0  0  0
   12.5315   15.9209   23.4344 C   0  0  0  0  0  0  0  0  0  0  0  0
   14.3525   14.7913   22.1239 C   0  0  0  0  0  0  0  0  0  0  0  0
   12.0465   14.9869   21.1481 C   0  0  0  0  0  0  0  0  0  0  0  0
   12.8569   14.8145   22.4319 C   0  0  0  0  0  0  0  0  0  0  0  0
   10.6840   12.3287   22.6825 N   0  0  0  0  0  0  0  0  0  0  0  0
   10.6104   14.0996   24.1761 O   0  0  0  0  0  0  0  0  0  0  0  0
   12.5178   13.5532   23.0193 O   0  0  0  0  0  0  0  0  0  0  0  0
    7.7871   10.0248   26.7884 H   0  0  0  0  0  0  0  0  0  0  0  0
    6.0688   10.0404   26.3389 H   0  0  0  0  0  0  0  0  0  0  0  0
    6.0795   12.4529   26.2525 H   0  0  0  0  0  0  0  0  0  0  0  0
    7.7947   12.4819   26.7129 H   0  0  0  0  0  0  0  0  0  0  0  0
   10.2505    9.8678   22.6675 H   0  0  0  0  0  0  0  0  0  0  0  0
    8.5366    9.8786   22.2167 H   0  0  0  0  0  0  0  0  0  0  0  0
    6.7386    9.8934   23.9430 H   0  0  0  0  0  0  0  0  0  0  0  0
    6.7728   12.4483   23.8602 H   0  0  0  0  0  0  0  0  0  0  0  0
    9.5832    9.8878   25.0650 H   0  0  0  0  0  0  0  0  0  0  0  0
    9.6102   12.4411   25.0145 H   0  0  0  0  0  0  0  0  0  0  0  0
    8.6520   12.3481   22.1591 H   0  0  0  0  0  0  0  0  0  0  0  0
   11.4589   15.9408   23.6581 H   0  0  0  0  0  0  0  0  0  0  0  0
   13.0800   15.7891   24.3727 H   0  0  0  0  0  0  0  0  0  0  0  0
   12.7800   16.9062   23.0236 H   0  0  0  0  0  0  0  0  0  0  0  0
   14.5906   13.9990   21.4051 H   0  0  0  0  0  0  0  0  0  0  0  0
   14.9337   14.5734   23.0272 H   0  0  0  0  0  0  0  0  0  0  0  0
   14.6953   15.7465   21.7132 H   0  0  0  0  0  0  0  0  0  0  0  0
   12.2798   14.1934   20.4289 H   0  0  0  0  0  0  0  0  0  0  0  0
   10.9698   14.9689   21.3453 H   0  0  0  0  0  0  0  0  0  0  0  0
   12.2944   15.9338   20.6550 H   0  0  0  0  0  0  0  0  0  0  0  0
   11.2842   11.8275   22.0459 H   0  0  0  0  0  0  0  0  0  0  0  0
  1 14  1  0  0  0  0
  1 15  2  0  0  0  0
  1 16  1  0  0  0  0
  2  3  1  0  0  0  0
  2  5  1  0  0  0  0
  3  6  1  0  0  0  0
  4  7  1  0  0  0  0
  4  9  1  0  0  0  0
  5  6  1  0  0  0  0
  5  7  1  0  0  0  0
  6  8  1  0  0  0  0
  7  8  1  0  0  0  0
  8  9  1  0  0  0  0
  9 14  1  0  0  0  0
 10 13  1  0  0  0  0
 11 13  1  0  0  0  0
 12 13  1  0  0  0  0
 13 16  1  0  0  0  0
  2 17  1  0  0  0  0
  2 18  1  0  0  0  0
  3 19  1  0  0  0  0
  3 20  1  0  0  0  0
  4 21  1  0  0  0  0
  4 22  1  0  0  0  0
  5 23  1  0  0  0  0
  6 24  1  0  0  0  0
  7 25  1  0  0  0  0
  8 26  1  0  0  0  0
  9 27  1  0  0  0  0
 10 28  1  0  0  0  0
 10 29  1  0  0  0  0
 10 30  1  0  0  0  0
 11 31  1  0  0  0  0
 11 32  1  0  0  0  0
 11 33  1  0  0  0  0
 12 34  1  0  0  0  0
 12 35  1  0  0  0  0
 12 36  1  0  0  0  0
 14 37  1  0  0  0  0
M  END
> <id>
EN300-37083619

> <smiles>
CC(C)(C)OC(=O)NC1CC2C3CCC3C12

> <MDLNUMBER>
MFCD34594447

> <IUPAC Name>
tert-butyl N-{tricyclo[4.2.0.0,2,5]octan-3-yl}carbamate

> <CAS>
2751614-97-6

> <Purity>
95

> <URL>
https://www.enaminestore.com/catalog/EN300-37083619

> <ROCS_ShapeQuery>
A71EV2A-x0451_0A_A71EV2A-x0310_0A_A71EV2A-x0416_0A_peptide

> <ROCS_TanimotoCombo>
0.534 

> <ROCS_ShapeTanimoto>
0.285 

> <ROCS_ColorTanimoto>
0.249 

> <ROCS_RefTversky>
0.255 

> <ROCS_RefColorTversky>
0.298 

> <ROCS_RefTverskyCombo>
0.553 

> <ROCS_FitTversky>
1.700 

> <ROCS_FitColorTversky>
0.601 

> <ROCS_FitTverskyCombo>
2.300 

> <ROCS_ColorScore>
-9.188

> <ROCS_Overlap>
1770.371

> <ROCS_Rank>
65                  

$$$$
untitled-dbase-141632_44
  -OEChem-11132313473D

 33 34  0     0  0  0  0  0  0999 V2000
    6.9599   10.2560   25.4288 C   0  0  0  0  0  0  0  0  0  0  0  0
    6.3464   11.4418   25.8458 C   0  0  0  0  0  0  0  0  0  0  0  0
    7.9698   12.7891   24.6325 C   0  0  0  0  0  0  0  0  0  0  0  0
    8.5970   11.6068   24.2052 C   0  0  0  0  0  0  0  0  0  0  0  0
    8.0835   10.3792   24.6086 C   0  0  0  0  0  0  0  0  0  0  0  0
    6.8411   12.6878   25.4555 C   0  0  0  0  0  0  0  0  0  0  0  0
    9.7104   11.2741   23.4040 C   0  0  0  0  0  0  0  0  0  0  0  0
   10.8624   13.4957   23.1850 C   0  0  0  0  0  0  0  0  0  0  0  0
   10.9937   16.3124   22.7072 C   0  0  0  0  0  0  0  0  0  0  0  0
   12.3389   15.7175   20.6711 C   0  0  0  0  0  0  0  0  0  0  0  0
    9.9622   14.9312   20.8734 C   0  0  0  0  0  0  0  0  0  0  0  0
   11.2474   15.2550   21.6338 C   0  0  0  0  0  0  0  0  0  0  0  0
    9.8984    9.9566   23.2992 N   0  0  0  0  0  0  0  0  0  0  0  0
    8.9008    9.4415   24.0371 N   0  0  0  0  0  0  0  0  0  0  0  0
   10.5334   12.1947   22.7831 N   0  0  0  0  0  0  0  0  0  0  0  0
   10.4689   14.0733   24.1910 O   0  0  0  0  0  0  0  0  0  0  0  0
    6.2186   13.8233   25.8823 O   0  0  0  0  0  0  0  0  0  0  0  0
   11.7129   14.0601   22.2720 O   0  0  0  0  0  0  0  0  0  0  0  0
    6.5768    9.2875   25.7305 H   0  0  0  0  0  0  0  0  0  0  0  0
    5.4686   11.3852   26.4855 H   0  0  0  0  0  0  0  0  0  0  0  0
    8.3492   13.7623   24.3348 H   0  0  0  0  0  0  0  0  0  0  0  0
   10.2108   15.9842   23.4003 H   0  0  0  0  0  0  0  0  0  0  0  0
   11.8997   16.5282   23.2830 H   0  0  0  0  0  0  0  0  0  0  0  0
   10.6377   17.2471   22.2590 H   0  0  0  0  0  0  0  0  0  0  0  0
   12.5242   14.9618   19.8992 H   0  0  0  0  0  0  0  0  0  0  0  0
   13.2894   15.8600   21.1980 H   0  0  0  0  0  0  0  0  0  0  0  0
   12.0713   16.6579   20.1785 H   0  0  0  0  0  0  0  0  0  0  0  0
   10.1439   14.1728   20.1034 H   0  0  0  0  0  0  0  0  0  0  0  0
    9.1790   14.5625   21.5437 H   0  0  0  0  0  0  0  0  0  0  0  0
    9.5846   15.8178   20.3512 H   0  0  0  0  0  0  0  0  0  0  0  0
    8.8313    8.4342   24.1103 H   0  0  0  0  0  0  0  0  0  0  0  0
   10.9654   11.8799   21.9011 H   0  0  0  0  0  0  0  0  0  0  0  0
    6.6733   14.6050   25.5323 H   0  0  0  0  0  0  0  0  0  0  0  0
  1  2  1  0  0  0  0
  1  5  2  0  0  0  0
  2  6  2  0  0  0  0
  3  4  2  0  0  0  0
  3  6  1  0  0  0  0
  4  5  1  0  0  0  0
  4  7  1  0  0  0  0
  5 14  1  0  0  0  0
  6 17  1  0  0  0  0
  7 13  2  0  0  0  0
  7 15  1  0  0  0  0
  8 15  1  0  0  0  0
  8 16  2  0  0  0  0
  8 18  1  0  0  0  0
  9 12  1  0  0  0  0
 10 12  1  0  0  0  0
 11 12  1  0  0  0  0
 12 18  1  0  0  0  0
 13 14  1  0  0  0  0
  1 19  1  0  0  0  0
  2 20  1  0  0  0  0
  3 21  1  0  0  0  0
  9 22  1  0  0  0  0
  9 23  1  0  0  0  0
  9 24  1  0  0  0  0
 10 25  1  0  0  0  0
 10 26  1  0  0  0  0
 10 27  1  0  0  0  0
 11 28  1  0  0  0  0
 11 29  1  0  0  0  0
 11 30  1  0  0  0  0
 14 31  1  0  0  0  0
 15 32  1  0  0  0  0
 17 33  1  0  0  0  0
M  END
> <id>
EN300-26665183

> <smiles>
CC(C)(C)OC(=O)NC1=NNC=2C=CC(O)=CC12

> <IUPAC Name>
tert-butyl N-(5-hydroxy-1H-indazol-3-yl)carbamate

> <CAS>
2413884-92-9

> <URL>
https://www.enaminestore.com/catalog/EN300-26665183

> <ROCS_ShapeQuery>
A71EV2A-x0451_0A_A71EV2A-x0310_0A_A71EV2A-x0416_0A_peptide

> <ROCS_TanimotoCombo>
0.534 

> <ROCS_ShapeTanimoto>
0.350 

> <ROCS_ColorTanimoto>
0.184 

> <ROCS_RefTversky>
0.302 

> <ROCS_RefColorTversky>
0.207 

> <ROCS_RefTverskyCombo>
0.509 

> <ROCS_FitTversky>
1.830 

> <ROCS_FitColorTversky>
0.624 

> <ROCS_FitTverskyCombo>
2.454 

> <ROCS_ColorScore>
-6.334

> <ROCS_Overlap>
2093.696

> <ROCS_Rank>
66                  

$$$$
untitled-dbase-155451_12
  -OEChem-11132313473D

 33 34  0     0  0  0  0  0  0999 V2000
    6.9178   12.4338   25.0883 C   0  0  0  0  0  0  0  0  0  0  0  0
    7.9100   10.6703   24.5337 C   0  0  0  0  0  0  0  0  0  0  0  0
   10.1136   10.3849   22.8322 C   0  0  0  0  0  0  0  0  0  0  0  0
    9.6238   11.6232   23.0585 C   0  0  0  0  0  0  0  0  0  0  0  0
    9.3912    9.2702   23.5460 C   0  0  0  0  0  0  0  0  0  0  0  0
   10.6534   13.8109   23.2304 C   0  0  0  0  0  0  0  0  0  0  0  0
   11.2791   10.0313   21.9582 C   0  0  0  0  0  0  0  0  0  0  0  0
   13.2503   13.8725   22.9134 C   0  0  0  0  0  0  0  0  0  0  0  0
   12.9410   15.5663   21.0846 C   0  0  0  0  0  0  0  0  0  0  0  0
   12.6460   16.2482   23.4837 C   0  0  0  0  0  0  0  0  0  0  0  0
   12.4821   15.1167   22.4700 C   0  0  0  0  0  0  0  0  0  0  0  0
    6.9036   11.0902   25.2734 N   0  0  0  0  0  0  0  0  0  0  0  0
    7.8662   12.8971   24.2802 N   0  0  0  0  0  0  0  0  0  0  0  0
    8.3689    9.4074   24.3348 N   0  0  0  0  0  0  0  0  0  0  0  0
    8.5184   11.7613   23.9126 N   0  0  0  0  0  0  0  0  0  0  0  0
   10.1440   12.7579   22.5009 N   0  0  0  0  0  0  0  0  0  0  0  0
   10.7124   13.8819   24.4541 O   0  0  0  0  0  0  0  0  0  0  0  0
   11.0920   14.7852   22.3776 O   0  0  0  0  0  0  0  0  0  0  0  0
    9.9020    7.6191   23.3564 Cl  0  0  0  0  0  0  0  0  0  0  0  0
    6.2131   13.1028   25.5586 H   0  0  0  0  0  0  0  0  0  0  0  0
   12.1938   10.0491   22.5469 H   0  0  0  0  0  0  0  0  0  0  0  0
   11.3557   10.7501   21.1447 H   0  0  0  0  0  0  0  0  0  0  0  0
   11.1332    9.0365   21.5420 H   0  0  0  0  0  0  0  0  0  0  0  0
   12.9238   13.5466   23.9075 H   0  0  0  0  0  0  0  0  0  0  0  0
   13.1127   13.0425   22.2128 H   0  0  0  0  0  0  0  0  0  0  0  0
   14.3228   14.0832   22.9940 H   0  0  0  0  0  0  0  0  0  0  0  0
   12.3924   16.4588   20.7624 H   0  0  0  0  0  0  0  0  0  0  0  0
   12.7378   14.7921   20.3358 H   0  0  0  0  0  0  0  0  0  0  0  0
   14.0120   15.7926   21.0674 H   0  0  0  0  0  0  0  0  0  0  0  0
   12.0950   17.1408   23.1659 H   0  0  0  0  0  0  0  0  0  0  0  0
   12.2873   15.9558   24.4760 H   0  0  0  0  0  0  0  0  0  0  0  0
   13.6971   16.5472   23.5675 H   0  0  0  0  0  0  0  0  0  0  0  0
   10.1559   12.8292   21.4896 H   0  0  0  0  0  0  0  0  0  0  0  0
  1 12  1  0  0  0  0
  1 13  2  0  0  0  0
  2 12  2  0  0  0  0
  2 14  1  0  0  0  0
  2 15  1  0  0  0  0
  3  4  2  0  0  0  0
  3  5  1  0  0  0  0
  3  7  1  0  0  0  0
  4 15  1  0  0  0  0
  4 16  1  0  0  0  0
  5 14  2  0  0  0  0
  5 19  1  0  0  0  0
  6 16  1  0  0  0  0
  6 17  2  0  0  0  0
  6 18  1  0  0  0  0
  8 11  1  0  0  0  0
  9 11  1  0  0  0  0
 10 11  1  0  0  0  0
 11 18  1  0  0  0  0
 13 15  1  0  0  0  0
  1 20  1  0  0  0  0
  7 21  1  0  0  0  0
  7 22  1  0  0  0  0
  7 23  1  0  0  0  0
  8 24  1  0  0  0  0
  8 25  1  0  0  0  0
  8 26  1  0  0  0  0
  9 27  1  0  0  0  0
  9 28  1  0  0  0  0
  9 29  1  0  0  0  0
 10 30  1  0  0  0  0
 10 31  1  0  0  0  0
 10 32  1  0  0  0  0
 16 33  1  0  0  0  0
M  END
> <id>
EN300-28286769

> <smiles>
CC=1C(Cl)=NC2=NC=NN2C1NC(=O)OC(C)(C)C

> <IUPAC Name>
tert-butyl N-{5-chloro-6-methyl-[1,2,4]triazolo[1,5-a]pyrimidin-7-yl}carbamate

> <CAS>
2680690-76-8

> <URL>
https://www.enaminestore.com/catalog/EN300-28286769

> <ROCS_ShapeQuery>
A71EV2A-x0451_0A_A71EV2A-x0310_0A_A71EV2A-x0416_0A_peptide

> <ROCS_TanimotoCombo>
0.534 

> <ROCS_ShapeTanimoto>
0.345 

> <ROCS_ColorTanimoto>
0.189 

> <ROCS_RefTversky>
0.300 

> <ROCS_RefColorTversky>
0.207 

> <ROCS_RefTverskyCombo>
0.507 

> <ROCS_FitTversky>
1.755 

> <ROCS_FitColorTversky>
0.685 

> <ROCS_FitTverskyCombo>
2.439 

> <ROCS_ColorScore>
-6.318

> <ROCS_Overlap>
2082.980

> <ROCS_Rank>
67                  

$$$$
untitled-dbase-148848_244
  -OEChem-11132313473D

 35 36  0     0  0  0  0  0  0999 V2000
    7.6642   10.8926   24.5121 C   0  0  0  0  0  0  0  0  0  0  0  0
    8.4683   12.0117   24.4007 C   0  0  0  0  0  0  0  0  0  0  0  0
    6.4432   12.2964   25.6588 C   0  0  0  0  0  0  0  0  0  0  0  0
    5.3653   12.8030   26.4392 C   0  0  0  0  0  0  0  0  0  0  0  0
   10.4511   13.2064   23.5704 C   0  0  0  0  0  0  0  0  0  0  0  0
    8.0143    9.5880   23.8924 C   0  0  0  0  0  0  0  0  0  0  0  0
    9.5303    9.5035   23.6846 C   0  0  0  0  0  0  0  0  0  0  0  0
   10.1005   10.7739   23.0310 C   0  0  0  0  0  0  0  0  0  0  0  0
   12.1896   15.3502   22.7850 C   0  0  0  0  0  0  0  0  0  0  0  0
   12.0507   14.3721   20.4756 C   0  0  0  0  0  0  0  0  0  0  0  0
    9.9756   15.2399   21.5933 C   0  0  0  0  0  0  0  0  0  0  0  0
   11.3252   14.5560   21.8068 C   0  0  0  0  0  0  0  0  0  0  0  0
    6.4995   11.0538   25.2316 N   0  0  0  0  0  0  0  0  0  0  0  0
    9.6856   12.0323   23.7064 N   0  0  0  0  0  0  0  0  0  0  0  0
    4.6559   12.1537   27.2428 O   0  0  0  0  0  0  0  0  0  0  0  0
   10.5637   14.1110   24.3935 O   0  0  0  0  0  0  0  0  0  0  0  0
    5.1295   14.1424   26.2492 O   0  0  0  0  0  0  0  0  0  0  0  0
   11.0945   13.2532   22.3563 O   0  0  0  0  0  0  0  0  0  0  0  0
    7.7567   13.3125   25.2238 S   0  0  0  0  0  0  0  0  0  0  0  0
    7.6785    8.7589   24.5243 H   0  0  0  0  0  0  0  0  0  0  0  0
    7.5010    9.5015   22.9276 H   0  0  0  0  0  0  0  0  0  0  0  0
   10.0230    9.3570   24.6549 H   0  0  0  0  0  0  0  0  0  0  0  0
    9.7719    8.6285   23.0707 H   0  0  0  0  0  0  0  0  0  0  0  0
   11.1936   10.7046   23.0189 H   0  0  0  0  0  0  0  0  0  0  0  0
    9.7631   10.8497   21.9898 H   0  0  0  0  0  0  0  0  0  0  0  0
   11.6724   15.4844   23.7418 H   0  0  0  0  0  0  0  0  0  0  0  0
   13.1464   14.8524   22.9737 H   0  0  0  0  0  0  0  0  0  0  0  0
   12.3928   16.3559   22.3998 H   0  0  0  0  0  0  0  0  0  0  0  0
   11.4341   13.8028   19.7707 H   0  0  0  0  0  0  0  0  0  0  0  0
   12.9747   13.7983   20.6107 H   0  0  0  0  0  0  0  0  0  0  0  0
   12.3035   15.3335   20.0171 H   0  0  0  0  0  0  0  0  0  0  0  0
    9.3553   14.6704   20.8916 H   0  0  0  0  0  0  0  0  0  0  0  0
    9.4245   15.3471   22.5332 H   0  0  0  0  0  0  0  0  0  0  0  0
   10.1081   16.2343   21.1520 H   0  0  0  0  0  0  0  0  0  0  0  0
    4.3890   14.5014   26.7832 H   0  0  0  0  0  0  0  0  0  0  0  0
  1  2  2  0  0  0  0
  1  6  1  0  0  0  0
  1 13  1  0  0  0  0
  2 14  1  0  0  0  0
  2 19  1  0  0  0  0
  3  4  1  0  0  0  0
  3 13  2  0  0  0  0
  3 19  1  0  0  0  0
  4 15  2  0  0  0  0
  4 17  1  0  0  0  0
  5 14  1  0  0  0  0
  5 16  2  0  0  0  0
  5 18  1  0  0  0  0
  6  7  1  0  0  0  0
  7  8  1  0  0  0  0
  8 14  1  0  0  0  0
  9 12  1  0  0  0  0
 10 12  1  0  0  0  0
 11 12  1  0  0  0  0
 12 18  1  0  0  0  0
  6 20  1  0  0  0  0
  6 21  1  0  0  0  0
  7 22  1  0  0  0  0
  7 23  1  0  0  0  0
  8 24  1  0  0  0  0
  8 25  1  0  0  0  0
  9 26  1  0  0  0  0
  9 27  1  0  0  0  0
  9 28  1  0  0  0  0
 10 29  1  0  0  0  0
 10 30  1  0  0  0  0
 10 31  1  0  0  0  0
 11 32  1  0  0  0  0
 11 33  1  0  0  0  0
 11 34  1  0  0  0  0
 17 35  1  0  0  0  0
M  END
> <id>
EN300-27783705

> <smiles>
CC(C)(C)OC(=O)N1CCCC=2N=C(SC12)C(=O)O

> <IUPAC Name>
4-[(tert-butoxy)carbonyl]-4H,5H,6H,7H-[1,3]thiazolo[5,4-b]pyridine-2-carboxylic acid

> <CAS>
2639458-02-7

> <URL>
https://www.enaminestore.com/catalog/EN300-27783705

> <ROCS_ShapeQuery>
A71EV2A-x0451_0A_A71EV2A-x0310_0A_A71EV2A-x0416_0A_peptide

> <ROCS_TanimotoCombo>
0.533 

> <ROCS_ShapeTanimoto>
0.348 

> <ROCS_ColorTanimoto>
0.185 

> <ROCS_RefTversky>
0.301 

> <ROCS_RefColorTversky>
0.204 

> <ROCS_RefTverskyCombo>
0.505 

> <ROCS_FitTversky>
1.802 

> <ROCS_FitColorTversky>
0.675 

> <ROCS_FitTverskyCombo>
2.477 

> <ROCS_ColorScore>
-6.216

> <ROCS_Overlap>
2090.676

> <ROCS_Rank>
68                  

$$$$
untitled-dbase-154095_1
  -OEChem-11132313473D

 30 31  0     1  0  0  0  0  0999 V2000
    6.6061   12.8305   25.8431 C   0  0  0  0  0  0  0  0  0  0  0  0
    7.7694   13.0030   25.0830 C   0  0  0  0  0  0  0  0  0  0  0  0
    6.6109   10.4856   25.3310 C   0  0  0  0  0  0  0  0  0  0  0  0
    6.0266   11.5739   25.9669 C   0  0  0  0  0  0  0  0  0  0  0  0
    8.3868   11.9183   24.4405 C   0  0  0  0  0  0  0  0  0  0  0  0
    7.7839   10.6535   24.5845 C   0  0  0  0  0  0  0  0  0  0  0  0
    4.8127   11.4012   26.7479 C   0  0  0  0  0  0  0  0  0  0  0  0
   10.3068   13.2379   23.5127 C   0  0  0  0  0  0  0  0  0  0  0  0
    9.9022   10.8498   22.8378 C   0  0  0  0  0  0  0  0  0  0  0  0
    9.6444    9.5942   23.6562 C   0  0  2  0  0  0  0  0  0  0  0  0
    9.9950    8.3436   22.8587 C   0  0  0  0  0  0  0  0  0  0  0  0
   10.9949   13.4766   22.1868 C   0  0  0  0  0  0  0  0  0  0  0  0
    9.5566   12.0541   23.6098 N   0  0  0  0  0  0  0  0  0  0  0  0
    4.2102   12.3003   27.3443 O   0  0  0  0  0  0  0  0  0  0  0  0
   10.4630   14.0752   24.4034 O   0  0  0  0  0  0  0  0  0  0  0  0
    8.2634    9.5068   24.0024 O   0  0  0  0  0  0  0  0  0  0  0  0
    4.3818   10.1097   26.7625 O   0  0  0  0  0  0  0  0  0  0  0  0
   10.7379   12.4673   21.3386 F   0  0  0  0  0  0  0  0  0  0  0  0
   10.5604   14.6202   21.6319 F   0  0  0  0  0  0  0  0  0  0  0  0
   12.3248   13.5636   22.3547 F   0  0  0  0  0  0  0  0  0  0  0  0
    6.1550   13.6963   26.3224 H   0  0  0  0  0  0  0  0  0  0  0  0
    8.1345   14.0194   24.9947 H   0  0  0  0  0  0  0  0  0  0  0  0
    6.1627    9.4980   25.4172 H   0  0  0  0  0  0  0  0  0  0  0  0
   10.9526   10.8713   22.5360 H   0  0  0  0  0  0  0  0  0  0  0  0
    9.2835   10.8707   21.9317 H   0  0  0  0  0  0  0  0  0  0  0  0
   10.2459    9.5965   24.5757 H   0  0  0  0  0  0  0  0  0  0  0  0
    9.4123    8.3135   21.9382 H   0  0  0  0  0  0  0  0  0  0  0  0
    9.7741    7.4531   23.4469 H   0  0  0  0  0  0  0  0  0  0  0  0
   11.0553    8.3478   22.6068 H   0  0  0  0  0  0  0  0  0  0  0  0
    3.5622    9.9828   27.2865 H   0  0  0  0  0  0  0  0  0  0  0  0
  1  2  1  0  0  0  0
  1  4  2  0  0  0  0
  2  5  2  0  0  0  0
  3  4  1  0  0  0  0
  3  6  2  0  0  0  0
  4  7  1  0  0  0  0
  5  6  1  0  0  0  0
  5 13  1  0  0  0  0
  6 16  1  0  0  0  0
  7 14  2  0  0  0  0
  7 17  1  0  0  0  0
  8 12  1  0  0  0  0
  8 13  1  0  0  0  0
  8 15  2  0  0  0  0
  9 10  1  0  0  0  0
  9 13  1  0  0  0  0
 10 11  1  0  0  0  0
 10 16  1  0  0  0  0
 12 18  1  0  0  0  0
 12 19  1  0  0  0  0
 12 20  1  0  0  0  0
  1 21  1  0  0  0  0
  2 22  1  0  0  0  0
  3 23  1  0  0  0  0
  9 24  1  0  0  0  0
  9 25  1  0  0  0  0
 10 26  1  0  0  0  0
 11 27  1  0  0  0  0
 11 28  1  0  0  0  0
 11 29  1  0  0  0  0
 17 30  1  0  0  0  0
M  END
> <id>
EN300-28287771

> <smiles>
CC1CN(C(=O)C(F)(F)F)C=2C=CC(=CC2O1)C(=O)O

> <IUPAC Name>
2-methyl-4-(2,2,2-trifluoroacetyl)-3,4-dihydro-2H-1,4-benzoxazine-7-carboxylic acid

> <CAS>
2680800-12-6

> <URL>
https://www.enaminestore.com/catalog/EN300-28287771

> <ROCS_ShapeQuery>
A71EV2A-x0451_0A_A71EV2A-x0310_0A_A71EV2A-x0416_0A_peptide

> <ROCS_TanimotoCombo>
0.533 

> <ROCS_ShapeTanimoto>
0.355 

> <ROCS_ColorTanimoto>
0.179 

> <ROCS_RefTversky>
0.309 

> <ROCS_RefColorTversky>
0.193 

> <ROCS_RefTverskyCombo>
0.501 

> <ROCS_FitTversky>
1.728 

> <ROCS_FitColorTversky>
0.711 

> <ROCS_FitTverskyCombo>
2.439 

> <ROCS_ColorScore>
-5.868

> <ROCS_Overlap>
2143.062

> <ROCS_Rank>
69                  

$$$$
untitled-dbase-153968_19
  -OEChem-11132313473D

 31 32  0     0  0  0  0  0  0999 V2000
    8.0159   12.9663   24.7077 C   0  0  0  0  0  0  0  0  0  0  0  0
    6.4482   11.5664   25.8653 C   0  0  0  0  0  0  0  0  0  0  0  0
    8.5839   11.7854   24.2136 C   0  0  0  0  0  0  0  0  0  0  0  0
    6.9167   12.8392   25.5571 C   0  0  0  0  0  0  0  0  0  0  0  0
    8.0178   10.5809   24.6007 C   0  0  0  0  0  0  0  0  0  0  0  0
    9.6476   11.4091   23.3695 C   0  0  0  0  0  0  0  0  0  0  0  0
   10.9211   13.5648   23.1638 C   0  0  0  0  0  0  0  0  0  0  0  0
   11.2059   16.3803   22.7505 C   0  0  0  0  0  0  0  0  0  0  0  0
   12.4526   15.7605   20.6599 C   0  0  0  0  0  0  0  0  0  0  0  0
   10.0402   15.1104   20.9166 C   0  0  0  0  0  0  0  0  0  0  0  0
   11.3644   15.3381   21.6444 C   0  0  0  0  0  0  0  0  0  0  0  0
    6.9626   10.3970   25.4133 N   0  0  0  0  0  0  0  0  0  0  0  0
    9.7533   10.0837   23.2286 N   0  0  0  0  0  0  0  0  0  0  0  0
    8.7501    9.6073   23.9880 N   0  0  0  0  0  0  0  0  0  0  0  0
   10.5226   12.3157   22.7288 N   0  0  0  0  0  0  0  0  0  0  0  0
   10.5948   14.1388   24.1955 O   0  0  0  0  0  0  0  0  0  0  0  0
   11.7752   14.1054   22.2371 O   0  0  0  0  0  0  0  0  0  0  0  0
    6.0818   14.3707   26.2745 Br  0  0  0  0  0  0  0  0  0  0  0  0
    8.4188   13.9368   24.4370 H   0  0  0  0  0  0  0  0  0  0  0  0
    5.5928   11.4371   26.5246 H   0  0  0  0  0  0  0  0  0  0  0  0
   10.4256   16.0808   23.4593 H   0  0  0  0  0  0  0  0  0  0  0  0
   12.1397   16.5274   23.3030 H   0  0  0  0  0  0  0  0  0  0  0  0
   10.8932   17.3457   22.3363 H   0  0  0  0  0  0  0  0  0  0  0  0
   12.5697   15.0156   19.8645 H   0  0  0  0  0  0  0  0  0  0  0  0
   13.4250   15.8330   21.1604 H   0  0  0  0  0  0  0  0  0  0  0  0
   12.2271   16.7275   20.1987 H   0  0  0  0  0  0  0  0  0  0  0  0
   10.1536   14.3629   20.1232 H   0  0  0  0  0  0  0  0  0  0  0  0
    9.2566   14.7711   21.6017 H   0  0  0  0  0  0  0  0  0  0  0  0
    9.7009   16.0310   20.4280 H   0  0  0  0  0  0  0  0  0  0  0  0
    8.6225    8.6047   24.0430 H   0  0  0  0  0  0  0  0  0  0  0  0
   10.9061   12.0107   21.8374 H   0  0  0  0  0  0  0  0  0  0  0  0
  1  3  2  0  0  0  0
  1  4  1  0  0  0  0
  2  4  2  0  0  0  0
  2 12  1  0  0  0  0
  3  5  1  0  0  0  0
  3  6  1  0  0  0  0
  4 18  1  0  0  0  0
  5 12  2  0  0  0  0
  5 14  1  0  0  0  0
  6 13  2  0  0  0  0
  6 15  1  0  0  0  0
  7 15  1  0  0  0  0
  7 16  2  0  0  0  0
  7 17  1  0  0  0  0
  8 11  1  0  0  0  0
  9 11  1  0  0  0  0
 10 11  1  0  0  0  0
 11 17  1  0  0  0  0
 13 14  1  0  0  0  0
  1 19  1  0  0  0  0
  2 20  1  0  0  0  0
  8 21  1  0  0  0  0
  8 22  1  0  0  0  0
  8 23  1  0  0  0  0
  9 24  1  0  0  0  0
  9 25  1  0  0  0  0
  9 26  1  0  0  0  0
 10 27  1  0  0  0  0
 10 28  1  0  0  0  0
 10 29  1  0  0  0  0
 14 30  1  0  0  0  0
 15 31  1  0  0  0  0
M  END
> <id>
EN300-28292534

> <smiles>
CC(C)(C)OC(=O)NC1=NNC=2N=CC(Br)=CC12

> <IUPAC Name>
tert-butyl N-{5-bromo-1H-pyrazolo[3,4-b]pyridin-3-yl}carbamate

> <CAS>
1289190-09-5

> <URL>
https://www.enaminestore.com/catalog/EN300-28292534

> <ROCS_ShapeQuery>
A71EV2A-x0451_0A_A71EV2A-x0310_0A_A71EV2A-x0416_0A_peptide

> <ROCS_TanimotoCombo>
0.533 

> <ROCS_ShapeTanimoto>
0.346 

> <ROCS_ColorTanimoto>
0.188 

> <ROCS_RefTversky>
0.299 

> <ROCS_RefColorTversky>
0.211 

> <ROCS_RefTverskyCombo>
0.510 

> <ROCS_FitTversky>
1.826 

> <ROCS_FitColorTversky>
0.634 

> <ROCS_FitTverskyCombo>
2.460 

> <ROCS_ColorScore>
-6.442

> <ROCS_Overlap>
2072.886

> <ROCS_Rank>
70                  

$$$$
untitled-dbase-145804_101
  -OEChem-11132313473D

 38 39  0     1  0  0  0  0  0999 V2000
    6.7489   12.3023   25.4959 C   0  0  0  0  0  0  0  0  0  0  0  0
    8.4896   11.9956   24.3591 C   0  0  0  0  0  0  0  0  0  0  0  0
    5.7493   12.9674   26.2754 C   0  0  0  0  0  0  0  0  0  0  0  0
   10.3715   13.2395   23.5636 C   0  0  0  0  0  0  0  0  0  0  0  0
    9.6579    9.5148   23.6650 C   0  0  0  0  0  0  0  0  0  0  0  0
    8.1568    9.5504   23.9420 C   0  0  0  0  0  0  0  0  0  0  0  0
   10.1502   10.7868   22.9443 C   0  0  1  0  0  0  0  0  0  0  0  0
    9.7106   10.8061   21.4765 C   0  0  0  0  0  0  0  0  0  0  0  0
   11.9829   15.5224   22.9307 C   0  0  0  0  0  0  0  0  0  0  0  0
   11.9683   14.6494   20.5755 C   0  0  0  0  0  0  0  0  0  0  0  0
    9.8123   15.3259   21.6719 C   0  0  0  0  0  0  0  0  0  0  0  0
   11.1984   14.7217   21.8923 C   0  0  0  0  0  0  0  0  0  0  0  0
    7.8494   12.9490   25.0049 N   0  0  0  0  0  0  0  0  0  0  0  0
    6.6595   11.0028   25.2039 N   0  0  0  0  0  0  0  0  0  0  0  0
    7.7803   10.8329   24.4899 N   0  0  0  0  0  0  0  0  0  0  0  0
    9.6851   12.0172   23.6387 N   0  0  0  0  0  0  0  0  0  0  0  0
    5.4239   14.1699   26.1890 O   0  0  0  0  0  0  0  0  0  0  0  0
   10.3928   14.1015   24.4403 O   0  0  0  0  0  0  0  0  0  0  0  0
    5.1310   12.1459   27.1811 O   0  0  0  0  0  0  0  0  0  0  0  0
   11.0406   13.3820   22.3740 O   0  0  0  0  0  0  0  0  0  0  0  0
   10.1934    9.4323   24.6206 H   0  0  0  0  0  0  0  0  0  0  0  0
    9.9094    8.6178   23.0879 H   0  0  0  0  0  0  0  0  0  0  0  0
    7.5743    9.4088   23.0259 H   0  0  0  0  0  0  0  0  0  0  0  0
    7.8797    8.7730   24.6615 H   0  0  0  0  0  0  0  0  0  0  0  0
   11.2465   10.7761   22.9642 H   0  0  0  0  0  0  0  0  0  0  0  0
    8.6249   10.8170   21.4215 H   0  0  0  0  0  0  0  0  0  0  0  0
   10.0881    9.9205   20.9715 H   0  0  0  0  0  0  0  0  0  0  0  0
   10.1052   11.6945   20.9897 H   0  0  0  0  0  0  0  0  0  0  0  0
   11.4336   15.5766   23.8774 H   0  0  0  0  0  0  0  0  0  0  0  0
   12.9654   15.0793   23.1236 H   0  0  0  0  0  0  0  0  0  0  0  0
   12.1288   16.5566   22.5984 H   0  0  0  0  0  0  0  0  0  0  0  0
   11.4091   14.0758   19.8275 H   0  0  0  0  0  0  0  0  0  0  0  0
   12.9246   14.1311   20.7104 H   0  0  0  0  0  0  0  0  0  0  0  0
   12.1686   15.6462   20.1693 H   0  0  0  0  0  0  0  0  0  0  0  0
    9.2494   14.7517   20.9272 H   0  0  0  0  0  0  0  0  0  0  0  0
    9.2315   15.3517   22.5996 H   0  0  0  0  0  0  0  0  0  0  0  0
    9.8900   16.3469   21.2811 H   0  0  0  0  0  0  0  0  0  0  0  0
    5.4587   11.2213   27.1696 H   0  0  0  0  0  0  0  0  0  0  0  0
  1  3  1  0  0  0  0
  1 13  1  0  0  0  0
  1 14  2  0  0  0  0
  2 13  2  0  0  0  0
  2 15  1  0  0  0  0
  2 16  1  0  0  0  0
  3 17  2  0  0  0  0
  3 19  1  0  0  0  0
  4 16  1  0  0  0  0
  4 18  2  0  0  0  0
  4 20  1  0  0  0  0
  5  6  1  0  0  0  0
  5  7  1  0  0  0  0
  6 15  1  0  0  0  0
  7  8  1  0  0  0  0
  7 16  1  0  0  0  0
  9 12  1  0  0  0  0
 10 12  1  0  0  0  0
 11 12  1  0  0  0  0
 12 20  1  0  0  0  0
 14 15  1  0  0  0  0
  5 21  1  0  0  0  0
  5 22  1  0  0  0  0
  6 23  1  0  0  0  0
  6 24  1  0  0  0  0
  7 25  1  0  0  0  0
  8 26  1  0  0  0  0
  8 27  1  0  0  0  0
  8 28  1  0  0  0  0
  9 29  1  0  0  0  0
  9 30  1  0  0  0  0
  9 31  1  0  0  0  0
 10 32  1  0  0  0  0
 10 33  1  0  0  0  0
 10 34  1  0  0  0  0
 11 35  1  0  0  0  0
 11 36  1  0  0  0  0
 11 37  1  0  0  0  0
 19 38  1  0  0  0  0
M  END
> <id>
EN300-27782515

> <smiles>
CC1CCN2N=C(N=C2N1C(=O)OC(C)(C)C)C(=O)O

> <IUPAC Name>
4-[(tert-butoxy)carbonyl]-5-methyl-4H,5H,6H,7H-[1,2,4]triazolo[1,5-a]pyrimidine-2-carboxylic acid

> <CAS>
2639403-37-3

> <URL>
https://www.enaminestore.com/catalog/EN300-27782515

> <ROCS_ShapeQuery>
A71EV2A-x0451_0A_A71EV2A-x0310_0A_A71EV2A-x0416_0A_peptide

> <ROCS_TanimotoCombo>
0.533 

> <ROCS_ShapeTanimoto>
0.365 

> <ROCS_ColorTanimoto>
0.168 

> <ROCS_RefTversky>
0.315 

> <ROCS_RefColorTversky>
0.192 

> <ROCS_RefTverskyCombo>
0.507 

> <ROCS_FitTversky>
1.773 

> <ROCS_FitColorTversky>
0.576 

> <ROCS_FitTverskyCombo>
2.349 

> <ROCS_ColorScore>
-5.865

> <ROCS_Overlap>
2186.181

> <ROCS_Rank>
71                  

$$$$
untitled-dbase-5840_6
  -OEChem-11132313473D

 44 47  0     0  0  0  0  0  0999 V2000
    7.3198   14.1582   25.8103 C   0  0  0  0  0  0  0  0  0  0  0  0
    7.3383   12.7634   25.4733 C   0  0  0  0  0  0  0  0  0  0  0  0
    8.3118   12.1885   24.6435 C   0  0  0  0  0  0  0  0  0  0  0  0
    8.2464   10.8093   24.3696 C   0  0  0  0  0  0  0  0  0  0  0  0
    9.3575   12.9018   24.0615 C   0  0  0  0  0  0  0  0  0  0  0  0
    6.3477   11.9420   25.9902 C   0  0  0  0  0  0  0  0  0  0  0  0
   10.2739   12.2402   23.2513 C   0  0  0  0  0  0  0  0  0  0  0  0
    7.2035   10.0817   24.9464 C   0  0  0  0  0  0  0  0  0  0  0  0
    9.2260   10.2417   23.5370 C   0  0  0  0  0  0  0  0  0  0  0  0
   10.9583   14.4547   23.2780 C   0  0  0  0  0  0  0  0  0  0  0  0
    9.7069   14.3539   24.1494 C   0  0  0  0  0  0  0  0  0  0  0  0
    4.2503   11.9265   29.3945 C   0  0  0  0  0  0  0  0  0  0  0  0
    3.8611   11.1192   28.1540 C   0  0  0  0  0  0  0  0  0  0  0  0
    5.6373   12.5546   29.2409 C   0  0  0  0  0  0  0  0  0  0  0  0
    4.0129   11.9596   26.8863 C   0  0  0  0  0  0  0  0  0  0  0  0
    5.7491   13.3584   27.9417 C   0  0  0  0  0  0  0  0  0  0  0  0
   12.3086   12.7952   21.9226 C   0  0  0  0  0  0  0  0  0  0  0  0
    7.3048   15.2861   26.0828 N   0  0  0  0  0  0  0  0  0  0  0  0
    6.2549   10.6159   25.7483 N   0  0  0  0  0  0  0  0  0  0  0  0
   10.2452   10.9274   22.9665 N   0  0  0  0  0  0  0  0  0  0  0  0
   11.2189   13.1699   22.7909 N   0  0  0  0  0  0  0  0  0  0  0  0
    5.3744   12.4972   26.8142 N   0  0  0  0  0  0  0  0  0  0  0  0
    7.0623    8.6934   24.7243 N   0  0  0  0  0  0  0  0  0  0  0  0
    9.2124    8.8622   23.2273 N   0  0  0  0  0  0  0  0  0  0  0  0
   11.5828   15.4846   23.0720 O   0  0  0  0  0  0  0  0  0  0  0  0
    8.9306   14.9897   23.7152 H   0  0  0  0  0  0  0  0  0  0  0  0
    9.9700   14.6511   25.1680 H   0  0  0  0  0  0  0  0  0  0  0  0
    3.5039   12.7163   29.5700 H   0  0  0  0  0  0  0  0  0  0  0  0
    4.2341   11.2755   30.2806 H   0  0  0  0  0  0  0  0  0  0  0  0
    4.4927   10.2295   28.0829 H   0  0  0  0  0  0  0  0  0  0  0  0
    2.8278   10.7791   28.2488 H   0  0  0  0  0  0  0  0  0  0  0  0
    5.8392   13.2095   30.0949 H   0  0  0  0  0  0  0  0  0  0  0  0
    6.4010   11.7683   29.2523 H   0  0  0  0  0  0  0  0  0  0  0  0
    3.7950   11.3307   26.0150 H   0  0  0  0  0  0  0  0  0  0  0  0
    3.2871   12.7824   26.8941 H   0  0  0  0  0  0  0  0  0  0  0  0
    5.0892   14.2302   27.9837 H   0  0  0  0  0  0  0  0  0  0  0  0
    6.7774   13.7156   27.8350 H   0  0  0  0  0  0  0  0  0  0  0  0
   11.9926   12.8928   20.8735 H   0  0  0  0  0  0  0  0  0  0  0  0
   13.1692   13.4545   22.1090 H   0  0  0  0  0  0  0  0  0  0  0  0
   12.5954   11.7524   22.1235 H   0  0  0  0  0  0  0  0  0  0  0  0
    7.6962    8.2342   24.1041 H   0  0  0  0  0  0  0  0  0  0  0  0
    6.2767    8.2170   25.1158 H   0  0  0  0  0  0  0  0  0  0  0  0
    8.5201    8.2783   23.6474 H   0  0  0  0  0  0  0  0  0  0  0  0
    9.9499    8.4835   22.6713 H   0  0  0  0  0  0  0  0  0  0  0  0
  1  2  1  0  0  0  0
  1 18  3  0  0  0  0
  2  3  2  0  0  0  0
  2  6  1  0  0  0  0
  3  4  1  0  0  0  0
  3  5  1  0  0  0  0
  4  8  2  0  0  0  0
  4  9  1  0  0  0  0
  5  7  2  0  0  0  0
  5 11  1  0  0  0  0
  6 19  2  0  0  0  0
  6 22  1  0  0  0  0
  7 20  1  0  0  0  0
  7 21  1  0  0  0  0
  8 19  1  0  0  0  0
  8 23  1  0  0  0  0
  9 20  2  0  0  0  0
  9 24  1  0  0  0  0
 10 11  1  0  0  0  0
 10 21  1  0  0  0  0
 10 25  2  0  0  0  0
 12 13  1  0  0  0  0
 12 14  1  0  0  0  0
 13 15  1  0  0  0  0
 14 16  1  0  0  0  0
 15 22  1  0  0  0  0
 16 22  1  0  0  0  0
 17 21  1  0  0  0  0
 11 26  1  0  0  0  0
 11 27  1  0  0  0  0
 12 28  1  0  0  0  0
 12 29  1  0  0  0  0
 13 30  1  0  0  0  0
 13 31  1  0  0  0  0
 14 32  1  0  0  0  0
 14 33  1  0  0  0  0
 15 34  1  0  0  0  0
 15 35  1  0  0  0  0
 16 36  1  0  0  0  0
 16 37  1  0  0  0  0
 17 38  1  0  0  0  0
 17 39  1  0  0  0  0
 17 40  1  0  0  0  0
 23 41  1  0  0  0  0
 23 42  1  0  0  0  0
 24 43  1  0  0  0  0
 24 44  1  0  0  0  0
M  END
> <id>
EN300-14033

> <smiles>
CN1C(=O)CC=2C1=NC(N)=C3C(N)=NC(N4CCCCC4)=C(C#N)C23

> <MDLNUMBER>
MFCD06660840

> <IUPAC Name>
5,6-diamino-3-methyl-2-oxo-8-(piperidin-1-yl)-1H,2H,3H-pyrrolo[2,3-c]2,7-naphthyridine-9-carbonitrile

> <CAS>
885524-44-7

> <URL>
https://www.enaminestore.com/catalog/EN300-14033

> <ROCS_ShapeQuery>
A71EV2A-x0451_0A_A71EV2A-x0310_0A_A71EV2A-x0416_0A_peptide

> <ROCS_TanimotoCombo>
0.533 

> <ROCS_ShapeTanimoto>
0.384 

> <ROCS_ColorTanimoto>
0.149 

> <ROCS_RefTversky>
0.337 

> <ROCS_RefColorTversky>
0.184 

> <ROCS_RefTverskyCombo>
0.521 

> <ROCS_FitTversky>
1.586 

> <ROCS_FitColorTversky>
0.435 

> <ROCS_FitTverskyCombo>
2.021 

> <ROCS_ColorScore>
-5.667

> <ROCS_Overlap>
2340.281

> <ROCS_Rank>
72                  

$$$$
untitled-dbase-91581_102
  -OEChem-11132313473D

 46 48  0     1  0  0  0  0  0999 V2000
    5.9566   12.7847   28.6193 C   0  0  0  0  0  0  0  0  0  0  0  0
    6.7951   12.2839   27.6296 C   0  0  0  0  0  0  0  0  0  0  0  0
    4.5890   12.6623   28.4336 C   0  0  0  0  0  0  0  0  0  0  0  0
    6.2481   11.6845   26.5005 C   0  0  0  0  0  0  0  0  0  0  0  0
    4.8674   11.6112   26.4098 C   0  0  0  0  0  0  0  0  0  0  0  0
    9.8690   13.3500   23.5720 C   0  0  0  0  0  0  0  0  0  0  0  0
    8.4295   10.1648   22.7499 C   0  0  0  0  0  0  0  0  0  0  0  0
    9.4628    9.7716   23.8233 C   0  0  0  0  0  0  0  0  0  0  0  0
    6.9619   11.8252   24.0304 C   0  0  0  0  0  0  0  0  0  0  0  0
    8.7040   11.1793   25.8241 C   0  0  0  0  0  0  0  0  0  0  0  0
    8.1205   11.6392   23.0267 C   0  0  1  0  0  0  0  0  0  0  0  0
    9.6847   11.0487   24.6396 C   0  0  2  0  0  0  0  0  0  0  0  0
    7.1903   11.1377   25.4197 C   0  0  0  0  0  0  0  0  0  0  0  0
   11.8807   13.2802   21.8949 C   0  0  0  0  0  0  0  0  0  0  0  0
   10.3456   14.1137   20.0899 C   0  0  0  0  0  0  0  0  0  0  0  0
   11.1494   15.6884   21.8738 C   0  0  0  0  0  0  0  0  0  0  0  0
   10.7481   14.2485   21.5569 C   0  0  0  0  0  0  0  0  0  0  0  0
    4.0208   12.0864   27.3506 N   0  0  0  0  0  0  0  0  0  0  0  0
    9.3250   12.0865   23.6918 N   0  0  0  0  0  0  0  0  0  0  0  0
   10.5155   13.9101   24.4542 O   0  0  0  0  0  0  0  0  0  0  0  0
    6.8212    9.7560   25.2665 O   0  0  0  0  0  0  0  0  0  0  0  0
    9.6058   13.9085   22.3505 O   0  0  0  0  0  0  0  0  0  0  0  0
    4.0482   10.8029   24.8904 Br  0  0  0  0  0  0  0  0  0  0  0  0
    6.3606   13.2564   29.5076 H   0  0  0  0  0  0  0  0  0  0  0  0
    7.8721   12.3660   27.7481 H   0  0  0  0  0  0  0  0  0  0  0  0
    3.8921   13.0374   29.1759 H   0  0  0  0  0  0  0  0  0  0  0  0
    8.8825   10.0533   21.7575 H   0  0  0  0  0  0  0  0  0  0  0  0
    7.5404    9.5277   22.7796 H   0  0  0  0  0  0  0  0  0  0  0  0
    9.1268    8.9264   24.4315 H   0  0  0  0  0  0  0  0  0  0  0  0
   10.3948    9.4718   23.3292 H   0  0  0  0  0  0  0  0  0  0  0  0
    6.8207   12.9052   24.1782 H   0  0  0  0  0  0  0  0  0  0  0  0
    6.0359   11.4469   23.5780 H   0  0  0  0  0  0  0  0  0  0  0  0
    8.9120   10.3796   26.5470 H   0  0  0  0  0  0  0  0  0  0  0  0
    8.9201   12.1287   26.3338 H   0  0  0  0  0  0  0  0  0  0  0  0
    7.9270   12.2062   22.1107 H   0  0  0  0  0  0  0  0  0  0  0  0
   10.7182   11.1435   24.9859 H   0  0  0  0  0  0  0  0  0  0  0  0
   12.1725   13.3739   22.9470 H   0  0  0  0  0  0  0  0  0  0  0  0
   11.5931   12.2410   21.7050 H   0  0  0  0  0  0  0  0  0  0  0  0
   12.7764   13.5048   21.3045 H   0  0  0  0  0  0  0  0  0  0  0  0
    9.5332   14.8067   19.8429 H   0  0  0  0  0  0  0  0  0  0  0  0
    9.9670   13.1068   19.8800 H   0  0  0  0  0  0  0  0  0  0  0  0
   11.1879   14.3141   19.4198 H   0  0  0  0  0  0  0  0  0  0  0  0
   10.3371   16.3832   21.6314 H   0  0  0  0  0  0  0  0  0  0  0  0
   11.4061   15.8122   22.9309 H   0  0  0  0  0  0  0  0  0  0  0  0
   12.0099   15.9954   21.2682 H   0  0  0  0  0  0  0  0  0  0  0  0
    6.9557    9.3392   26.1309 H   0  0  0  0  0  0  0  0  0  0  0  0
  1  2  1  0  0  0  0
  1  3  2  0  0  0  0
  2  4  2  0  0  0  0
  3 18  1  0  0  0  0
  4  5  1  0  0  0  0
  4 13  1  0  0  0  0
  5 18  2  0  0  0  0
  5 23  1  0  0  0  0
  6 19  1  0  0  0  0
  6 20  2  0  0  0  0
  6 22  1  0  0  0  0
  7  8  1  0  0  0  0
  7 11  1  0  0  0  0
  8 12  1  0  0  0  0
  9 11  1  0  0  0  0
  9 13  1  0  0  0  0
 10 12  1  0  0  0  0
 10 13  1  0  0  0  0
 11 19  1  0  0  0  0
 12 19  1  0  0  0  0
 13 21  1  0  0  0  0
 14 17  1  0  0  0  0
 15 17  1  0  0  0  0
 16 17  1  0  0  0  0
 17 22  1  0  0  0  0
  1 24  1  0  0  0  0
  2 25  1  0  0  0  0
  3 26  1  0  0  0  0
  7 27  1  0  0  0  0
  7 28  1  0  0  0  0
  8 29  1  0  0  0  0
  8 30  1  0  0  0  0
  9 31  1  0  0  0  0
  9 32  1  0  0  0  0
 10 33  1  0  0  0  0
 10 34  1  0  0  0  0
 11 35  1  0  0  0  0
 12 36  1  0  0  0  0
 14 37  1  0  0  0  0
 14 38  1  0  0  0  0
 14 39  1  0  0  0  0
 15 40  1  0  0  0  0
 15 41  1  0  0  0  0
 15 42  1  0  0  0  0
 16 43  1  0  0  0  0
 16 44  1  0  0  0  0
 16 45  1  0  0  0  0
 21 46  1  0  0  0  0
M  END
> <id>
EN300-7428214

> <smiles>
CC(C)(C)OC(=O)N1C2CCC1CC(O)(C2)C=3C=CC=NC3Br

> <IUPAC Name>
tert-butyl 3-(2-bromopyridin-3-yl)-3-hydroxy-8-azabicyclo[3.2.1]octane-8-carboxylate

> <CAS>
2309469-21-2

> <URL>
https://www.enaminestore.com/catalog/EN300-7428214

> <ROCS_ShapeQuery>
A71EV2A-x0451_0A_A71EV2A-x0310_0A_A71EV2A-x0416_0A_peptide

> <ROCS_TanimotoCombo>
0.533 

> <ROCS_ShapeTanimoto>
0.314 

> <ROCS_ColorTanimoto>
0.219 

> <ROCS_RefTversky>
0.285 

> <ROCS_RefColorTversky>
0.260 

> <ROCS_RefTverskyCombo>
0.545 

> <ROCS_FitTversky>
1.473 

> <ROCS_FitColorTversky>
0.582 

> <ROCS_FitTverskyCombo>
2.056 

> <ROCS_ColorScore>
-8.007

> <ROCS_Overlap>
1979.158

> <ROCS_Rank>
73                  

$$$$
untitled-dbase-117043_171
  -OEChem-11132313473D

 36 37  0     0  0  0  0  0  0999 V2000
    7.7106   12.9750   25.0257 C   0  0  0  0  0  0  0  0  0  0  0  0
    6.6103   12.2727   25.5608 C   0  0  0  0  0  0  0  0  0  0  0  0
    8.4958   12.0087   24.4329 C   0  0  0  0  0  0  0  0  0  0  0  0
    5.4948   12.8176   26.2810 C   0  0  0  0  0  0  0  0  0  0  0  0
   10.4111   13.2166   23.5871 C   0  0  0  0  0  0  0  0  0  0  0  0
    9.2031    9.6635   23.0106 C   0  0  0  0  0  0  0  0  0  0  0  0
    8.2803    9.5279   24.2136 C   0  0  0  0  0  0  0  0  0  0  0  0
   10.2720   10.7291   23.2556 C   0  0  0  0  0  0  0  0  0  0  0  0
   12.1214   15.3989   22.8573 C   0  0  0  0  0  0  0  0  0  0  0  0
   12.3748   14.2226   20.6524 C   0  0  0  0  0  0  0  0  0  0  0  0
   10.1138   15.0360   21.3833 C   0  0  0  0  0  0  0  0  0  0  0  0
   11.4544   14.4674   21.8462 C   0  0  0  0  0  0  0  0  0  0  0  0
    6.6767   10.9593   25.3345 N   0  0  0  0  0  0  0  0  0  0  0  0
    7.8221   10.8320   24.6456 N   0  0  0  0  0  0  0  0  0  0  0  0
    9.7097   12.0078   23.7379 N   0  0  0  0  0  0  0  0  0  0  0  0
    4.5334   12.1734   26.7442 O   0  0  0  0  0  0  0  0  0  0  0  0
   10.3457   14.1894   24.3347 O   0  0  0  0  0  0  0  0  0  0  0  0
    5.5634   14.1759   26.4348 O   0  0  0  0  0  0  0  0  0  0  0  0
   11.2200   13.2027   22.4770 O   0  0  0  0  0  0  0  0  0  0  0  0
    7.8862   14.0393   25.0752 H   0  0  0  0  0  0  0  0  0  0  0  0
    9.6972    8.7028   22.8157 H   0  0  0  0  0  0  0  0  0  0  0  0
    8.6208    9.9117   22.1166 H   0  0  0  0  0  0  0  0  0  0  0  0
    7.3871    8.9444   23.9660 H   0  0  0  0  0  0  0  0  0  0  0  0
    8.8012    9.0495   25.0494 H   0  0  0  0  0  0  0  0  0  0  0  0
   11.0012   10.3482   23.9788 H   0  0  0  0  0  0  0  0  0  0  0  0
   10.8130   10.9505   22.3275 H   0  0  0  0  0  0  0  0  0  0  0  0
   11.4638   15.5771   23.7157 H   0  0  0  0  0  0  0  0  0  0  0  0
   13.0670   14.9860   23.2234 H   0  0  0  0  0  0  0  0  0  0  0  0
   12.3214   16.3802   22.4122 H   0  0  0  0  0  0  0  0  0  0  0  0
   11.9003   13.5547   19.9244 H   0  0  0  0  0  0  0  0  0  0  0  0
   13.3002   13.7274   20.9682 H   0  0  0  0  0  0  0  0  0  0  0  0
   12.6370   15.1571   20.1461 H   0  0  0  0  0  0  0  0  0  0  0  0
    9.6351   14.3680   20.6581 H   0  0  0  0  0  0  0  0  0  0  0  0
    9.4268   15.1836   22.2229 H   0  0  0  0  0  0  0  0  0  0  0  0
   10.2528   15.9965   20.8742 H   0  0  0  0  0  0  0  0  0  0  0  0
    4.8056   14.5581   26.9267 H   0  0  0  0  0  0  0  0  0  0  0  0
  1  2  1  0  0  0  0
  1  3  2  0  0  0  0
  2  4  1  0  0  0  0
  2 13  2  0  0  0  0
  3 14  1  0  0  0  0
  3 15  1  0  0  0  0
  4 16  2  0  0  0  0
  4 18  1  0  0  0  0
  5 15  1  0  0  0  0
  5 17  2  0  0  0  0
  5 19  1  0  0  0  0
  6  7  1  0  0  0  0
  6  8  1  0  0  0  0
  7 14  1  0  0  0  0
  8 15  1  0  0  0  0
  9 12  1  0  0  0  0
 10 12  1  0  0  0  0
 11 12  1  0  0  0  0
 12 19  1  0  0  0  0
 13 14  1  0  0  0  0
  1 20  1  0  0  0  0
  6 21  1  0  0  0  0
  6 22  1  0  0  0  0
  7 23  1  0  0  0  0
  7 24  1  0  0  0  0
  8 25  1  0  0  0  0
  8 26  1  0  0  0  0
  9 27  1  0  0  0  0
  9 28  1  0  0  0  0
  9 29  1  0  0  0  0
 10 30  1  0  0  0  0
 10 31  1  0  0  0  0
 10 32  1  0  0  0  0
 11 33  1  0  0  0  0
 11 34  1  0  0  0  0
 11 35  1  0  0  0  0
 18 36  1  0  0  0  0
M  END
> <id>
EN300-761833

> <smiles>
CC(C)(C)OC(=O)N1CCCN2N=C(C=C12)C(=O)O

> <MDLNUMBER>
MFCD28537567

> <IUPAC Name>
4-[(tert-butoxy)carbonyl]-4H,5H,6H,7H-pyrazolo[1,5-a]pyrimidine-2-carboxylic acid

> <CAS>
1200497-73-9

> <Purity>
95

> <URL>
https://www.enaminestore.com/catalog/EN300-761833

> <ROCS_ShapeQuery>
A71EV2A-x0451_0A_A71EV2A-x0310_0A_A71EV2A-x0416_0A_peptide

> <ROCS_TanimotoCombo>
0.533 

> <ROCS_ShapeTanimoto>
0.354 

> <ROCS_ColorTanimoto>
0.178 

> <ROCS_RefTversky>
0.306 

> <ROCS_RefColorTversky>
0.197 

> <ROCS_RefTverskyCombo>
0.504 

> <ROCS_FitTversky>
1.793 

> <ROCS_FitColorTversky>
0.653 

> <ROCS_FitTverskyCombo>
2.446 

> <ROCS_ColorScore>
-6.019

> <ROCS_Overlap>
2126.149

> <ROCS_Rank>
74                  

$$$$
untitled-dbase-143258_97
  -OEChem-11132313473D

 47 49  0     1  0  0  0  0  0999 V2000
    6.2227   12.9858   27.0919 C   0  0  0  0  0  0  0  0  0  0  0  0
    4.9874   13.0470   27.7644 C   0  0  0  0  0  0  0  0  0  0  0  0
    6.1196   11.8794   26.2846 C   0  0  0  0  0  0  0  0  0  0  0  0
    9.9572   13.3115   23.5170 C   0  0  0  0  0  0  0  0  0  0  0  0
    8.5535   10.0561   22.8326 C   0  0  0  0  0  0  0  0  0  0  0  0
    9.5157    9.7808   24.0042 C   0  0  0  0  0  0  0  0  0  0  0  0
    6.9905   11.8180   23.8391 C   0  0  0  0  0  0  0  0  0  0  0  0
    8.5934   11.3446   25.8081 C   0  0  0  0  0  0  0  0  0  0  0  0
    8.2178   11.5467   22.9434 C   0  0  1  0  0  0  0  0  0  0  0  0
    9.6622   11.1298   24.7146 C   0  0  2  0  0  0  0  0  0  0  0  0
    7.1150   11.2558   25.2968 C   0  0  0  0  0  0  0  0  0  0  0  0
   12.1783   13.9019   21.8180 C   0  0  0  0  0  0  0  0  0  0  0  0
   10.5152   15.1078   20.3727 C   0  0  0  0  0  0  0  0  0  0  0  0
   10.9257   15.8878   22.7245 C   0  0  0  0  0  0  0  0  0  0  0  0
    4.2952   10.1950   25.8984 C   0  0  0  0  0  0  0  0  0  0  0  0
   10.8611   14.6760   21.7961 C   0  0  0  0  0  0  0  0  0  0  0  0
    4.1603   12.0583   27.4146 N   0  0  0  0  0  0  0  0  0  0  0  0
    4.8772   11.3654   26.5134 N   0  0  0  0  0  0  0  0  0  0  0  0
    9.3692   12.0697   23.6544 N   0  0  0  0  0  0  0  0  0  0  0  0
   10.5381   13.9046   24.4230 O   0  0  0  0  0  0  0  0  0  0  0  0
    6.7728    9.8595   25.2526 O   0  0  0  0  0  0  0  0  0  0  0  0
    9.8156   13.8092   22.2499 O   0  0  0  0  0  0  0  0  0  0  0  0
    7.0680   13.6524   27.1822 H   0  0  0  0  0  0  0  0  0  0  0  0
    4.6557   13.7709   28.4947 H   0  0  0  0  0  0  0  0  0  0  0  0
    9.0729    9.8546   21.8880 H   0  0  0  0  0  0  0  0  0  0  0  0
    7.6684    9.4136   22.8648 H   0  0  0  0  0  0  0  0  0  0  0  0
    9.1477    8.9878   24.6623 H   0  0  0  0  0  0  0  0  0  0  0  0
   10.4839    9.4562   23.6047 H   0  0  0  0  0  0  0  0  0  0  0  0
    6.8385   12.9058   23.8789 H   0  0  0  0  0  0  0  0  0  0  0  0
    6.1003   11.3932   23.3568 H   0  0  0  0  0  0  0  0  0  0  0  0
    8.7551   10.6118   26.6091 H   0  0  0  0  0  0  0  0  0  0  0  0
    8.7648   12.3358   26.2513 H   0  0  0  0  0  0  0  0  0  0  0  0
    8.0875   12.0150   21.9634 H   0  0  0  0  0  0  0  0  0  0  0  0
   10.6655   11.2801   25.1255 H   0  0  0  0  0  0  0  0  0  0  0  0
   12.4301   13.5901   22.8380 H   0  0  0  0  0  0  0  0  0  0  0  0
   12.1333   13.0109   21.1832 H   0  0  0  0  0  0  0  0  0  0  0  0
   13.0072   14.5308   21.4735 H   0  0  0  0  0  0  0  0  0  0  0  0
    9.5708   15.6636   20.3522 H   0  0  0  0  0  0  0  0  0  0  0  0
   10.3744   14.2359   19.7236 H   0  0  0  0  0  0  0  0  0  0  0  0
   11.2983   15.7390   19.9404 H   0  0  0  0  0  0  0  0  0  0  0  0
    9.9810   16.4432   22.7089 H   0  0  0  0  0  0  0  0  0  0  0  0
   11.1366   15.5935   23.7577 H   0  0  0  0  0  0  0  0  0  0  0  0
   11.7019   16.5888   22.3968 H   0  0  0  0  0  0  0  0  0  0  0  0
    4.5449    9.3293   26.5174 H   0  0  0  0  0  0  0  0  0  0  0  0
    3.2106   10.3189   25.8339 H   0  0  0  0  0  0  0  0  0  0  0  0
    4.7026   10.0760   24.8905 H   0  0  0  0  0  0  0  0  0  0  0  0
    6.8760    9.5225   26.1556 H   0  0  0  0  0  0  0  0  0  0  0  0
  1  2  1  0  0  0  0
  1  3  2  0  0  0  0
  2 17  2  0  0  0  0
  3 11  1  0  0  0  0
  3 18  1  0  0  0  0
  4 19  1  0  0  0  0
  4 20  2  0  0  0  0
  4 22  1  0  0  0  0
  5  6  1  0  0  0  0
  5  9  1  0  0  0  0
  6 10  1  1  0  0  0
  7  9  1  1  0  0  0
  7 11  1  0  0  0  0
  8 10  1  0  0  0  0
  8 11  1  0  0  0  0
  9 19  1  0  0  0  0
 10 19  1  0  0  0  0
 11 21  1  1  0  0  0
 12 16  1  0  0  0  0
 13 16  1  0  0  0  0
 14 16  1  0  0  0  0
 15 18  1  0  0  0  0
 16 22  1  0  0  0  0
 17 18  1  0  0  0  0
  1 23  1  0  0  0  0
  2 24  1  0  0  0  0
  5 25  1  0  0  0  0
  5 26  1  0  0  0  0
  6 27  1  0  0  0  0
  6 28  1  0  0  0  0
  7 29  1  0  0  0  0
  7 30  1  0  0  0  0
  8 31  1  0  0  0  0
  8 32  1  0  0  0  0
  9 33  1  0  0  0  0
 10 34  1  0  0  0  0
 12 35  1  0  0  0  0
 12 36  1  0  0  0  0
 12 37  1  0  0  0  0
 13 38  1  0  0  0  0
 13 39  1  0  0  0  0
 13 40  1  0  0  0  0
 14 41  1  0  0  0  0
 14 42  1  0  0  0  0
 14 43  1  0  0  0  0
 15 44  1  0  0  0  0
 15 45  1  0  0  0  0
 15 46  1  0  0  0  0
 21 47  1  0  0  0  0
M  END
> <id>
EN300-27718287

> <smiles>
CN1N=CC=C1[C@@]2(O)C[C@@H]3CC[C@H](C2)N3C(=O)OC(C)(C)C

> <IUPAC Name>
tert-butyl (1R,3S,5S)-3-hydroxy-3-(1-methyl-1H-pyrazol-5-yl)-8-azabicyclo[3.2.1]octane-8-carboxylate

> <CAS>
2648902-14-9

> <URL>
https://www.enaminestore.com/catalog/EN300-27718287

> <ROCS_ShapeQuery>
A71EV2A-x0451_0A_A71EV2A-x0310_0A_A71EV2A-x0416_0A_peptide

> <ROCS_TanimotoCombo>
0.533 

> <ROCS_ShapeTanimoto>
0.318 

> <ROCS_ColorTanimoto>
0.214 

> <ROCS_RefTversky>
0.287 

> <ROCS_RefColorTversky>
0.250 

> <ROCS_RefTverskyCombo>
0.537 

> <ROCS_FitTversky>
1.516 

> <ROCS_FitColorTversky>
0.600 

> <ROCS_FitTverskyCombo>
2.116 

> <ROCS_ColorScore>
-7.677

> <ROCS_Overlap>
1995.799

> <ROCS_Rank>
75                  

$$$$
untitled-dbase-157169_16
  -OEChem-11132313473D

 41 42  0     1  0  0  0  0  0999 V2000
    7.0570    9.8367   24.9812 C   0  0  0  0  0  0  0  0  0  0  0  0
    6.2483   10.6411   25.7818 C   0  0  0  0  0  0  0  0  0  0  0  0
    7.6214   12.5848   25.2693 C   0  0  0  0  0  0  0  0  0  0  0  0
    8.1447   10.4155   24.3397 C   0  0  0  0  0  0  0  0  0  0  0  0
    8.4255   11.7804   24.4739 C   0  0  0  0  0  0  0  0  0  0  0  0
    6.5297   12.0051   25.9248 C   0  0  0  0  0  0  0  0  0  0  0  0
   10.2019   13.3307   23.5276 C   0  0  0  0  0  0  0  0  0  0  0  0
   10.1149   10.8714   23.1294 C   0  0  0  0  0  0  0  0  0  0  0  0
    9.1111    9.7407   23.4069 C   0  0  1  0  0  0  0  0  0  0  0  0
    9.7786    8.5062   23.9953 C   0  0  0  0  0  0  0  0  0  0  0  0
   12.5816   14.8895   23.2090 C   0  0  0  0  0  0  0  0  0  0  0  0
   12.2399   14.5606   20.7423 C   0  0  0  0  0  0  0  0  0  0  0  0
   10.5162   15.7934   22.0903 C   0  0  0  0  0  0  0  0  0  0  0  0
   11.5520   14.6702   22.1014 C   0  0  0  0  0  0  0  0  0  0  0  0
    9.5729   12.1052   23.7215 N   0  0  0  0  0  0  0  0  0  0  0  0
    6.2842   12.8409   28.4440 N   0  0  0  0  0  0  0  0  0  0  0  0
   10.1611   14.2433   24.3533 O   0  0  0  0  0  0  0  0  0  0  0  0
    5.6158   14.3771   26.4847 O   0  0  0  0  0  0  0  0  0  0  0  0
    4.1921   12.3678   27.0172 O   0  0  0  0  0  0  0  0  0  0  0  0
   10.8776   13.4303   22.3450 O   0  0  0  0  0  0  0  0  0  0  0  0
    5.5021   12.9970   26.9333 S   0  0  0  0  0  0  0  0  0  0  0  0
    6.8322    8.7818   24.8614 H   0  0  0  0  0  0  0  0  0  0  0  0
    5.3955   10.1993   26.2899 H   0  0  0  0  0  0  0  0  0  0  0  0
    7.8176   13.6444   25.3976 H   0  0  0  0  0  0  0  0  0  0  0  0
   11.1028   10.6861   23.5711 H   0  0  0  0  0  0  0  0  0  0  0  0
   10.2577   11.0259   22.0522 H   0  0  0  0  0  0  0  0  0  0  0  0
    8.5847    9.4810   22.4792 H   0  0  0  0  0  0  0  0  0  0  0  0
   10.3009    8.7661   24.9167 H   0  0  0  0  0  0  0  0  0  0  0  0
   10.4983    8.0958   23.2860 H   0  0  0  0  0  0  0  0  0  0  0  0
    9.0293    7.7454   24.2173 H   0  0  0  0  0  0  0  0  0  0  0  0
   12.0918   14.9687   24.1861 H   0  0  0  0  0  0  0  0  0  0  0  0
   13.3098   14.0729   23.2502 H   0  0  0  0  0  0  0  0  0  0  0  0
   13.1241   15.8297   23.0580 H   0  0  0  0  0  0  0  0  0  0  0  0
   11.5049   14.4032   19.9447 H   0  0  0  0  0  0  0  0  0  0  0  0
   12.9147   13.6974   20.7149 H   0  0  0  0  0  0  0  0  0  0  0  0
   12.8181   15.4603   20.5084 H   0  0  0  0  0  0  0  0  0  0  0  0
    9.7776   15.6364   21.2959 H   0  0  0  0  0  0  0  0  0  0  0  0
    9.9864   15.8630   23.0459 H   0  0  0  0  0  0  0  0  0  0  0  0
   10.9911   16.7595   21.8843 H   0  0  0  0  0  0  0  0  0  0  0  0
    6.7935   13.6550   28.8090 H   0  0  0  0  0  0  0  0  0  0  0  0
    5.8216   12.2808   29.1704 H   0  0  0  0  0  0  0  0  0  0  0  0
  1  2  1  0  0  0  0
  1  4  2  0  0  0  0
  2  6  2  0  0  0  0
  3  5  2  0  0  0  0
  3  6  1  0  0  0  0
  4  5  1  0  0  0  0
  4  9  1  0  0  0  0
  5 15  1  0  0  0  0
  6 21  1  0  0  0  0
  7 15  1  0  0  0  0
  7 17  2  0  0  0  0
  7 20  1  0  0  0  0
  8  9  1  0  0  0  0
  8 15  1  0  0  0  0
  9 10  1  0  0  0  0
 11 14  1  0  0  0  0
 12 14  1  0  0  0  0
 13 14  1  0  0  0  0
 14 20  1  0  0  0  0
 16 21  1  0  0  0  0
 18 21  2  0  0  0  0
 19 21  2  0  0  0  0
  1 22  1  0  0  0  0
  2 23  1  0  0  0  0
  3 24  1  0  0  0  0
  8 25  1  0  0  0  0
  8 26  1  0  0  0  0
  9 27  1  0  0  0  0
 10 28  1  0  0  0  0
 10 29  1  0  0  0  0
 10 30  1  0  0  0  0
 11 31  1  0  0  0  0
 11 32  1  0  0  0  0
 11 33  1  0  0  0  0
 12 34  1  0  0  0  0
 12 35  1  0  0  0  0
 12 36  1  0  0  0  0
 13 37  1  0  0  0  0
 13 38  1  0  0  0  0
 13 39  1  0  0  0  0
 16 40  1  0  0  0  0
 16 41  1  0  0  0  0
M  END
> <id>
EN300-28292476

> <smiles>
CC1CN(C(=O)OC(C)(C)C)C=2C=C(C=CC12)S(=O)(=O)N

> <IUPAC Name>
tert-butyl 3-methyl-6-sulfamoyl-2,3-dihydro-1H-indole-1-carboxylate

> <CAS>
2680842-03-7

> <URL>
https://www.enaminestore.com/catalog/EN300-28292476

> <ROCS_ShapeQuery>
A71EV2A-x0451_0A_A71EV2A-x0310_0A_A71EV2A-x0416_0A_peptide

> <ROCS_TanimotoCombo>
0.533 

> <ROCS_ShapeTanimoto>
0.368 

> <ROCS_ColorTanimoto>
0.164 

> <ROCS_RefTversky>
0.317 

> <ROCS_RefColorTversky>
0.179 

> <ROCS_RefTverskyCombo>
0.496 

> <ROCS_FitTversky>
1.782 

> <ROCS_FitColorTversky>
0.662 

> <ROCS_FitTverskyCombo>
2.443 

> <ROCS_ColorScore>
-5.464

> <ROCS_Overlap>
2201.633

> <ROCS_Rank>
76                  

$$$$
untitled-dbase-39098_169
  -OEChem-11132313473D

 49 51  0     1  0  0  0  0  0999 V2000
    6.8110   12.7006   25.2030 C   0  0  0  0  0  0  0  0  0  0  0  0
    6.8096    9.9176   25.1740 C   0  0  0  0  0  0  0  0  0  0  0  0
    5.8469   11.9991   25.9244 C   0  0  0  0  0  0  0  0  0  0  0  0
    7.7876   10.6119   24.4431 C   0  0  0  0  0  0  0  0  0  0  0  0
    7.7841   12.0121   24.4712 C   0  0  0  0  0  0  0  0  0  0  0  0
    5.8469   10.6074   25.9116 C   0  0  0  0  0  0  0  0  0  0  0  0
    4.8342   12.7246   26.6757 C   0  0  0  0  0  0  0  0  0  0  0  0
   11.7583   15.1952   22.3783 C   0  0  0  0  0  0  0  0  0  0  0  0
   10.9582   12.1588   24.3379 C   0  0  0  0  0  0  0  0  0  0  0  0
    9.5182   10.7846   22.6603 C   0  0  0  0  0  0  0  0  0  0  0  0
   11.4842   13.5890   24.3053 C   0  0  0  0  0  0  0  0  0  0  0  0
   10.4304   13.0899   22.2003 C   0  0  0  0  0  0  0  0  0  0  0  0
    8.8072    9.8452   23.6397 C   0  0  1  0  0  0  0  0  0  0  0  0
    9.8488   12.1500   23.2706 C   0  0  2  0  0  0  0  0  0  0  0  0
   13.6260   14.5994   20.6407 C   0  0  0  0  0  0  0  0  0  0  0  0
   11.9252   14.8167   18.8052 C   0  0  0  0  0  0  0  0  0  0  0  0
   12.8277   16.8762   19.9242 C   0  0  0  0  0  0  0  0  0  0  0  0
   12.4425   15.4097   20.1139 C   0  0  0  0  0  0  0  0  0  0  0  0
   11.2606   14.0309   22.9384 N   0  0  0  0  0  0  0  0  0  0  0  0
    9.7459    9.1272   24.5040 N   0  0  0  0  0  0  0  0  0  0  0  0
    3.9349   12.2093   27.3480 O   0  0  0  0  0  0  0  0  0  0  0  0
   12.4592   16.0059   22.9798 O   0  0  0  0  0  0  0  0  0  0  0  0
    8.6739   12.7978   23.7891 O   0  0  0  0  0  0  0  0  0  0  0  0
    4.9734   14.0744   26.5674 O   0  0  0  0  0  0  0  0  0  0  0  0
   11.3792   15.3377   21.0703 O   0  0  0  0  0  0  0  0  0  0  0  0
    4.9277    9.9201   26.6031 F   0  0  0  0  0  0  0  0  0  0  0  0
    6.8007   13.7889   25.1972 H   0  0  0  0  0  0  0  0  0  0  0  0
    6.7899    8.8316   25.1785 H   0  0  0  0  0  0  0  0  0  0  0  0
   11.7670   11.4670   24.0695 H   0  0  0  0  0  0  0  0  0  0  0  0
   10.5880   11.8997   25.3362 H   0  0  0  0  0  0  0  0  0  0  0  0
   10.4678   10.3183   22.3240 H   0  0  0  0  0  0  0  0  0  0  0  0
    8.9056   10.9053   21.7446 H   0  0  0  0  0  0  0  0  0  0  0  0
   10.9094   14.2465   24.9666 H   0  0  0  0  0  0  0  0  0  0  0  0
   12.5432   13.6632   24.5700 H   0  0  0  0  0  0  0  0  0  0  0  0
   11.0878   12.5609   21.4994 H   0  0  0  0  0  0  0  0  0  0  0  0
    9.6713   13.6411   21.6343 H   0  0  0  0  0  0  0  0  0  0  0  0
    8.2372    9.0846   23.0668 H   0  0  0  0  0  0  0  0  0  0  0  0
   14.0002   15.0218   21.5801 H   0  0  0  0  0  0  0  0  0  0  0  0
   13.3533   13.5533   20.8142 H   0  0  0  0  0  0  0  0  0  0  0  0
   14.4636   14.6261   19.9344 H   0  0  0  0  0  0  0  0  0  0  0  0
   11.0760   15.3951   18.4236 H   0  0  0  0  0  0  0  0  0  0  0  0
   11.5593   13.7949   18.9574 H   0  0  0  0  0  0  0  0  0  0  0  0
   12.7037   14.7952   18.0358 H   0  0  0  0  0  0  0  0  0  0  0  0
   11.9789   17.4577   19.5464 H   0  0  0  0  0  0  0  0  0  0  0  0
   13.1665   17.3287   20.8618 H   0  0  0  0  0  0  0  0  0  0  0  0
   13.6266   16.9762   19.1806 H   0  0  0  0  0  0  0  0  0  0  0  0
    9.2199    8.5428   25.1070 H   0  0  0  0  0  0  0  0  0  0  0  0
   10.3450    8.5914   23.9245 H   0  0  0  0  0  0  0  0  0  0  0  0
    4.2954   14.5732   27.0713 H   0  0  0  0  0  0  0  0  0  0  0  0
  1  3  1  0  0  0  0
  1  5  2  0  0  0  0
  2  4  2  0  0  0  0
  2  6  1  0  0  0  0
  3  6  2  0  0  0  0
  3  7  1  0  0  0  0
  4  5  1  0  0  0  0
  4 13  1  0  0  0  0
  5 23  1  0  0  0  0
  6 26  1  0  0  0  0
  7 21  2  0  0  0  0
  7 24  1  0  0  0  0
  8 19  1  0  0  0  0
  8 22  2  0  0  0  0
  8 25  1  0  0  0  0
  9 11  1  0  0  0  0
  9 14  1  0  0  0  0
 10 13  1  0  0  0  0
 10 14  1  0  0  0  0
 11 19  1  0  0  0  0
 12 14  1  0  0  0  0
 12 19  1  0  0  0  0
 13 20  1  0  0  0  0
 14 23  1  0  0  0  0
 15 18  1  0  0  0  0
 16 18  1  0  0  0  0
 17 18  1  0  0  0  0
 18 25  1  0  0  0  0
  1 27  1  0  0  0  0
  2 28  1  0  0  0  0
  9 29  1  0  0  0  0
  9 30  1  0  0  0  0
 10 31  1  0  0  0  0
 10 32  1  0  0  0  0
 11 33  1  0  0  0  0
 11 34  1  0  0  0  0
 12 35  1  0  0  0  0
 12 36  1  0  0  0  0
 13 37  1  0  0  0  0
 15 38  1  0  0  0  0
 15 39  1  0  0  0  0
 15 40  1  0  0  0  0
 16 41  1  0  0  0  0
 16 42  1  0  0  0  0
 16 43  1  0  0  0  0
 17 44  1  0  0  0  0
 17 45  1  0  0  0  0
 17 46  1  0  0  0  0
 20 47  1  0  0  0  0
 20 48  1  0  0  0  0
 24 49  1  0  0  0  0
M  END
> <id>
EN300-1129092

> <smiles>
CC(C)(C)OC(=O)N1CCC2(C1)CC(N)C=3C=C(F)C(=CC3O2)C(=O)O

> <IUPAC Name>
4-amino-1'-[(tert-butoxy)carbonyl]-6-fluoro-3,4-dihydrospiro[1-benzopyran-2,3'-pyrrolidine]-7-carboxylic acid

> <CAS>
2138012-27-6

> <URL>
https://www.enaminestore.com/catalog/EN300-1129092

> <ROCS_ShapeQuery>
A71EV2A-x0451_0A_A71EV2A-x0310_0A_A71EV2A-x0416_0A_peptide

> <ROCS_TanimotoCombo>
0.533 

> <ROCS_ShapeTanimoto>
0.388 

> <ROCS_ColorTanimoto>
0.145 

> <ROCS_RefTversky>
0.339 

> <ROCS_RefColorTversky>
0.176 

> <ROCS_RefTverskyCombo>
0.515 

> <ROCS_FitTversky>
1.582 

> <ROCS_FitColorTversky>
0.448 

> <ROCS_FitTverskyCombo>
2.030 

> <ROCS_ColorScore>
-5.402

> <ROCS_Overlap>
2360.318

> <ROCS_Rank>
77                  

$$$$
untitled-dbase-143155_333
  -OEChem-11132313473D

 43 44  0     0  0  0  0  0  0999 V2000
    7.9201   12.7240   25.0007 C   0  0  0  0  0  0  0  0  0  0  0  0
    6.4499   10.9470   25.7250 C   0  0  0  0  0  0  0  0  0  0  0  0
    6.8426   12.2761   25.7738 C   0  0  0  0  0  0  0  0  0  0  0  0
    8.2264   10.4997   24.1251 C   0  0  0  0  0  0  0  0  0  0  0  0
    8.6419   11.8518   24.1667 C   0  0  0  0  0  0  0  0  0  0  0  0
    7.1334   10.0647   24.8980 C   0  0  0  0  0  0  0  0  0  0  0  0
    6.1188   13.2124   26.6204 C   0  0  0  0  0  0  0  0  0  0  0  0
   10.3234   13.5848   23.4426 C   0  0  0  0  0  0  0  0  0  0  0  0
    8.8885    9.4829   23.2330 C   0  0  0  0  0  0  0  0  0  0  0  0
   10.2897    9.9148   22.8549 C   0  0  0  0  0  0  0  0  0  0  0  0
   10.2637   11.3438   22.3456 C   0  0  0  0  0  0  0  0  0  0  0  0
   13.0922   14.1845   22.9805 C   0  0  0  0  0  0  0  0  0  0  0  0
   12.3142   15.2547   20.8454 C   0  0  0  0  0  0  0  0  0  0  0  0
   11.5384   16.1631   23.0547 C   0  0  0  0  0  0  0  0  0  0  0  0
    5.4945   13.6897   28.8724 C   0  0  0  0  0  0  0  0  0  0  0  0
   11.9392   14.9060   22.2841 C   0  0  0  0  0  0  0  0  0  0  0  0
    9.7517   12.2960   23.3487 N   0  0  0  0  0  0  0  0  0  0  0  0
    5.5257   14.2163   26.2052 O   0  0  0  0  0  0  0  0  0  0  0  0
   10.4085   14.2728   24.4560 O   0  0  0  0  0  0  0  0  0  0  0  0
    6.7083    8.7679   24.8503 O   0  0  0  0  0  0  0  0  0  0  0  0
    6.1732   12.8448   27.9369 O   0  0  0  0  0  0  0  0  0  0  0  0
   10.8121   14.0226   22.2345 O   0  0  0  0  0  0  0  0  0  0  0  0
    8.1432   13.7833   25.0546 H   0  0  0  0  0  0  0  0  0  0  0  0
    5.6082   10.5974   26.3176 H   0  0  0  0  0  0  0  0  0  0  0  0
    8.9553    8.5084   23.7307 H   0  0  0  0  0  0  0  0  0  0  0  0
    8.2773    9.3590   22.3305 H   0  0  0  0  0  0  0  0  0  0  0  0
   10.9605    9.8438   23.7208 H   0  0  0  0  0  0  0  0  0  0  0  0
   10.6891    9.2461   22.0841 H   0  0  0  0  0  0  0  0  0  0  0  0
   11.2819   11.6130   22.0464 H   0  0  0  0  0  0  0  0  0  0  0  0
    9.6287   11.4369   21.4555 H   0  0  0  0  0  0  0  0  0  0  0  0
   12.8269   13.9325   24.0135 H   0  0  0  0  0  0  0  0  0  0  0  0
   13.3661   13.2627   22.4570 H   0  0  0  0  0  0  0  0  0  0  0  0
   13.9784   14.8269   23.0369 H   0  0  0  0  0  0  0  0  0  0  0  0
   11.4898   15.7725   20.3419 H   0  0  0  0  0  0  0  0  0  0  0  0
   12.5108   14.3476   20.2625 H   0  0  0  0  0  0  0  0  0  0  0  0
   13.2023   15.8934   20.8028 H   0  0  0  0  0  0  0  0  0  0  0  0
   10.7114   16.6808   22.5554 H   0  0  0  0  0  0  0  0  0  0  0  0
   11.2307   15.9276   24.0787 H   0  0  0  0  0  0  0  0  0  0  0  0
   12.3696   16.8763   23.0962 H   0  0  0  0  0  0  0  0  0  0  0  0
    5.6144   13.2875   29.8813 H   0  0  0  0  0  0  0  0  0  0  0  0
    4.4341   13.7434   28.6136 H   0  0  0  0  0  0  0  0  0  0  0  0
    5.9296   14.6910   28.8277 H   0  0  0  0  0  0  0  0  0  0  0  0
    5.9460    8.6468   25.4361 H   0  0  0  0  0  0  0  0  0  0  0  0
  1  3  1  0  0  0  0
  1  5  2  0  0  0  0
  2  3  2  0  0  0  0
  2  6  1  0  0  0  0
  3  7  1  0  0  0  0
  4  5  1  0  0  0  0
  4  6  2  0  0  0  0
  4  9  1  0  0  0  0
  5 17  1  0  0  0  0
  6 20  1  0  0  0  0
  7 18  2  0  0  0  0
  7 21  1  0  0  0  0
  8 17  1  0  0  0  0
  8 19  2  0  0  0  0
  8 22  1  0  0  0  0
  9 10  1  0  0  0  0
 10 11  1  0  0  0  0
 11 17  1  0  0  0  0
 12 16  1  0  0  0  0
 13 16  1  0  0  0  0
 14 16  1  0  0  0  0
 15 21  1  0  0  0  0
 16 22  1  0  0  0  0
  1 23  1  0  0  0  0
  2 24  1  0  0  0  0
  9 25  1  0  0  0  0
  9 26  1  0  0  0  0
 10 27  1  0  0  0  0
 10 28  1  0  0  0  0
 11 29  1  0  0  0  0
 11 30  1  0  0  0  0
 12 31  1  0  0  0  0
 12 32  1  0  0  0  0
 12 33  1  0  0  0  0
 13 34  1  0  0  0  0
 13 35  1  0  0  0  0
 13 36  1  0  0  0  0
 14 37  1  0  0  0  0
 14 38  1  0  0  0  0
 14 39  1  0  0  0  0
 15 40  1  0  0  0  0
 15 41  1  0  0  0  0
 15 42  1  0  0  0  0
 20 43  1  0  0  0  0
M  END
> <id>
EN300-27718408

> <smiles>
COC(=O)C=1C=C(O)C=2CCCN(C(=O)OC(C)(C)C)C2C1

> <IUPAC Name>
1-tert-butyl 7-methyl 5-hydroxy-1,2,3,4-tetrahydroquinoline-1,7-dicarboxylate

> <CAS>
2580215-89-8

> <URL>
https://www.enaminestore.com/catalog/EN300-27718408

> <ROCS_ShapeQuery>
A71EV2A-x0451_0A_A71EV2A-x0310_0A_A71EV2A-x0416_0A_peptide

> <ROCS_TanimotoCombo>
0.532 

> <ROCS_ShapeTanimoto>
0.369 

> <ROCS_ColorTanimoto>
0.163 

> <ROCS_RefTversky>
0.320 

> <ROCS_RefColorTversky>
0.178 

> <ROCS_RefTverskyCombo>
0.498 

> <ROCS_FitTversky>
1.710 

> <ROCS_FitColorTversky>
0.660 

> <ROCS_FitTverskyCombo>
2.370 

> <ROCS_ColorScore>
-5.439

> <ROCS_Overlap>
2222.267

> <ROCS_Rank>
78                  

$$$$
untitled-dbase-98636_13
  -OEChem-11132313473D

 40 42  0     1  0  0  0  0  0999 V2000
   11.0154   13.6506   23.1835 C   0  0  0  0  0  0  0  0  0  0  0  0
    7.0983   10.3894   24.1459 C   0  0  0  0  0  0  0  0  0  0  0  0
    8.5541   11.8572   25.5950 C   0  0  0  0  0  0  0  0  0  0  0  0
    9.4750    9.7455   24.7045 C   0  0  0  0  0  0  0  0  0  0  0  0
    8.1133   12.5864   23.4256 C   0  0  0  0  0  0  0  0  0  0  0  0
    9.0382   10.4659   22.5312 C   0  0  0  0  0  0  0  0  0  0  0  0
    7.4146   11.8514   24.5721 C   0  0  1  0  0  0  0  0  0  0  0  0
    8.3733    9.6527   23.6447 C   0  0  2  0  0  0  0  0  0  0  0  0
    9.7024   11.2652   24.7609 C   0  0  0  0  0  0  0  0  0  0  0  0
    9.4054   11.7541   23.2941 C   0  0  0  0  0  0  0  0  0  0  0  0
   11.7041   16.4101   22.9374 C   0  0  0  0  0  0  0  0  0  0  0  0
   13.0559   15.7036   20.9417 C   0  0  0  0  0  0  0  0  0  0  0  0
   10.5658   15.3752   20.9455 C   0  0  0  0  0  0  0  0  0  0  0  0
   11.8315   15.3964   21.8012 C   0  0  0  0  0  0  0  0  0  0  0  0
   10.4750   12.4772   22.6785 N   0  0  0  0  0  0  0  0  0  0  0  0
   10.6505   14.2132   24.2106 O   0  0  0  0  0  0  0  0  0  0  0  0
   12.0192   14.0956   22.3700 O   0  0  0  0  0  0  0  0  0  0  0  0
    6.6741    9.8450   24.9980 H   0  0  0  0  0  0  0  0  0  0  0  0
    6.3443   10.3965   23.3498 H   0  0  0  0  0  0  0  0  0  0  0  0
    8.7942   12.8797   25.9107 H   0  0  0  0  0  0  0  0  0  0  0  0
    8.3227   11.2732   26.4917 H   0  0  0  0  0  0  0  0  0  0  0  0
    9.1770    9.3140   25.6653 H   0  0  0  0  0  0  0  0  0  0  0  0
   10.3853    9.2326   24.3709 H   0  0  0  0  0  0  0  0  0  0  0  0
    7.5142   12.6061   22.5091 H   0  0  0  0  0  0  0  0  0  0  0  0
    8.3318   13.6238   23.7097 H   0  0  0  0  0  0  0  0  0  0  0  0
    9.9329    9.9498   22.1601 H   0  0  0  0  0  0  0  0  0  0  0  0
    8.3712   10.6394   21.6801 H   0  0  0  0  0  0  0  0  0  0  0  0
    6.5223   12.3729   24.9284 H   0  0  0  0  0  0  0  0  0  0  0  0
    8.1576    8.6236   23.3465 H   0  0  0  0  0  0  0  0  0  0  0  0
   10.6871   11.5288   25.1559 H   0  0  0  0  0  0  0  0  0  0  0  0
   10.8264   16.1930   23.5567 H   0  0  0  0  0  0  0  0  0  0  0  0
   12.5911   16.4103   23.5792 H   0  0  0  0  0  0  0  0  0  0  0  0
   11.5616   17.4230   22.5436 H   0  0  0  0  0  0  0  0  0  0  0  0
   13.1512   14.9787   20.1252 H   0  0  0  0  0  0  0  0  0  0  0  0
   13.9763   15.6267   21.5318 H   0  0  0  0  0  0  0  0  0  0  0  0
   13.0041   16.7081   20.5092 H   0  0  0  0  0  0  0  0  0  0  0  0
   10.6570   14.6481   20.1304 H   0  0  0  0  0  0  0  0  0  0  0  0
    9.6819   15.1200   21.5390 H   0  0  0  0  0  0  0  0  0  0  0  0
   10.3985   16.3499   20.4730 H   0  0  0  0  0  0  0  0  0  0  0  0
   10.8665   12.1052   21.8106 H   0  0  0  0  0  0  0  0  0  0  0  0
  1 15  1  0  0  0  0
  1 16  2  0  0  0  0
  1 17  1  0  0  0  0
  2  7  1  0  0  0  0
  2  8  1  0  0  0  0
  3  7  1  0  0  0  0
  3  9  1  0  0  0  0
  4  8  1  0  0  0  0
  4  9  1  0  0  0  0
  5  7  1  0  0  0  0
  5 10  1  0  0  0  0
  6  8  1  0  0  0  0
  6 10  1  0  0  0  0
  9 10  1  0  0  0  0
 10 15  1  0  0  0  0
 11 14  1  0  0  0  0
 12 14  1  0  0  0  0
 13 14  1  0  0  0  0
 14 17  1  0  0  0  0
  2 18  1  0  0  0  0
  2 19  1  0  0  0  0
  3 20  1  0  0  0  0
  3 21  1  0  0  0  0
  4 22  1  0  0  0  0
  4 23  1  0  0  0  0
  5 24  1  0  0  0  0
  5 25  1  0  0  0  0
  6 26  1  0  0  0  0
  6 27  1  0  0  0  0
  7 28  1  0  0  0  0
  8 29  1  0  0  0  0
  9 30  1  0  0  0  0
 11 31  1  0  0  0  0
 11 32  1  0  0  0  0
 11 33  1  0  0  0  0
 12 34  1  0  0  0  0
 12 35  1  0  0  0  0
 12 36  1  0  0  0  0
 13 37  1  0  0  0  0
 13 38  1  0  0  0  0
 13 39  1  0  0  0  0
 15 40  1  0  0  0  0
M  END
> <id>
EN300-37447151

> <smiles>
CC(C)(C)OC(=O)NC12CC3CC2CC(C1)C3

> <IUPAC Name>
tert-butyl N-{tricyclo[3.3.1.0,3,7]nonan-3-yl}carbamate

> <URL>
https://www.enaminestore.com/catalog/EN300-37447151

> <ROCS_ShapeQuery>
A71EV2A-x0451_0A_A71EV2A-x0310_0A_A71EV2A-x0416_0A_peptide

> <ROCS_TanimotoCombo>
0.532 

> <ROCS_ShapeTanimoto>
0.303 

> <ROCS_ColorTanimoto>
0.229 

> <ROCS_RefTversky>
0.270 

> <ROCS_RefColorTversky>
0.330 

> <ROCS_RefTverskyCombo>
0.600 

> <ROCS_FitTversky>
1.708 

> <ROCS_FitColorTversky>
0.427 

> <ROCS_FitTverskyCombo>
2.135 

> <ROCS_ColorScore>
-10.342

> <ROCS_Overlap>
1868.996

> <ROCS_Rank>
79                  

$$$$
untitled-dbase-115677_554
  -OEChem-11132313473D

 40 41  0     0  0  0  0  0  0999 V2000
    6.8295   12.6887   24.8239 C   0  0  0  0  0  0  0  0  0  0  0  0
    6.0442   10.9146   26.2670 C   0  0  0  0  0  0  0  0  0  0  0  0
    6.0192   12.2511   25.8736 C   0  0  0  0  0  0  0  0  0  0  0  0
    7.6835   11.7964   24.1609 C   0  0  0  0  0  0  0  0  0  0  0  0
    7.7157   10.4586   24.5859 C   0  0  0  0  0  0  0  0  0  0  0  0
    6.8864   10.0141   25.6186 C   0  0  0  0  0  0  0  0  0  0  0  0
    5.1369   13.1894   26.5492 C   0  0  0  0  0  0  0  0  0  0  0  0
   10.7907   13.0661   23.7340 C   0  0  0  0  0  0  0  0  0  0  0  0
    8.5136   12.2726   22.9967 C   0  0  0  0  0  0  0  0  0  0  0  0
   10.4431   10.7013   23.0656 C   0  0  0  0  0  0  0  0  0  0  0  0
    9.8998    9.7856   24.1567 C   0  0  0  0  0  0  0  0  0  0  0  0
   12.5533   15.2979   23.4131 C   0  0  0  0  0  0  0  0  0  0  0  0
   14.0220   13.7169   22.1276 C   0  0  0  0  0  0  0  0  0  0  0  0
   11.7145   14.2435   21.2872 C   0  0  0  0  0  0  0  0  0  0  0  0
   12.5870   14.0534   22.5272 C   0  0  0  0  0  0  0  0  0  0  0  0
    9.9459   12.0681   23.2319 N   0  0  0  0  0  0  0  0  0  0  0  0
    5.0251   14.3894   26.2778 O   0  0  0  0  0  0  0  0  0  0  0  0
   10.4294   13.9631   24.4937 O   0  0  0  0  0  0  0  0  0  0  0  0
    8.5039    9.5186   23.9706 O   0  0  0  0  0  0  0  0  0  0  0  0
    4.4173   12.6028   27.5447 O   0  0  0  0  0  0  0  0  0  0  0  0
   12.0772   12.9456   23.2780 O   0  0  0  0  0  0  0  0  0  0  0  0
    6.9036    8.7288   25.9970 F   0  0  0  0  0  0  0  0  0  0  0  0
    6.7902   13.7311   24.5144 H   0  0  0  0  0  0  0  0  0  0  0  0
    5.4093   10.5628   27.0761 H   0  0  0  0  0  0  0  0  0  0  0  0
    8.2239   11.7305   22.0882 H   0  0  0  0  0  0  0  0  0  0  0  0
    8.3208   13.3315   22.7951 H   0  0  0  0  0  0  0  0  0  0  0  0
   11.5371   10.7001   23.1022 H   0  0  0  0  0  0  0  0  0  0  0  0
   10.1356   10.3538   22.0731 H   0  0  0  0  0  0  0  0  0  0  0  0
   10.4076    8.8174   24.0820 H   0  0  0  0  0  0  0  0  0  0  0  0
   10.1125   10.1703   25.1637 H   0  0  0  0  0  0  0  0  0  0  0  0
   11.5250   15.5428   23.7021 H   0  0  0  0  0  0  0  0  0  0  0  0
   13.1471   15.1617   24.3228 H   0  0  0  0  0  0  0  0  0  0  0  0
   12.9396   16.1713   22.8753 H   0  0  0  0  0  0  0  0  0  0  0  0
   14.0510   12.8246   21.4918 H   0  0  0  0  0  0  0  0  0  0  0  0
   14.6293   13.4867   23.0105 H   0  0  0  0  0  0  0  0  0  0  0  0
   14.4953   14.5431   21.5872 H   0  0  0  0  0  0  0  0  0  0  0  0
   11.7385   13.3509   20.6516 H   0  0  0  0  0  0  0  0  0  0  0  0
   10.6730   14.4494   21.5547 H   0  0  0  0  0  0  0  0  0  0  0  0
   12.0863   15.0711   20.6723 H   0  0  0  0  0  0  0  0  0  0  0  0
    3.8182   13.2275   28.0063 H   0  0  0  0  0  0  0  0  0  0  0  0
  1  3  1  0  0  0  0
  1  4  2  0  0  0  0
  2  3  2  0  0  0  0
  2  6  1  0  0  0  0
  3  7  1  0  0  0  0
  4  5  1  0  0  0  0
  4  9  1  0  0  0  0
  5  6  2  0  0  0  0
  5 19  1  0  0  0  0
  6 22  1  0  0  0  0
  7 17  2  0  0  0  0
  7 20  1  0  0  0  0
  8 16  1  0  0  0  0
  8 18  2  0  0  0  0
  8 21  1  0  0  0  0
  9 16  1  0  0  0  0
 10 11  1  0  0  0  0
 10 16  1  0  0  0  0
 11 19  1  0  0  0  0
 12 15  1  0  0  0  0
 13 15  1  0  0  0  0
 14 15  1  0  0  0  0
 15 21  1  0  0  0  0
  1 23  1  0  0  0  0
  2 24  1  0  0  0  0
  9 25  1  0  0  0  0
  9 26  1  0  0  0  0
 10 27  1  0  0  0  0
 10 28  1  0  0  0  0
 11 29  1  0  0  0  0
 11 30  1  0  0  0  0
 12 31  1  0  0  0  0
 12 32  1  0  0  0  0
 12 33  1  0  0  0  0
 13 34  1  0  0  0  0
 13 35  1  0  0  0  0
 13 36  1  0  0  0  0
 14 37  1  0  0  0  0
 14 38  1  0  0  0  0
 14 39  1  0  0  0  0
 20 40  1  0  0  0  0
M  END
> <id>
EN300-1128935

> <smiles>
CC(C)(C)OC(=O)N1CCOC=2C(F)=CC(=CC2C1)C(=O)O

> <MDLNUMBER>
MFCD31597184

> <IUPAC Name>
4-[(tert-butoxy)carbonyl]-9-fluoro-2,3,4,5-tetrahydro-1,4-benzoxazepine-7-carboxylic acid

> <CAS>
2138023-87-5

> <URL>
https://www.enaminestore.com/catalog/EN300-1128935

> <ROCS_ShapeQuery>
A71EV2A-x0451_0A_A71EV2A-x0310_0A_A71EV2A-x0416_0A_peptide

> <ROCS_TanimotoCombo>
0.532 

> <ROCS_ShapeTanimoto>
0.345 

> <ROCS_ColorTanimoto>
0.187 

> <ROCS_RefTversky>
0.305 

> <ROCS_RefColorTversky>
0.205 

> <ROCS_RefTverskyCombo>
0.510 

> <ROCS_FitTversky>
1.620 

> <ROCS_FitColorTversky>
0.681 

> <ROCS_FitTverskyCombo>
2.301 

> <ROCS_ColorScore>
-6.264

> <ROCS_Overlap>
2115.951

> <ROCS_Rank>
80                  

$$$$
untitled-dbase-39093_399
  -OEChem-11132313473D

 52 54  0     1  0  0  0  0  0999 V2000
    7.0746   12.8607   25.2946 C   0  0  0  0  0  0  0  0  0  0  0  0
    5.9277   10.8566   25.9882 C   0  0  0  0  0  0  0  0  0  0  0  0
    6.0742   12.2397   26.0399 C   0  0  0  0  0  0  0  0  0  0  0  0
    7.7933   10.7080   24.4325 C   0  0  0  0  0  0  0  0  0  0  0  0
    7.9379   12.0994   24.4998 C   0  0  0  0  0  0  0  0  0  0  0  0
    6.7802   10.0953   25.1881 C   0  0  0  0  0  0  0  0  0  0  0  0
    5.1736   13.0370   26.8579 C   0  0  0  0  0  0  0  0  0  0  0  0
   12.1303   14.9204   22.3153 C   0  0  0  0  0  0  0  0  0  0  0  0
   11.1012   11.9210   24.2243 C   0  0  0  0  0  0  0  0  0  0  0  0
    9.4543   10.7586   22.5773 C   0  0  0  0  0  0  0  0  0  0  0  0
   11.7724   13.2894   24.2073 C   0  0  0  0  0  0  0  0  0  0  0  0
   10.5825   12.9708   22.1402 C   0  0  0  0  0  0  0  0  0  0  0  0
    8.6915    9.8665   23.5619 C   0  0  1  0  0  0  0  0  0  0  0  0
    9.9521   12.0618   23.2095 C   0  0  2  0  0  0  0  0  0  0  0  0
   14.6734   14.9594   21.0119 C   0  0  0  0  0  0  0  0  0  0  0  0
   13.3719   15.2515   18.8835 C   0  0  0  0  0  0  0  0  0  0  0  0
   13.2351   16.9984   20.6829 C   0  0  0  0  0  0  0  0  0  0  0  0
    3.8453   13.0219   28.8399 C   0  0  0  0  0  0  0  0  0  0  0  0
   13.3901   15.5069   20.3890 C   0  0  0  0  0  0  0  0  0  0  0  0
   11.5378   13.7963   22.8651 N   0  0  0  0  0  0  0  0  0  0  0  0
    9.5860    9.0274   24.3616 N   0  0  0  0  0  0  0  0  0  0  0  0
    4.8358   14.1996   26.5984 O   0  0  0  0  0  0  0  0  0  0  0  0
   12.4873   15.9004   22.9653 O   0  0  0  0  0  0  0  0  0  0  0  0
    8.8750   12.8106   23.7995 O   0  0  0  0  0  0  0  0  0  0  0  0
    4.7415   12.3419   27.9544 O   0  0  0  0  0  0  0  0  0  0  0  0
   12.2749   14.8118   20.9580 O   0  0  0  0  0  0  0  0  0  0  0  0
    6.6050    8.7672   25.1470 F   0  0  0  0  0  0  0  0  0  0  0  0
    7.1784   13.9438   25.3200 H   0  0  0  0  0  0  0  0  0  0  0  0
    5.1519   10.3594   26.5634 H   0  0  0  0  0  0  0  0  0  0  0  0
   11.8204   11.1578   23.9009 H   0  0  0  0  0  0  0  0  0  0  0  0
   10.7487   11.6702   25.2312 H   0  0  0  0  0  0  0  0  0  0  0  0
   10.3347   10.2083   22.1844 H   0  0  0  0  0  0  0  0  0  0  0  0
    8.8192   10.9722   21.6945 H   0  0  0  0  0  0  0  0  0  0  0  0
   11.2983   13.9809   24.9126 H   0  0  0  0  0  0  0  0  0  0  0  0
   12.8437   13.2453   24.4249 H   0  0  0  0  0  0  0  0  0  0  0  0
   11.1501   12.4000   21.3950 H   0  0  0  0  0  0  0  0  0  0  0  0
    9.8618   13.6158   21.6254 H   0  0  0  0  0  0  0  0  0  0  0  0
    8.0175    9.1874   22.9956 H   0  0  0  0  0  0  0  0  0  0  0  0
   14.6903   15.1408   22.0925 H   0  0  0  0  0  0  0  0  0  0  0  0
   14.7790   13.8835   20.8382 H   0  0  0  0  0  0  0  0  0  0  0  0
   15.5545   15.4646   20.5999 H   0  0  0  0  0  0  0  0  0  0  0  0
   12.4528   15.6428   18.4325 H   0  0  0  0  0  0  0  0  0  0  0  0
   13.3873   14.1767   18.6698 H   0  0  0  0  0  0  0  0  0  0  0  0
   14.2282   15.7166   18.3845 H   0  0  0  0  0  0  0  0  0  0  0  0
   12.3146   17.3914   20.2363 H   0  0  0  0  0  0  0  0  0  0  0  0
   13.2089   17.1968   21.7593 H   0  0  0  0  0  0  0  0  0  0  0  0
   14.0605   17.5700   20.2434 H   0  0  0  0  0  0  0  0  0  0  0  0
    3.5789   12.3609   29.6682 H   0  0  0  0  0  0  0  0  0  0  0  0
    2.9468   13.3188   28.2930 H   0  0  0  0  0  0  0  0  0  0  0  0
    4.3414   13.9126   29.2326 H   0  0  0  0  0  0  0  0  0  0  0  0
    9.0279    8.4832   24.9731 H   0  0  0  0  0  0  0  0  0  0  0  0
   10.0982    8.4502   23.7402 H   0  0  0  0  0  0  0  0  0  0  0  0
  1  3  1  0  0  0  0
  1  5  2  0  0  0  0
  2  3  2  0  0  0  0
  2  6  1  0  0  0  0
  3  7  1  0  0  0  0
  4  5  1  0  0  0  0
  4  6  2  0  0  0  0
  4 13  1  0  0  0  0
  5 24  1  0  0  0  0
  6 27  1  0  0  0  0
  7 22  2  0  0  0  0
  7 25  1  0  0  0  0
  8 20  1  0  0  0  0
  8 23  2  0  0  0  0
  8 26  1  0  0  0  0
  9 11  1  0  0  0  0
  9 14  1  0  0  0  0
 10 13  1  0  0  0  0
 10 14  1  0  0  0  0
 11 20  1  0  0  0  0
 12 14  1  0  0  0  0
 12 20  1  0  0  0  0
 13 21  1  0  0  0  0
 14 24  1  0  0  0  0
 15 19  1  0  0  0  0
 16 19  1  0  0  0  0
 17 19  1  0  0  0  0
 18 25  1  0  0  0  0
 19 26  1  0  0  0  0
  1 28  1  0  0  0  0
  2 29  1  0  0  0  0
  9 30  1  0  0  0  0
  9 31  1  0  0  0  0
 10 32  1  0  0  0  0
 10 33  1  0  0  0  0
 11 34  1  0  0  0  0
 11 35  1  0  0  0  0
 12 36  1  0  0  0  0
 12 37  1  0  0  0  0
 13 38  1  0  0  0  0
 15 39  1  0  0  0  0
 15 40  1  0  0  0  0
 15 41  1  0  0  0  0
 16 42  1  0  0  0  0
 16 43  1  0  0  0  0
 16 44  1  0  0  0  0
 17 45  1  0  0  0  0
 17 46  1  0  0  0  0
 17 47  1  0  0  0  0
 18 48  1  0  0  0  0
 18 49  1  0  0  0  0
 18 50  1  0  0  0  0
 21 51  1  0  0  0  0
 21 52  1  0  0  0  0
M  END
> <id>
EN300-1129080

> <smiles>
COC(=O)C=1C=C(F)C=2C(N)CC3(CCN(C3)C(=O)OC(C)(C)C)OC2C1

> <IUPAC Name>
1'-tert-butyl 7-methyl 4-amino-5-fluoro-3,4-dihydrospiro[1-benzopyran-2,3'-pyrrolidine]-1',7-dicarboxylate

> <CAS>
2138012-12-9

> <URL>
https://www.enaminestore.com/catalog/EN300-1129080

> <ROCS_ShapeQuery>
A71EV2A-x0451_0A_A71EV2A-x0310_0A_A71EV2A-x0416_0A_peptide

> <ROCS_TanimotoCombo>
0.531 

> <ROCS_ShapeTanimoto>
0.403 

> <ROCS_ColorTanimoto>
0.128 

> <ROCS_RefTversky>
0.351 

> <ROCS_RefColorTversky>
0.151 

> <ROCS_RefTverskyCombo>
0.502 

> <ROCS_FitTversky>
1.593 

> <ROCS_FitColorTversky>
0.456 

> <ROCS_FitTverskyCombo>
2.049 

> <ROCS_ColorScore>
-4.629

> <ROCS_Overlap>
2439.007

> <ROCS_Rank>
81                  

$$$$
untitled-dbase-150587_9
  -OEChem-11132313473D

 35 36  0     0  0  0  0  0  0999 V2000
    6.2521   13.0906   25.6324 C   0  0  0  0  0  0  0  0  0  0  0  0
    9.4280    8.0724   23.4190 C   0  0  0  0  0  0  0  0  0  0  0  0
    8.3123    7.6746   24.1451 C   0  0  0  0  0  0  0  0  0  0  0  0
    9.7029    9.4287   23.2698 C   0  0  0  0  0  0  0  0  0  0  0  0
    7.4744    8.6334   24.7200 C   0  0  0  0  0  0  0  0  0  0  0  0
    8.2617   12.6919   24.2970 C   0  0  0  0  0  0  0  0  0  0  0  0
    7.1773   12.2084   25.0005 C   0  0  0  0  0  0  0  0  0  0  0  0
    8.8600   10.3929   23.8482 C   0  0  0  0  0  0  0  0  0  0  0  0
    7.7255    9.9963   24.5868 C   0  0  0  0  0  0  0  0  0  0  0  0
    9.1131   11.7647   23.7137 C   0  0  0  0  0  0  0  0  0  0  0  0
   10.9337   13.4192   23.2050 C   0  0  0  0  0  0  0  0  0  0  0  0
   11.9901   15.9050   22.2646 C   0  0  0  0  0  0  0  0  0  0  0  0
   13.0952   14.5433   20.4663 C   0  0  0  0  0  0  0  0  0  0  0  0
   10.5893   14.6116   20.6215 C   0  0  0  0  0  0  0  0  0  0  0  0
   11.8982   14.6420   21.4095 C   0  0  0  0  0  0  0  0  0  0  0  0
    5.4991   13.8085   26.1466 N   0  0  0  0  0  0  0  0  0  0  0  0
    6.8974   10.8938   25.1540 N   0  0  0  0  0  0  0  0  0  0  0  0
   10.2154   12.2474   22.9986 N   0  0  0  0  0  0  0  0  0  0  0  0
   10.7369   14.2687   24.0654 O   0  0  0  0  0  0  0  0  0  0  0  0
   11.9358   13.5016   22.2753 O   0  0  0  0  0  0  0  0  0  0  0  0
   10.0815    7.3308   22.9699 H   0  0  0  0  0  0  0  0  0  0  0  0
    8.0892    6.6186   24.2661 H   0  0  0  0  0  0  0  0  0  0  0  0
   10.5825    9.7120   22.6966 H   0  0  0  0  0  0  0  0  0  0  0  0
    6.6061    8.2961   25.2831 H   0  0  0  0  0  0  0  0  0  0  0  0
    8.4437   13.7585   24.2027 H   0  0  0  0  0  0  0  0  0  0  0  0
   11.1326   15.9795   22.9430 H   0  0  0  0  0  0  0  0  0  0  0  0
   12.9080   15.9223   22.8612 H   0  0  0  0  0  0  0  0  0  0  0  0
   11.9675   16.8040   21.6380 H   0  0  0  0  0  0  0  0  0  0  0  0
   13.0334   13.6386   19.8508 H   0  0  0  0  0  0  0  0  0  0  0  0
   14.0318   14.4692   21.0307 H   0  0  0  0  0  0  0  0  0  0  0  0
   13.1586   15.4111   19.8018 H   0  0  0  0  0  0  0  0  0  0  0  0
   10.5231   13.7058   20.0081 H   0  0  0  0  0  0  0  0  0  0  0  0
    9.7186   14.6444   21.2845 H   0  0  0  0  0  0  0  0  0  0  0  0
   10.5317   15.4590   19.9289 H   0  0  0  0  0  0  0  0  0  0  0  0
   10.5339   11.6612   22.2228 H   0  0  0  0  0  0  0  0  0  0  0  0
  1  7  1  0  0  0  0
  1 16  3  0  0  0  0
  2  3  2  0  0  0  0
  2  4  1  0  0  0  0
  3  5  1  0  0  0  0
  4  8  2  0  0  0  0
  5  9  2  0  0  0  0
  6  7  1  0  0  0  0
  6 10  2  0  0  0  0
  7 17  2  0  0  0  0
  8  9  1  0  0  0  0
  8 10  1  0  0  0  0
  9 17  1  0  0  0  0
 10 18  1  0  0  0  0
 11 18  1  0  0  0  0
 11 19  2  0  0  0  0
 11 20  1  0  0  0  0
 12 15  1  0  0  0  0
 13 15  1  0  0  0  0
 14 15  1  0  0  0  0
 15 20  1  0  0  0  0
  2 21  1  0  0  0  0
  3 22  1  0  0  0  0
  4 23  1  0  0  0  0
  5 24  1  0  0  0  0
  6 25  1  0  0  0  0
 12 26  1  0  0  0  0
 12 27  1  0  0  0  0
 12 28  1  0  0  0  0
 13 29  1  0  0  0  0
 13 30  1  0  0  0  0
 13 31  1  0  0  0  0
 14 32  1  0  0  0  0
 14 33  1  0  0  0  0
 14 34  1  0  0  0  0
 18 35  1  0  0  0  0
M  END
> <id>
EN300-28283155

> <smiles>
CC(C)(C)OC(=O)NC=1C=C(C#N)N=C2C=CC=CC12

> <IUPAC Name>
tert-butyl N-(2-cyanoquinolin-4-yl)carbamate

> <CAS>
2680750-19-8

> <URL>
https://www.enaminestore.com/catalog/EN300-28283155

> <ROCS_ShapeQuery>
A71EV2A-x0451_0A_A71EV2A-x0310_0A_A71EV2A-x0416_0A_peptide

> <ROCS_TanimotoCombo>
0.531 

> <ROCS_ShapeTanimoto>
0.368 

> <ROCS_ColorTanimoto>
0.163 

> <ROCS_RefTversky>
0.317 

> <ROCS_RefColorTversky>
0.178 

> <ROCS_RefTverskyCombo>
0.495 

> <ROCS_FitTversky>
1.792 

> <ROCS_FitColorTversky>
0.659 

> <ROCS_FitTverskyCombo>
2.451 

> <ROCS_ColorScore>
-5.435

> <ROCS_Overlap>
2197.013

> <ROCS_Rank>
82                  

$$$$
untitled-dbase-162660_68
  -OEChem-11132313473D

 39 40  0     0  0  0  0  0  0999 V2000
    6.0532   10.8905   26.3185 C   0  0  0  0  0  0  0  0  0  0  0  0
    6.8938   10.0002   25.6541 C   0  0  0  0  0  0  0  0  0  0  0  0
    6.8041   12.6780   24.8736 C   0  0  0  0  0  0  0  0  0  0  0  0
    7.6562   11.7961   24.1945 C   0  0  0  0  0  0  0  0  0  0  0  0
    6.0118   12.2286   25.9322 C   0  0  0  0  0  0  0  0  0  0  0  0
    7.7052   10.4565   24.6124 C   0  0  0  0  0  0  0  0  0  0  0  0
   10.7467   13.0935   23.7316 C   0  0  0  0  0  0  0  0  0  0  0  0
    8.4663   12.2847   23.0215 C   0  0  0  0  0  0  0  0  0  0  0  0
   10.4094   10.7292   23.0562 C   0  0  0  0  0  0  0  0  0  0  0  0
    9.8886    9.8037   24.1501 C   0  0  0  0  0  0  0  0  0  0  0  0
   12.4864   15.3414   23.3977 C   0  0  0  0  0  0  0  0  0  0  0  0
   13.9503   13.7788   22.0844 C   0  0  0  0  0  0  0  0  0  0  0  0
   11.6272   14.2904   21.2783 C   0  0  0  0  0  0  0  0  0  0  0  0
   12.5182   14.1015   22.5052 C   0  0  0  0  0  0  0  0  0  0  0  0
    9.9033   12.0910   23.2361 N   0  0  0  0  0  0  0  0  0  0  0  0
    5.1518   13.1346   26.6077 N   0  3  0  0  0  0  0  0  0  0  0  0
    4.4387   12.7093   27.5484 O   0  5  0  0  0  0  0  0  0  0  0  0
   10.3885   13.9837   24.5006 O   0  0  0  0  0  0  0  0  0  0  0  0
    5.1283   14.3356   26.2449 O   0  0  0  0  0  0  0  0  0  0  0  0
    8.4926    9.5261   23.9818 O   0  0  0  0  0  0  0  0  0  0  0  0
   12.0278   12.9859   23.2575 O   0  0  0  0  0  0  0  0  0  0  0  0
    5.4331   10.5276   27.1346 H   0  0  0  0  0  0  0  0  0  0  0  0
    6.9198    8.9569   25.9566 H   0  0  0  0  0  0  0  0  0  0  0  0
    6.7534   13.7215   24.5679 H   0  0  0  0  0  0  0  0  0  0  0  0
    8.1683   11.7449   22.1143 H   0  0  0  0  0  0  0  0  0  0  0  0
    8.2619   13.3430   22.8280 H   0  0  0  0  0  0  0  0  0  0  0  0
   11.5037   10.7367   23.0778 H   0  0  0  0  0  0  0  0  0  0  0  0
   10.0913   10.3842   22.0659 H   0  0  0  0  0  0  0  0  0  0  0  0
   10.4034    8.8400   24.0637 H   0  0  0  0  0  0  0  0  0  0  0  0
   10.1119   10.1851   25.1559 H   0  0  0  0  0  0  0  0  0  0  0  0
   11.4601   15.5763   23.7020 H   0  0  0  0  0  0  0  0  0  0  0  0
   13.0937   15.2056   24.2986 H   0  0  0  0  0  0  0  0  0  0  0  0
   12.8581   16.2205   22.8591 H   0  0  0  0  0  0  0  0  0  0  0  0
   13.9778   12.8899   21.4439 H   0  0  0  0  0  0  0  0  0  0  0  0
   14.5714   13.5493   22.9577 H   0  0  0  0  0  0  0  0  0  0  0  0
   14.4092   14.6115   21.5417 H   0  0  0  0  0  0  0  0  0  0  0  0
   11.6498   13.4012   20.6380 H   0  0  0  0  0  0  0  0  0  0  0  0
   10.5878   14.4864   21.5610 H   0  0  0  0  0  0  0  0  0  0  0  0
   11.9837   15.1240   20.6625 H   0  0  0  0  0  0  0  0  0  0  0  0
  1  2  1  0  0  0  0
  1  5  2  0  0  0  0
  2  6  2  0  0  0  0
  3  4  2  0  0  0  0
  3  5  1  0  0  0  0
  4  6  1  0  0  0  0
  4  8  1  0  0  0  0
  5 16  1  0  0  0  0
  6 20  1  0  0  0  0
  7 15  1  0  0  0  0
  7 18  2  0  0  0  0
  7 21  1  0  0  0  0
  8 15  1  0  0  0  0
  9 10  1  0  0  0  0
  9 15  1  0  0  0  0
 10 20  1  0  0  0  0
 11 14  1  0  0  0  0
 12 14  1  0  0  0  0
 13 14  1  0  0  0  0
 14 21  1  0  0  0  0
 16 17  1  0  0  0  0
 16 19  2  0  0  0  0
  1 22  1  0  0  0  0
  2 23  1  0  0  0  0
  3 24  1  0  0  0  0
  8 25  1  0  0  0  0
  8 26  1  0  0  0  0
  9 27  1  0  0  0  0
  9 28  1  0  0  0  0
 10 29  1  0  0  0  0
 10 30  1  0  0  0  0
 11 31  1  0  0  0  0
 11 32  1  0  0  0  0
 11 33  1  0  0  0  0
 12 34  1  0  0  0  0
 12 35  1  0  0  0  0
 12 36  1  0  0  0  0
 13 37  1  0  0  0  0
 13 38  1  0  0  0  0
 13 39  1  0  0  0  0
M  CHG  2  16   1  17  -1
M  END
> <id>
EN300-336172

> <smiles>
CC(C)(C)OC(=O)N1CCOC=2C=CC(=CC2C1)[N+](=O)[O-]

> <MDLNUMBER>
MFCD28388199

> <IUPAC Name>
tert-butyl 7-nitro-2,3,4,5-tetrahydro-1,4-benzoxazepine-4-carboxylate

> <CAS>
2059955-35-8

> <URL>
https://www.enaminestore.com/catalog/EN300-336172

> <ROCS_ShapeQuery>
A71EV2A-x0451_0A_A71EV2A-x0310_0A_A71EV2A-x0416_0A_peptide

> <ROCS_TanimotoCombo>
0.531 

> <ROCS_ShapeTanimoto>
0.342 

> <ROCS_ColorTanimoto>
0.189 

> <ROCS_RefTversky>
0.301 

> <ROCS_RefColorTversky>
0.202 

> <ROCS_RefTverskyCombo>
0.503 

> <ROCS_FitTversky>
1.655 

> <ROCS_FitColorTversky>
0.746 

> <ROCS_FitTverskyCombo>
2.401 

> <ROCS_ColorScore>
-6.159

> <ROCS_Overlap>
2091.844

> <ROCS_Rank>
83                  

$$$$
untitled-dbase-39174_561
  -OEChem-11132313473D

 43 44  0     0  0  0  0  0  0999 V2000
    6.8291   12.6878   24.8243 C   0  0  0  0  0  0  0  0  0  0  0  0
    6.0448   10.9136   26.2679 C   0  0  0  0  0  0  0  0  0  0  0  0
    6.0191   12.2500   25.8742 C   0  0  0  0  0  0  0  0  0  0  0  0
    7.6833   11.7958   24.1612 C   0  0  0  0  0  0  0  0  0  0  0  0
    6.8872   10.0134   25.6194 C   0  0  0  0  0  0  0  0  0  0  0  0
    7.7161   10.4580   24.5865 C   0  0  0  0  0  0  0  0  0  0  0  0
    5.1368   13.1890   26.5494 C   0  0  0  0  0  0  0  0  0  0  0  0
   10.7898   13.0668   23.7336 C   0  0  0  0  0  0  0  0  0  0  0  0
    8.5129   12.2721   22.9969 C   0  0  0  0  0  0  0  0  0  0  0  0
   10.4432   10.7017   23.0657 C   0  0  0  0  0  0  0  0  0  0  0  0
    9.9004    9.7859   24.1571 C   0  0  0  0  0  0  0  0  0  0  0  0
    6.8935    8.5839   26.0529 C   0  0  0  0  0  0  0  0  0  0  0  0
   12.5515   15.2993   23.4120 C   0  0  0  0  0  0  0  0  0  0  0  0
   14.0206   13.7187   22.1265 C   0  0  0  0  0  0  0  0  0  0  0  0
   11.7127   14.2441   21.2865 C   0  0  0  0  0  0  0  0  0  0  0  0
   12.5855   14.0546   22.5263 C   0  0  0  0  0  0  0  0  0  0  0  0
    9.9454   12.0682   23.2319 N   0  0  0  0  0  0  0  0  0  0  0  0
    5.0252   14.3887   26.2772 O   0  0  0  0  0  0  0  0  0  0  0  0
   10.4283   13.9637   24.4932 O   0  0  0  0  0  0  0  0  0  0  0  0
    8.5047    9.5183   23.9713 O   0  0  0  0  0  0  0  0  0  0  0  0
    4.4174   12.6029   27.5452 O   0  0  0  0  0  0  0  0  0  0  0  0
   12.0763   12.9467   23.2774 O   0  0  0  0  0  0  0  0  0  0  0  0
    6.7889   13.7303   24.5149 H   0  0  0  0  0  0  0  0  0  0  0  0
    5.4053   10.5720   27.0787 H   0  0  0  0  0  0  0  0  0  0  0  0
    8.2232   11.7294   22.0888 H   0  0  0  0  0  0  0  0  0  0  0  0
    8.3193   13.3309   22.7949 H   0  0  0  0  0  0  0  0  0  0  0  0
   11.5372   10.7008   23.1020 H   0  0  0  0  0  0  0  0  0  0  0  0
   10.1354   10.3541   22.0732 H   0  0  0  0  0  0  0  0  0  0  0  0
   10.4087    8.8178   24.0825 H   0  0  0  0  0  0  0  0  0  0  0  0
   10.1132   10.1707   25.1638 H   0  0  0  0  0  0  0  0  0  0  0  0
    6.1504    8.0120   25.4853 H   0  0  0  0  0  0  0  0  0  0  0  0
    7.8788    8.1275   25.8984 H   0  0  0  0  0  0  0  0  0  0  0  0
    6.6632    8.4931   27.1216 H   0  0  0  0  0  0  0  0  0  0  0  0
   11.5231   15.5437   23.7011 H   0  0  0  0  0  0  0  0  0  0  0  0
   13.1455   15.1634   24.3216 H   0  0  0  0  0  0  0  0  0  0  0  0
   12.9372   16.1727   22.8739 H   0  0  0  0  0  0  0  0  0  0  0  0
   14.0498   12.8262   21.4909 H   0  0  0  0  0  0  0  0  0  0  0  0
   14.6281   13.4888   23.0093 H   0  0  0  0  0  0  0  0  0  0  0  0
   14.4934   14.5449   21.5858 H   0  0  0  0  0  0  0  0  0  0  0  0
   11.7370   13.3514   20.6510 H   0  0  0  0  0  0  0  0  0  0  0  0
   10.6712   14.4496   21.5541 H   0  0  0  0  0  0  0  0  0  0  0  0
   12.0840   15.0717   20.6713 H   0  0  0  0  0  0  0  0  0  0  0  0
    3.8183   13.2280   28.0064 H   0  0  0  0  0  0  0  0  0  0  0  0
  1  3  2  0  0  0  0
  1  4  1  0  0  0  0
  2  3  1  0  0  0  0
  2  5  2  0  0  0  0
  3  7  1  0  0  0  0
  4  6  2  0  0  0  0
  4  9  1  0  0  0  0
  5  6  1  0  0  0  0
  5 12  1  0  0  0  0
  6 20  1  0  0  0  0
  7 18  2  0  0  0  0
  7 21  1  0  0  0  0
  8 17  1  0  0  0  0
  8 19  2  0  0  0  0
  8 22  1  0  0  0  0
  9 17  1  0  0  0  0
 10 11  1  0  0  0  0
 10 17  1  0  0  0  0
 11 20  1  0  0  0  0
 13 16  1  0  0  0  0
 14 16  1  0  0  0  0
 15 16  1  0  0  0  0
 16 22  1  0  0  0  0
  1 23  1  0  0  0  0
  2 24  1  0  0  0  0
  9 25  1  0  0  0  0
  9 26  1  0  0  0  0
 10 27  1  0  0  0  0
 10 28  1  0  0  0  0
 11 29  1  0  0  0  0
 11 30  1  0  0  0  0
 12 31  1  0  0  0  0
 12 32  1  0  0  0  0
 12 33  1  0  0  0  0
 13 34  1  0  0  0  0
 13 35  1  0  0  0  0
 13 36  1  0  0  0  0
 14 37  1  0  0  0  0
 14 38  1  0  0  0  0
 14 39  1  0  0  0  0
 15 40  1  0  0  0  0
 15 41  1  0  0  0  0
 15 42  1  0  0  0  0
 21 43  1  0  0  0  0
M  END
> <id>
EN300-1128936

> <smiles>
CC=1C=C(C=C2CN(CCOC12)C(=O)OC(C)(C)C)C(=O)O

> <MDLNUMBER>
MFCD31597185

> <IUPAC Name>
4-[(tert-butoxy)carbonyl]-9-methyl-2,3,4,5-tetrahydro-1,4-benzoxazepine-7-carboxylic acid

> <CAS>
2138023-89-7

> <URL>
https://www.enaminestore.com/catalog/EN300-1128936

> <ROCS_ShapeQuery>
A71EV2A-x0451_0A_A71EV2A-x0310_0A_A71EV2A-x0416_0A_peptide

> <ROCS_TanimotoCombo>
0.531 

> <ROCS_ShapeTanimoto>
0.344 

> <ROCS_ColorTanimoto>
0.187 

> <ROCS_RefTversky>
0.304 

> <ROCS_RefColorTversky>
0.205 

> <ROCS_RefTverskyCombo>
0.509 

> <ROCS_FitTversky>
1.622 

> <ROCS_FitColorTversky>
0.681 

> <ROCS_FitTverskyCombo>
2.303 

> <ROCS_ColorScore>
-6.263

> <ROCS_Overlap>
2110.339

> <ROCS_Rank>
84                  

$$$$
untitled-dbase-39095_739
  -OEChem-11132313473D

 49 51  0     1  0  0  0  0  0999 V2000
    5.8240   10.6451   25.8649 C   0  0  0  0  0  0  0  0  0  0  0  0
    6.7621    9.9236   25.1260 C   0  0  0  0  0  0  0  0  0  0  0  0
    6.8811   12.7034   25.1875 C   0  0  0  0  0  0  0  0  0  0  0  0
    5.8828   12.0353   25.8940 C   0  0  0  0  0  0  0  0  0  0  0  0
    7.7740   10.5840   24.4101 C   0  0  0  0  0  0  0  0  0  0  0  0
    7.8296   11.9827   24.4545 C   0  0  0  0  0  0  0  0  0  0  0  0
    4.8946   12.7906   26.6481 C   0  0  0  0  0  0  0  0  0  0  0  0
   11.9505   15.0178   22.4265 C   0  0  0  0  0  0  0  0  0  0  0  0
   11.0080   11.9960   24.3450 C   0  0  0  0  0  0  0  0  0  0  0  0
    9.5236   10.7034   22.6415 C   0  0  0  0  0  0  0  0  0  0  0  0
   11.5943   13.4029   24.3327 C   0  0  0  0  0  0  0  0  0  0  0  0
   10.5359   12.9730   22.2148 C   0  0  0  0  0  0  0  0  0  0  0  0
    8.7662    9.7839   23.6049 C   0  0  1  0  0  0  0  0  0  0  0  0
    9.9071   12.0465   23.2700 C   0  0  2  0  0  0  0  0  0  0  0  0
   14.4487   14.5670   21.7801 C   0  0  0  0  0  0  0  0  0  0  0  0
   13.7179   14.1750   19.4092 C   0  0  0  0  0  0  0  0  0  0  0  0
   13.7824   16.5117   20.3278 C   0  0  0  0  0  0  0  0  0  0  0  0
   13.5310   15.0401   20.6537 C   0  0  0  0  0  0  0  0  0  0  0  0
   11.3998   13.8694   22.9695 N   0  0  0  0  0  0  0  0  0  0  0  0
    9.6672    9.0169   24.4672 N   0  0  0  0  0  0  0  0  0  0  0  0
    3.9630   12.3033   27.2972 O   0  0  0  0  0  0  0  0  0  0  0  0
   12.2125   16.0299   23.0725 O   0  0  0  0  0  0  0  0  0  0  0  0
    8.7570   12.7376   23.7878 O   0  0  0  0  0  0  0  0  0  0  0  0
    5.0975   14.1346   26.5720 O   0  0  0  0  0  0  0  0  0  0  0  0
   12.1722   14.8934   21.0810 O   0  0  0  0  0  0  0  0  0  0  0  0
    5.0524   10.1116   26.4129 H   0  0  0  0  0  0  0  0  0  0  0  0
    6.6964    8.8393   25.1173 H   0  0  0  0  0  0  0  0  0  0  0  0
    6.9168   13.7912   25.1944 H   0  0  0  0  0  0  0  0  0  0  0  0
   11.7886   11.2732   24.0750 H   0  0  0  0  0  0  0  0  0  0  0  0
   10.6198   11.7416   25.3375 H   0  0  0  0  0  0  0  0  0  0  0  0
   10.4547   10.2010   22.3055 H   0  0  0  0  0  0  0  0  0  0  0  0
    8.9229   10.8604   21.7233 H   0  0  0  0  0  0  0  0  0  0  0  0
   11.0433   14.0768   24.9978 H   0  0  0  0  0  0  0  0  0  0  0  0
   12.6533   13.4293   24.6057 H   0  0  0  0  0  0  0  0  0  0  0  0
   11.1755   12.4248   21.5124 H   0  0  0  0  0  0  0  0  0  0  0  0
    9.8049   13.5622   21.6500 H   0  0  0  0  0  0  0  0  0  0  0  0
    8.1683    9.0549   23.0190 H   0  0  0  0  0  0  0  0  0  0  0  0
   14.3176   15.1855   22.6753 H   0  0  0  0  0  0  0  0  0  0  0  0
   14.2544   13.5232   22.0472 H   0  0  0  0  0  0  0  0  0  0  0  0
   15.5019   14.6602   21.4916 H   0  0  0  0  0  0  0  0  0  0  0  0
   13.0613   14.5109   18.5984 H   0  0  0  0  0  0  0  0  0  0  0  0
   13.4471   13.1329   19.6140 H   0  0  0  0  0  0  0  0  0  0  0  0
   14.7521   14.2005   19.0509 H   0  0  0  0  0  0  0  0  0  0  0  0
   13.1242   16.8512   19.5199 H   0  0  0  0  0  0  0  0  0  0  0  0
   13.6170   17.1519   21.2004 H   0  0  0  0  0  0  0  0  0  0  0  0
   14.8089   16.6627   19.9746 H   0  0  0  0  0  0  0  0  0  0  0  0
    9.1125    8.4487   25.0598 H   0  0  0  0  0  0  0  0  0  0  0  0
   10.2473    8.4627   23.8856 H   0  0  0  0  0  0  0  0  0  0  0  0
    4.4364   14.6532   27.0782 H   0  0  0  0  0  0  0  0  0  0  0  0
  1  2  1  0  0  0  0
  1  4  2  0  0  0  0
  2  5  2  0  0  0  0
  3  4  1  0  0  0  0
  3  6  2  0  0  0  0
  4  7  1  0  0  0  0
  5  6  1  0  0  0  0
  5 13  1  0  0  0  0
  6 23  1  0  0  0  0
  7 21  2  0  0  0  0
  7 24  1  0  0  0  0
  8 19  1  0  0  0  0
  8 22  2  0  0  0  0
  8 25  1  0  0  0  0
  9 11  1  0  0  0  0
  9 14  1  0  0  0  0
 10 13  1  0  0  0  0
 10 14  1  0  0  0  0
 11 19  1  0  0  0  0
 12 14  1  0  0  0  0
 12 19  1  0  0  0  0
 13 20  1  0  0  0  0
 14 23  1  0  0  0  0
 15 18  1  0  0  0  0
 16 18  1  0  0  0  0
 17 18  1  0  0  0  0
 18 25  1  0  0  0  0
  1 26  1  0  0  0  0
  2 27  1  0  0  0  0
  3 28  1  0  0  0  0
  9 29  1  0  0  0  0
  9 30  1  0  0  0  0
 10 31  1  0  0  0  0
 10 32  1  0  0  0  0
 11 33  1  0  0  0  0
 11 34  1  0  0  0  0
 12 35  1  0  0  0  0
 12 36  1  0  0  0  0
 13 37  1  0  0  0  0
 15 38  1  0  0  0  0
 15 39  1  0  0  0  0
 15 40  1  0  0  0  0
 16 41  1  0  0  0  0
 16 42  1  0  0  0  0
 16 43  1  0  0  0  0
 17 44  1  0  0  0  0
 17 45  1  0  0  0  0
 17 46  1  0  0  0  0
 20 47  1  0  0  0  0
 20 48  1  0  0  0  0
 24 49  1  0  0  0  0
M  END
> <id>
EN300-1129088

> <smiles>
CC(C)(C)OC(=O)N1CCC2(C1)CC(N)C=3C=CC(=CC3O2)C(=O)O

> <IUPAC Name>
4-amino-1'-[(tert-butoxy)carbonyl]-3,4-dihydrospiro[1-benzopyran-2,3'-pyrrolidine]-7-carboxylic acid

> <CAS>
2138012-16-3

> <URL>
https://www.enaminestore.com/catalog/EN300-1129088

> <ROCS_ShapeQuery>
A71EV2A-x0451_0A_A71EV2A-x0310_0A_A71EV2A-x0416_0A_peptide

> <ROCS_TanimotoCombo>
0.531 

> <ROCS_ShapeTanimoto>
0.378 

> <ROCS_ColorTanimoto>
0.153 

> <ROCS_RefTversky>
0.332 

> <ROCS_RefColorTversky>
0.184 

> <ROCS_RefTverskyCombo>
0.516 

> <ROCS_FitTversky>
1.597 

> <ROCS_FitColorTversky>
0.469 

> <ROCS_FitTverskyCombo>
2.066 

> <ROCS_ColorScore>
-5.655

> <ROCS_Overlap>
2304.854

> <ROCS_Rank>
85                  

$$$$
untitled-dbase-173900_1
  -OEChem-11132313473D

 40 41  0     0  0  0  0  0  0999 V2000
    6.1654   11.6660   26.1670 C   0  0  0  0  0  0  0  0  0  0  0  0
    6.7153   10.5648   25.5214 C   0  0  0  0  0  0  0  0  0  0  0  0
    6.7086   12.9277   25.9540 C   0  0  0  0  0  0  0  0  0  0  0  0
    7.8065   13.0915   25.1015 C   0  0  0  0  0  0  0  0  0  0  0  0
    8.3959   11.9921   24.4597 C   0  0  0  0  0  0  0  0  0  0  0  0
    7.8218   10.7237   24.6781 C   0  0  0  0  0  0  0  0  0  0  0  0
    6.0728   14.0621   26.6146 C   0  0  0  0  0  0  0  0  0  0  0  0
   10.3538   13.2072   23.3801 C   0  0  0  0  0  0  0  0  0  0  0  0
    9.7018   10.9349   22.6927 C   0  0  0  0  0  0  0  0  0  0  0  0
    9.5665    9.6727   23.5170 C   0  0  0  0  0  0  0  0  0  0  0  0
    8.1534   14.5151   24.7877 C   0  0  0  0  0  0  0  0  0  0  0  0
   12.8494   14.4424   22.7044 C   0  0  0  0  0  0  0  0  0  0  0  0
   11.9368   14.5729   20.3678 C   0  0  0  0  0  0  0  0  0  0  0  0
   10.7856   15.8028   22.2306 C   0  0  0  0  0  0  0  0  0  0  0  0
   11.5851   14.5564   21.8538 C   0  0  0  0  0  0  0  0  0  0  0  0
    9.4964   12.1055   23.5471 N   0  0  0  0  0  0  0  0  0  0  0  0
    4.9023   14.4141   26.4549 O   0  0  0  0  0  0  0  0  0  0  0  0
   10.6573   13.9751   24.2939 O   0  0  0  0  0  0  0  0  0  0  0  0
    8.2640    9.5664   24.0843 O   0  0  0  0  0  0  0  0  0  0  0  0
    6.9231   14.7140   27.4514 O   0  0  0  0  0  0  0  0  0  0  0  0
   10.7700   13.4025   22.0917 O   0  0  0  0  0  0  0  0  0  0  0  0
    5.3124   11.5282   26.8265 H   0  0  0  0  0  0  0  0  0  0  0  0
    6.2844    9.5799   25.6838 H   0  0  0  0  0  0  0  0  0  0  0  0
   10.6851   10.9489   22.2227 H   0  0  0  0  0  0  0  0  0  0  0  0
    8.9357   10.9735   21.9151 H   0  0  0  0  0  0  0  0  0  0  0  0
    9.7154    8.7956   22.8758 H   0  0  0  0  0  0  0  0  0  0  0  0
   10.3231    9.6198   24.3126 H   0  0  0  0  0  0  0  0  0  0  0  0
    8.8680   14.8968   25.5232 H   0  0  0  0  0  0  0  0  0  0  0  0
    8.5942   14.5987   23.7890 H   0  0  0  0  0  0  0  0  0  0  0  0
    7.2593   15.1471   24.8012 H   0  0  0  0  0  0  0  0  0  0  0  0
   12.6012   14.4302   23.7717 H   0  0  0  0  0  0  0  0  0  0  0  0
   13.4138   13.5344   22.4683 H   0  0  0  0  0  0  0  0  0  0  0  0
   13.5044   15.3073   22.5492 H   0  0  0  0  0  0  0  0  0  0  0  0
   11.0326   14.6546   19.7538 H   0  0  0  0  0  0  0  0  0  0  0  0
   12.4271   13.6382   20.0724 H   0  0  0  0  0  0  0  0  0  0  0  0
   12.6013   15.4066   20.1191 H   0  0  0  0  0  0  0  0  0  0  0  0
    9.8787   15.8849   21.6207 H   0  0  0  0  0  0  0  0  0  0  0  0
   10.4926   15.7905   23.2854 H   0  0  0  0  0  0  0  0  0  0  0  0
   11.3685   16.7116   22.0417 H   0  0  0  0  0  0  0  0  0  0  0  0
    6.5048   15.4786   27.9016 H   0  0  0  0  0  0  0  0  0  0  0  0
  1  2  2  0  0  0  0
  1  3  1  0  0  0  0
  2  6  1  0  0  0  0
  3  4  2  0  0  0  0
  3  7  1  0  0  0  0
  4  5  1  0  0  0  0
  4 11  1  0  0  0  0
  5  6  2  0  0  0  0
  5 16  1  0  0  0  0
  6 19  1  0  0  0  0
  7 17  2  0  0  0  0
  7 20  1  0  0  0  0
  8 16  1  0  0  0  0
  8 18  2  0  0  0  0
  8 21  1  0  0  0  0
  9 10  1  0  0  0  0
  9 16  1  0  0  0  0
 10 19  1  0  0  0  0
 12 15  1  0  0  0  0
 13 15  1  0  0  0  0
 14 15  1  0  0  0  0
 15 21  1  0  0  0  0
  1 22  1  0  0  0  0
  2 23  1  0  0  0  0
  9 24  1  0  0  0  0
  9 25  1  0  0  0  0
 10 26  1  0  0  0  0
 10 27  1  0  0  0  0
 11 28  1  0  0  0  0
 11 29  1  0  0  0  0
 11 30  1  0  0  0  0
 12 31  1  0  0  0  0
 12 32  1  0  0  0  0
 12 33  1  0  0  0  0
 13 34  1  0  0  0  0
 13 35  1  0  0  0  0
 13 36  1  0  0  0  0
 14 37  1  0  0  0  0
 14 38  1  0  0  0  0
 14 39  1  0  0  0  0
 20 40  1  0  0  0  0
M  END
> <id>
EN300-22837864

> <smiles>
CC=1C(=CC=C2OCCN(C(=O)OC(C)(C)C)C12)C(=O)O

> <MDLNUMBER>
MFCD31543511

> <IUPAC Name>
4-[(tert-butoxy)carbonyl]-5-methyl-3,4-dihydro-2H-1,4-benzoxazine-6-carboxylic acid

> <URL>
https://www.enaminestore.com/catalog/EN300-22837864

> <ROCS_ShapeQuery>
A71EV2A-x0451_0A_A71EV2A-x0310_0A_A71EV2A-x0416_0A_peptide

> <ROCS_TanimotoCombo>
0.531 

> <ROCS_ShapeTanimoto>
0.352 

> <ROCS_ColorTanimoto>
0.179 

> <ROCS_RefTversky>
0.308 

> <ROCS_RefColorTversky>
0.197 

> <ROCS_RefTverskyCombo>
0.505 

> <ROCS_FitTversky>
1.685 

> <ROCS_FitColorTversky>
0.655 

> <ROCS_FitTverskyCombo>
2.340 

> <ROCS_ColorScore>
-6.026

> <ROCS_Overlap>
2137.642

> <ROCS_Rank>
86                  

$$$$
untitled-dbase-153683_4784
  -OEChem-11132313473D

 56 57  0     0  0  0  0  0  0999 V2000
    6.1829   10.8413   26.1785 C   0  0  0  0  0  0  0  0  0  0  0  0
    7.0676    9.9735   25.5394 C   0  0  0  0  0  0  0  0  0  0  0  0
    6.9500   12.6450   24.7765 C   0  0  0  0  0  0  0  0  0  0  0  0
    6.1281   12.1778   25.8012 C   0  0  0  0  0  0  0  0  0  0  0  0
    7.8472   11.7854   24.1186 C   0  0  0  0  0  0  0  0  0  0  0  0
    7.9134   10.4331   24.5141 C   0  0  0  0  0  0  0  0  0  0  0  0
    5.2172   13.0883   26.4789 C   0  0  0  0  0  0  0  0  0  0  0  0
    8.4809    8.2456   23.4656 C   0  0  0  0  0  0  0  0  0  0  0  0
   10.8460   13.2474   23.6555 C   0  0  0  0  0  0  0  0  0  0  0  0
    8.6195   12.3204   22.9364 C   0  0  0  0  0  0  0  0  0  0  0  0
   10.2665    9.9084   23.9474 C   0  0  0  0  0  0  0  0  0  0  0  0
   10.6532   10.9060   22.8641 C   0  0  0  0  0  0  0  0  0  0  0  0
    7.2641    5.6760   23.8076 C   0  0  0  0  0  0  0  0  0  0  0  0
    5.1476    6.7774   23.0223 C   0  0  0  0  0  0  0  0  0  0  0  0
    7.1356    6.6543   21.4923 C   0  0  0  0  0  0  0  0  0  0  0  0
   12.4223   15.6238   23.4136 C   0  0  0  0  0  0  0  0  0  0  0  0
   13.9652   14.2347   21.9997 C   0  0  0  0  0  0  0  0  0  0  0  0
   11.5985   14.6253   21.2552 C   0  0  0  0  0  0  0  0  0  0  0  0
    6.6726    6.7878   22.9423 C   0  0  0  0  0  0  0  0  0  0  0  0
   12.5223   14.4361   22.4575 C   0  0  0  0  0  0  0  0  0  0  0  0
    8.8481    9.5235   23.9244 N   0  0  0  0  0  0  0  0  0  0  0  0
   10.0643   12.2158   23.1200 N   0  0  0  0  0  0  0  0  0  0  0  0
    5.0867   14.2907   26.2263 O   0  0  0  0  0  0  0  0  0  0  0  0
    9.2802    7.3984   23.0695 O   0  0  0  0  0  0  0  0  0  0  0  0
   10.4417   14.0703   24.4748 O   0  0  0  0  0  0  0  0  0  0  0  0
    4.4936   12.4714   27.4532 O   0  0  0  0  0  0  0  0  0  0  0  0
    7.1227    8.0489   23.4504 O   0  0  0  0  0  0  0  0  0  0  0  0
   12.1227   13.2526   23.1578 O   0  0  0  0  0  0  0  0  0  0  0  0
    5.5537   10.4670   26.9810 H   0  0  0  0  0  0  0  0  0  0  0  0
    7.1124    8.9545   25.9011 H   0  0  0  0  0  0  0  0  0  0  0  0
    6.8822   13.6881   24.4796 H   0  0  0  0  0  0  0  0  0  0  0  0
    8.3472   11.7677   22.0321 H   0  0  0  0  0  0  0  0  0  0  0  0
    8.3532   13.3666   22.7548 H   0  0  0  0  0  0  0  0  0  0  0  0
   10.9034    9.0117   23.8463 H   0  0  0  0  0  0  0  0  0  0  0  0
   10.5099   10.2917   24.9567 H   0  0  0  0  0  0  0  0  0  0  0  0
   11.7390   11.0326   22.8435 H   0  0  0  0  0  0  0  0  0  0  0  0
   10.3427   10.5385   21.8830 H   0  0  0  0  0  0  0  0  0  0  0  0
    8.3586    5.6801   23.7529 H   0  0  0  0  0  0  0  0  0  0  0  0
    6.9680    5.7804   24.8565 H   0  0  0  0  0  0  0  0  0  0  0  0
    6.9406    4.6906   23.4531 H   0  0  0  0  0  0  0  0  0  0  0  0
    4.7190    7.5736   22.4030 H   0  0  0  0  0  0  0  0  0  0  0  0
    4.8093    6.9677   24.0473 H   0  0  0  0  0  0  0  0  0  0  0  0
    4.7323    5.8198   22.6923 H   0  0  0  0  0  0  0  0  0  0  0  0
    6.7115    7.4518   20.8714 H   0  0  0  0  0  0  0  0  0  0  0  0
    8.2266    6.6969   21.4116 H   0  0  0  0  0  0  0  0  0  0  0  0
    6.7910    5.7085   21.0587 H   0  0  0  0  0  0  0  0  0  0  0  0
   11.3881   15.7717   23.7445 H   0  0  0  0  0  0  0  0  0  0  0  0
   13.0536   15.4846   24.2972 H   0  0  0  0  0  0  0  0  0  0  0  0
   12.7234   16.5528   22.9160 H   0  0  0  0  0  0  0  0  0  0  0  0
   14.0416   13.3835   21.3135 H   0  0  0  0  0  0  0  0  0  0  0  0
   14.6162   14.0045   22.8508 H   0  0  0  0  0  0  0  0  0  0  0  0
   14.3565   15.1236   21.4944 H   0  0  0  0  0  0  0  0  0  0  0  0
   11.6700   13.7734   20.5692 H   0  0  0  0  0  0  0  0  0  0  0  0
   10.5534   14.7345   21.5627 H   0  0  0  0  0  0  0  0  0  0  0  0
   11.8862   15.5117   20.6784 H   0  0  0  0  0  0  0  0  0  0  0  0
    3.8758   13.0769   27.9159 H   0  0  0  0  0  0  0  0  0  0  0  0
  1  2  1  0  0  0  0
  1  4  2  0  0  0  0
  2  6  2  0  0  0  0
  3  4  1  0  0  0  0
  3  5  2  0  0  0  0
  4  7  1  0  0  0  0
  5  6  1  0  0  0  0
  5 10  1  0  0  0  0
  6 21  1  0  0  0  0
  7 23  2  0  0  0  0
  7 26  1  0  0  0  0
  8 21  1  0  0  0  0
  8 24  2  0  0  0  0
  8 27  1  0  0  0  0
  9 22  1  0  0  0  0
  9 25  2  0  0  0  0
  9 28  1  0  0  0  0
 10 22  1  0  0  0  0
 11 12  1  0  0  0  0
 11 21  1  0  0  0  0
 12 22  1  0  0  0  0
 13 19  1  0  0  0  0
 14 19  1  0  0  0  0
 15 19  1  0  0  0  0
 16 20  1  0  0  0  0
 17 20  1  0  0  0  0
 18 20  1  0  0  0  0
 19 27  1  0  0  0  0
 20 28  1  0  0  0  0
  1 29  1  0  0  0  0
  2 30  1  0  0  0  0
  3 31  1  0  0  0  0
 10 32  1  0  0  0  0
 10 33  1  0  0  0  0
 11 34  1  0  0  0  0
 11 35  1  0  0  0  0
 12 36  1  0  0  0  0
 12 37  1  0  0  0  0
 13 38  1  0  0  0  0
 13 39  1  0  0  0  0
 13 40  1  0  0  0  0
 14 41  1  0  0  0  0
 14 42  1  0  0  0  0
 14 43  1  0  0  0  0
 15 44  1  0  0  0  0
 15 45  1  0  0  0  0
 15 46  1  0  0  0  0
 16 47  1  0  0  0  0
 16 48  1  0  0  0  0
 16 49  1  0  0  0  0
 17 50  1  0  0  0  0
 17 51  1  0  0  0  0
 17 52  1  0  0  0  0
 18 53  1  0  0  0  0
 18 54  1  0  0  0  0
 18 55  1  0  0  0  0
 26 56  1  0  0  0  0
M  END
> <id>
EN300-28302801

> <smiles>
CC(C)(C)OC(=O)N1CCN(C(=O)OC(C)(C)C)C=2C=CC(=CC2C1)C(=O)O

> <IUPAC Name>
1,4-bis[(tert-butoxy)carbonyl]-2,3,4,5-tetrahydro-1H-1,4-benzodiazepine-7-carboxylic acid

> <CAS>
2680843-10-9

> <URL>
https://www.enaminestore.com/catalog/EN300-28302801

> <ROCS_ShapeQuery>
A71EV2A-x0451_0A_A71EV2A-x0310_0A_A71EV2A-x0416_0A_peptide

> <ROCS_TanimotoCombo>
0.530 

> <ROCS_ShapeTanimoto>
0.376 

> <ROCS_ColorTanimoto>
0.154 

> <ROCS_RefTversky>
0.335 

> <ROCS_RefColorTversky>
0.178 

> <ROCS_RefTverskyCombo>
0.512 

> <ROCS_FitTversky>
1.496 

> <ROCS_FitColorTversky>
0.536 

> <ROCS_FitTverskyCombo>
2.033 

> <ROCS_ColorScore>
-5.440

> <ROCS_Overlap>
2327.928

> <ROCS_Rank>
87                  

$$$$
untitled-dbase-104191_152
  -OEChem-11132313473D

 47 49  0     1  0  0  0  0  0999 V2000
    6.2259   12.9619   27.1370 C   0  0  0  0  0  0  0  0  0  0  0  0
    4.9832   13.0273   27.7953 C   0  0  0  0  0  0  0  0  0  0  0  0
    6.1209   11.8678   26.3134 C   0  0  0  0  0  0  0  0  0  0  0  0
    9.9455   13.3151   23.5314 C   0  0  0  0  0  0  0  0  0  0  0  0
    8.5130   10.1034   22.8062 C   0  0  0  0  0  0  0  0  0  0  0  0
    9.4699    9.7628   23.9650 C   0  0  0  0  0  0  0  0  0  0  0  0
    6.9923   11.8535   23.8903 C   0  0  0  0  0  0  0  0  0  0  0  0
    8.6069   11.2954   25.8271 C   0  0  0  0  0  0  0  0  0  0  0  0
    8.2094   11.5950   22.9758 C   0  0  1  0  0  0  0  0  0  0  0  0
    9.6589   11.0836   24.7178 C   0  0  2  0  0  0  0  0  0  0  0  0
    7.1216   11.2471   25.3292 C   0  0  0  0  0  0  0  0  0  0  0  0
   11.7648   12.7880   21.3910 C   0  0  0  0  0  0  0  0  0  0  0  0
   10.5468   14.6039   20.1546 C   0  0  0  0  0  0  0  0  0  0  0  0
   11.7658   15.1412   22.2838 C   0  0  0  0  0  0  0  0  0  0  0  0
    4.2835   10.2087   25.8820 C   0  0  0  0  0  0  0  0  0  0  0  0
   10.9644   14.0824   21.5279 C   0  0  0  0  0  0  0  0  0  0  0  0
    4.1500   12.0524   27.4220 N   0  0  0  0  0  0  0  0  0  0  0  0
    4.8704   11.3642   26.5201 N   0  0  0  0  0  0  0  0  0  0  0  0
    9.3758   12.0673   23.6897 N   0  0  0  0  0  0  0  0  0  0  0  0
   10.5431   13.9193   24.4191 O   0  0  0  0  0  0  0  0  0  0  0  0
    6.7420    9.8631   25.2337 O   0  0  0  0  0  0  0  0  0  0  0  0
    9.7689   13.8031   22.2650 O   0  0  0  0  0  0  0  0  0  0  0  0
    7.0770   13.6180   27.2467 H   0  0  0  0  0  0  0  0  0  0  0  0
    4.6503   13.7447   28.5315 H   0  0  0  0  0  0  0  0  0  0  0  0
    9.0263    9.9273   21.8533 H   0  0  0  0  0  0  0  0  0  0  0  0
    7.6141    9.4795   22.8170 H   0  0  0  0  0  0  0  0  0  0  0  0
    9.0823    8.9595   24.5987 H   0  0  0  0  0  0  0  0  0  0  0  0
   10.4269    9.4234   23.5509 H   0  0  0  0  0  0  0  0  0  0  0  0
    6.8580   12.9418   23.9662 H   0  0  0  0  0  0  0  0  0  0  0  0
    6.0921   11.4608   23.3999 H   0  0  0  0  0  0  0  0  0  0  0  0
    8.7575   10.5367   26.6064 H   0  0  0  0  0  0  0  0  0  0  0  0
    8.8042   12.2704   26.2943 H   0  0  0  0  0  0  0  0  0  0  0  0
    8.0837   12.1088   22.0176 H   0  0  0  0  0  0  0  0  0  0  0  0
   10.6694   11.1868   25.1239 H   0  0  0  0  0  0  0  0  0  0  0  0
   12.0664   12.4105   22.3746 H   0  0  0  0  0  0  0  0  0  0  0  0
   11.1882   12.0092   20.8814 H   0  0  0  0  0  0  0  0  0  0  0  0
   12.6898   12.9580   20.8282 H   0  0  0  0  0  0  0  0  0  0  0  0
    9.9723   15.5325   20.2481 H   0  0  0  0  0  0  0  0  0  0  0  0
    9.8926   13.8859   19.6468 H   0  0  0  0  0  0  0  0  0  0  0  0
   11.4140   14.7957   19.5145 H   0  0  0  0  0  0  0  0  0  0  0  0
   11.1919   16.0697   22.3822 H   0  0  0  0  0  0  0  0  0  0  0  0
   12.0425   14.7982   23.2860 H   0  0  0  0  0  0  0  0  0  0  0  0
   12.6811   15.3997   21.7391 H   0  0  0  0  0  0  0  0  0  0  0  0
    4.5164    9.3319   26.4920 H   0  0  0  0  0  0  0  0  0  0  0  0
    3.2012   10.3451   25.8062 H   0  0  0  0  0  0  0  0  0  0  0  0
    4.7019   10.0991   24.8776 H   0  0  0  0  0  0  0  0  0  0  0  0
    6.8147    9.4957   26.1279 H   0  0  0  0  0  0  0  0  0  0  0  0
  1  2  1  0  0  0  0
  1  3  2  0  0  0  0
  2 17  2  0  0  0  0
  3 11  1  0  0  0  0
  3 18  1  0  0  0  0
  4 19  1  0  0  0  0
  4 20  2  0  0  0  0
  4 22  1  0  0  0  0
  5  6  1  0  0  0  0
  5  9  1  0  0  0  0
  6 10  1  0  0  0  0
  7  9  1  0  0  0  0
  7 11  1  0  0  0  0
  8 10  1  0  0  0  0
  8 11  1  0  0  0  0
  9 19  1  0  0  0  0
 10 19  1  0  0  0  0
 11 21  1  0  0  0  0
 12 16  1  0  0  0  0
 13 16  1  0  0  0  0
 14 16  1  0  0  0  0
 15 18  1  0  0  0  0
 16 22  1  0  0  0  0
 17 18  1  0  0  0  0
  1 23  1  0  0  0  0
  2 24  1  0  0  0  0
  5 25  1  0  0  0  0
  5 26  1  0  0  0  0
  6 27  1  0  0  0  0
  6 28  1  0  0  0  0
  7 29  1  0  0  0  0
  7 30  1  0  0  0  0
  8 31  1  0  0  0  0
  8 32  1  0  0  0  0
  9 33  1  0  0  0  0
 10 34  1  0  0  0  0
 12 35  1  0  0  0  0
 12 36  1  0  0  0  0
 12 37  1  0  0  0  0
 13 38  1  0  0  0  0
 13 39  1  0  0  0  0
 13 40  1  0  0  0  0
 14 41  1  0  0  0  0
 14 42  1  0  0  0  0
 14 43  1  0  0  0  0
 15 44  1  0  0  0  0
 15 45  1  0  0  0  0
 15 46  1  0  0  0  0
 21 47  1  0  0  0  0
M  END
> <id>
EN300-26665698

> <smiles>
CN1N=CC=C1C2(O)CC3CCC(C2)N3C(=O)OC(C)(C)C

> <IUPAC Name>
tert-butyl 3-hydroxy-3-(1-methyl-1H-pyrazol-5-yl)-8-azabicyclo[3.2.1]octane-8-carboxylate

> <CAS>
2680620-90-8

> <URL>
https://www.enaminestore.com/catalog/EN300-26665698

> <ROCS_ShapeQuery>
A71EV2A-x0451_0A_A71EV2A-x0310_0A_A71EV2A-x0416_0A_peptide

> <ROCS_TanimotoCombo>
0.530 

> <ROCS_ShapeTanimoto>
0.315 

> <ROCS_ColorTanimoto>
0.215 

> <ROCS_RefTversky>
0.285 

> <ROCS_RefColorTversky>
0.251 

> <ROCS_RefTverskyCombo>
0.536 

> <ROCS_FitTversky>
1.505 

> <ROCS_FitColorTversky>
0.602 

> <ROCS_FitTverskyCombo>
2.106 

> <ROCS_ColorScore>
-7.700

> <ROCS_Overlap>
1981.139

> <ROCS_Rank>
88                  

$$$$
untitled-dbase-145875_24
  -OEChem-11132313473D

 38 40  0     0  0  0  0  0  0999 V2000
   10.1478   13.0996   23.5067 C   0  0  0  0  0  0  0  0  0  0  0  0
    8.8798   10.8705   22.7181 C   0  0  0  0  0  0  0  0  0  0  0  0
    9.8676   10.6443   24.5522 C   0  0  0  0  0  0  0  0  0  0  0  0
    7.9285   12.8762   25.8703 C   0  0  0  0  0  0  0  0  0  0  0  0
    6.9427   13.1030   24.0387 C   0  0  0  0  0  0  0  0  0  0  0  0
    9.2513   11.9178   23.8442 C   0  0  0  0  0  0  0  0  0  0  0  0
    7.8820   12.0332   24.5959 C   0  0  0  0  0  0  0  0  0  0  0  0
    8.5154   10.0320   24.0079 C   0  0  0  0  0  0  0  0  0  0  0  0
    8.3531    8.5420   23.9117 C   0  0  0  0  0  0  0  0  0  0  0  0
   12.6953   13.4462   23.0809 C   0  0  0  0  0  0  0  0  0  0  0  0
   12.3290   12.8416   20.6706 C   0  0  0  0  0  0  0  0  0  0  0  0
   11.5835   15.0826   21.5251 C   0  0  0  0  0  0  0  0  0  0  0  0
   11.7760   13.6068   21.8710 C   0  0  0  0  0  0  0  0  0  0  0  0
    6.6998   13.5668   25.4220 N   0  0  0  0  0  0  0  0  0  0  0  0
   10.4855   13.9557   24.3130 O   0  0  0  0  0  0  0  0  0  0  0  0
    7.3897   10.6699   24.6926 O   0  0  0  0  0  0  0  0  0  0  0  0
   10.4999   13.0435   22.1907 O   0  0  0  0  0  0  0  0  0  0  0  0
    8.0386   11.1318   22.0689 H   0  0  0  0  0  0  0  0  0  0  0  0
    9.7064   10.4994   22.1013 H   0  0  0  0  0  0  0  0  0  0  0  0
   10.7980   10.2494   24.1281 H   0  0  0  0  0  0  0  0  0  0  0  0
    9.9626   10.6911   25.6412 H   0  0  0  0  0  0  0  0  0  0  0  0
    7.7939   12.2992   26.7921 H   0  0  0  0  0  0  0  0  0  0  0  0
    8.7912   13.5356   25.9972 H   0  0  0  0  0  0  0  0  0  0  0  0
    7.3849   13.8591   23.3846 H   0  0  0  0  0  0  0  0  0  0  0  0
    6.0485   12.7006   23.5495 H   0  0  0  0  0  0  0  0  0  0  0  0
    8.1018    8.1088   24.8884 H   0  0  0  0  0  0  0  0  0  0  0  0
    9.2780    8.0663   23.5610 H   0  0  0  0  0  0  0  0  0  0  0  0
    7.5516    8.2770   23.2101 H   0  0  0  0  0  0  0  0  0  0  0  0
   12.3018   13.9940   23.9447 H   0  0  0  0  0  0  0  0  0  0  0  0
   12.8136   12.3943   23.3608 H   0  0  0  0  0  0  0  0  0  0  0  0
   13.6877   13.8636   22.8761 H   0  0  0  0  0  0  0  0  0  0  0  0
   11.6726   12.9541   19.8002 H   0  0  0  0  0  0  0  0  0  0  0  0
   12.3798   11.7674   20.8822 H   0  0  0  0  0  0  0  0  0  0  0  0
   13.3305   13.1887   20.3967 H   0  0  0  0  0  0  0  0  0  0  0  0
   10.9241   15.1981   20.6572 H   0  0  0  0  0  0  0  0  0  0  0  0
   11.1527   15.6404   22.3630 H   0  0  0  0  0  0  0  0  0  0  0  0
   12.5382   15.5466   21.2520 H   0  0  0  0  0  0  0  0  0  0  0  0
    5.8404   13.2256   25.8424 H   0  0  0  0  0  0  0  0  0  0  0  0
  1  6  1  0  0  0  0
  1 15  2  0  0  0  0
  1 17  1  0  0  0  0
  2  6  1  0  0  0  0
  2  8  1  0  0  0  0
  3  6  1  0  0  0  0
  3  8  1  0  0  0  0
  4  7  1  0  0  0  0
  4 14  1  0  0  0  0
  5  7  1  0  0  0  0
  5 14  1  0  0  0  0
  6  7  1  0  0  0  0
  7 16  1  0  0  0  0
  8  9  1  0  0  0  0
  8 16  1  0  0  0  0
 10 13  1  0  0  0  0
 11 13  1  0  0  0  0
 12 13  1  0  0  0  0
 13 17  1  0  0  0  0
  2 18  1  0  0  0  0
  2 19  1  0  0  0  0
  3 20  1  0  0  0  0
  3 21  1  0  0  0  0
  4 22  1  0  0  0  0
  4 23  1  0  0  0  0
  5 24  1  0  0  0  0
  5 25  1  0  0  0  0
  9 26  1  0  0  0  0
  9 27  1  0  0  0  0
  9 28  1  0  0  0  0
 10 29  1  0  0  0  0
 10 30  1  0  0  0  0
 10 31  1  0  0  0  0
 11 32  1  0  0  0  0
 11 33  1  0  0  0  0
 11 34  1  0  0  0  0
 12 35  1  0  0  0  0
 12 36  1  0  0  0  0
 12 37  1  0  0  0  0
 14 38  1  0  0  0  0
M  END
> <id>
EN300-27727247

> <smiles>
CC(C)(C)OC(=O)C1(CC2(C)C1)C3(CNC3)O2

> <IUPAC Name>
tert-butyl 4'-methyl-3'-oxaspiro[azetidine-3,2'-bicyclo[2.1.1]hexane]-1'-carboxylate

> <CAS>
2639454-15-0

> <URL>
https://www.enaminestore.com/catalog/EN300-27727247

> <ROCS_ShapeQuery>
A71EV2A-x0451_0A_A71EV2A-x0310_0A_A71EV2A-x0416_0A_peptide

> <ROCS_TanimotoCombo>
0.530 

> <ROCS_ShapeTanimoto>
0.307 

> <ROCS_ColorTanimoto>
0.223 

> <ROCS_RefTversky>
0.272 

> <ROCS_RefColorTversky>
0.264 

> <ROCS_RefTverskyCombo>
0.536 

> <ROCS_FitTversky>
1.728 

> <ROCS_FitColorTversky>
0.592 

> <ROCS_FitTverskyCombo>
2.320 

> <ROCS_ColorScore>
-8.128

> <ROCS_Overlap>
1884.334

> <ROCS_Rank>
89                  

$$$$
untitled-dbase-154805_48
  -OEChem-11132313473D

 45 46  0     0  0  0  0  0  0999 V2000
   10.0011    9.4571   22.8550 C   0  0  0  0  0  0  0  0  0  0  0  0
    9.8177    8.0780   22.8762 C   0  0  0  0  0  0  0  0  0  0  0  0
    7.8822    8.3775   24.2908 C   0  0  0  0  0  0  0  0  0  0  0  0
    9.1171   10.2945   23.5575 C   0  0  0  0  0  0  0  0  0  0  0  0
    8.0422    9.7610   24.2870 C   0  0  0  0  0  0  0  0  0  0  0  0
    8.7570    7.5380   23.5948 C   0  0  0  0  0  0  0  0  0  0  0  0
    9.2444   11.6806   23.5775 C   0  0  0  0  0  0  0  0  0  0  0  0
    7.4212   11.8800   24.9036 C   0  0  0  0  0  0  0  0  0  0  0  0
   10.9503   13.4786   23.1674 C   0  0  0  0  0  0  0  0  0  0  0  0
    5.8999   12.0157   26.9069 C   0  0  0  0  0  0  0  0  0  0  0  0
    5.2645   13.1747   24.7646 C   0  0  0  0  0  0  0  0  0  0  0  0
    7.0773   14.0884   26.2000 C   0  0  0  0  0  0  0  0  0  0  0  0
   11.0975   15.9648   22.3479 C   0  0  0  0  0  0  0  0  0  0  0  0
   13.1780   15.3729   21.0708 C   0  0  0  0  0  0  0  0  0  0  0  0
   10.9347   14.6285   20.2213 C   0  0  0  0  0  0  0  0  0  0  0  0
    6.4732   12.7513   25.6560 C   0  0  0  0  0  0  0  0  0  0  0  0
   11.7745   14.9177   21.4647 C   0  0  0  0  0  0  0  0  0  0  0  0
    7.1909   10.5526   24.9626 N   0  0  0  0  0  0  0  0  0  0  0  0
    8.4106   12.5022   24.2426 N   0  0  0  0  0  0  0  0  0  0  0  0
   10.2934   12.2931   22.8726 N   0  0  0  0  0  0  0  0  0  0  0  0
   10.7412   14.2312   24.1110 O   0  0  0  0  0  0  0  0  0  0  0  0
   11.9089   13.7057   22.2161 O   0  0  0  0  0  0  0  0  0  0  0  0
    8.4951    5.6658   23.6310 Br  0  0  0  0  0  0  0  0  0  0  0  0
   10.8371    9.8557   22.2864 H   0  0  0  0  0  0  0  0  0  0  0  0
   10.5076    7.4413   22.3292 H   0  0  0  0  0  0  0  0  0  0  0  0
    7.0534    7.9459   24.8506 H   0  0  0  0  0  0  0  0  0  0  0  0
    5.1991   12.6353   27.4785 H   0  0  0  0  0  0  0  0  0  0  0  0
    5.3635   11.1031   26.6249 H   0  0  0  0  0  0  0  0  0  0  0  0
    6.7138   11.7239   27.5812 H   0  0  0  0  0  0  0  0  0  0  0  0
    4.5657   13.8149   25.3140 H   0  0  0  0  0  0  0  0  0  0  0  0
    5.5714   13.7294   23.8702 H   0  0  0  0  0  0  0  0  0  0  0  0
    4.7089   12.2893   24.4337 H   0  0  0  0  0  0  0  0  0  0  0  0
    6.3426   14.6933   26.7450 H   0  0  0  0  0  0  0  0  0  0  0  0
    7.9057   13.8897   26.8901 H   0  0  0  0  0  0  0  0  0  0  0  0
    7.4576   14.7069   25.3787 H   0  0  0  0  0  0  0  0  0  0  0  0
   10.0898   15.6417   22.6327 H   0  0  0  0  0  0  0  0  0  0  0  0
   11.6723   16.1556   23.2600 H   0  0  0  0  0  0  0  0  0  0  0  0
   10.9779   16.9120   21.8097 H   0  0  0  0  0  0  0  0  0  0  0  0
   13.6674   14.6246   20.4370 H   0  0  0  0  0  0  0  0  0  0  0  0
   13.8130   15.4904   21.9564 H   0  0  0  0  0  0  0  0  0  0  0  0
   13.1572   16.3248   20.5304 H   0  0  0  0  0  0  0  0  0  0  0  0
   11.4200   13.8774   19.5876 H   0  0  0  0  0  0  0  0  0  0  0  0
    9.9360   14.2653   20.4846 H   0  0  0  0  0  0  0  0  0  0  0  0
   10.8267   15.5291   19.6060 H   0  0  0  0  0  0  0  0  0  0  0  0
   10.6134   11.8029   22.0359 H   0  0  0  0  0  0  0  0  0  0  0  0
  1  2  1  0  0  0  0
  1  4  2  0  0  0  0
  2  6  2  0  0  0  0
  3  5  2  0  0  0  0
  3  6  1  0  0  0  0
  4  5  1  0  0  0  0
  4  7  1  0  0  0  0
  5 18  1  0  0  0  0
  6 23  1  0  0  0  0
  7 19  2  0  0  0  0
  7 20  1  0  0  0  0
  8 16  1  0  0  0  0
  8 18  2  0  0  0  0
  8 19  1  0  0  0  0
  9 20  1  0  0  0  0
  9 21  2  0  0  0  0
  9 22  1  0  0  0  0
 10 16  1  0  0  0  0
 11 16  1  0  0  0  0
 12 16  1  0  0  0  0
 13 17  1  0  0  0  0
 14 17  1  0  0  0  0
 15 17  1  0  0  0  0
 17 22  1  0  0  0  0
  1 24  1  0  0  0  0
  2 25  1  0  0  0  0
  3 26  1  0  0  0  0
 10 27  1  0  0  0  0
 10 28  1  0  0  0  0
 10 29  1  0  0  0  0
 11 30  1  0  0  0  0
 11 31  1  0  0  0  0
 11 32  1  0  0  0  0
 12 33  1  0  0  0  0
 12 34  1  0  0  0  0
 12 35  1  0  0  0  0
 13 36  1  0  0  0  0
 13 37  1  0  0  0  0
 13 38  1  0  0  0  0
 14 39  1  0  0  0  0
 14 40  1  0  0  0  0
 14 41  1  0  0  0  0
 15 42  1  0  0  0  0
 15 43  1  0  0  0  0
 15 44  1  0  0  0  0
 20 45  1  0  0  0  0
M  END
> <id>
EN300-28301857

> <smiles>
CC(C)(C)OC(=O)NC=1N=C(N=C2C=C(Br)C=CC12)C(C)(C)C

> <IUPAC Name>
tert-butyl N-(7-bromo-2-tert-butylquinazolin-4-yl)carbamate

> <CAS>
2680876-84-8

> <URL>
https://www.enaminestore.com/catalog/EN300-28301857

> <ROCS_ShapeQuery>
A71EV2A-x0451_0A_A71EV2A-x0310_0A_A71EV2A-x0416_0A_peptide

> <ROCS_TanimotoCombo>
0.530 

> <ROCS_ShapeTanimoto>
0.388 

> <ROCS_ColorTanimoto>
0.143 

> <ROCS_RefTversky>
0.333 

> <ROCS_RefColorTversky>
0.166 

> <ROCS_RefTverskyCombo>
0.499 

> <ROCS_FitTversky>
1.733 

> <ROCS_FitColorTversky>
0.501 

> <ROCS_FitTverskyCombo>
2.233 

> <ROCS_ColorScore>
-5.081

> <ROCS_Overlap>
2314.146

> <ROCS_Rank>
90                  

$$$$
untitled-dbase-117585_41
  -OEChem-11132313473D

 40 42  0     1  0  0  0  0  0999 V2000
    5.8697   12.7196   26.1869 C   0  0  0  0  0  0  0  0  0  0  0  0
   10.2201   13.3690   23.4403 C   0  0  0  0  0  0  0  0  0  0  0  0
    8.6343    9.5086   23.5756 C   0  0  0  0  0  0  0  0  0  0  0  0
    9.7326   10.0403   24.5313 C   0  0  0  0  0  0  0  0  0  0  0  0
    8.3863   11.8132   22.6806 C   0  0  0  0  0  0  0  0  0  0  0  0
    6.9055   12.4249   25.1864 C   0  0  2  0  0  0  0  0  0  0  0  0
    7.6048   10.6321   23.2863 C   0  0  2  0  0  0  0  0  0  0  0  0
    6.9894   11.0173   24.6268 C   0  0  1  0  0  0  0  0  0  0  0  0
    8.0502   11.5141   25.5762 C   0  0  1  0  0  0  0  0  0  0  0  0
    9.4222   11.5050   24.9174 C   0  0  2  0  0  0  0  0  0  0  0  0
   12.7102   14.4227   22.5095 C   0  0  0  0  0  0  0  0  0  0  0  0
   11.5855   14.6054   20.2710 C   0  0  0  0  0  0  0  0  0  0  0  0
   10.7057   15.9176   22.2234 C   0  0  0  0  0  0  0  0  0  0  0  0
   11.3797   14.6186   21.7841 C   0  0  0  0  0  0  0  0  0  0  0  0
    9.3780   12.2841   23.6637 N   0  0  0  0  0  0  0  0  0  0  0  0
    5.4648   11.9336   27.0304 O   0  0  0  0  0  0  0  0  0  0  0  0
   10.6521   14.1074   24.3226 O   0  0  0  0  0  0  0  0  0  0  0  0
    5.4168   13.9896   26.0472 O   0  0  0  0  0  0  0  0  0  0  0  0
   10.5166   13.5238   22.1117 O   0  0  0  0  0  0  0  0  0  0  0  0
    9.0912    9.1581   22.6427 H   0  0  0  0  0  0  0  0  0  0  0  0
    8.1366    8.6455   24.0341 H   0  0  0  0  0  0  0  0  0  0  0  0
    9.7702    9.4098   25.4278 H   0  0  0  0  0  0  0  0  0  0  0  0
   10.7152    9.9712   24.0493 H   0  0  0  0  0  0  0  0  0  0  0  0
    8.9200   11.5174   21.7701 H   0  0  0  0  0  0  0  0  0  0  0  0
    7.7261   12.6481   22.4212 H   0  0  0  0  0  0  0  0  0  0  0  0
    7.1147   13.2619   24.5341 H   0  0  0  0  0  0  0  0  0  0  0  0
    6.8304   10.2831   22.5963 H   0  0  0  0  0  0  0  0  0  0  0  0
    6.2974   10.2690   24.9949 H   0  0  0  0  0  0  0  0  0  0  0  0
    8.0666   11.0944   26.5751 H   0  0  0  0  0  0  0  0  0  0  0  0
   10.1797   11.9036   25.5989 H   0  0  0  0  0  0  0  0  0  0  0  0
   12.5666   14.4316   23.5960 H   0  0  0  0  0  0  0  0  0  0  0  0
   13.1870   13.4777   22.2295 H   0  0  0  0  0  0  0  0  0  0  0  0
   13.4034   15.2407   22.2826 H   0  0  0  0  0  0  0  0  0  0  0  0
   10.6335   14.7456   19.7465 H   0  0  0  0  0  0  0  0  0  0  0  0
   11.9812   13.6385   19.9393 H   0  0  0  0  0  0  0  0  0  0  0  0
   12.2770   15.3913   19.9504 H   0  0  0  0  0  0  0  0  0  0  0  0
    9.7513   16.0584   21.7032 H   0  0  0  0  0  0  0  0  0  0  0  0
   10.5165   15.9293   23.3017 H   0  0  0  0  0  0  0  0  0  0  0  0
   11.3270   16.7841   21.9695 H   0  0  0  0  0  0  0  0  0  0  0  0
    4.7225   14.2054   26.7056 H   0  0  0  0  0  0  0  0  0  0  0  0
  1  6  1  0  0  0  0
  1 16  2  0  0  0  0
  1 18  1  0  0  0  0
  2 15  1  0  0  0  0
  2 17  2  0  0  0  0
  2 19  1  0  0  0  0
  3  4  1  0  0  0  0
  3  7  1  0  0  0  0
  4 10  1  0  0  0  0
  5  7  1  0  0  0  0
  5 15  1  0  0  0  0
  6  8  1  0  0  0  0
  6  9  1  0  0  0  0
  7  8  1  0  0  0  0
  8  9  1  0  0  0  0
  9 10  1  0  0  0  0
 10 15  1  0  0  0  0
 11 14  1  0  0  0  0
 12 14  1  0  0  0  0
 13 14  1  0  0  0  0
 14 19  1  0  0  0  0
  3 20  1  0  0  0  0
  3 21  1  0  0  0  0
  4 22  1  0  0  0  0
  4 23  1  0  0  0  0
  5 24  1  0  0  0  0
  5 25  1  0  0  0  0
  6 26  1  0  0  0  0
  7 27  1  0  0  0  0
  8 28  1  0  0  0  0
  9 29  1  0  0  0  0
 10 30  1  0  0  0  0
 11 31  1  0  0  0  0
 11 32  1  0  0  0  0
 11 33  1  0  0  0  0
 12 34  1  0  0  0  0
 12 35  1  0  0  0  0
 12 36  1  0  0  0  0
 13 37  1  0  0  0  0
 13 38  1  0  0  0  0
 13 39  1  0  0  0  0
 18 40  1  0  0  0  0
M  END
> <id>
EN300-39671532

> <smiles>
CC(C)(C)OC(=O)N1CC2CCC1C3C(C32)C(=O)O

> <IUPAC Name>
6-[(tert-butoxy)carbonyl]-6-azatricyclo[3.2.2.0,2,4]nonane-3-carboxylic acid

> <URL>
https://www.enaminestore.com/catalog/EN300-39671532

> <ROCS_ShapeQuery>
A71EV2A-x0451_0A_A71EV2A-x0310_0A_A71EV2A-x0416_0A_peptide

> <ROCS_TanimotoCombo>
0.530 

> <ROCS_ShapeTanimoto>
0.318 

> <ROCS_ColorTanimoto>
0.212 

> <ROCS_RefTversky>
0.282 

> <ROCS_RefColorTversky>
0.297 

> <ROCS_RefTverskyCombo>
0.580 

> <ROCS_FitTversky>
1.668 

> <ROCS_FitColorTversky>
0.425 

> <ROCS_FitTverskyCombo>
2.092 

> <ROCS_ColorScore>
-9.274

> <ROCS_Overlap>
1958.433

> <ROCS_Rank>
91                  

$$$$
untitled-dbase-152404_105
  -OEChem-11132313473D

 36 37  0     0  0  0  0  0  0999 V2000
    6.8268    9.9907   24.8095 C   0  0  0  0  0  0  0  0  0  0  0  0
    5.9886   10.8665   25.5060 C   0  0  0  0  0  0  0  0  0  0  0  0
    7.5198   12.7162   25.1228 C   0  0  0  0  0  0  0  0  0  0  0  0
    8.0243   10.4865   24.2647 C   0  0  0  0  0  0  0  0  0  0  0  0
    6.3318   12.2076   25.6592 C   0  0  0  0  0  0  0  0  0  0  0  0
    8.3555   11.8310   24.4248 C   0  0  0  0  0  0  0  0  0  0  0  0
    9.0904    9.9438   23.5267 C   0  0  0  0  0  0  0  0  0  0  0  0
    5.4405   13.0970   26.3884 C   0  0  0  0  0  0  0  0  0  0  0  0
   10.3374   13.1613   23.6537 C   0  0  0  0  0  0  0  0  0  0  0  0
    9.2572    8.5505   23.0753 C   0  0  0  0  0  0  0  0  0  0  0  0
   12.1123   15.2431   22.9060 C   0  0  0  0  0  0  0  0  0  0  0  0
   12.1188   14.1694   20.6352 C   0  0  0  0  0  0  0  0  0  0  0  0
    9.9771   15.0757   21.5840 C   0  0  0  0  0  0  0  0  0  0  0  0
   11.3114   14.4060   21.9097 C   0  0  0  0  0  0  0  0  0  0  0  0
   10.0274   10.8419   23.2322 N   0  0  0  0  0  0  0  0  0  0  0  0
    9.5754   11.9972   23.7826 N   0  0  0  0  0  0  0  0  0  0  0  0
    5.3113   14.3076   26.1814 O   0  0  0  0  0  0  0  0  0  0  0  0
   10.3092   14.0335   24.5063 O   0  0  0  0  0  0  0  0  0  0  0  0
    4.7350   12.4481   27.3547 O   0  0  0  0  0  0  0  0  0  0  0  0
   11.0483   13.1281   22.4967 O   0  0  0  0  0  0  0  0  0  0  0  0
    6.5497    8.9467   24.6966 H   0  0  0  0  0  0  0  0  0  0  0  0
    5.0622   10.4839   25.9283 H   0  0  0  0  0  0  0  0  0  0  0  0
    7.7785   13.7624   25.2475 H   0  0  0  0  0  0  0  0  0  0  0  0
    8.8111    8.3977   22.0781 H   0  0  0  0  0  0  0  0  0  0  0  0
   10.3200    8.2578   23.0136 H   0  0  0  0  0  0  0  0  0  0  0  0
    8.7843    7.8302   23.7661 H   0  0  0  0  0  0  0  0  0  0  0  0
   11.5361   15.4151   23.8222 H   0  0  0  0  0  0  0  0  0  0  0  0
   13.0558   14.7570   23.1746 H   0  0  0  0  0  0  0  0  0  0  0  0
   12.3382   16.2327   22.4925 H   0  0  0  0  0  0  0  0  0  0  0  0
   11.5479   13.5692   19.9175 H   0  0  0  0  0  0  0  0  0  0  0  0
   13.0330   13.6050   20.8515 H   0  0  0  0  0  0  0  0  0  0  0  0
   12.3989   15.1119   20.1536 H   0  0  0  0  0  0  0  0  0  0  0  0
    9.4024   14.4754   20.8693 H   0  0  0  0  0  0  0  0  0  0  0  0
    9.3683   15.2199   22.4824 H   0  0  0  0  0  0  0  0  0  0  0  0
   10.1361   16.0514   21.1107 H   0  0  0  0  0  0  0  0  0  0  0  0
    4.1301   13.0392   27.8517 H   0  0  0  0  0  0  0  0  0  0  0  0
  1  2  1  0  0  0  0
  1  4  2  0  0  0  0
  2  5  2  0  0  0  0
  3  5  1  0  0  0  0
  3  6  2  0  0  0  0
  4  6  1  0  0  0  0
  4  7  1  0  0  0  0
  5  8  1  0  0  0  0
  6 16  1  0  0  0  0
  7 10  1  0  0  0  0
  7 15  2  0  0  0  0
  8 17  2  0  0  0  0
  8 19  1  0  0  0  0
  9 16  1  0  0  0  0
  9 18  2  0  0  0  0
  9 20  1  0  0  0  0
 11 14  1  0  0  0  0
 12 14  1  0  0  0  0
 13 14  1  0  0  0  0
 14 20  1  0  0  0  0
 15 16  1  0  0  0  0
  1 21  1  0  0  0  0
  2 22  1  0  0  0  0
  3 23  1  0  0  0  0
 10 24  1  0  0  0  0
 10 25  1  0  0  0  0
 10 26  1  0  0  0  0
 11 27  1  0  0  0  0
 11 28  1  0  0  0  0
 11 29  1  0  0  0  0
 12 30  1  0  0  0  0
 12 31  1  0  0  0  0
 12 32  1  0  0  0  0
 13 33  1  0  0  0  0
 13 34  1  0  0  0  0
 13 35  1  0  0  0  0
 19 36  1  0  0  0  0
M  END
> <id>
EN300-28262925

> <smiles>
CC1=NN(C(=O)OC(C)(C)C)C=2C=C(C=CC12)C(=O)O

> <IUPAC Name>
1-[(tert-butoxy)carbonyl]-3-methyl-1H-indazole-6-carboxylic acid

> <CAS>
2680781-15-9

> <URL>
https://www.enaminestore.com/catalog/EN300-28262925

> <ROCS_ShapeQuery>
A71EV2A-x0451_0A_A71EV2A-x0310_0A_A71EV2A-x0416_0A_peptide

> <ROCS_TanimotoCombo>
0.530 

> <ROCS_ShapeTanimoto>
0.371 

> <ROCS_ColorTanimoto>
0.159 

> <ROCS_RefTversky>
0.319 

> <ROCS_RefColorTversky>
0.178 

> <ROCS_RefTverskyCombo>
0.497 

> <ROCS_FitTversky>
1.792 

> <ROCS_FitColorTversky>
0.591 

> <ROCS_FitTverskyCombo>
2.383 

> <ROCS_ColorScore>
-5.447

> <ROCS_Overlap>
2213.470

> <ROCS_Rank>
92                  

$$$$
untitled-dbase-175989_531
  -OEChem-11132313473D

 40 41  0     0  0  0  0  0  0999 V2000
    6.8295   12.6879   24.8239 C   0  0  0  0  0  0  0  0  0  0  0  0
    6.0452   10.9129   26.2665 C   0  0  0  0  0  0  0  0  0  0  0  0
    6.0195   12.2495   25.8736 C   0  0  0  0  0  0  0  0  0  0  0  0
    7.6837   11.7962   24.1603 C   0  0  0  0  0  0  0  0  0  0  0  0
    7.7165   10.4582   24.5848 C   0  0  0  0  0  0  0  0  0  0  0  0
    6.8876   10.0130   25.6175 C   0  0  0  0  0  0  0  0  0  0  0  0
    5.1377   13.1881   26.5495 C   0  0  0  0  0  0  0  0  0  0  0  0
   10.7902   13.0673   23.7332 C   0  0  0  0  0  0  0  0  0  0  0  0
    8.5133   12.2731   22.9961 C   0  0  0  0  0  0  0  0  0  0  0  0
   10.4434   10.7026   23.0640 C   0  0  0  0  0  0  0  0  0  0  0  0
    9.9007    9.7863   24.1549 C   0  0  0  0  0  0  0  0  0  0  0  0
   12.5519   15.3000   23.4127 C   0  0  0  0  0  0  0  0  0  0  0  0
   14.0209   13.7201   22.1263 C   0  0  0  0  0  0  0  0  0  0  0  0
   11.7130   14.2460   21.2867 C   0  0  0  0  0  0  0  0  0  0  0  0
   12.5859   14.0558   22.5263 C   0  0  0  0  0  0  0  0  0  0  0  0
    9.9457   12.0691   23.2309 N   0  0  0  0  0  0  0  0  0  0  0  0
    5.0263   14.3881   26.2782 O   0  0  0  0  0  0  0  0  0  0  0  0
   10.4288   13.9638   24.4933 O   0  0  0  0  0  0  0  0  0  0  0  0
    8.5050    9.5188   23.9690 O   0  0  0  0  0  0  0  0  0  0  0  0
    4.4181   12.6016   27.5451 O   0  0  0  0  0  0  0  0  0  0  0  0
   12.0766   12.9475   23.2769 O   0  0  0  0  0  0  0  0  0  0  0  0
    6.8875    8.3634   26.1292 Cl  0  0  0  0  0  0  0  0  0  0  0  0
    6.7899   13.7304   24.5148 H   0  0  0  0  0  0  0  0  0  0  0  0
    5.4039   10.5771   27.0789 H   0  0  0  0  0  0  0  0  0  0  0  0
    8.2234   11.7306   22.0879 H   0  0  0  0  0  0  0  0  0  0  0  0
    8.3197   13.3321   22.7945 H   0  0  0  0  0  0  0  0  0  0  0  0
   11.5374   10.7018   23.1005 H   0  0  0  0  0  0  0  0  0  0  0  0
   10.1360   10.3557   22.0710 H   0  0  0  0  0  0  0  0  0  0  0  0
   10.4088    8.8181   24.0796 H   0  0  0  0  0  0  0  0  0  0  0  0
   10.1135   10.1705   25.1619 H   0  0  0  0  0  0  0  0  0  0  0  0
   11.5235   15.5443   23.7021 H   0  0  0  0  0  0  0  0  0  0  0  0
   13.1459   15.1636   24.3223 H   0  0  0  0  0  0  0  0  0  0  0  0
   12.9377   16.1737   22.8752 H   0  0  0  0  0  0  0  0  0  0  0  0
   14.0501   12.8280   21.4902 H   0  0  0  0  0  0  0  0  0  0  0  0
   14.6285   13.4897   23.0089 H   0  0  0  0  0  0  0  0  0  0  0  0
   14.4937   14.5466   21.5861 H   0  0  0  0  0  0  0  0  0  0  0  0
   11.7372   13.3537   20.6507 H   0  0  0  0  0  0  0  0  0  0  0  0
   10.6715   14.4514   21.5545 H   0  0  0  0  0  0  0  0  0  0  0  0
   12.0843   15.0740   20.6720 H   0  0  0  0  0  0  0  0  0  0  0  0
    3.8193   13.2265   28.0068 H   0  0  0  0  0  0  0  0  0  0  0  0
  1  3  1  0  0  0  0
  1  4  2  0  0  0  0
  2  3  2  0  0  0  0
  2  6  1  0  0  0  0
  3  7  1  0  0  0  0
  4  5  1  0  0  0  0
  4  9  1  0  0  0  0
  5  6  2  0  0  0  0
  5 19  1  0  0  0  0
  6 22  1  0  0  0  0
  7 17  2  0  0  0  0
  7 20  1  0  0  0  0
  8 16  1  0  0  0  0
  8 18  2  0  0  0  0
  8 21  1  0  0  0  0
  9 16  1  0  0  0  0
 10 11  1  0  0  0  0
 10 16  1  0  0  0  0
 11 19  1  0  0  0  0
 12 15  1  0  0  0  0
 13 15  1  0  0  0  0
 14 15  1  0  0  0  0
 15 21  1  0  0  0  0
  1 23  1  0  0  0  0
  2 24  1  0  0  0  0
  9 25  1  0  0  0  0
  9 26  1  0  0  0  0
 10 27  1  0  0  0  0
 10 28  1  0  0  0  0
 11 29  1  0  0  0  0
 11 30  1  0  0  0  0
 12 31  1  0  0  0  0
 12 32  1  0  0  0  0
 12 33  1  0  0  0  0
 13 34  1  0  0  0  0
 13 35  1  0  0  0  0
 13 36  1  0  0  0  0
 14 37  1  0  0  0  0
 14 38  1  0  0  0  0
 14 39  1  0  0  0  0
 20 40  1  0  0  0  0
M  END
> <id>
EN300-39680341

> <smiles>
CC(C)(C)OC(=O)N1CCOC=2C(Cl)=CC(=CC2C1)C(=O)O

> <IUPAC Name>
4-[(tert-butoxy)carbonyl]-9-chloro-2,3,4,5-tetrahydro-1,4-benzoxazepine-7-carboxylic acid

> <URL>
https://www.enaminestore.com/catalog/EN300-39680341

> <ROCS_ShapeQuery>
A71EV2A-x0451_0A_A71EV2A-x0310_0A_A71EV2A-x0416_0A_peptide

> <ROCS_TanimotoCombo>
0.530 

> <ROCS_ShapeTanimoto>
0.343 

> <ROCS_ColorTanimoto>
0.187 

> <ROCS_RefTversky>
0.303 

> <ROCS_RefColorTversky>
0.205 

> <ROCS_RefTverskyCombo>
0.508 

> <ROCS_FitTversky>
1.625 

> <ROCS_FitColorTversky>
0.681 

> <ROCS_FitTverskyCombo>
2.306 

> <ROCS_ColorScore>
-6.262

> <ROCS_Overlap>
2103.229

> <ROCS_Rank>
93                  

$$$$
untitled-dbase-140875_226
  -OEChem-11132313473D

 37 38  0     0  0  0  0  0  0999 V2000
    6.3734   11.4792   26.1243 C   0  0  0  0  0  0  0  0  0  0  0  0
    6.9890   10.3904   25.5197 C   0  0  0  0  0  0  0  0  0  0  0  0
    7.9617   12.9463   25.0406 C   0  0  0  0  0  0  0  0  0  0  0  0
    6.8569   12.7570   25.8798 C   0  0  0  0  0  0  0  0  0  0  0  0
    8.0923   10.5815   24.6740 C   0  0  0  0  0  0  0  0  0  0  0  0
    8.6131   11.8614   24.4300 C   0  0  0  0  0  0  0  0  0  0  0  0
    9.7033    9.4765   23.2145 C   0  0  0  0  0  0  0  0  0  0  0  0
    6.2062   13.9047   26.4931 C   0  0  0  0  0  0  0  0  0  0  0  0
   10.4604   13.2270   23.4143 C   0  0  0  0  0  0  0  0  0  0  0  0
   10.1998   10.8423   22.8135 C   0  0  0  0  0  0  0  0  0  0  0  0
   12.0681   15.4538   22.5817 C   0  0  0  0  0  0  0  0  0  0  0  0
   11.7920   14.5486   20.2550 C   0  0  0  0  0  0  0  0  0  0  0  0
    9.7775   15.3070   21.5491 C   0  0  0  0  0  0  0  0  0  0  0  0
   11.1603   14.6633   21.6406 C   0  0  0  0  0  0  0  0  0  0  0  0
    8.6600    9.4413   24.0962 N   0  0  0  0  0  0  0  0  0  0  0  0
    9.7583   12.0103   23.5774 N   0  0  0  0  0  0  0  0  0  0  0  0
   10.1789    8.4600   22.7060 O   0  0  0  0  0  0  0  0  0  0  0  0
    5.0263   14.2305   26.3286 O   0  0  0  0  0  0  0  0  0  0  0  0
   10.6043   14.1073   24.2579 O   0  0  0  0  0  0  0  0  0  0  0  0
    7.0476   14.6120   27.2956 O   0  0  0  0  0  0  0  0  0  0  0  0
   11.0120   13.3357   22.1586 O   0  0  0  0  0  0  0  0  0  0  0  0
    5.5174   11.3199   26.7745 H   0  0  0  0  0  0  0  0  0  0  0  0
    6.6011    9.3922   25.7089 H   0  0  0  0  0  0  0  0  0  0  0  0
    8.2675   13.9717   24.8659 H   0  0  0  0  0  0  0  0  0  0  0  0
   11.2953   10.7998   22.8521 H   0  0  0  0  0  0  0  0  0  0  0  0
    9.9061   11.0102   21.7700 H   0  0  0  0  0  0  0  0  0  0  0  0
   11.6182   15.5384   23.5774 H   0  0  0  0  0  0  0  0  0  0  0  0
   13.0515   14.9832   22.6834 H   0  0  0  0  0  0  0  0  0  0  0  0
   12.2104   16.4782   22.2189 H   0  0  0  0  0  0  0  0  0  0  0  0
   11.1440   13.9821   19.5765 H   0  0  0  0  0  0  0  0  0  0  0  0
   12.7412   14.0027   20.3028 H   0  0  0  0  0  0  0  0  0  0  0  0
   11.9799   15.5328   19.8139 H   0  0  0  0  0  0  0  0  0  0  0  0
    9.1261   14.7402   20.8741 H   0  0  0  0  0  0  0  0  0  0  0  0
    9.2935   15.3640   22.5295 H   0  0  0  0  0  0  0  0  0  0  0  0
    9.8457   16.3195   21.1351 H   0  0  0  0  0  0  0  0  0  0  0  0
    8.2745    8.5349   24.3463 H   0  0  0  0  0  0  0  0  0  0  0  0
    6.6179   15.3879   27.7149 H   0  0  0  0  0  0  0  0  0  0  0  0
  1  2  1  0  0  0  0
  1  4  2  0  0  0  0
  2  5  2  0  0  0  0
  3  4  1  0  0  0  0
  3  6  2  0  0  0  0
  4  8  1  0  0  0  0
  5  6  1  0  0  0  0
  5 15  1  0  0  0  0
  6 16  1  0  0  0  0
  7 10  1  0  0  0  0
  7 15  1  0  0  0  0
  7 17  2  0  0  0  0
  8 18  2  0  0  0  0
  8 20  1  0  0  0  0
  9 16  1  0  0  0  0
  9 19  2  0  0  0  0
  9 21  1  0  0  0  0
 10 16  1  0  0  0  0
 11 14  1  0  0  0  0
 12 14  1  0  0  0  0
 13 14  1  0  0  0  0
 14 21  1  0  0  0  0
  1 22  1  0  0  0  0
  2 23  1  0  0  0  0
  3 24  1  0  0  0  0
 10 25  1  0  0  0  0
 10 26  1  0  0  0  0
 11 27  1  0  0  0  0
 11 28  1  0  0  0  0
 11 29  1  0  0  0  0
 12 30  1  0  0  0  0
 12 31  1  0  0  0  0
 12 32  1  0  0  0  0
 13 33  1  0  0  0  0
 13 34  1  0  0  0  0
 13 35  1  0  0  0  0
 15 36  1  0  0  0  0
 20 37  1  0  0  0  0
M  END
> <id>
EN300-7506854

> <smiles>
CC(C)(C)OC(=O)N1CC(=O)NC=2C=CC(=CC12)C(=O)O

> <MDLNUMBER>
MFCD17170851

> <IUPAC Name>
4-[(tert-butoxy)carbonyl]-2-oxo-1,2,3,4-tetrahydroquinoxaline-6-carboxylic acid

> <CAS>
1824275-65-1

> <Purity>
95

> <URL>
https://www.enaminestore.com/catalog/EN300-7506854

> <ROCS_ShapeQuery>
A71EV2A-x0451_0A_A71EV2A-x0310_0A_A71EV2A-x0416_0A_peptide

> <ROCS_TanimotoCombo>
0.530 

> <ROCS_ShapeTanimoto>
0.367 

> <ROCS_ColorTanimoto>
0.163 

> <ROCS_RefTversky>
0.317 

> <ROCS_RefColorTversky>
0.187 

> <ROCS_RefTverskyCombo>
0.504 

> <ROCS_FitTversky>
1.736 

> <ROCS_FitColorTversky>
0.563 

> <ROCS_FitTverskyCombo>
2.299 

> <ROCS_ColorScore>
-5.713

> <ROCS_Overlap>
2203.580

> <ROCS_Rank>
94                  

$$$$
untitled-dbase-171882_213
  -OEChem-11132313473D

 38 39  0     0  0  0  0  0  0999 V2000
    7.5935   13.3063   24.7548 C   0  0  0  0  0  0  0  0  0  0  0  0
   10.5568   12.9577   23.5955 C   0  0  0  0  0  0  0  0  0  0  0  0
    8.1795   10.7513   25.3471 C   0  0  0  0  0  0  0  0  0  0  0  0
    7.4490   10.9875   23.4034 C   0  0  0  0  0  0  0  0  0  0  0  0
    9.8986   10.5305   23.5527 C   0  0  0  0  0  0  0  0  0  0  0  0
    8.2339   11.9903   24.3538 C   0  0  0  0  0  0  0  0  0  0  0  0
    8.5351   10.0514   24.0049 C   0  0  0  0  0  0  0  0  0  0  0  0
   12.6750   14.6988   22.7874 C   0  0  0  0  0  0  0  0  0  0  0  0
   12.8274   13.2551   20.7376 C   0  0  0  0  0  0  0  0  0  0  0  0
   10.7198   14.5366   21.2108 C   0  0  0  0  0  0  0  0  0  0  0  0
    5.8353   14.2270   26.0372 C   0  0  0  0  0  0  0  0  0  0  0  0
   11.9037   13.7935   21.8280 C   0  0  0  0  0  0  0  0  0  0  0  0
    9.6379   11.9525   23.8218 N   0  0  0  0  0  0  0  0  0  0  0  0
    8.1843    8.6562   23.9703 N   0  0  0  0  0  0  0  0  0  0  0  0
    7.9879   14.4024   24.3804 O   0  0  0  0  0  0  0  0  0  0  0  0
   10.6068   13.9963   24.2514 O   0  0  0  0  0  0  0  0  0  0  0  0
    6.5351   13.0655   25.5798 O   0  0  0  0  0  0  0  0  0  0  0  0
   11.4041   12.6708   22.5633 O   0  0  0  0  0  0  0  0  0  0  0  0
    8.9469   10.7236   26.1274 H   0  0  0  0  0  0  0  0  0  0  0  0
    7.2037   10.5346   25.7984 H   0  0  0  0  0  0  0  0  0  0  0  0
    6.4013   10.7940   23.6630 H   0  0  0  0  0  0  0  0  0  0  0  0
    7.5197   11.1851   22.3290 H   0  0  0  0  0  0  0  0  0  0  0  0
   10.7310   10.1798   24.1707 H   0  0  0  0  0  0  0  0  0  0  0  0
   10.1009   10.3831   22.4874 H   0  0  0  0  0  0  0  0  0  0  0  0
   12.0155   15.0873   23.5716 H   0  0  0  0  0  0  0  0  0  0  0  0
   13.5057   14.1676   23.2633 H   0  0  0  0  0  0  0  0  0  0  0  0
   13.0782   15.5721   22.2619 H   0  0  0  0  0  0  0  0  0  0  0  0
   12.2782   12.6050   20.0469 H   0  0  0  0  0  0  0  0  0  0  0  0
   13.6257   12.6413   21.1702 H   0  0  0  0  0  0  0  0  0  0  0  0
   13.2864   14.0646   20.1608 H   0  0  0  0  0  0  0  0  0  0  0  0
   10.1664   13.8875   20.5226 H   0  0  0  0  0  0  0  0  0  0  0  0
   10.0268   14.8984   21.9772 H   0  0  0  0  0  0  0  0  0  0  0  0
   11.0629   15.3932   20.6193 H   0  0  0  0  0  0  0  0  0  0  0  0
    5.0109   13.9242   26.6875 H   0  0  0  0  0  0  0  0  0  0  0  0
    5.4508   14.7835   25.1788 H   0  0  0  0  0  0  0  0  0  0  0  0
    6.5261   14.8598   26.5994 H   0  0  0  0  0  0  0  0  0  0  0  0
    7.5353    8.4943   23.2274 H   0  0  0  0  0  0  0  0  0  0  0  0
    9.0079    8.1101   23.8190 H   0  0  0  0  0  0  0  0  0  0  0  0
  1  6  1  0  0  0  0
  1 15  2  0  0  0  0
  1 17  1  0  0  0  0
  2 13  1  0  0  0  0
  2 16  2  0  0  0  0
  2 18  1  0  0  0  0
  3  6  1  0  0  0  0
  3  7  1  0  0  0  0
  4  6  1  0  0  0  0
  4  7  1  0  0  0  0
  5  7  1  0  0  0  0
  5 13  1  0  0  0  0
  6 13  1  0  0  0  0
  7 14  1  0  0  0  0
  8 12  1  0  0  0  0
  9 12  1  0  0  0  0
 10 12  1  0  0  0  0
 11 17  1  0  0  0  0
 12 18  1  0  0  0  0
  3 19  1  0  0  0  0
  3 20  1  0  0  0  0
  4 21  1  0  0  0  0
  4 22  1  0  0  0  0
  5 23  1  0  0  0  0
  5 24  1  0  0  0  0
  8 25  1  0  0  0  0
  8 26  1  0  0  0  0
  8 27  1  0  0  0  0
  9 28  1  0  0  0  0
  9 29  1  0  0  0  0
  9 30  1  0  0  0  0
 10 31  1  0  0  0  0
 10 32  1  0  0  0  0
 10 33  1  0  0  0  0
 11 34  1  0  0  0  0
 11 35  1  0  0  0  0
 11 36  1  0  0  0  0
 14 37  1  0  0  0  0
 14 38  1  0  0  0  0
M  END
> <id>
EN300-33047966

> <smiles>
COC(=O)C1(CC2(N)C1)N(C2)C(=O)OC(C)(C)C

> <IUPAC Name>
2-tert-butyl 1-methyl 4-amino-2-azabicyclo[2.1.1]hexane-1,2-dicarboxylate

> <Purity>
95

> <URL>
https://www.enaminestore.com/catalog/EN300-33047966

> <ROCS_ShapeQuery>
A71EV2A-x0451_0A_A71EV2A-x0310_0A_A71EV2A-x0416_0A_peptide

> <ROCS_TanimotoCombo>
0.530 

> <ROCS_ShapeTanimoto>
0.313 

> <ROCS_ColorTanimoto>
0.217 

> <ROCS_RefTversky>
0.277 

> <ROCS_RefColorTversky>
0.253 

> <ROCS_RefTverskyCombo>
0.529 

> <ROCS_FitTversky>
1.703 

> <ROCS_FitColorTversky>
0.608 

> <ROCS_FitTverskyCombo>
2.311 

> <ROCS_ColorScore>
-7.756

> <ROCS_Overlap>
1920.681

> <ROCS_Rank>
95                  

$$$$
untitled-dbase-151879_3
  -OEChem-11132313473D

 36 37  0     0  0  0  0  0  0999 V2000
    7.7600   12.9724   25.1542 C   0  0  0  0  0  0  0  0  0  0  0  0
    6.5872   12.7869   25.8971 C   0  0  0  0  0  0  0  0  0  0  0  0
    6.5766   10.4585   25.3161 C   0  0  0  0  0  0  0  0  0  0  0  0
    8.3712   11.9039   24.4805 C   0  0  0  0  0  0  0  0  0  0  0  0
    5.9940   11.5330   25.9762 C   0  0  0  0  0  0  0  0  0  0  0  0
    7.7590   10.6386   24.5876 C   0  0  0  0  0  0  0  0  0  0  0  0
   10.2845   13.2422   23.5311 C   0  0  0  0  0  0  0  0  0  0  0  0
    9.9240   10.8519   22.8974 C   0  0  0  0  0  0  0  0  0  0  0  0
    9.6277    9.5923   23.6811 C   0  0  0  0  0  0  0  0  0  0  0  0
   12.7742   14.5779   23.0263 C   0  0  0  0  0  0  0  0  0  0  0  0
   12.1268   14.4745   20.6015 C   0  0  0  0  0  0  0  0  0  0  0  0
   10.7076   15.7674   22.2208 C   0  0  0  0  0  0  0  0  0  0  0  0
   11.6102   14.5484   22.0367 C   0  0  0  0  0  0  0  0  0  0  0  0
    9.5495   12.0481   23.6655 N   0  0  0  0  0  0  0  0  0  0  0  0
    4.8003   11.3521   26.7225 N   0  3  0  0  0  0  0  0  0  0  0  0
    4.2923   12.3398   27.3070 O   0  5  0  0  0  0  0  0  0  0  0  0
   10.4488   14.0999   24.3939 O   0  0  0  0  0  0  0  0  0  0  0  0
    4.2848   10.2091   26.7784 O   0  0  0  0  0  0  0  0  0  0  0  0
    8.2406    9.5030   23.9837 O   0  0  0  0  0  0  0  0  0  0  0  0
   10.8363   13.3670   22.2783 O   0  0  0  0  0  0  0  0  0  0  0  0
    8.1402   13.9855   25.1156 H   0  0  0  0  0  0  0  0  0  0  0  0
    6.1428   13.6422   26.4018 H   0  0  0  0  0  0  0  0  0  0  0  0
    6.1226    9.4709   25.3698 H   0  0  0  0  0  0  0  0  0  0  0  0
   10.9871   10.8712   22.6388 H   0  0  0  0  0  0  0  0  0  0  0  0
    9.3448   10.8819   21.9665 H   0  0  0  0  0  0  0  0  0  0  0  0
    9.8892    8.7142   23.0808 H   0  0  0  0  0  0  0  0  0  0  0  0
   10.2149    9.5379   24.6068 H   0  0  0  0  0  0  0  0  0  0  0  0
   12.4075   14.6309   24.0577 H   0  0  0  0  0  0  0  0  0  0  0  0
   13.4095   13.6916   22.9283 H   0  0  0  0  0  0  0  0  0  0  0  0
   13.3954   15.4677   22.8729 H   0  0  0  0  0  0  0  0  0  0  0  0
   11.2951   14.4531   19.8881 H   0  0  0  0  0  0  0  0  0  0  0  0
   12.6968   13.5526   20.4388 H   0  0  0  0  0  0  0  0  0  0  0  0
   12.7697   15.3269   20.3591 H   0  0  0  0  0  0  0  0  0  0  0  0
    9.8726   15.7465   21.5111 H   0  0  0  0  0  0  0  0  0  0  0  0
   10.2980   15.8165   23.2349 H   0  0  0  0  0  0  0  0  0  0  0  0
   11.2587   16.6939   22.0226 H   0  0  0  0  0  0  0  0  0  0  0  0
  1  2  1  0  0  0  0
  1  4  2  0  0  0  0
  2  5  2  0  0  0  0
  3  5  1  0  0  0  0
  3  6  2  0  0  0  0
  4  6  1  0  0  0  0
  4 14  1  0  0  0  0
  5 15  1  0  0  0  0
  6 19  1  0  0  0  0
  7 14  1  0  0  0  0
  7 17  2  0  0  0  0
  7 20  1  0  0  0  0
  8  9  1  0  0  0  0
  8 14  1  0  0  0  0
  9 19  1  0  0  0  0
 10 13  1  0  0  0  0
 11 13  1  0  0  0  0
 12 13  1  0  0  0  0
 13 20  1  0  0  0  0
 15 16  1  0  0  0  0
 15 18  2  0  0  0  0
  1 21  1  0  0  0  0
  2 22  1  0  0  0  0
  3 23  1  0  0  0  0
  8 24  1  0  0  0  0
  8 25  1  0  0  0  0
  9 26  1  0  0  0  0
  9 27  1  0  0  0  0
 10 28  1  0  0  0  0
 10 29  1  0  0  0  0
 10 30  1  0  0  0  0
 11 31  1  0  0  0  0
 11 32  1  0  0  0  0
 11 33  1  0  0  0  0
 12 34  1  0  0  0  0
 12 35  1  0  0  0  0
 12 36  1  0  0  0  0
M  CHG  2  15   1  16  -1
M  END
> <id>
EN300-28285893

> <smiles>
CC(C)(C)OC(=O)N1CCOC=2C=C(C=CC12)[N+](=O)[O-]

> <IUPAC Name>
tert-butyl 7-nitro-3,4-dihydro-2H-1,4-benzoxazine-4-carboxylate

> <CAS>
1171126-83-2

> <URL>
https://www.enaminestore.com/catalog/EN300-28285893

> <ROCS_ShapeQuery>
A71EV2A-x0451_0A_A71EV2A-x0310_0A_A71EV2A-x0416_0A_peptide

> <ROCS_TanimotoCombo>
0.530 

> <ROCS_ShapeTanimoto>
0.353 

> <ROCS_ColorTanimoto>
0.176 

> <ROCS_RefTversky>
0.307 

> <ROCS_RefColorTversky>
0.191 

> <ROCS_RefTverskyCombo>
0.498 

> <ROCS_FitTversky>
1.736 

> <ROCS_FitColorTversky>
0.704 

> <ROCS_FitTverskyCombo>
2.439 

> <ROCS_ColorScore>
-5.809

> <ROCS_Overlap>
2131.797

> <ROCS_Rank>
96                  

$$$$
untitled-dbase-171830_9
  -OEChem-11132313473D

 37 38  0     0  0  0  0  0  0999 V2000
    6.6627   12.6891   25.6839 C   0  0  0  0  0  0  0  0  0  0  0  0
    7.8242   12.8900   24.9282 C   0  0  0  0  0  0  0  0  0  0  0  0
    6.8917   10.3189   25.4056 C   0  0  0  0  0  0  0  0  0  0  0  0
    6.1988   11.4039   25.9278 C   0  0  0  0  0  0  0  0  0  0  0  0
    8.5530   11.8098   24.4027 C   0  0  0  0  0  0  0  0  0  0  0  0
    8.0521   10.5213   24.6432 C   0  0  0  0  0  0  0  0  0  0  0  0
    9.8047    9.4279   23.3472 C   0  0  0  0  0  0  0  0  0  0  0  0
    4.9931   11.1962   26.7131 C   0  0  0  0  0  0  0  0  0  0  0  0
   10.4341   13.2044   23.4941 C   0  0  0  0  0  0  0  0  0  0  0  0
   10.2912   10.7972   22.9458 C   0  0  0  0  0  0  0  0  0  0  0  0
   12.8877   14.6443   23.1155 C   0  0  0  0  0  0  0  0  0  0  0  0
   12.4461   14.3873   20.6562 C   0  0  0  0  0  0  0  0  0  0  0  0
   10.8373   15.6803   22.0872 C   0  0  0  0  0  0  0  0  0  0  0  0
   11.8112   14.5038   22.0402 C   0  0  0  0  0  0  0  0  0  0  0  0
    8.6966    9.3841   24.1455 N   0  0  0  0  0  0  0  0  0  0  0  0
    9.7571   11.9712   23.6380 N   0  0  0  0  0  0  0  0  0  0  0  0
   10.3484    8.4133   22.9078 O   0  0  0  0  0  0  0  0  0  0  0  0
    4.3008   12.0894   27.2130 O   0  0  0  0  0  0  0  0  0  0  0  0
   10.4853   14.1115   24.3199 O   0  0  0  0  0  0  0  0  0  0  0  0
    4.6828    9.8779   26.8525 O   0  0  0  0  0  0  0  0  0  0  0  0
   11.0796   13.2961   22.2826 O   0  0  0  0  0  0  0  0  0  0  0  0
    6.1272   13.5526   26.0714 H   0  0  0  0  0  0  0  0  0  0  0  0
    8.1032   13.9226   24.7566 H   0  0  0  0  0  0  0  0  0  0  0  0
    6.5277    9.3092   25.5875 H   0  0  0  0  0  0  0  0  0  0  0  0
   11.3809   10.7906   23.0713 H   0  0  0  0  0  0  0  0  0  0  0  0
   10.0763   10.9274   21.8780 H   0  0  0  0  0  0  0  0  0  0  0  0
   12.4360   14.7283   24.1104 H   0  0  0  0  0  0  0  0  0  0  0  0
   13.5720   13.7897   23.1153 H   0  0  0  0  0  0  0  0  0  0  0  0
   13.4745   15.5576   22.9644 H   0  0  0  0  0  0  0  0  0  0  0  0
   11.6774   14.2863   19.8816 H   0  0  0  0  0  0  0  0  0  0  0  0
   13.0723   13.4904   20.5884 H   0  0  0  0  0  0  0  0  0  0  0  0
   13.0636   15.2599   20.4201 H   0  0  0  0  0  0  0  0  0  0  0  0
   10.0650   15.5798   21.3160 H   0  0  0  0  0  0  0  0  0  0  0  0
   10.3444   15.7572   23.0618 H   0  0  0  0  0  0  0  0  0  0  0  0
   11.3562   16.6241   21.8840 H   0  0  0  0  0  0  0  0  0  0  0  0
    8.3192    8.4733   24.3917 H   0  0  0  0  0  0  0  0  0  0  0  0
    3.8698    9.7271   27.3804 H   0  0  0  0  0  0  0  0  0  0  0  0
  1  2  1  0  0  0  0
  1  4  2  0  0  0  0
  2  5  2  0  0  0  0
  3  4  1  0  0  0  0
  3  6  2  0  0  0  0
  4  8  1  0  0  0  0
  5  6  1  0  0  0  0
  5 16  1  0  0  0  0
  6 15  1  0  0  0  0
  7 10  1  0  0  0  0
  7 15  1  0  0  0  0
  7 17  2  0  0  0  0
  8 18  2  0  0  0  0
  8 20  1  0  0  0  0
  9 16  1  0  0  0  0
  9 19  2  0  0  0  0
  9 21  1  0  0  0  0
 10 16  1  0  0  0  0
 11 14  1  0  0  0  0
 12 14  1  0  0  0  0
 13 14  1  0  0  0  0
 14 21  1  0  0  0  0
  1 22  1  0  0  0  0
  2 23  1  0  0  0  0
  3 24  1  0  0  0  0
 10 25  1  0  0  0  0
 10 26  1  0  0  0  0
 11 27  1  0  0  0  0
 11 28  1  0  0  0  0
 11 29  1  0  0  0  0
 12 30  1  0  0  0  0
 12 31  1  0  0  0  0
 12 32  1  0  0  0  0
 13 33  1  0  0  0  0
 13 34  1  0  0  0  0
 13 35  1  0  0  0  0
 15 36  1  0  0  0  0
 20 37  1  0  0  0  0
M  END
> <id>
EN300-12443538

> <smiles>
CC(C)(C)OC(=O)N1CC(=O)NC=2C=C(C=CC12)C(=O)O

> <MDLNUMBER>
MFCD17170854

> <IUPAC Name>
1-[(tert-butoxy)carbonyl]-3-oxo-1,2,3,4-tetrahydroquinoxaline-6-carboxylic acid

> <CAS>
1824280-11-6

> <URL>
https://www.enaminestore.com/catalog/EN300-12443538

> <ROCS_ShapeQuery>
A71EV2A-x0451_0A_A71EV2A-x0310_0A_A71EV2A-x0416_0A_peptide

> <ROCS_TanimotoCombo>
0.529 

> <ROCS_ShapeTanimoto>
0.369 

> <ROCS_ColorTanimoto>
0.160 

> <ROCS_RefTversky>
0.319 

> <ROCS_RefColorTversky>
0.184 

> <ROCS_RefTverskyCombo>
0.503 

> <ROCS_FitTversky>
1.746 

> <ROCS_FitColorTversky>
0.553 

> <ROCS_FitTverskyCombo>
2.299 

> <ROCS_ColorScore>
-5.616

> <ROCS_Overlap>
2215.928

> <ROCS_Rank>
97                  

$$$$
untitled-dbase-39265_509
  -OEChem-11132313473D

 64 66  0     1  0  0  0  0  0999 V2000
    5.9740   10.4820   26.1264 C   0  0  0  0  0  0  0  0  0  0  0  0
    6.9673   12.5830   25.4852 C   0  0  0  0  0  0  0  0  0  0  0  0
    6.0393   11.8676   26.2395 C   0  0  0  0  0  0  0  0  0  0  0  0
    7.7776   10.5208   24.4924 C   0  0  0  0  0  0  0  0  0  0  0  0
    6.8356    9.8128   25.2567 C   0  0  0  0  0  0  0  0  0  0  0  0
    7.8396   11.9142   24.6201 C   0  0  0  0  0  0  0  0  0  0  0  0
    5.1286   12.5703   27.1297 C   0  0  0  0  0  0  0  0  0  0  0  0
   11.8240   15.0706   22.4140 C   0  0  0  0  0  0  0  0  0  0  0  0
   10.9936   11.9541   24.1944 C   0  0  0  0  0  0  0  0  0  0  0  0
    9.3438   10.7599   22.5726 C   0  0  0  0  0  0  0  0  0  0  0  0
   11.5741   13.3628   24.2092 C   0  0  0  0  0  0  0  0  0  0  0  0
   10.3068   13.0585   22.1862 C   0  0  0  0  0  0  0  0  0  0  0  0
    8.6874    9.7774   23.5470 C   0  0  1  0  0  0  0  0  0  0  0  0
    9.7896   12.0640   23.2413 C   0  0  2  0  0  0  0  0  0  0  0  0
    6.6708    8.3295   25.1552 C   0  0  0  0  0  0  0  0  0  0  0  0
    5.5950   13.0259   29.9275 C   0  0  0  0  0  0  0  0  0  0  0  0
    6.0278   15.4115   29.2709 C   0  0  0  0  0  0  0  0  0  0  0  0
    3.7621   14.3991   28.8837 C   0  0  0  0  0  0  0  0  0  0  0  0
   14.3370   15.2261   20.9703 C   0  0  0  0  0  0  0  0  0  0  0  0
   12.9104   15.5845   18.9342 C   0  0  0  0  0  0  0  0  0  0  0  0
   12.8628   17.2594   20.8053 C   0  0  0  0  0  0  0  0  0  0  0  0
    5.2662   14.1332   28.9272 C   0  0  0  0  0  0  0  0  0  0  0  0
   13.0143   15.7822   20.4450 C   0  0  0  0  0  0  0  0  0  0  0  0
   11.2602   13.9022   22.8997 N   0  0  0  0  0  0  0  0  0  0  0  0
    9.6910    8.9767   24.2513 N   0  0  0  0  0  0  0  0  0  0  0  0
    3.9848   12.1858   27.4076 O   0  0  0  0  0  0  0  0  0  0  0  0
   12.1793   16.0072   23.1253 O   0  0  0  0  0  0  0  0  0  0  0  0
    8.6987   12.7147   23.9162 O   0  0  0  0  0  0  0  0  0  0  0  0
    5.6927   13.7135   27.6266 O   0  0  0  0  0  0  0  0  0  0  0  0
   11.9386   15.0513   21.0516 O   0  0  0  0  0  0  0  0  0  0  0  0
    5.2461    9.9235   26.7098 H   0  0  0  0  0  0  0  0  0  0  0  0
    7.0058   13.6684   25.5577 H   0  0  0  0  0  0  0  0  0  0  0  0
   11.7430   11.2550   23.8017 H   0  0  0  0  0  0  0  0  0  0  0  0
   10.7077   11.6369   25.2032 H   0  0  0  0  0  0  0  0  0  0  0  0
   10.2384   10.2887   22.1130 H   0  0  0  0  0  0  0  0  0  0  0  0
    8.6543   10.9719   21.7305 H   0  0  0  0  0  0  0  0  0  0  0  0
   11.0827   13.9946   24.9581 H   0  0  0  0  0  0  0  0  0  0  0  0
   12.6533   13.3802   24.3903 H   0  0  0  0  0  0  0  0  0  0  0  0
   10.8601   12.5577   21.3827 H   0  0  0  0  0  0  0  0  0  0  0  0
    9.5248   13.6871   21.7470 H   0  0  0  0  0  0  0  0  0  0  0  0
    8.0352    9.0770   22.9789 H   0  0  0  0  0  0  0  0  0  0  0  0
    5.9552    8.0834   24.3637 H   0  0  0  0  0  0  0  0  0  0  0  0
    7.6262    7.8423   24.9302 H   0  0  0  0  0  0  0  0  0  0  0  0
    6.3095    7.9088   26.1004 H   0  0  0  0  0  0  0  0  0  0  0  0
    5.0503   12.1067   29.6843 H   0  0  0  0  0  0  0  0  0  0  0  0
    6.6665   12.8015   29.9430 H   0  0  0  0  0  0  0  0  0  0  0  0
    5.2862   13.3095   30.9402 H   0  0  0  0  0  0  0  0  0  0  0  0
    5.7948   16.2087   28.5558 H   0  0  0  0  0  0  0  0  0  0  0  0
    7.1100   15.2492   29.2106 H   0  0  0  0  0  0  0  0  0  0  0  0
    5.7862   15.7674   30.2777 H   0  0  0  0  0  0  0  0  0  0  0  0
    3.5260   15.1933   28.1663 H   0  0  0  0  0  0  0  0  0  0  0  0
    3.2019   13.5015   28.6024 H   0  0  0  0  0  0  0  0  0  0  0  0
    3.3992   14.7449   29.8584 H   0  0  0  0  0  0  0  0  0  0  0  0
   14.4154   15.3661   22.0544 H   0  0  0  0  0  0  0  0  0  0  0  0
   14.4423   14.1590   20.7490 H   0  0  0  0  0  0  0  0  0  0  0  0
   15.1876   15.7569   20.5278 H   0  0  0  0  0  0  0  0  0  0  0  0
   11.9629   15.9820   18.5530 H   0  0  0  0  0  0  0  0  0  0  0  0
   12.9233   14.5189   18.6783 H   0  0  0  0  0  0  0  0  0  0  0  0
   13.7316   16.0782   18.4048 H   0  0  0  0  0  0  0  0  0  0  0  0
   11.9141   17.6585   20.4285 H   0  0  0  0  0  0  0  0  0  0  0  0
   12.8979   17.4160   21.8883 H   0  0  0  0  0  0  0  0  0  0  0  0
   13.6557   17.8569   20.3411 H   0  0  0  0  0  0  0  0  0  0  0  0
   10.5845    9.2626   23.9341 H   0  0  0  0  0  0  0  0  0  0  0  0
    9.5868    9.1456   25.2215 H   0  0  0  0  0  0  0  0  0  0  0  0
  1  3  1  0  0  0  0
  1  5  2  0  0  0  0
  2  3  2  0  0  0  0
  2  6  1  0  0  0  0
  3  7  1  0  0  0  0
  4  5  1  0  0  0  0
  4  6  2  0  0  0  0
  4 13  1  0  0  0  0
  5 15  1  0  0  0  0
  6 28  1  0  0  0  0
  7 26  2  0  0  0  0
  7 29  1  0  0  0  0
  8 24  1  0  0  0  0
  8 27  2  0  0  0  0
  8 30  1  0  0  0  0
  9 11  1  0  0  0  0
  9 14  1  0  0  0  0
 10 13  1  0  0  0  0
 10 14  1  0  0  0  0
 11 24  1  0  0  0  0
 12 14  1  0  0  0  0
 12 24  1  0  0  0  0
 13 25  1  0  0  0  0
 14 28  1  0  0  0  0
 16 22  1  0  0  0  0
 17 22  1  0  0  0  0
 18 22  1  0  0  0  0
 19 23  1  0  0  0  0
 20 23  1  0  0  0  0
 21 23  1  0  0  0  0
 22 29  1  0  0  0  0
 23 30  1  0  0  0  0
  1 31  1  0  0  0  0
  2 32  1  0  0  0  0
  9 33  1  0  0  0  0
  9 34  1  0  0  0  0
 10 35  1  0  0  0  0
 10 36  1  0  0  0  0
 11 37  1  0  0  0  0
 11 38  1  0  0  0  0
 12 39  1  0  0  0  0
 12 40  1  0  0  0  0
 13 41  1  0  0  0  0
 15 42  1  0  0  0  0
 15 43  1  0  0  0  0
 15 44  1  0  0  0  0
 16 45  1  0  0  0  0
 16 46  1  0  0  0  0
 16 47  1  0  0  0  0
 17 48  1  0  0  0  0
 17 49  1  0  0  0  0
 17 50  1  0  0  0  0
 18 51  1  0  0  0  0
 18 52  1  0  0  0  0
 18 53  1  0  0  0  0
 19 54  1  0  0  0  0
 19 55  1  0  0  0  0
 19 56  1  0  0  0  0
 20 57  1  0  0  0  0
 20 58  1  0  0  0  0
 20 59  1  0  0  0  0
 21 60  1  0  0  0  0
 21 61  1  0  0  0  0
 21 62  1  0  0  0  0
 25 63  1  0  0  0  0
 25 64  1  0  0  0  0
M  END
> <id>
EN300-1129060

> <smiles>
CC=1C=C(C=C2OC3(CCN(C3)C(=O)OC(C)(C)C)CC(N)C12)C(=O)OC(C)(C)C

> <IUPAC Name>
1',7-di-tert-butyl 4-amino-5-methyl-3,4-dihydrospiro[1-benzopyran-2,3'-pyrrolidine]-1',7-dicarboxylate

> <CAS>
2138207-15-3

> <URL>
https://www.enaminestore.com/catalog/EN300-1129060

> <ROCS_ShapeQuery>
A71EV2A-x0451_0A_A71EV2A-x0310_0A_A71EV2A-x0416_0A_peptide

> <ROCS_TanimotoCombo>
0.529 

> <ROCS_ShapeTanimoto>
0.398 

> <ROCS_ColorTanimoto>
0.131 

> <ROCS_RefTversky>
0.352 

> <ROCS_RefColorTversky>
0.158 

> <ROCS_RefTverskyCombo>
0.510 

> <ROCS_FitTversky>
1.488 

> <ROCS_FitColorTversky>
0.435 

> <ROCS_FitTverskyCombo>
1.923 

> <ROCS_ColorScore>
-4.826

> <ROCS_Overlap>
2453.820

> <ROCS_Rank>
98                  

$$$$
untitled-dbase-104065_123
  -OEChem-11132313473D

 38 39  0     1  0  0  0  0  0999 V2000
    8.2632   13.0346   25.5639 C   0  0  0  0  0  0  0  0  0  0  0  0
    7.1962   12.9972   26.4706 C   0  0  0  0  0  0  0  0  0  0  0  0
    6.5951   10.8106   25.6866 C   0  0  0  0  0  0  0  0  0  0  0  0
    8.5243   11.9581   24.7025 C   0  0  0  0  0  0  0  0  0  0  0  0
    7.6728   10.8389   24.7928 C   0  0  0  0  0  0  0  0  0  0  0  0
    6.3610   11.8887   26.5304 C   0  0  0  0  0  0  0  0  0  0  0  0
   10.5242   12.9955   23.5729 C   0  0  0  0  0  0  0  0  0  0  0  0
    9.5704   10.8193   22.7945 C   0  0  0  0  0  0  0  0  0  0  0  0
    9.1259    9.5506   23.5034 C   0  0  2  0  0  0  0  0  0  0  0  0
   12.6838   14.7509   22.8709 C   0  0  0  0  0  0  0  0  0  0  0  0
   12.8009   13.4494   20.7257 C   0  0  0  0  0  0  0  0  0  0  0  0
   10.7222   14.7393   21.2940 C   0  0  0  0  0  0  0  0  0  0  0  0
    9.0997    8.3694   22.5407 C   0  0  0  0  0  0  0  0  0  0  0  0
   11.8913   13.9305   21.8541 C   0  0  0  0  0  0  0  0  0  0  0  0
    9.5768   11.9631   23.7199 N   0  0  0  0  0  0  0  0  0  0  0  0
   10.6302   13.9953   24.2771 O   0  0  0  0  0  0  0  0  0  0  0  0
    7.8047    9.7146   24.0160 O   0  0  0  0  0  0  0  0  0  0  0  0
    8.2770    7.3559   23.0905 O   0  0  0  0  0  0  0  0  0  0  0  0
   11.3692   12.7699   22.5124 O   0  0  0  0  0  0  0  0  0  0  0  0
    5.3369   11.8612   27.3924 F   0  0  0  0  0  0  0  0  0  0  0  0
    8.8462   13.9469   25.5575 H   0  0  0  0  0  0  0  0  0  0  0  0
    7.0143   13.8466   27.1230 H   0  0  0  0  0  0  0  0  0  0  0  0
    5.9418    9.9432   25.7334 H   0  0  0  0  0  0  0  0  0  0  0  0
   10.5656   10.6671   22.3646 H   0  0  0  0  0  0  0  0  0  0  0  0
    8.8853   11.0838   21.9790 H   0  0  0  0  0  0  0  0  0  0  0  0
    9.8061    9.3059   24.3310 H   0  0  0  0  0  0  0  0  0  0  0  0
   12.0345   15.0981   23.6825 H   0  0  0  0  0  0  0  0  0  0  0  0
   13.5041   14.1706   23.3059 H   0  0  0  0  0  0  0  0  0  0  0  0
   13.1045   15.6496   22.4055 H   0  0  0  0  0  0  0  0  0  0  0  0
   12.2365   12.8603   19.9939 H   0  0  0  0  0  0  0  0  0  0  0  0
   13.5869   12.7904   21.1121 H   0  0  0  0  0  0  0  0  0  0  0  0
   13.2758   14.2869   20.2046 H   0  0  0  0  0  0  0  0  0  0  0  0
   10.1536   14.1511   20.5647 H   0  0  0  0  0  0  0  0  0  0  0  0
   10.0387   15.0618   22.0861 H   0  0  0  0  0  0  0  0  0  0  0  0
   11.0822   15.6273   20.7618 H   0  0  0  0  0  0  0  0  0  0  0  0
   10.1081    7.9778   22.4022 H   0  0  0  0  0  0  0  0  0  0  0  0
    8.6918    8.6804   21.5782 H   0  0  0  0  0  0  0  0  0  0  0  0
    8.2766    6.6159   22.4599 H   0  0  0  0  0  0  0  0  0  0  0  0
  1  2  1  0  0  0  0
  1  4  2  0  0  0  0
  2  6  2  0  0  0  0
  3  5  2  0  0  0  0
  3  6  1  0  0  0  0
  4  5  1  0  0  0  0
  4 15  1  0  0  0  0
  5 17  1  0  0  0  0
  6 20  1  0  0  0  0
  7 15  1  0  0  0  0
  7 16  2  0  0  0  0
  7 19  1  0  0  0  0
  8  9  1  0  0  0  0
  8 15  1  0  0  0  0
  9 13  1  0  0  0  0
  9 17  1  0  0  0  0
 10 14  1  0  0  0  0
 11 14  1  0  0  0  0
 12 14  1  0  0  0  0
 13 18  1  0  0  0  0
 14 19  1  0  0  0  0
  1 21  1  0  0  0  0
  2 22  1  0  0  0  0
  3 23  1  0  0  0  0
  8 24  1  0  0  0  0
  8 25  1  0  0  0  0
  9 26  1  0  0  0  0
 10 27  1  0  0  0  0
 10 28  1  0  0  0  0
 10 29  1  0  0  0  0
 11 30  1  0  0  0  0
 11 31  1  0  0  0  0
 11 32  1  0  0  0  0
 12 33  1  0  0  0  0
 12 34  1  0  0  0  0
 12 35  1  0  0  0  0
 13 36  1  0  0  0  0
 13 37  1  0  0  0  0
 18 38  1  0  0  0  0
M  END
> <id>
EN300-26665971

> <smiles>
CC(C)(C)OC(=O)N1CC(CO)OC=2C=C(F)C=CC12

> <IUPAC Name>
tert-butyl 7-fluoro-2-(hydroxymethyl)-3,4-dihydro-2H-1,4-benzoxazine-4-carboxylate

> <CAS>
2413884-64-5

> <URL>
https://www.enaminestore.com/catalog/EN300-26665971

> <ROCS_ShapeQuery>
A71EV2A-x0451_0A_A71EV2A-x0310_0A_A71EV2A-x0416_0A_peptide

> <ROCS_TanimotoCombo>
0.529 

> <ROCS_ShapeTanimoto>
0.354 

> <ROCS_ColorTanimoto>
0.175 

> <ROCS_RefTversky>
0.307 

> <ROCS_RefColorTversky>
0.189 

> <ROCS_RefTverskyCombo>
0.497 

> <ROCS_FitTversky>
1.754 

> <ROCS_FitColorTversky>
0.699 

> <ROCS_FitTverskyCombo>
2.453 

> <ROCS_ColorScore>
-5.763

> <ROCS_Overlap>
2133.547

> <ROCS_Rank>
99                  

$$$$
untitled-dbase-153266_28
  -OEChem-11132313473D

 28 29  0     1  0  0  0  0  0999 V2000
    6.7462   12.2992   25.4744 C   0  0  0  0  0  0  0  0  0  0  0  0
    8.5292   11.9695   24.4112 C   0  0  0  0  0  0  0  0  0  0  0  0
    5.7017   12.9860   26.1722 C   0  0  0  0  0  0  0  0  0  0  0  0
   10.4026   13.2088   23.6093 C   0  0  0  0  0  0  0  0  0  0  0  0
    8.2994    9.4897   24.1834 C   0  0  0  0  0  0  0  0  0  0  0  0
   10.3171   10.6958   23.2546 C   0  0  0  0  0  0  0  0  0  0  0  0
    9.2443    9.6236   22.9853 C   0  0  1  0  0  0  0  0  0  0  0  0
    9.8870    8.2812   22.6488 C   0  0  0  0  0  0  0  0  0  0  0  0
   11.3286   13.3477   22.4233 C   0  0  0  0  0  0  0  0  0  0  0  0
    7.8321   12.9473   24.9535 N   0  0  0  0  0  0  0  0  0  0  0  0
    6.7170   10.9769   25.2948 N   0  0  0  0  0  0  0  0  0  0  0  0
    7.8558   10.7961   24.6132 N   0  0  0  0  0  0  0  0  0  0  0  0
    9.7473   11.9762   23.7282 N   0  0  0  0  0  0  0  0  0  0  0  0
    5.6425   14.2141   26.3904 O   0  0  0  0  0  0  0  0  0  0  0  0
   10.2784   14.1632   24.3810 O   0  0  0  0  0  0  0  0  0  0  0  0
    4.7054   12.1552   26.6132 O   0  0  0  0  0  0  0  0  0  0  0  0
   11.3341   12.2168   21.6975 F   0  0  0  0  0  0  0  0  0  0  0  0
   10.9311   14.3582   21.6315 F   0  0  0  0  0  0  0  0  0  0  0  0
   12.5849   13.5970   22.8304 F   0  0  0  0  0  0  0  0  0  0  0  0
    7.4165    8.8972   23.9203 H   0  0  0  0  0  0  0  0  0  0  0  0
    8.7961    9.0266   25.0434 H   0  0  0  0  0  0  0  0  0  0  0  0
   11.0191   10.3592   24.0278 H   0  0  0  0  0  0  0  0  0  0  0  0
   10.8925   10.8659   22.3393 H   0  0  0  0  0  0  0  0  0  0  0  0
    8.6582    9.9475   22.1138 H   0  0  0  0  0  0  0  0  0  0  0  0
   10.4773    7.9305   23.4945 H   0  0  0  0  0  0  0  0  0  0  0  0
   10.5375    8.3888   21.7817 H   0  0  0  0  0  0  0  0  0  0  0  0
    9.1148    7.5463   22.4251 H   0  0  0  0  0  0  0  0  0  0  0  0
    4.8466   11.2102   26.3910 H   0  0  0  0  0  0  0  0  0  0  0  0
  1  3  1  0  0  0  0
  1 10  1  0  0  0  0
  1 11  2  0  0  0  0
  2 10  2  0  0  0  0
  2 12  1  0  0  0  0
  2 13  1  0  0  0  0
  3 14  2  0  0  0  0
  3 16  1  0  0  0  0
  4  9  1  0  0  0  0
  4 13  1  0  0  0  0
  4 15  2  0  0  0  0
  5  7  1  0  0  0  0
  5 12  1  0  0  0  0
  6  7  1  0  0  0  0
  6 13  1  0  0  0  0
  7  8  1  0  0  0  0
  9 17  1  0  0  0  0
  9 18  1  0  0  0  0
  9 19  1  0  0  0  0
 11 12  1  0  0  0  0
  5 20  1  0  0  0  0
  5 21  1  0  0  0  0
  6 22  1  0  0  0  0
  6 23  1  0  0  0  0
  7 24  1  0  0  0  0
  8 25  1  0  0  0  0
  8 26  1  0  0  0  0
  8 27  1  0  0  0  0
 16 28  1  0  0  0  0
M  END
> <id>
EN300-28285279

> <smiles>
CC1CN(C(=O)C(F)(F)F)C2=NC(=NN2C1)C(=O)O

> <IUPAC Name>
6-methyl-4-(2,2,2-trifluoroacetyl)-4H,5H,6H,7H-[1,2,4]triazolo[1,5-a]pyrimidine-2-carboxylic acid

> <CAS>
2680709-49-1

> <URL>
https://www.enaminestore.com/catalog/EN300-28285279

> <ROCS_ShapeQuery>
A71EV2A-x0451_0A_A71EV2A-x0310_0A_A71EV2A-x0416_0A_peptide

> <ROCS_TanimotoCombo>
0.529 

> <ROCS_ShapeTanimoto>
0.359 

> <ROCS_ColorTanimoto>
0.170 

> <ROCS_RefTversky>
0.310 

> <ROCS_RefColorTversky>
0.189 

> <ROCS_RefTverskyCombo>
0.499 

> <ROCS_FitTversky>
1.783 

> <ROCS_FitColorTversky>
0.625 

> <ROCS_FitTverskyCombo>
2.408 

> <ROCS_ColorScore>
-5.771

> <ROCS_Overlap>
2153.431

> <ROCS_Rank>
100                 

$$$$
untitled-dbase-175639_284
  -OEChem-11132313473D

 42 43  0     1  0  0  0  0  0999 V2000
   10.7841   13.7803   22.9553 C   0  0  0  0  0  0  0  0  0  0  0  0
    9.7636   10.1524   23.3344 C   0  0  0  0  0  0  0  0  0  0  0  0
    9.9283   11.5933   23.8224 C   0  0  2  0  0  0  0  0  0  0  0  0
    8.5119   12.0448   24.2055 C   0  0  1  0  0  0  0  0  0  0  0  0
    7.6293   10.8118   24.1255 C   0  0  1  0  0  0  0  0  0  0  0  0
    8.5982    9.6359   24.1669 C   0  0  1  0  0  0  0  0  0  0  0  0
    7.2599   11.8913   26.1037 C   0  0  0  0  0  0  0  0  0  0  0  0
    6.2064   12.9938   26.1545 C   0  0  0  0  0  0  0  0  0  0  0  0
    7.5327   11.3307   27.4922 C   0  0  0  0  0  0  0  0  0  0  0  0
   12.9200   15.2387   23.3512 C   0  0  0  0  0  0  0  0  0  0  0  0
   13.2741   15.3125   20.8655 C   0  0  0  0  0  0  0  0  0  0  0  0
   11.4484   16.6850   21.9100 C   0  0  0  0  0  0  0  0  0  0  0  0
   12.2422   15.3819   21.9892 C   0  0  0  0  0  0  0  0  0  0  0  0
   10.5205   12.4341   22.7925 N   0  0  0  0  0  0  0  0  0  0  0  0
   10.5593   14.4343   23.9684 O   0  0  0  0  0  0  0  0  0  0  0  0
    8.4773   12.4306   25.5791 O   0  0  0  0  0  0  0  0  0  0  0  0
    6.7779   10.8387   25.2615 O   0  0  0  0  0  0  0  0  0  0  0  0
    8.0133    8.4869   23.5827 O   0  0  0  0  0  0  0  0  0  0  0  0
   11.3379   14.2856   21.8128 O   0  0  0  0  0  0  0  0  0  0  0  0
    9.5958   10.0926   22.2616 H   0  0  0  0  0  0  0  0  0  0  0  0
   10.6661    9.5916   23.5810 H   0  0  0  0  0  0  0  0  0  0  0  0
   10.6213   11.6298   24.6883 H   0  0  0  0  0  0  0  0  0  0  0  0
    8.1452   12.8870   23.6036 H   0  0  0  0  0  0  0  0  0  0  0  0
    7.0208   10.7990   23.2081 H   0  0  0  0  0  0  0  0  0  0  0  0
    8.9213    9.3877   25.1858 H   0  0  0  0  0  0  0  0  0  0  0  0
    6.0260   13.3811   25.1524 H   0  0  0  0  0  0  0  0  0  0  0  0
    6.5508   13.8068   26.7927 H   0  0  0  0  0  0  0  0  0  0  0  0
    5.2741   12.5978   26.5556 H   0  0  0  0  0  0  0  0  0  0  0  0
    8.2869   10.5451   27.4369 H   0  0  0  0  0  0  0  0  0  0  0  0
    6.6178   10.9123   27.9130 H   0  0  0  0  0  0  0  0  0  0  0  0
    7.8944   12.1214   28.1504 H   0  0  0  0  0  0  0  0  0  0  0  0
   12.1827   15.2880   24.1604 H   0  0  0  0  0  0  0  0  0  0  0  0
   13.4639   14.2921   23.4335 H   0  0  0  0  0  0  0  0  0  0  0  0
   13.6253   16.0594   23.5252 H   0  0  0  0  0  0  0  0  0  0  0  0
   12.7922   15.4148   19.8865 H   0  0  0  0  0  0  0  0  0  0  0  0
   13.7806   14.3405   20.8602 H   0  0  0  0  0  0  0  0  0  0  0  0
   14.0310   16.0974   20.9631 H   0  0  0  0  0  0  0  0  0  0  0  0
   10.9621   16.7880   20.9332 H   0  0  0  0  0  0  0  0  0  0  0  0
   10.6782   16.7360   22.6865 H   0  0  0  0  0  0  0  0  0  0  0  0
   12.1103   17.5518   22.0187 H   0  0  0  0  0  0  0  0  0  0  0  0
   10.7541   12.0051   21.9002 H   0  0  0  0  0  0  0  0  0  0  0  0
    7.2853    8.2199   24.1655 H   0  0  0  0  0  0  0  0  0  0  0  0
  1 14  1  0  0  0  0
  1 15  2  0  0  0  0
  1 19  1  0  0  0  0
  2  3  1  0  0  0  0
  2  6  1  0  0  0  0
  3  4  1  0  0  0  0
  3 14  1  6  0  0  0
  4  5  1  0  0  0  0
  4 16  1  1  0  0  0
  5  6  1  0  0  0  0
  5 17  1  1  0  0  0
  6 18  1  6  0  0  0
  7  8  1  0  0  0  0
  7  9  1  0  0  0  0
  7 16  1  0  0  0  0
  7 17  1  0  0  0  0
 10 13  1  0  0  0  0
 11 13  1  0  0  0  0
 12 13  1  0  0  0  0
 13 19  1  0  0  0  0
  2 20  1  0  0  0  0
  2 21  1  0  0  0  0
  3 22  1  0  0  0  0
  4 23  1  0  0  0  0
  5 24  1  0  0  0  0
  6 25  1  0  0  0  0
  8 26  1  0  0  0  0
  8 27  1  0  0  0  0
  8 28  1  0  0  0  0
  9 29  1  0  0  0  0
  9 30  1  0  0  0  0
  9 31  1  0  0  0  0
 10 32  1  0  0  0  0
 10 33  1  0  0  0  0
 10 34  1  0  0  0  0
 11 35  1  0  0  0  0
 11 36  1  0  0  0  0
 11 37  1  0  0  0  0
 12 38  1  0  0  0  0
 12 39  1  0  0  0  0
 12 40  1  0  0  0  0
 14 41  1  0  0  0  0
 18 42  1  0  0  0  0
M  END
> <id>
EN300-20050662

> <smiles>
CC(C)(C)OC(=O)N[C@@H]1C[C@H](O)[C@H]2OC(C)(C)O[C@@H]12

> <MDLNUMBER>
MFCD22419929

> <IUPAC Name>
tert-butyl N-[(3aS,4R,6S,6aR)-6-hydroxy-2,2-dimethyl-hexahydrocyclopenta[d][1,3]dioxol-4-yl]carbamate

> <URL>
https://www.enaminestore.com/catalog/EN300-20050662

> <ROCS_ShapeQuery>
A71EV2A-x0451_0A_A71EV2A-x0310_0A_A71EV2A-x0416_0A_peptide

> <ROCS_TanimotoCombo>
0.529 

> <ROCS_ShapeTanimoto>
0.338 

> <ROCS_ColorTanimoto>
0.191 

> <ROCS_RefTversky>
0.295 

> <ROCS_RefColorTversky>
0.219 

> <ROCS_RefTverskyCombo>
0.514 

> <ROCS_FitTversky>
1.754 

> <ROCS_FitColorTversky>
0.601 

> <ROCS_FitTverskyCombo>
2.355 

> <ROCS_ColorScore>
-6.715

> <ROCS_Overlap>
2045.299

> <ROCS_Rank>
101                 

$$$$
untitled-dbase-153794_27
  -OEChem-11132313473D

 42 43  0     0  0  0  0  0  0999 V2000
    8.1512   12.8781   24.8601 C   0  0  0  0  0  0  0  0  0  0  0  0
    8.6414   11.7667   24.1495 C   0  0  0  0  0  0  0  0  0  0  0  0
    7.9066   10.7000   24.6369 C   0  0  0  0  0  0  0  0  0  0  0  0
    9.5889   11.4869   23.1705 C   0  0  0  0  0  0  0  0  0  0  0  0
    8.9550    9.2648   23.3164 C   0  0  0  0  0  0  0  0  0  0  0  0
   10.8002   13.6870   23.2289 C   0  0  0  0  0  0  0  0  0  0  0  0
    6.8030    9.4296   27.2122 C   0  0  0  0  0  0  0  0  0  0  0  0
    5.0608    9.8200   25.4255 C   0  0  0  0  0  0  0  0  0  0  0  0
    5.2846   11.3922   27.3353 C   0  0  0  0  0  0  0  0  0  0  0  0
   10.9964   16.5395   23.2926 C   0  0  0  0  0  0  0  0  0  0  0  0
   12.0423   16.3339   21.0182 C   0  0  0  0  0  0  0  0  0  0  0  0
    9.6778   15.5687   21.3812 C   0  0  0  0  0  0  0  0  0  0  0  0
    6.0886   10.4999   26.3574 C   0  0  0  0  0  0  0  0  0  0  0  0
   11.0629   15.7109   22.0106 C   0  0  0  0  0  0  0  0  0  0  0  0
    7.1865   12.5520   25.7273 N   0  0  0  0  0  0  0  0  0  0  0  0
    8.0073    9.4135   24.2671 N   0  0  0  0  0  0  0  0  0  0  0  0
    9.7441   10.2086   22.7500 N   0  0  0  0  0  0  0  0  0  0  0  0
    7.0595   11.2214   25.5690 N   0  0  0  0  0  0  0  0  0  0  0  0
   10.3817   12.5197   22.6202 N   0  0  0  0  0  0  0  0  0  0  0  0
   10.5671   14.0621   24.3715 O   0  0  0  0  0  0  0  0  0  0  0  0
   11.5503   14.4085   22.3360 O   0  0  0  0  0  0  0  0  0  0  0  0
    9.1916    7.6654   22.7489 Cl  0  0  0  0  0  0  0  0  0  0  0  0
    8.4527   13.9135   24.7862 H   0  0  0  0  0  0  0  0  0  0  0  0
    7.5391    9.8866   27.8837 H   0  0  0  0  0  0  0  0  0  0  0  0
    6.1048    8.8660   27.8402 H   0  0  0  0  0  0  0  0  0  0  0  0
    7.3305    8.7082   26.5774 H   0  0  0  0  0  0  0  0  0  0  0  0
    4.5279   10.5421   24.7980 H   0  0  0  0  0  0  0  0  0  0  0  0
    5.5498    9.1093   24.7492 H   0  0  0  0  0  0  0  0  0  0  0  0
    4.3100    9.2696   26.0044 H   0  0  0  0  0  0  0  0  0  0  0  0
    4.7465   12.1815   26.7964 H   0  0  0  0  0  0  0  0  0  0  0  0
    4.5345   10.8135   27.8867 H   0  0  0  0  0  0  0  0  0  0  0  0
    5.9397   11.8889   28.0603 H   0  0  0  0  0  0  0  0  0  0  0  0
   10.2944   16.0956   24.0075 H   0  0  0  0  0  0  0  0  0  0  0  0
   11.9773   16.6196   23.7725 H   0  0  0  0  0  0  0  0  0  0  0  0
   10.6286   17.5510   23.0858 H   0  0  0  0  0  0  0  0  0  0  0  0
   12.0933   15.7426   20.0968 H   0  0  0  0  0  0  0  0  0  0  0  0
   13.0577   16.3510   21.4305 H   0  0  0  0  0  0  0  0  0  0  0  0
   11.7567   17.3581   20.7575 H   0  0  0  0  0  0  0  0  0  0  0  0
    9.7253   14.9744   20.4615 H   0  0  0  0  0  0  0  0  0  0  0  0
    8.9708   15.0896   22.0662 H   0  0  0  0  0  0  0  0  0  0  0  0
    9.2771   16.5482   21.0960 H   0  0  0  0  0  0  0  0  0  0  0  0
   10.6810   12.3870   21.6572 H   0  0  0  0  0  0  0  0  0  0  0  0
  1  2  1  0  0  0  0
  1 15  2  0  0  0  0
  2  3  2  0  0  0  0
  2  4  1  0  0  0  0
  3 16  1  0  0  0  0
  3 18  1  0  0  0  0
  4 17  2  0  0  0  0
  4 19  1  0  0  0  0
  5 16  2  0  0  0  0
  5 17  1  0  0  0  0
  5 22  1  0  0  0  0
  6 19  1  0  0  0  0
  6 20  2  0  0  0  0
  6 21  1  0  0  0  0
  7 13  1  0  0  0  0
  8 13  1  0  0  0  0
  9 13  1  0  0  0  0
 10 14  1  0  0  0  0
 11 14  1  0  0  0  0
 12 14  1  0  0  0  0
 13 18  1  0  0  0  0
 14 21  1  0  0  0  0
 15 18  1  0  0  0  0
  1 23  1  0  0  0  0
  7 24  1  0  0  0  0
  7 25  1  0  0  0  0
  7 26  1  0  0  0  0
  8 27  1  0  0  0  0
  8 28  1  0  0  0  0
  8 29  1  0  0  0  0
  9 30  1  0  0  0  0
  9 31  1  0  0  0  0
  9 32  1  0  0  0  0
 10 33  1  0  0  0  0
 10 34  1  0  0  0  0
 10 35  1  0  0  0  0
 11 36  1  0  0  0  0
 11 37  1  0  0  0  0
 11 38  1  0  0  0  0
 12 39  1  0  0  0  0
 12 40  1  0  0  0  0
 12 41  1  0  0  0  0
 19 42  1  0  0  0  0
M  END
> <id>
EN300-28294709

> <smiles>
CC(C)(C)OC(=O)NC=1N=C(Cl)N=C2N(N=CC12)C(C)(C)C

> <IUPAC Name>
tert-butyl N-{1-tert-butyl-6-chloro-1H-pyrazolo[3,4-d]pyrimidin-4-yl}carbamate

> <CAS>
2680774-43-8

> <URL>
https://www.enaminestore.com/catalog/EN300-28294709

> <ROCS_ShapeQuery>
A71EV2A-x0451_0A_A71EV2A-x0310_0A_A71EV2A-x0416_0A_peptide

> <ROCS_TanimotoCombo>
0.529 

> <ROCS_ShapeTanimoto>
0.364 

> <ROCS_ColorTanimoto>
0.165 

> <ROCS_RefTversky>
0.317 

> <ROCS_RefColorTversky>
0.189 

> <ROCS_RefTverskyCombo>
0.506 

> <ROCS_FitTversky>
1.682 

> <ROCS_FitColorTversky>
0.568 

> <ROCS_FitTverskyCombo>
2.250 

> <ROCS_ColorScore>
-5.774

> <ROCS_Overlap>
2202.099

> <ROCS_Rank>
102                 

$$$$
untitled-dbase-37096_1215
  -OEChem-11132313473D

 61 63  0     1  0  0  0  0  0999 V2000
    6.9644   12.5857   25.4778 C   0  0  0  0  0  0  0  0  0  0  0  0
    5.9684   10.4865   26.1207 C   0  0  0  0  0  0  0  0  0  0  0  0
    6.0343   11.8722   26.2313 C   0  0  0  0  0  0  0  0  0  0  0  0
    7.7761   10.5211   24.4910 C   0  0  0  0  0  0  0  0  0  0  0  0
    7.8385   11.9147   24.6161 C   0  0  0  0  0  0  0  0  0  0  0  0
    6.8317    9.8151   25.2544 C   0  0  0  0  0  0  0  0  0  0  0  0
    5.1224   12.5758   27.1197 C   0  0  0  0  0  0  0  0  0  0  0  0
   11.8299   15.0646   22.4136 C   0  0  0  0  0  0  0  0  0  0  0  0
   10.9935   11.9521   24.1980 C   0  0  0  0  0  0  0  0  0  0  0  0
    9.3470   10.7556   22.5745 C   0  0  0  0  0  0  0  0  0  0  0  0
   11.5747   13.3605   24.2115 C   0  0  0  0  0  0  0  0  0  0  0  0
   10.3122   13.0530   22.1860 C   0  0  0  0  0  0  0  0  0  0  0  0
    8.6877    9.7754   23.5492 C   0  0  1  0  0  0  0  0  0  0  0  0
    9.7919   12.0608   23.2418 C   0  0  2  0  0  0  0  0  0  0  0  0
    5.6002   13.0620   29.9105 C   0  0  0  0  0  0  0  0  0  0  0  0
    6.0094   15.4447   29.2289 C   0  0  0  0  0  0  0  0  0  0  0  0
    3.7503   14.4098   28.8637 C   0  0  0  0  0  0  0  0  0  0  0  0
   13.9414   16.3836   20.9219 C   0  0  0  0  0  0  0  0  0  0  0  0
   12.5391   15.8912   18.8970 C   0  0  0  0  0  0  0  0  0  0  0  0
   11.6519   17.4039   20.6949 C   0  0  0  0  0  0  0  0  0  0  0  0
    5.2567   14.1569   28.9015 C   0  0  0  0  0  0  0  0  0  0  0  0
   12.5209   16.1832   20.3958 C   0  0  0  0  0  0  0  0  0  0  0  0
   11.2643   13.8975   22.9002 N   0  0  0  0  0  0  0  0  0  0  0  0
    9.6891    8.9755   24.2575 N   0  0  0  0  0  0  0  0  0  0  0  0
    3.9835   12.1844   27.4076 O   0  0  0  0  0  0  0  0  0  0  0  0
   12.1840   16.0024   23.1239 O   0  0  0  0  0  0  0  0  0  0  0  0
    8.6997   12.7134   23.9128 O   0  0  0  0  0  0  0  0  0  0  0  0
    5.6797   13.7284   27.6026 O   0  0  0  0  0  0  0  0  0  0  0  0
   11.9478   15.0427   21.0515 O   0  0  0  0  0  0  0  0  0  0  0  0
    6.7337    8.4819   25.1575 F   0  0  0  0  0  0  0  0  0  0  0  0
    7.0042   13.6710   25.5493 H   0  0  0  0  0  0  0  0  0  0  0  0
    5.2475    9.9176   26.7008 H   0  0  0  0  0  0  0  0  0  0  0  0
   11.7432   11.2516   23.8094 H   0  0  0  0  0  0  0  0  0  0  0  0
   10.7047   11.6377   25.2070 H   0  0  0  0  0  0  0  0  0  0  0  0
   10.2411   10.2803   22.1187 H   0  0  0  0  0  0  0  0  0  0  0  0
    8.6598   10.9653   21.7301 H   0  0  0  0  0  0  0  0  0  0  0  0
   11.0815   13.9937   24.9580 H   0  0  0  0  0  0  0  0  0  0  0  0
   12.6536   13.3780   24.3952 H   0  0  0  0  0  0  0  0  0  0  0  0
   10.8672   12.5508   21.3846 H   0  0  0  0  0  0  0  0  0  0  0  0
    9.5314   13.6811   21.7442 H   0  0  0  0  0  0  0  0  0  0  0  0
    8.0420    9.0752   22.9810 H   0  0  0  0  0  0  0  0  0  0  0  0
    5.0619   12.1359   29.6790 H   0  0  0  0  0  0  0  0  0  0  0  0
    6.6736   12.8466   29.9222 H   0  0  0  0  0  0  0  0  0  0  0  0
    5.2945   13.3526   30.9221 H   0  0  0  0  0  0  0  0  0  0  0  0
    5.7660   16.2330   28.5075 H   0  0  0  0  0  0  0  0  0  0  0  0
    7.0927   15.2908   29.1641 H   0  0  0  0  0  0  0  0  0  0  0  0
    5.7703   15.8082   30.2335 H   0  0  0  0  0  0  0  0  0  0  0  0
    3.5036   15.1951   28.1401 H   0  0  0  0  0  0  0  0  0  0  0  0
    3.1960   13.5049   28.5941 H   0  0  0  0  0  0  0  0  0  0  0  0
    3.3897   14.7619   29.8370 H   0  0  0  0  0  0  0  0  0  0  0  0
   13.9327   16.5935   21.9975 H   0  0  0  0  0  0  0  0  0  0  0  0
   14.5654   15.5015   20.7448 H   0  0  0  0  0  0  0  0  0  0  0  0
   14.4179   17.2465   20.4425 H   0  0  0  0  0  0  0  0  0  0  0  0
   11.5220   15.7467   18.5152 H   0  0  0  0  0  0  0  0  0  0  0  0
   13.0825   14.9629   18.6868 H   0  0  0  0  0  0  0  0  0  0  0  0
   13.0091   16.7033   18.3328 H   0  0  0  0  0  0  0  0  0  0  0  0
   10.6329   17.2604   20.3176 H   0  0  0  0  0  0  0  0  0  0  0  0
   11.5972   17.6066   21.7694 H   0  0  0  0  0  0  0  0  0  0  0  0
   12.0451   18.2949   20.1921 H   0  0  0  0  0  0  0  0  0  0  0  0
   10.5846    9.2615   23.9447 H   0  0  0  0  0  0  0  0  0  0  0  0
    9.5818    9.1434   25.2280 H   0  0  0  0  0  0  0  0  0  0  0  0
  1  3  1  0  0  0  0
  1  5  2  0  0  0  0
  2  3  2  0  0  0  0
  2  6  1  0  0  0  0
  3  7  1  0  0  0  0
  4  5  1  0  0  0  0
  4  6  2  0  0  0  0
  4 13  1  0  0  0  0
  5 27  1  0  0  0  0
  6 30  1  0  0  0  0
  7 25  2  0  0  0  0
  7 28  1  0  0  0  0
  8 23  1  0  0  0  0
  8 26  2  0  0  0  0
  8 29  1  0  0  0  0
  9 11  1  0  0  0  0
  9 14  1  0  0  0  0
 10 13  1  0  0  0  0
 10 14  1  0  0  0  0
 11 23  1  0  0  0  0
 12 14  1  0  0  0  0
 12 23  1  0  0  0  0
 13 24  1  0  0  0  0
 14 27  1  0  0  0  0
 15 21  1  0  0  0  0
 16 21  1  0  0  0  0
 17 21  1  0  0  0  0
 18 22  1  0  0  0  0
 19 22  1  0  0  0  0
 20 22  1  0  0  0  0
 21 28  1  0  0  0  0
 22 29  1  0  0  0  0
  1 31  1  0  0  0  0
  2 32  1  0  0  0  0
  9 33  1  0  0  0  0
  9 34  1  0  0  0  0
 10 35  1  0  0  0  0
 10 36  1  0  0  0  0
 11 37  1  0  0  0  0
 11 38  1  0  0  0  0
 12 39  1  0  0  0  0
 12 40  1  0  0  0  0
 13 41  1  0  0  0  0
 15 42  1  0  0  0  0
 15 43  1  0  0  0  0
 15 44  1  0  0  0  0
 16 45  1  0  0  0  0
 16 46  1  0  0  0  0
 16 47  1  0  0  0  0
 17 48  1  0  0  0  0
 17 49  1  0  0  0  0
 17 50  1  0  0  0  0
 18 51  1  0  0  0  0
 18 52  1  0  0  0  0
 18 53  1  0  0  0  0
 19 54  1  0  0  0  0
 19 55  1  0  0  0  0
 19 56  1  0  0  0  0
 20 57  1  0  0  0  0
 20 58  1  0  0  0  0
 20 59  1  0  0  0  0
 24 60  1  0  0  0  0
 24 61  1  0  0  0  0
M  END
> <id>
EN300-1129059

> <smiles>
CC(C)(C)OC(=O)N1CCC2(C1)CC(N)C=3C(F)=CC(=CC3O2)C(=O)OC(C)(C)C

> <IUPAC Name>
1',7-di-tert-butyl 4-amino-5-fluoro-3,4-dihydrospiro[1-benzopyran-2,3'-pyrrolidine]-1',7-dicarboxylate

> <CAS>
2138220-62-7

> <URL>
https://www.enaminestore.com/catalog/EN300-1129059

> <ROCS_ShapeQuery>
A71EV2A-x0451_0A_A71EV2A-x0310_0A_A71EV2A-x0416_0A_peptide

> <ROCS_TanimotoCombo>
0.529 

> <ROCS_ShapeTanimoto>
0.398 

> <ROCS_ColorTanimoto>
0.131 

> <ROCS_RefTversky>
0.352 

> <ROCS_RefColorTversky>
0.158 

> <ROCS_RefTverskyCombo>
0.510 

> <ROCS_FitTversky>
1.482 

> <ROCS_FitColorTversky>
0.435 

> <ROCS_FitTverskyCombo>
1.917 

> <ROCS_ColorScore>
-4.825

> <ROCS_Overlap>
2454.637

> <ROCS_Rank>
103                 

$$$$
untitled-dbase-154026_5
  -OEChem-11132313473D

 41 42  0     1  0  0  0  0  0999 V2000
    8.0369   12.7913   25.2701 C   0  0  0  0  0  0  0  0  0  0  0  0
    6.9670   12.0349   25.7873 C   0  0  0  0  0  0  0  0  0  0  0  0
    8.6505   11.9629   24.3541 C   0  0  0  0  0  0  0  0  0  0  0  0
   10.4070   13.3286   23.4061 C   0  0  0  0  0  0  0  0  0  0  0  0
    9.6837    9.6192   23.1555 C   0  0  0  0  0  0  0  0  0  0  0  0
   10.0867   10.9777   22.5857 C   0  0  0  0  0  0  0  0  0  0  0  0
    8.2126    9.6105   23.5897 C   0  0  1  0  0  0  0  0  0  0  0  0
    5.9742   12.4371   26.8012 C   0  0  0  0  0  0  0  0  0  0  0  0
   12.7815   14.8356   22.8468 C   0  0  0  0  0  0  0  0  0  0  0  0
   11.9502   14.9180   20.4779 C   0  0  0  0  0  0  0  0  0  0  0  0
   10.6036   15.9789   22.3134 C   0  0  0  0  0  0  0  0  0  0  0  0
    7.8814    8.2903   24.2882 C   0  0  0  0  0  0  0  0  0  0  0  0
   11.5457   14.8327   21.9480 C   0  0  0  0  0  0  0  0  0  0  0  0
    6.8928   10.8156   25.2535 N   0  0  0  0  0  0  0  0  0  0  0  0
    7.9417   10.7846   24.4113 N   0  0  0  0  0  0  0  0  0  0  0  0
    9.7335   12.0964   23.4793 N   0  0  0  0  0  0  0  0  0  0  0  0
    8.3355   14.1124   25.6443 N   0  3  0  0  0  0  0  0  0  0  0  0
    7.8172   15.0722   25.0093 O   0  5  0  0  0  0  0  0  0  0  0  0
   10.5947   14.1078   24.3373 O   0  0  0  0  0  0  0  0  0  0  0  0
    9.1193   14.3242   26.6107 O   0  0  0  0  0  0  0  0  0  0  0  0
   10.8503   13.5941   22.1332 O   0  0  0  0  0  0  0  0  0  0  0  0
    8.1403    7.2600   23.4691 F   0  0  0  0  0  0  0  0  0  0  0  0
    8.6221    8.1601   25.3988 F   0  0  0  0  0  0  0  0  0  0  0  0
    6.5833    8.2625   24.6251 F   0  0  0  0  0  0  0  0  0  0  0  0
    9.8309    8.8593   22.3799 H   0  0  0  0  0  0  0  0  0  0  0  0
   10.3351    9.3518   23.9914 H   0  0  0  0  0  0  0  0  0  0  0  0
   11.1680   11.0264   22.4169 H   0  0  0  0  0  0  0  0  0  0  0  0
    9.5958   11.1062   21.6154 H   0  0  0  0  0  0  0  0  0  0  0  0
    7.5943    9.6948   22.6841 H   0  0  0  0  0  0  0  0  0  0  0  0
    5.0926   12.9051   26.3323 H   0  0  0  0  0  0  0  0  0  0  0  0
    5.6189   11.5789   27.3979 H   0  0  0  0  0  0  0  0  0  0  0  0
    6.3900   13.1590   27.5257 H   0  0  0  0  0  0  0  0  0  0  0  0
   12.4953   14.7745   23.9029 H   0  0  0  0  0  0  0  0  0  0  0  0
   13.4484   13.9979   22.6182 H   0  0  0  0  0  0  0  0  0  0  0  0
   13.3457   15.7682   22.7328 H   0  0  0  0  0  0  0  0  0  0  0  0
   11.0667   14.9162   19.8294 H   0  0  0  0  0  0  0  0  0  0  0  0
   12.5486   14.0471   20.1866 H   0  0  0  0  0  0  0  0  0  0  0  0
   12.5308   15.8226   20.2704 H   0  0  0  0  0  0  0  0  0  0  0  0
    9.7172   15.9771   21.6689 H   0  0  0  0  0  0  0  0  0  0  0  0
   10.2736   15.9132   23.3552 H   0  0  0  0  0  0  0  0  0  0  0  0
   11.0929   16.9482   22.1637 H   0  0  0  0  0  0  0  0  0  0  0  0
  1  2  1  0  0  0  0
  1  3  2  0  0  0  0
  1 17  1  0  0  0  0
  2  8  1  0  0  0  0
  2 14  2  0  0  0  0
  3 15  1  0  0  0  0
  3 16  1  0  0  0  0
  4 16  1  0  0  0  0
  4 19  2  0  0  0  0
  4 21  1  0  0  0  0
  5  6  1  0  0  0  0
  5  7  1  0  0  0  0
  6 16  1  0  0  0  0
  7 12  1  0  0  0  0
  7 15  1  0  0  0  0
  9 13  1  0  0  0  0
 10 13  1  0  0  0  0
 11 13  1  0  0  0  0
 12 22  1  0  0  0  0
 12 23  1  0  0  0  0
 12 24  1  0  0  0  0
 13 21  1  0  0  0  0
 14 15  1  0  0  0  0
 17 18  1  0  0  0  0
 17 20  2  0  0  0  0
  5 25  1  0  0  0  0
  5 26  1  0  0  0  0
  6 27  1  0  0  0  0
  6 28  1  0  0  0  0
  7 29  1  0  0  0  0
  8 30  1  0  0  0  0
  8 31  1  0  0  0  0
  8 32  1  0  0  0  0
  9 33  1  0  0  0  0
  9 34  1  0  0  0  0
  9 35  1  0  0  0  0
 10 36  1  0  0  0  0
 10 37  1  0  0  0  0
 10 38  1  0  0  0  0
 11 39  1  0  0  0  0
 11 40  1  0  0  0  0
 11 41  1  0  0  0  0
M  CHG  2  17   1  18  -1
M  END
> <id>
EN300-28298519

> <smiles>
CC1=NN2C(CCN(C(=O)OC(C)(C)C)C2=C1[N+](=O)[O-])C(F)(F)F

> <IUPAC Name>
tert-butyl 2-methyl-3-nitro-7-(trifluoromethyl)-4H,5H,6H,7H-pyrazolo[1,5-a]pyrimidine-4-carboxylate

> <CAS>
2680789-60-8

> <URL>
https://www.enaminestore.com/catalog/EN300-28298519

> <ROCS_ShapeQuery>
A71EV2A-x0451_0A_A71EV2A-x0310_0A_A71EV2A-x0416_0A_peptide

> <ROCS_TanimotoCombo>
0.529 

> <ROCS_ShapeTanimoto>
0.379 

> <ROCS_ColorTanimoto>
0.149 

> <ROCS_RefTversky>
0.331 

> <ROCS_RefColorTversky>
0.165 

> <ROCS_RefTverskyCombo>
0.497 

> <ROCS_FitTversky>
1.615 

> <ROCS_FitColorTversky>
0.609 

> <ROCS_FitTverskyCombo>
2.224 

> <ROCS_ColorScore>
-5.037

> <ROCS_Overlap>
2303.242

> <ROCS_Rank>
104                 

$$$$
untitled-dbase-140967_10
  -OEChem-11132313473D

 25 27  0     0  0  0  0  0  0999 V2000
    6.8799   12.7482   25.9602 C   0  0  0  0  0  0  0  0  0  0  0  0
    6.2892   11.4979   26.1173 C   0  0  0  0  0  0  0  0  0  0  0  0
    7.9833   12.8989   25.1198 C   0  0  0  0  0  0  0  0  0  0  0  0
    6.7997   10.3935   25.4346 C   0  0  0  0  0  0  0  0  0  0  0  0
   10.1308   10.8271   22.8922 C   0  0  0  0  0  0  0  0  0  0  0  0
    9.5402    9.5767   23.0493 C   0  0  0  0  0  0  0  0  0  0  0  0
    8.5103   11.7982   24.4248 C   0  0  0  0  0  0  0  0  0  0  0  0
    7.9097   10.5267   24.5846 C   0  0  0  0  0  0  0  0  0  0  0  0
    9.6203   11.9315   23.5748 C   0  0  0  0  0  0  0  0  0  0  0  0
    8.4368    9.4260   23.8897 C   0  0  0  0  0  0  0  0  0  0  0  0
   10.2872   13.2005   23.3612 C   0  0  0  0  0  0  0  0  0  0  0  0
   11.4108   14.7781   22.3826 C   0  0  0  0  0  0  0  0  0  0  0  0
   10.3892   14.1976   24.2107 N   0  0  0  0  0  0  0  0  0  0  0  0
   11.1041   15.2013   23.5881 N   0  0  0  0  0  0  0  0  0  0  0  0
   10.9162   13.5228   22.1970 N   0  0  0  0  0  0  0  0  0  0  0  0
    7.8861    8.2098   24.0233 F   0  0  0  0  0  0  0  0  0  0  0  0
   12.2895   15.5939   21.1536 S   0  0  0  0  0  0  0  0  0  0  0  0
    6.4817   13.6074   26.4922 H   0  0  0  0  0  0  0  0  0  0  0  0
    5.4298   11.3818   26.7711 H   0  0  0  0  0  0  0  0  0  0  0  0
    8.4117   13.8942   25.0275 H   0  0  0  0  0  0  0  0  0  0  0  0
    6.3207    9.4267   25.5741 H   0  0  0  0  0  0  0  0  0  0  0  0
   10.9906   10.9233   22.2329 H   0  0  0  0  0  0  0  0  0  0  0  0
    9.9379    8.7169   22.5182 H   0  0  0  0  0  0  0  0  0  0  0  0
   11.0007   12.9544   21.3642 H   0  0  0  0  0  0  0  0  0  0  0  0
   12.2648   14.6543   20.1825 H   0  0  0  0  0  0  0  0  0  0  0  0
  1  2  2  0  0  0  0
  1  3  1  0  0  0  0
  2  4  1  0  0  0  0
  3  7  2  0  0  0  0
  4  8  2  0  0  0  0
  5  6  1  0  0  0  0
  5  9  2  0  0  0  0
  6 10  2  0  0  0  0
  7  8  1  0  0  0  0
  7  9  1  0  0  0  0
  8 10  1  0  0  0  0
  9 11  1  0  0  0  0
 10 16  1  0  0  0  0
 11 13  2  0  0  0  0
 11 15  1  0  0  0  0
 12 14  2  0  0  0  0
 12 15  1  0  0  0  0
 12 17  1  0  0  0  0
 13 14  1  0  0  0  0
  1 18  1  0  0  0  0
  2 19  1  0  0  0  0
  3 20  1  0  0  0  0
  4 21  1  0  0  0  0
  5 22  1  0  0  0  0
  6 23  1  0  0  0  0
 15 24  1  0  0  0  0
 17 25  1  0  0  0  0
M  END
> <id>
EN300-39868543

> <smiles>
FC=1C=CC(C2=NN=C(S)N2)=C3C=CC=CC13

> <IUPAC Name>
5-(4-fluoronaphthalen-1-yl)-4H-1,2,4-triazole-3-thiol

> <CAS>
1937556-03-0

> <Purity>
95

> <URL>
https://www.enaminestore.com/catalog/EN300-39868543

> <ROCS_ShapeQuery>
A71EV2A-x0451_0A_A71EV2A-x0310_0A_A71EV2A-x0416_0A_peptide

> <ROCS_TanimotoCombo>
0.528 

> <ROCS_ShapeTanimoto>
0.348 

> <ROCS_ColorTanimoto>
0.180 

> <ROCS_RefTversky>
0.300 

> <ROCS_RefColorTversky>
0.195 

> <ROCS_RefTverskyCombo>
0.495 

> <ROCS_FitTversky>
1.864 

> <ROCS_FitColorTversky>
0.698 

> <ROCS_FitTverskyCombo>
2.562 

> <ROCS_ColorScore>
-5.952

> <ROCS_Overlap>
2080.454

> <ROCS_Rank>
105                 

$$$$
untitled-dbase-36560_767
  -OEChem-11132313473D

 45 47  0     1  0  0  0  0  0999 V2000
    5.0081   11.2160   26.6234 C   0  0  0  0  0  0  0  0  0  0  0  0
    6.0374   11.8206   25.9327 C   0  0  0  0  0  0  0  0  0  0  0  0
    4.5843   13.3005   27.1577 C   0  0  0  0  0  0  0  0  0  0  0  0
   10.0572   13.2843   23.4563 C   0  0  0  0  0  0  0  0  0  0  0  0
    8.8292    9.9552   22.7876 C   0  0  0  0  0  0  0  0  0  0  0  0
    9.6913    9.7612   24.0501 C   0  0  0  0  0  0  0  0  0  0  0  0
    7.1250   11.6966   23.5775 C   0  0  0  0  0  0  0  0  0  0  0  0
    8.5596   11.3589   25.6984 C   0  0  0  0  0  0  0  0  0  0  0  0
    8.4359   11.4356   22.8058 C   0  0  1  0  0  0  0  0  0  0  0  0
    9.7287   11.1412   24.7134 C   0  0  2  0  0  0  0  0  0  0  0  0
    7.1368   11.1961   25.0627 C   0  0  0  0  0  0  0  0  0  0  0  0
   12.3167   14.2750   22.5746 C   0  0  0  0  0  0  0  0  0  0  0  0
   11.3133   14.3970   20.2751 C   0  0  0  0  0  0  0  0  0  0  0  0
   10.6170   16.0505   22.0327 C   0  0  0  0  0  0  0  0  0  0  0  0
   11.0651   14.6142   21.7662 C   0  0  0  0  0  0  0  0  0  0  0  0
    4.1741   12.0630   27.3268 N   0  0  0  0  0  0  0  0  0  0  0  0
    9.5010   12.0278   23.5929 N   0  0  0  0  0  0  0  0  0  0  0  0
    3.9871   14.3880   27.7138 N   0  0  0  0  0  0  0  0  0  0  0  0
   10.5346   13.9329   24.3845 O   0  0  0  0  0  0  0  0  0  0  0  0
    6.8463    9.7876   25.0463 O   0  0  0  0  0  0  0  0  0  0  0  0
   10.0129   13.7274   22.1620 O   0  0  0  0  0  0  0  0  0  0  0  0
    5.9667   13.5184   26.1645 S   0  0  0  0  0  0  0  0  0  0  0  0
    4.8194   10.1510   26.6519 H   0  0  0  0  0  0  0  0  0  0  0  0
    9.4363    9.7356   21.9011 H   0  0  0  0  0  0  0  0  0  0  0  0
    7.9658    9.2830   22.7707 H   0  0  0  0  0  0  0  0  0  0  0  0
    9.2944    8.9805   24.7057 H   0  0  0  0  0  0  0  0  0  0  0  0
   10.7015    9.4581   23.7504 H   0  0  0  0  0  0  0  0  0  0  0  0
    6.9387   12.7795   23.5617 H   0  0  0  0  0  0  0  0  0  0  0  0
    6.2948   11.2281   23.0334 H   0  0  0  0  0  0  0  0  0  0  0  0
    8.6696   10.6584   26.5369 H   0  0  0  0  0  0  0  0  0  0  0  0
    8.6594   12.3700   26.1179 H   0  0  0  0  0  0  0  0  0  0  0  0
    8.3843   11.8701   21.8039 H   0  0  0  0  0  0  0  0  0  0  0  0
   10.6861   11.3332   25.2095 H   0  0  0  0  0  0  0  0  0  0  0  0
   12.1426   14.4297   23.6455 H   0  0  0  0  0  0  0  0  0  0  0  0
   12.6282   13.2370   22.4192 H   0  0  0  0  0  0  0  0  0  0  0  0
   13.1500   14.9314   22.2989 H   0  0  0  0  0  0  0  0  0  0  0  0
   10.4179   14.6391   19.6912 H   0  0  0  0  0  0  0  0  0  0  0  0
   11.5428   13.3457   20.0667 H   0  0  0  0  0  0  0  0  0  0  0  0
   12.1422   15.0118   19.9097 H   0  0  0  0  0  0  0  0  0  0  0  0
    9.7193   16.2940   21.4530 H   0  0  0  0  0  0  0  0  0  0  0  0
   10.3987   16.2147   23.0929 H   0  0  0  0  0  0  0  0  0  0  0  0
   11.3889   16.7636   21.7215 H   0  0  0  0  0  0  0  0  0  0  0  0
    3.1322   14.3053   28.2745 H   0  0  0  0  0  0  0  0  0  0  0  0
    4.3127   15.3405   27.5170 H   0  0  0  0  0  0  0  0  0  0  0  0
    6.8797    9.4893   25.9681 H   0  0  0  0  0  0  0  0  0  0  0  0
  1  2  2  0  0  0  0
  1 16  1  0  0  0  0
  2 11  1  0  0  0  0
  2 22  1  0  0  0  0
  3 16  2  0  0  0  0
  3 18  1  0  0  0  0
  3 22  1  0  0  0  0
  4 17  1  0  0  0  0
  4 19  2  0  0  0  0
  4 21  1  0  0  0  0
  5  6  1  0  0  0  0
  5  9  1  0  0  0  0
  6 10  1  0  0  0  0
  7  9  1  0  0  0  0
  7 11  1  0  0  0  0
  8 10  1  0  0  0  0
  8 11  1  0  0  0  0
  9 17  1  0  0  0  0
 10 17  1  0  0  0  0
 11 20  1  0  0  0  0
 12 15  1  0  0  0  0
 13 15  1  0  0  0  0
 14 15  1  0  0  0  0
 15 21  1  0  0  0  0
  1 23  1  0  0  0  0
  5 24  1  0  0  0  0
  5 25  1  0  0  0  0
  6 26  1  0  0  0  0
  6 27  1  0  0  0  0
  7 28  1  0  0  0  0
  7 29  1  0  0  0  0
  8 30  1  0  0  0  0
  8 31  1  0  0  0  0
  9 32  1  0  0  0  0
 10 33  1  0  0  0  0
 12 34  1  0  0  0  0
 12 35  1  0  0  0  0
 12 36  1  0  0  0  0
 13 37  1  0  0  0  0
 13 38  1  0  0  0  0
 13 39  1  0  0  0  0
 14 40  1  0  0  0  0
 14 41  1  0  0  0  0
 14 42  1  0  0  0  0
 18 43  1  0  0  0  0
 18 44  1  0  0  0  0
 20 45  1  0  0  0  0
M  END
> <id>
EN300-1083313

> <smiles>
CC(C)(C)OC(=O)N1C2CCC1CC(O)(C2)C3=CN=C(N)S3

> <IUPAC Name>
tert-butyl 3-(2-amino-1,3-thiazol-5-yl)-3-hydroxy-8-azabicyclo[3.2.1]octane-8-carboxylate

> <CAS>
2137476-73-2

> <URL>
https://www.enaminestore.com/catalog/EN300-1083313

> <ROCS_ShapeQuery>
A71EV2A-x0451_0A_A71EV2A-x0310_0A_A71EV2A-x0416_0A_peptide

> <ROCS_TanimotoCombo>
0.528 

> <ROCS_ShapeTanimoto>
0.327 

> <ROCS_ColorTanimoto>
0.201 

> <ROCS_RefTversky>
0.292 

> <ROCS_RefColorTversky>
0.247 

> <ROCS_RefTverskyCombo>
0.540 

> <ROCS_FitTversky>
1.570 

> <ROCS_FitColorTversky>
0.519 

> <ROCS_FitTverskyCombo>
2.088 

> <ROCS_ColorScore>
-7.624

> <ROCS_Overlap>
2030.408

> <ROCS_Rank>
106                 

$$$$
untitled-dbase-118078_716
  -OEChem-11132313473D

 38 39  0     0  0  0  0  0  0999 V2000
    7.8774   10.9262   24.8119 C   0  0  0  0  0  0  0  0  0  0  0  0
    8.3714   12.0963   24.2567 C   0  0  0  0  0  0  0  0  0  0  0  0
    6.4241   12.3573   25.6591 C   0  0  0  0  0  0  0  0  0  0  0  0
    5.3106   12.8454   26.3992 C   0  0  0  0  0  0  0  0  0  0  0  0
   10.2082   13.4464   23.4168 C   0  0  0  0  0  0  0  0  0  0  0  0
    8.4692    9.5590   24.7449 C   0  0  0  0  0  0  0  0  0  0  0  0
    8.8743    9.0975   23.3537 C   0  0  0  0  0  0  0  0  0  0  0  0
   10.0329    9.8986   22.7642 C   0  0  0  0  0  0  0  0  0  0  0  0
    9.6192   11.2802   22.2664 C   0  0  0  0  0  0  0  0  0  0  0  0
   13.0030   13.5274   22.7751 C   0  0  0  0  0  0  0  0  0  0  0  0
   12.3108   14.8415   20.7495 C   0  0  0  0  0  0  0  0  0  0  0  0
   11.8735   15.7602   23.0458 C   0  0  0  0  0  0  0  0  0  0  0  0
   11.9700   14.4934   22.1969 C   0  0  0  0  0  0  0  0  0  0  0  0
    6.7598   11.0897   25.6212 N   0  0  0  0  0  0  0  0  0  0  0  0
    9.4068   12.2839   23.3280 N   0  0  0  0  0  0  0  0  0  0  0  0
    4.5199   12.1653   27.0946 O   0  0  0  0  0  0  0  0  0  0  0  0
   10.4904   14.0474   24.4523 O   0  0  0  0  0  0  0  0  0  0  0  0
    5.1382   14.2045   26.3034 O   0  0  0  0  0  0  0  0  0  0  0  0
   10.6915   13.8466   22.1957 O   0  0  0  0  0  0  0  0  0  0  0  0
    7.4078   13.4235   24.7578 S   0  0  0  0  0  0  0  0  0  0  0  0
    9.3258    9.4883   25.4478 H   0  0  0  0  0  0  0  0  0  0  0  0
    7.7199    8.8409   25.1393 H   0  0  0  0  0  0  0  0  0  0  0  0
    9.1713    8.0458   23.3920 H   0  0  0  0  0  0  0  0  0  0  0  0
    8.0165    9.1538   22.6765 H   0  0  0  0  0  0  0  0  0  0  0  0
   10.7863   10.0370   23.5344 H   0  0  0  0  0  0  0  0  0  0  0  0
   10.4876    9.3330   21.9582 H   0  0  0  0  0  0  0  0  0  0  0  0
   10.3766   11.6842   21.5746 H   0  0  0  0  0  0  0  0  0  0  0  0
    8.7171   11.1725   21.6472 H   0  0  0  0  0  0  0  0  0  0  0  0
   12.7619   13.2750   23.8139 H   0  0  0  0  0  0  0  0  0  0  0  0
   13.0569   12.6000   22.1955 H   0  0  0  0  0  0  0  0  0  0  0  0
   13.9993   13.9839   22.7912 H   0  0  0  0  0  0  0  0  0  0  0  0
   11.5722   15.5345   20.3306 H   0  0  0  0  0  0  0  0  0  0  0  0
   12.2880   13.9467   20.1171 H   0  0  0  0  0  0  0  0  0  0  0  0
   13.3018   15.2994   20.6667 H   0  0  0  0  0  0  0  0  0  0  0  0
   11.1326   16.4533   22.6312 H   0  0  0  0  0  0  0  0  0  0  0  0
   11.5935   15.5327   24.0795 H   0  0  0  0  0  0  0  0  0  0  0  0
   12.8288   16.2974   23.0540 H   0  0  0  0  0  0  0  0  0  0  0  0
    4.3736   14.5512   26.8110 H   0  0  0  0  0  0  0  0  0  0  0  0
  1  2  2  0  0  0  0
  1  6  1  0  0  0  0
  1 14  1  0  0  0  0
  2 15  1  0  0  0  0
  2 20  1  0  0  0  0
  3  4  1  0  0  0  0
  3 14  2  0  0  0  0
  3 20  1  0  0  0  0
  4 16  2  0  0  0  0
  4 18  1  0  0  0  0
  5 15  1  0  0  0  0
  5 17  2  0  0  0  0
  5 19  1  0  0  0  0
  6  7  1  0  0  0  0
  7  8  1  0  0  0  0
  8  9  1  0  0  0  0
  9 15  1  0  0  0  0
 10 13  1  0  0  0  0
 11 13  1  0  0  0  0
 12 13  1  0  0  0  0
 13 19  1  0  0  0  0
  6 21  1  0  0  0  0
  6 22  1  0  0  0  0
  7 23  1  0  0  0  0
  7 24  1  0  0  0  0
  8 25  1  0  0  0  0
  8 26  1  0  0  0  0
  9 27  1  0  0  0  0
  9 28  1  0  0  0  0
 10 29  1  0  0  0  0
 10 30  1  0  0  0  0
 10 31  1  0  0  0  0
 11 32  1  0  0  0  0
 11 33  1  0  0  0  0
 11 34  1  0  0  0  0
 12 35  1  0  0  0  0
 12 36  1  0  0  0  0
 12 37  1  0  0  0  0
 18 38  1  0  0  0  0
M  END
> <id>
EN300-6510935

> <smiles>
CC(C)(C)OC(=O)N1CCCCC=2N=C(SC12)C(=O)O

> <IUPAC Name>
4-[(tert-butoxy)carbonyl]-4H,5H,6H,7H,8H-[1,3]thiazolo[5,4-b]azepine-2-carboxylic acid

> <CAS>
2248328-66-5

> <URL>
https://www.enaminestore.com/catalog/EN300-6510935

> <ROCS_ShapeQuery>
A71EV2A-x0451_0A_A71EV2A-x0310_0A_A71EV2A-x0416_0A_peptide

> <ROCS_TanimotoCombo>
0.528 

> <ROCS_ShapeTanimoto>
0.349 

> <ROCS_ColorTanimoto>
0.179 

> <ROCS_RefTversky>
0.303 

> <ROCS_RefColorTversky>
0.198 

> <ROCS_RefTverskyCombo>
0.501 

> <ROCS_FitTversky>
1.758 

> <ROCS_FitColorTversky>
0.657 

> <ROCS_FitTverskyCombo>
2.415 

> <ROCS_ColorScore>
-6.044

> <ROCS_Overlap>
2103.802

> <ROCS_Rank>
107                 

$$$$
untitled-dbase-174623_131
  -OEChem-11132313473D

 44 46  0     0  0  0  0  0  0999 V2000
    6.0825   10.7805   25.8523 C   0  0  0  0  0  0  0  0  0  0  0  0
    7.0318    9.9769   25.2234 C   0  0  0  0  0  0  0  0  0  0  0  0
    7.2315   12.7843   25.0957 C   0  0  0  0  0  0  0  0  0  0  0  0
    6.1809   12.1760   25.7895 C   0  0  0  0  0  0  0  0  0  0  0  0
    8.1903   11.9976   24.4604 C   0  0  0  0  0  0  0  0  0  0  0  0
    8.0657   10.6026   24.5407 C   0  0  0  0  0  0  0  0  0  0  0  0
    9.9990   10.9317   23.2626 C   0  0  0  0  0  0  0  0  0  0  0  0
    5.1815   12.9996   26.4518 C   0  0  0  0  0  0  0  0  0  0  0  0
   11.2044   15.0945   22.4481 C   0  0  0  0  0  0  0  0  0  0  0  0
    9.2913   13.3875   22.4448 C   0  0  0  0  0  0  0  0  0  0  0  0
   10.4781   13.3847   24.2393 C   0  0  0  0  0  0  0  0  0  0  0  0
    9.4505   12.4050   23.6276 C   0  0  0  0  0  0  0  0  0  0  0  0
   13.4596   15.9351   20.9123 C   0  0  0  0  0  0  0  0  0  0  0  0
   11.9288   15.7878   18.9263 C   0  0  0  0  0  0  0  0  0  0  0  0
   11.4227   17.4074   20.7780 C   0  0  0  0  0  0  0  0  0  0  0  0
    9.2735    8.5602   23.7390 C   0  0  0  0  0  0  0  0  0  0  0  0
   12.0138   16.0420   20.4297 C   0  0  0  0  0  0  0  0  0  0  0  0
    9.1262    9.9955   23.8386 N   0  0  0  0  0  0  0  0  0  0  0  0
   10.4426   14.0882   22.9739 N   0  0  0  0  0  0  0  0  0  0  0  0
   10.9973   10.6552   22.6017 O   0  0  0  0  0  0  0  0  0  0  0  0
    5.1657   14.2347   26.4642 O   0  0  0  0  0  0  0  0  0  0  0  0
   11.7824   15.9453   23.1185 O   0  0  0  0  0  0  0  0  0  0  0  0
    4.2285   12.2574   27.0794 O   0  0  0  0  0  0  0  0  0  0  0  0
   11.2395   15.0301   21.0828 O   0  0  0  0  0  0  0  0  0  0  0  0
    5.2638   10.3111   26.3926 H   0  0  0  0  0  0  0  0  0  0  0  0
    6.9494    8.8969   25.2761 H   0  0  0  0  0  0  0  0  0  0  0  0
    7.3069   13.8674   25.0469 H   0  0  0  0  0  0  0  0  0  0  0  0
    9.4559   12.9639   21.4505 H   0  0  0  0  0  0  0  0  0  0  0  0
    8.3866   14.0021   22.4448 H   0  0  0  0  0  0  0  0  0  0  0  0
   10.1246   13.9979   25.0732 H   0  0  0  0  0  0  0  0  0  0  0  0
   11.4557   12.9569   24.4770 H   0  0  0  0  0  0  0  0  0  0  0  0
   13.5248   16.1170   21.9910 H   0  0  0  0  0  0  0  0  0  0  0  0
   13.8839   14.9484   20.6997 H   0  0  0  0  0  0  0  0  0  0  0  0
   14.0891   16.6932   20.4323 H   0  0  0  0  0  0  0  0  0  0  0  0
   10.8932   15.8635   18.5757 H   0  0  0  0  0  0  0  0  0  0  0  0
   12.2638   14.7730   18.6825 H   0  0  0  0  0  0  0  0  0  0  0  0
   12.5391   16.4995   18.3610 H   0  0  0  0  0  0  0  0  0  0  0  0
   10.3856   17.4843   20.4319 H   0  0  0  0  0  0  0  0  0  0  0  0
   11.4416   17.5917   21.8570 H   0  0  0  0  0  0  0  0  0  0  0  0
   11.9760   18.2105   20.2778 H   0  0  0  0  0  0  0  0  0  0  0  0
    8.7390    8.1972   22.8488 H   0  0  0  0  0  0  0  0  0  0  0  0
   10.3404    8.3062   23.6549 H   0  0  0  0  0  0  0  0  0  0  0  0
    8.8532    8.0854   24.6379 H   0  0  0  0  0  0  0  0  0  0  0  0
    3.5490   12.8039   27.5287 H   0  0  0  0  0  0  0  0  0  0  0  0
  1  2  1  0  0  0  0
  1  4  2  0  0  0  0
  2  6  2  0  0  0  0
  3  4  1  0  0  0  0
  3  5  2  0  0  0  0
  4  8  1  0  0  0  0
  5  6  1  0  0  0  0
  5 12  1  0  0  0  0
  6 18  1  0  0  0  0
  7 12  1  0  0  0  0
  7 18  1  0  0  0  0
  7 20  2  0  0  0  0
  8 21  2  0  0  0  0
  8 23  1  0  0  0  0
  9 19  1  0  0  0  0
  9 22  2  0  0  0  0
  9 24  1  0  0  0  0
 10 12  1  0  0  0  0
 10 19  1  0  0  0  0
 11 12  1  0  0  0  0
 11 19  1  0  0  0  0
 13 17  1  0  0  0  0
 14 17  1  0  0  0  0
 15 17  1  0  0  0  0
 16 18  1  0  0  0  0
 17 24  1  0  0  0  0
  1 25  1  0  0  0  0
  2 26  1  0  0  0  0
  3 27  1  0  0  0  0
 10 28  1  0  0  0  0
 10 29  1  0  0  0  0
 11 30  1  0  0  0  0
 11 31  1  0  0  0  0
 13 32  1  0  0  0  0
 13 33  1  0  0  0  0
 13 34  1  0  0  0  0
 14 35  1  0  0  0  0
 14 36  1  0  0  0  0
 14 37  1  0  0  0  0
 15 38  1  0  0  0  0
 15 39  1  0  0  0  0
 15 40  1  0  0  0  0
 16 41  1  0  0  0  0
 16 42  1  0  0  0  0
 16 43  1  0  0  0  0
 23 44  1  0  0  0  0
M  END
> <id>
EN300-39912998

> <smiles>
CN1C(=O)C2(CN(C2)C(=O)OC(C)(C)C)C=3C=C(C=CC13)C(=O)O

> <IUPAC Name>
1-[(tert-butoxy)carbonyl]-1'-methyl-2'-oxo-1',2'-dihydrospiro[azetidine-3,3'-indole]-5'-carboxylic acid

> <URL>
https://www.enaminestore.com/catalog/EN300-39912998

> <ROCS_ShapeQuery>
A71EV2A-x0451_0A_A71EV2A-x0310_0A_A71EV2A-x0416_0A_peptide

> <ROCS_TanimotoCombo>
0.528 

> <ROCS_ShapeTanimoto>
0.380 

> <ROCS_ColorTanimoto>
0.148 

> <ROCS_RefTversky>
0.331 

> <ROCS_RefColorTversky>
0.172 

> <ROCS_RefTverskyCombo>
0.503 

> <ROCS_FitTversky>
1.639 

> <ROCS_FitColorTversky>
0.517 

> <ROCS_FitTverskyCombo>
2.156 

> <ROCS_ColorScore>
-5.256

> <ROCS_Overlap>
2298.764

> <ROCS_Rank>
108                 

$$$$
untitled-dbase-56092_7
  -OEChem-11132313473D

 41 43  0     1  0  0  0  0  0999 V2000
    6.3445   12.3099   25.6580 C   0  0  0  0  0  0  0  0  0  0  0  0
   10.4390   13.2888   23.3892 C   0  0  0  0  0  0  0  0  0  0  0  0
    6.8289   11.1682   23.4624 C   0  0  0  0  0  0  0  0  0  0  0  0
    9.1537   11.2815   22.5572 C   0  0  0  0  0  0  0  0  0  0  0  0
    7.2172   12.3127   24.4381 C   0  0  2  0  0  0  0  0  0  0  0  0
    8.0851   10.3211   23.1253 C   0  0  1  0  0  0  0  0  0  0  0  0
    8.7110   12.1788   24.8347 C   0  0  1  0  0  0  0  0  0  0  0  0
    8.5666    9.7182   24.4323 C   0  0  2  0  0  0  0  0  0  0  0  0
    8.9284   10.7917   25.4193 C   0  0  1  0  0  0  0  0  0  0  0  0
   13.1444   14.0659   22.8861 C   0  0  0  0  0  0  0  0  0  0  0  0
   12.5361   13.9333   20.4527 C   0  0  0  0  0  0  0  0  0  0  0  0
   11.3697   15.5825   21.9453 C   0  0  0  0  0  0  0  0  0  0  0  0
    5.7151   10.9918   27.5154 C   0  0  0  0  0  0  0  0  0  0  0  0
   12.0169   14.2007   21.8637 C   0  0  0  0  0  0  0  0  0  0  0  0
    9.4862   12.2932   23.5793 N   0  0  0  0  0  0  0  0  0  0  0  0
    5.6182   13.2394   25.9829 O   0  0  0  0  0  0  0  0  0  0  0  0
   10.7313   14.1402   24.2258 O   0  0  0  0  0  0  0  0  0  0  0  0
    9.9237    9.9530   24.8229 O   0  0  0  0  0  0  0  0  0  0  0  0
    6.4952   11.1295   26.3235 O   0  0  0  0  0  0  0  0  0  0  0  0
   11.0207   13.2130   22.1512 O   0  0  0  0  0  0  0  0  0  0  0  0
    6.0504   10.5234   23.8887 H   0  0  0  0  0  0  0  0  0  0  0  0
    6.4173   11.5994   22.5416 H   0  0  0  0  0  0  0  0  0  0  0  0
   10.0735   10.7477   22.2919 H   0  0  0  0  0  0  0  0  0  0  0  0
    8.7933   11.8009   21.6620 H   0  0  0  0  0  0  0  0  0  0  0  0
    7.0516   13.2801   23.9523 H   0  0  0  0  0  0  0  0  0  0  0  0
    7.8452    9.5349   22.4029 H   0  0  0  0  0  0  0  0  0  0  0  0
    9.0144   12.9473   25.5529 H   0  0  0  0  0  0  0  0  0  0  0  0
    8.0450    8.8376   24.7729 H   0  0  0  0  0  0  0  0  0  0  0  0
    8.6729   10.6677   26.4602 H   0  0  0  0  0  0  0  0  0  0  0  0
   12.7758   14.2571   23.9003 H   0  0  0  0  0  0  0  0  0  0  0  0
   13.5938   13.0678   22.8618 H   0  0  0  0  0  0  0  0  0  0  0  0
   13.9321   14.8047   22.6992 H   0  0  0  0  0  0  0  0  0  0  0  0
   11.7304   14.0289   19.7158 H   0  0  0  0  0  0  0  0  0  0  0  0
   12.9155   12.9089   20.3640 H   0  0  0  0  0  0  0  0  0  0  0  0
   13.3393   14.6254   20.1798 H   0  0  0  0  0  0  0  0  0  0  0  0
   10.5609   15.6794   21.2121 H   0  0  0  0  0  0  0  0  0  0  0  0
   10.9585   15.7771   22.9412 H   0  0  0  0  0  0  0  0  0  0  0  0
   12.0968   16.3678   21.7092 H   0  0  0  0  0  0  0  0  0  0  0  0
    5.9092   10.0163   27.9681 H   0  0  0  0  0  0  0  0  0  0  0  0
    4.6542   11.0872   27.2706 H   0  0  0  0  0  0  0  0  0  0  0  0
    5.9972   11.7796   28.2179 H   0  0  0  0  0  0  0  0  0  0  0  0
  1  5  1  0  0  0  0
  1 16  2  0  0  0  0
  1 19  1  0  0  0  0
  2 15  1  0  0  0  0
  2 17  2  0  0  0  0
  2 20  1  0  0  0  0
  3  5  1  0  0  0  0
  3  6  1  0  0  0  0
  4  6  1  0  0  0  0
  4 15  1  0  0  0  0
  5  7  1  0  0  0  0
  6  8  1  0  0  0  0
  7  9  1  0  0  0  0
  7 15  1  0  0  0  0
  8  9  1  0  0  0  0
  8 18  1  0  0  0  0
  9 18  1  0  0  0  0
 10 14  1  0  0  0  0
 11 14  1  0  0  0  0
 12 14  1  0  0  0  0
 13 19  1  0  0  0  0
 14 20  1  0  0  0  0
  3 21  1  0  0  0  0
  3 22  1  0  0  0  0
  4 23  1  0  0  0  0
  4 24  1  0  0  0  0
  5 25  1  0  0  0  0
  6 26  1  0  0  0  0
  7 27  1  0  0  0  0
  8 28  1  0  0  0  0
  9 29  1  0  0  0  0
 10 30  1  0  0  0  0
 10 31  1  0  0  0  0
 10 32  1  0  0  0  0
 11 33  1  0  0  0  0
 11 34  1  0  0  0  0
 11 35  1  0  0  0  0
 12 36  1  0  0  0  0
 12 37  1  0  0  0  0
 12 38  1  0  0  0  0
 13 39  1  0  0  0  0
 13 40  1  0  0  0  0
 13 41  1  0  0  0  0
M  END
> <id>
EN300-1708474

> <smiles>
COC(=O)C1CC2CN(C1C3OC32)C(=O)OC(C)(C)C

> <IUPAC Name>
6-tert-butyl 9-methyl 3-oxa-6-azatricyclo[3.2.2.0,2,4]nonane-6,9-dicarboxylate

> <CAS>
2219418-94-5

> <URL>
https://www.enaminestore.com/catalog/EN300-1708474

> <ROCS_ShapeQuery>
A71EV2A-x0451_0A_A71EV2A-x0310_0A_A71EV2A-x0416_0A_peptide

> <ROCS_TanimotoCombo>
0.528 

> <ROCS_ShapeTanimoto>
0.322 

> <ROCS_ColorTanimoto>
0.206 

> <ROCS_RefTversky>
0.287 

> <ROCS_RefColorTversky>
0.286 

> <ROCS_RefTverskyCombo>
0.572 

> <ROCS_FitTversky>
1.624 

> <ROCS_FitColorTversky>
0.423 

> <ROCS_FitTverskyCombo>
2.047 

> <ROCS_ColorScore>
-8.900

> <ROCS_Overlap>
1989.140

> <ROCS_Rank>
109                 

$$$$
untitled-dbase-20222_601
  -OEChem-11132313473D

 40 41  0     0  0  0  0  0  0999 V2000
    6.0445   10.9117   26.2676 C   0  0  0  0  0  0  0  0  0  0  0  0
    6.8880   10.0119   25.6199 C   0  0  0  0  0  0  0  0  0  0  0  0
    6.8276   12.6857   24.8232 C   0  0  0  0  0  0  0  0  0  0  0  0
    6.0176   12.2478   25.8731 C   0  0  0  0  0  0  0  0  0  0  0  0
    7.6829   11.7941   24.1609 C   0  0  0  0  0  0  0  0  0  0  0  0
    7.7168   10.4566   24.5871 C   0  0  0  0  0  0  0  0  0  0  0  0
    5.1340   13.1855   26.5476 C   0  0  0  0  0  0  0  0  0  0  0  0
   10.7883   13.0678   23.7335 C   0  0  0  0  0  0  0  0  0  0  0  0
    8.5124   12.2705   22.9965 C   0  0  0  0  0  0  0  0  0  0  0  0
   10.4441   10.7019   23.0669 C   0  0  0  0  0  0  0  0  0  0  0  0
    9.9019    9.7864   24.1587 C   0  0  0  0  0  0  0  0  0  0  0  0
   12.5480   15.3018   23.4111 C   0  0  0  0  0  0  0  0  0  0  0  0
   14.0190   13.7218   22.1270 C   0  0  0  0  0  0  0  0  0  0  0  0
   11.7109   14.2445   21.2860 C   0  0  0  0  0  0  0  0  0  0  0  0
   12.5835   14.0566   22.5261 C   0  0  0  0  0  0  0  0  0  0  0  0
    9.9450   12.0682   23.2321 N   0  0  0  0  0  0  0  0  0  0  0  0
    5.0285   14.3875   26.2823 O   0  0  0  0  0  0  0  0  0  0  0  0
   10.4257   13.9648   24.4924 O   0  0  0  0  0  0  0  0  0  0  0  0
    8.5065    9.5173   23.9727 O   0  0  0  0  0  0  0  0  0  0  0  0
    4.4050   12.5959   27.5346 O   0  0  0  0  0  0  0  0  0  0  0  0
   12.0751   12.9487   23.2778 O   0  0  0  0  0  0  0  0  0  0  0  0
    5.4103   10.5599   27.0773 H   0  0  0  0  0  0  0  0  0  0  0  0
    6.9025    8.9702   25.9287 H   0  0  0  0  0  0  0  0  0  0  0  0
    6.7876   13.7279   24.5128 H   0  0  0  0  0  0  0  0  0  0  0  0
    8.2235   11.7269   22.0886 H   0  0  0  0  0  0  0  0  0  0  0  0
    8.3180   13.3289   22.7938 H   0  0  0  0  0  0  0  0  0  0  0  0
   11.5382   10.7021   23.1039 H   0  0  0  0  0  0  0  0  0  0  0  0
   10.1375   10.3533   22.0745 H   0  0  0  0  0  0  0  0  0  0  0  0
   10.4109    8.8187   24.0849 H   0  0  0  0  0  0  0  0  0  0  0  0
   10.1141   10.1722   25.1654 H   0  0  0  0  0  0  0  0  0  0  0  0
   11.5192   15.5454   23.6997 H   0  0  0  0  0  0  0  0  0  0  0  0
   13.1418   15.1670   24.3210 H   0  0  0  0  0  0  0  0  0  0  0  0
   12.9331   16.1753   22.8726 H   0  0  0  0  0  0  0  0  0  0  0  0
   14.0493   12.8290   21.4920 H   0  0  0  0  0  0  0  0  0  0  0  0
   14.6264   13.4930   23.0102 H   0  0  0  0  0  0  0  0  0  0  0  0
   14.4912   14.5482   21.5860 H   0  0  0  0  0  0  0  0  0  0  0  0
   11.7362   13.3515   20.6510 H   0  0  0  0  0  0  0  0  0  0  0  0
   10.6691   14.4491   21.5531 H   0  0  0  0  0  0  0  0  0  0  0  0
   12.0816   15.0721   20.6704 H   0  0  0  0  0  0  0  0  0  0  0  0
    3.8048   13.2203   27.9953 H   0  0  0  0  0  0  0  0  0  0  0  0
  1  2  1  0  0  0  0
  1  4  2  0  0  0  0
  2  6  2  0  0  0  0
  3  4  1  0  0  0  0
  3  5  2  0  0  0  0
  4  7  1  0  0  0  0
  5  6  1  0  0  0  0
  5  9  1  0  0  0  0
  6 19  1  0  0  0  0
  7 17  2  0  0  0  0
  7 20  1  0  0  0  0
  8 16  1  0  0  0  0
  8 18  2  0  0  0  0
  8 21  1  0  0  0  0
  9 16  1  0  0  0  0
 10 11  1  0  0  0  0
 10 16  1  0  0  0  0
 11 19  1  0  0  0  0
 12 15  1  0  0  0  0
 13 15  1  0  0  0  0
 14 15  1  0  0  0  0
 15 21  1  0  0  0  0
  1 22  1  0  0  0  0
  2 23  1  0  0  0  0
  3 24  1  0  0  0  0
  9 25  1  0  0  0  0
  9 26  1  0  0  0  0
 10 27  1  0  0  0  0
 10 28  1  0  0  0  0
 11 29  1  0  0  0  0
 11 30  1  0  0  0  0
 12 31  1  0  0  0  0
 12 32  1  0  0  0  0
 12 33  1  0  0  0  0
 13 34  1  0  0  0  0
 13 35  1  0  0  0  0
 13 36  1  0  0  0  0
 14 37  1  0  0  0  0
 14 38  1  0  0  0  0
 14 39  1  0  0  0  0
 20 40  1  0  0  0  0
M  END
> <id>
EN300-265691

> <smiles>
CC(C)(C)OC(=O)N1CCOC=2C=CC(=CC2C1)C(=O)O

> <MDLNUMBER>
MFCD12028381

> <IUPAC Name>
4-[(tert-butoxy)carbonyl]-2,3,4,5-tetrahydro-1,4-benzoxazepine-7-carboxylic acid

> <CAS>
1142210-79-4

> <Purity>
95

> <URL>
https://www.enaminestore.com/catalog/EN300-265691

> <ROCS_ShapeQuery>
A71EV2A-x0451_0A_A71EV2A-x0310_0A_A71EV2A-x0416_0A_peptide

> <ROCS_TanimotoCombo>
0.528 

> <ROCS_ShapeTanimoto>
0.340 

> <ROCS_ColorTanimoto>
0.188 

> <ROCS_RefTversky>
0.300 

> <ROCS_RefColorTversky>
0.206 

> <ROCS_RefTverskyCombo>
0.505 

> <ROCS_FitTversky>
1.653 

> <ROCS_FitColorTversky>
0.682 

> <ROCS_FitTverskyCombo>
2.335 

> <ROCS_ColorScore>
-6.275

> <ROCS_Overlap>
2081.438

> <ROCS_Rank>
110                 

$$$$
untitled-dbase-155958_15
  -OEChem-11132313473D

 30 31  0     0  0  0  0  0  0999 V2000
    7.1765   12.4309   25.4759 C   0  0  0  0  0  0  0  0  0  0  0  0
    8.6859   11.7208   24.0341 C   0  0  0  0  0  0  0  0  0  0  0  0
    7.9132   10.6766   24.5243 C   0  0  0  0  0  0  0  0  0  0  0  0
    9.6908   11.4867   23.1162 C   0  0  0  0  0  0  0  0  0  0  0  0
    9.0942    9.2556   23.2439 C   0  0  0  0  0  0  0  0  0  0  0  0
   10.8323   13.7210   23.2417 C   0  0  0  0  0  0  0  0  0  0  0  0
   10.9415   16.5779   23.3153 C   0  0  0  0  0  0  0  0  0  0  0  0
   12.1189   16.4057   21.1032 C   0  0  0  0  0  0  0  0  0  0  0  0
    9.7611   15.5716   21.3332 C   0  0  0  0  0  0  0  0  0  0  0  0
   11.1039   15.7532   22.0393 C   0  0  0  0  0  0  0  0  0  0  0  0
    6.9788   11.1311   25.4196 N   0  0  0  0  0  0  0  0  0  0  0  0
    8.0934    9.3898   24.1407 N   0  0  0  0  0  0  0  0  0  0  0  0
    9.8939   10.2118   22.7145 N   0  0  0  0  0  0  0  0  0  0  0  0
    8.1974   12.8343   24.6563 N   0  0  0  0  0  0  0  0  0  0  0  0
   10.4828   12.5428   22.6109 N   0  0  0  0  0  0  0  0  0  0  0  0
   10.5246   14.0877   24.3693 O   0  0  0  0  0  0  0  0  0  0  0  0
   11.6100   14.4652   22.3920 O   0  0  0  0  0  0  0  0  0  0  0  0
    9.3933    7.6586   22.7010 Cl  0  0  0  0  0  0  0  0  0  0  0  0
    6.6216   13.1318   26.0831 H   0  0  0  0  0  0  0  0  0  0  0  0
   10.2137   16.1128   23.9898 H   0  0  0  0  0  0  0  0  0  0  0  0
   11.8911   16.6860   23.8494 H   0  0  0  0  0  0  0  0  0  0  0  0
   10.5566   17.5786   23.0878 H   0  0  0  0  0  0  0  0  0  0  0  0
   12.2386   15.8173   20.1863 H   0  0  0  0  0  0  0  0  0  0  0  0
   13.1086   16.4519   21.5718 H   0  0  0  0  0  0  0  0  0  0  0  0
   11.8186   17.4215   20.8266 H   0  0  0  0  0  0  0  0  0  0  0  0
    9.8773   14.9801   20.4179 H   0  0  0  0  0  0  0  0  0  0  0  0
    9.0310   15.0713   21.9776 H   0  0  0  0  0  0  0  0  0  0  0  0
    9.3486   16.5394   21.0256 H   0  0  0  0  0  0  0  0  0  0  0  0
    8.5267   13.7831   24.5364 H   0  0  0  0  0  0  0  0  0  0  0  0
   10.8394   12.4201   21.6662 H   0  0  0  0  0  0  0  0  0  0  0  0
  1 11  2  0  0  0  0
  1 14  1  0  0  0  0
  2  3  2  0  0  0  0
  2  4  1  0  0  0  0
  2 14  1  0  0  0  0
  3 11  1  0  0  0  0
  3 12  1  0  0  0  0
  4 13  2  0  0  0  0
  4 15  1  0  0  0  0
  5 12  2  0  0  0  0
  5 13  1  0  0  0  0
  5 18  1  0  0  0  0
  6 15  1  0  0  0  0
  6 16  2  0  0  0  0
  6 17  1  0  0  0  0
  7 10  1  0  0  0  0
  8 10  1  0  0  0  0
  9 10  1  0  0  0  0
 10 17  1  0  0  0  0
  1 19  1  0  0  0  0
  7 20  1  0  0  0  0
  7 21  1  0  0  0  0
  7 22  1  0  0  0  0
  8 23  1  0  0  0  0
  8 24  1  0  0  0  0
  8 25  1  0  0  0  0
  9 26  1  0  0  0  0
  9 27  1  0  0  0  0
  9 28  1  0  0  0  0
 14 29  1  0  0  0  0
 15 30  1  0  0  0  0
M  END
> <id>
EN300-28283257

> <smiles>
CC(C)(C)OC(=O)NC=1N=C(Cl)N=C2N=CNC12

> <IUPAC Name>
tert-butyl N-(2-chloro-7H-purin-6-yl)carbamate

> <CAS>
2680773-34-4

> <URL>
https://www.enaminestore.com/catalog/EN300-28283257

> <ROCS_ShapeQuery>
A71EV2A-x0451_0A_A71EV2A-x0310_0A_A71EV2A-x0416_0A_peptide

> <ROCS_TanimotoCombo>
0.528 

> <ROCS_ShapeTanimoto>
0.341 

> <ROCS_ColorTanimoto>
0.187 

> <ROCS_RefTversky>
0.296 

> <ROCS_RefColorTversky>
0.215 

> <ROCS_RefTverskyCombo>
0.511 

> <ROCS_FitTversky>
1.793 

> <ROCS_FitColorTversky>
0.591 

> <ROCS_FitTverskyCombo>
2.384 

> <ROCS_ColorScore>
-6.571

> <ROCS_Overlap>
2054.492

> <ROCS_Rank>
111                 

$$$$
untitled-dbase-87536_1
  -OEChem-11132313473D

 33 34  0     0  0  0  0  0  0999 V2000
   10.1403   10.7844   23.0639 C   0  0  0  0  0  0  0  0  0  0  0  0
    9.7459   11.9825   23.6469 C   0  0  0  0  0  0  0  0  0  0  0  0
    8.5776   11.9627   24.4150 C   0  0  0  0  0  0  0  0  0  0  0  0
    9.3662    9.6562   23.2730 C   0  0  0  0  0  0  0  0  0  0  0  0
    7.8543   10.7779   24.5751 C   0  0  0  0  0  0  0  0  0  0  0  0
    6.5854   12.1147   25.7757 C   0  0  0  0  0  0  0  0  0  0  0  0
   10.5461   13.2172   23.4482 C   0  0  0  0  0  0  0  0  0  0  0  0
    9.7948    8.3703   22.6421 C   0  0  0  0  0  0  0  0  0  0  0  0
   13.0711   14.4521   22.9985 C   0  0  0  0  0  0  0  0  0  0  0  0
   12.5964   14.0953   20.5578 C   0  0  0  0  0  0  0  0  0  0  0  0
   11.0870   15.5667   21.9234 C   0  0  0  0  0  0  0  0  0  0  0  0
   11.9803   14.3270   21.9358 C   0  0  0  0  0  0  0  0  0  0  0  0
    8.2353    9.6022   24.0065 N   0  0  0  0  0  0  0  0  0  0  0  0
    6.7161   10.8773   25.3554 N   0  0  0  0  0  0  0  0  0  0  0  0
    5.5686   12.5494   26.5668 N   0  0  0  0  0  0  0  0  0  0  0  0
   10.6099   14.1143   24.2744 O   0  0  0  0  0  0  0  0  0  0  0  0
   11.1743   13.1890   22.2436 O   0  0  0  0  0  0  0  0  0  0  0  0
    7.7899   13.2249   25.2763 S   0  0  0  0  0  0  0  0  0  0  0  0
   11.0391   10.7369   22.4554 H   0  0  0  0  0  0  0  0  0  0  0  0
   10.4576    7.8195   23.3186 H   0  0  0  0  0  0  0  0  0  0  0  0
    8.9302    7.7386   22.4066 H   0  0  0  0  0  0  0  0  0  0  0  0
   10.3261    8.5507   21.7000 H   0  0  0  0  0  0  0  0  0  0  0  0
   12.6328   14.6185   23.9890 H   0  0  0  0  0  0  0  0  0  0  0  0
   13.6971   13.5548   23.0414 H   0  0  0  0  0  0  0  0  0  0  0  0
   13.7162   15.3149   22.7970 H   0  0  0  0  0  0  0  0  0  0  0  0
   11.8174   14.0050   19.7922 H   0  0  0  0  0  0  0  0  0  0  0  0
   13.1612   13.1563   20.5357 H   0  0  0  0  0  0  0  0  0  0  0  0
   13.2689   14.9111   20.2736 H   0  0  0  0  0  0  0  0  0  0  0  0
   10.3045   15.4773   21.1612 H   0  0  0  0  0  0  0  0  0  0  0  0
   10.6071   15.7277   22.8942 H   0  0  0  0  0  0  0  0  0  0  0  0
   11.6661   16.4617   21.6685 H   0  0  0  0  0  0  0  0  0  0  0  0
    5.5293   13.5145   26.9117 H   0  0  0  0  0  0  0  0  0  0  0  0
    4.8539   11.9075   26.9261 H   0  0  0  0  0  0  0  0  0  0  0  0
  1  2  1  0  0  0  0
  1  4  2  0  0  0  0
  2  3  2  0  0  0  0
  2  7  1  0  0  0  0
  3  5  1  0  0  0  0
  3 18  1  0  0  0  0
  4  8  1  0  0  0  0
  4 13  1  0  0  0  0
  5 13  2  0  0  0  0
  5 14  1  0  0  0  0
  6 14  2  0  0  0  0
  6 15  1  0  0  0  0
  6 18  1  0  0  0  0
  7 16  2  0  0  0  0
  7 17  1  0  0  0  0
  9 12  1  0  0  0  0
 10 12  1  0  0  0  0
 11 12  1  0  0  0  0
 12 17  1  0  0  0  0
  1 19  1  0  0  0  0
  8 20  1  0  0  0  0
  8 21  1  0  0  0  0
  8 22  1  0  0  0  0
  9 23  1  0  0  0  0
  9 24  1  0  0  0  0
  9 25  1  0  0  0  0
 10 26  1  0  0  0  0
 10 27  1  0  0  0  0
 10 28  1  0  0  0  0
 11 29  1  0  0  0  0
 11 30  1  0  0  0  0
 11 31  1  0  0  0  0
 15 32  1  0  0  0  0
 15 33  1  0  0  0  0
M  END
> <id>
EN300-6508416

> <smiles>
CC=1C=C(C(=O)OC(C)(C)C)C=2SC(N)=NC2N1

> <IUPAC Name>
tert-butyl 2-amino-5-methyl-[1,3]thiazolo[4,5-b]pyridine-7-carboxylate

> <CAS>
2248293-80-1

> <URL>
https://www.enaminestore.com/catalog/EN300-6508416

> <ROCS_ShapeQuery>
A71EV2A-x0451_0A_A71EV2A-x0310_0A_A71EV2A-x0416_0A_peptide

> <ROCS_TanimotoCombo>
0.527 

> <ROCS_ShapeTanimoto>
0.351 

> <ROCS_ColorTanimoto>
0.177 

> <ROCS_RefTversky>
0.302 

> <ROCS_RefColorTversky>
0.195 

> <ROCS_RefTverskyCombo>
0.497 

> <ROCS_FitTversky>
1.860 

> <ROCS_FitColorTversky>
0.647 

> <ROCS_FitTverskyCombo>
2.508 

> <ROCS_ColorScore>
-5.965

> <ROCS_Overlap>
2093.891

> <ROCS_Rank>
112                 

$$$$
untitled-dbase-174441_49
  -OEChem-11132313473D

 40 41  0     0  0  0  0  0  0999 V2000
    6.7490   13.8719   25.2933 C   0  0  0  0  0  0  0  0  0  0  0  0
    7.8855   13.6153   24.5308 C   0  0  0  0  0  0  0  0  0  0  0  0
    6.4950   11.5105   25.6349 C   0  0  0  0  0  0  0  0  0  0  0  0
    7.6534   11.2172   24.8728 C   0  0  0  0  0  0  0  0  0  0  0  0
    6.0485   12.8154   25.8431 C   0  0  0  0  0  0  0  0  0  0  0  0
    8.3572   12.3002   24.3031 C   0  0  0  0  0  0  0  0  0  0  0  0
    8.0193    9.7585   24.8716 C   0  0  0  0  0  0  0  0  0  0  0  0
    4.8554   13.0585   26.6375 C   0  0  0  0  0  0  0  0  0  0  0  0
   10.5876   13.0360   23.5151 C   0  0  0  0  0  0  0  0  0  0  0  0
    9.9861    9.8002   23.2047 C   0  0  0  0  0  0  0  0  0  0  0  0
    9.4648   11.0293   22.5175 C   0  0  0  0  0  0  0  0  0  0  0  0
   13.3616   13.4496   24.1048 C   0  0  0  0  0  0  0  0  0  0  0  0
   13.7654   12.9231   21.6822 C   0  0  0  0  0  0  0  0  0  0  0  0
   12.3869   14.9253   22.3141 C   0  0  0  0  0  0  0  0  0  0  0  0
   12.7763   13.4975   22.6942 C   0  0  0  0  0  0  0  0  0  0  0  0
    9.0363    9.2135   24.1206 N   0  0  0  0  0  0  0  0  0  0  0  0
    9.4889   12.1534   23.4453 N   0  0  0  0  0  0  0  0  0  0  0  0
    7.3671    8.9966   25.5952 O   0  0  0  0  0  0  0  0  0  0  0  0
    4.1594   12.1883   27.1714 O   0  0  0  0  0  0  0  0  0  0  0  0
   10.6767   14.0022   24.2708 O   0  0  0  0  0  0  0  0  0  0  0  0
    4.5624   14.3839   26.7429 O   0  0  0  0  0  0  0  0  0  0  0  0
   11.6006   12.6798   22.6605 O   0  0  0  0  0  0  0  0  0  0  0  0
    6.4253   14.8963   25.4423 H   0  0  0  0  0  0  0  0  0  0  0  0
    8.3908   14.4692   24.0766 H   0  0  0  0  0  0  0  0  0  0  0  0
    5.9226   10.6839   26.0788 H   0  0  0  0  0  0  0  0  0  0  0  0
   10.3104    9.0264   22.4773 H   0  0  0  0  0  0  0  0  0  0  0  0
   10.8890   10.0485   23.7978 H   0  0  0  0  0  0  0  0  0  0  0  0
   10.0737   11.2662   21.6772 H   0  0  0  0  0  0  0  0  0  0  0  0
    8.4524   10.8734   22.2252 H   0  0  0  0  0  0  0  0  0  0  0  0
   12.6546   13.8610   24.8342 H   0  0  0  0  0  0  0  0  0  0  0  0
   13.6127   12.4264   24.4029 H   0  0  0  0  0  0  0  0  0  0  0  0
   14.2678   14.0622   24.1732 H   0  0  0  0  0  0  0  0  0  0  0  0
   13.3496   12.9555   20.6687 H   0  0  0  0  0  0  0  0  0  0  0  0
   13.9749   11.8689   21.8964 H   0  0  0  0  0  0  0  0  0  0  0  0
   14.7123   13.4726   21.6862 H   0  0  0  0  0  0  0  0  0  0  0  0
   11.9670   14.9599   21.3023 H   0  0  0  0  0  0  0  0  0  0  0  0
   11.6495   15.3407   23.0086 H   0  0  0  0  0  0  0  0  0  0  0  0
   13.2658   15.5801   22.3067 H   0  0  0  0  0  0  0  0  0  0  0  0
    9.1414    8.1520   24.2398 H   0  0  0  0  0  0  0  0  0  0  0  0
    3.7580   14.5594   27.2763 H   0  0  0  0  0  0  0  0  0  0  0  0
  1  2  1  0  0  0  0
  1  5  2  0  0  0  0
  2  6  2  0  0  0  0
  3  4  2  0  0  0  0
  3  5  1  0  0  0  0
  4  6  1  0  0  0  0
  4  7  1  0  0  0  0
  5  8  1  0  0  0  0
  6 17  1  0  0  0  0
  7 16  1  0  0  0  0
  7 18  2  0  0  0  0
  8 19  2  0  0  0  0
  8 21  1  0  0  0  0
  9 17  1  0  0  0  0
  9 20  2  0  0  0  0
  9 22  1  0  0  0  0
 10 11  1  0  0  0  0
 10 16  1  0  0  0  0
 11 17  1  0  0  0  0
 12 15  1  0  0  0  0
 13 15  1  0  0  0  0
 14 15  1  0  0  0  0
 15 22  1  0  0  0  0
  1 23  1  0  0  0  0
  2 24  1  0  0  0  0
  3 25  1  0  0  0  0
 10 26  1  0  0  0  0
 10 27  1  0  0  0  0
 11 28  1  0  0  0  0
 11 29  1  0  0  0  0
 12 30  1  0  0  0  0
 12 31  1  0  0  0  0
 12 32  1  0  0  0  0
 13 33  1  0  0  0  0
 13 34  1  0  0  0  0
 13 35  1  0  0  0  0
 14 36  1  0  0  0  0
 14 37  1  0  0  0  0
 14 38  1  0  0  0  0
 16 39  1  0  0  0  0
 21 40  1  0  0  0  0
M  END
> <id>
EN300-28229496

> <smiles>
CC(C)(C)OC(=O)N1CCNC(=O)C=2C=C(C=CC12)C(=O)O

> <IUPAC Name>
1-[(tert-butoxy)carbonyl]-5-oxo-2,3,4,5-tetrahydro-1H-1,4-benzodiazepine-7-carboxylic acid

> <URL>
https://www.enaminestore.com/catalog/EN300-28229496

> <ROCS_ShapeQuery>
A71EV2A-x0451_0A_A71EV2A-x0310_0A_A71EV2A-x0416_0A_peptide

> <ROCS_TanimotoCombo>
0.527 

> <ROCS_ShapeTanimoto>
0.349 

> <ROCS_ColorTanimoto>
0.178 

> <ROCS_RefTversky>
0.308 

> <ROCS_RefColorTversky>
0.202 

> <ROCS_RefTverskyCombo>
0.509 

> <ROCS_FitTversky>
1.632 

> <ROCS_FitColorTversky>
0.607 

> <ROCS_FitTverskyCombo>
2.239 

> <ROCS_ColorScore>
-6.162

> <ROCS_Overlap>
2135.870

> <ROCS_Rank>
113                 

$$$$
untitled-dbase-143315_19
  -OEChem-11132313473D

 39 40  0     0  0  0  0  0  0999 V2000
    7.7243   12.9558   25.1665 C   0  0  0  0  0  0  0  0  0  0  0  0
    6.6465   12.6932   26.0201 C   0  0  0  0  0  0  0  0  0  0  0  0
    6.7779   10.3563   25.4797 C   0  0  0  0  0  0  0  0  0  0  0  0
    8.3658   11.9207   24.4700 C   0  0  0  0  0  0  0  0  0  0  0  0
    7.8646   10.6140   24.6351 C   0  0  0  0  0  0  0  0  0  0  0  0
    6.1757   11.3952   26.1797 C   0  0  0  0  0  0  0  0  0  0  0  0
   10.2421   13.2897   23.4303 C   0  0  0  0  0  0  0  0  0  0  0  0
    9.7080   11.0183   22.6453 C   0  0  0  0  0  0  0  0  0  0  0  0
    9.6512    9.7146   23.4121 C   0  0  0  0  0  0  0  0  0  0  0  0
   12.6586   14.6901   22.7904 C   0  0  0  0  0  0  0  0  0  0  0  0
   11.7143   14.8755   20.4702 C   0  0  0  0  0  0  0  0  0  0  0  0
   10.5182   15.9546   22.3971 C   0  0  0  0  0  0  0  0  0  0  0  0
   11.3806   14.7725   21.9569 C   0  0  0  0  0  0  0  0  0  0  0  0
    9.4483   12.1360   23.5541 N   0  0  0  0  0  0  0  0  0  0  0  0
    5.6492   10.7820   28.7201 N   0  0  0  0  0  0  0  0  0  0  0  0
   10.5132   14.0311   24.3756 O   0  0  0  0  0  0  0  0  0  0  0  0
    4.0468   12.2920   27.3791 O   0  0  0  0  0  0  0  0  0  0  0  0
    4.1869    9.8393   26.8201 O   0  0  0  0  0  0  0  0  0  0  0  0
    8.3628    9.5109   23.9852 O   0  0  0  0  0  0  0  0  0  0  0  0
   10.6327   13.5658   22.1487 O   0  0  0  0  0  0  0  0  0  0  0  0
    4.8332   11.0730   27.2470 S   0  0  0  0  0  0  0  0  0  0  0  0
    8.0053   13.9957   25.0637 H   0  0  0  0  0  0  0  0  0  0  0  0
    6.1750   13.5186   26.5468 H   0  0  0  0  0  0  0  0  0  0  0  0
    6.4109    9.3385   25.5933 H   0  0  0  0  0  0  0  0  0  0  0  0
   10.6853   11.1123   22.1734 H   0  0  0  0  0  0  0  0  0  0  0  0
    8.9381   11.0524   21.8714 H   0  0  0  0  0  0  0  0  0  0  0  0
    9.8411    8.8770   22.7301 H   0  0  0  0  0  0  0  0  0  0  0  0
   10.4182    9.6680   24.1981 H   0  0  0  0  0  0  0  0  0  0  0  0
   12.4233   14.6161   23.8581 H   0  0  0  0  0  0  0  0  0  0  0  0
   13.2693   13.8263   22.5081 H   0  0  0  0  0  0  0  0  0  0  0  0
   13.2635   15.5960   22.6693 H   0  0  0  0  0  0  0  0  0  0  0  0
   10.8003   14.9349   19.8683 H   0  0  0  0  0  0  0  0  0  0  0  0
   12.2518   13.9837   20.1281 H   0  0  0  0  0  0  0  0  0  0  0  0
   12.3294   15.7551   20.2542 H   0  0  0  0  0  0  0  0  0  0  0  0
    9.6015   16.0139   21.7994 H   0  0  0  0  0  0  0  0  0  0  0  0
   10.2382   15.8784   23.4528 H   0  0  0  0  0  0  0  0  0  0  0  0
   11.0484   16.9017   22.2450 H   0  0  0  0  0  0  0  0  0  0  0  0
    5.5802   11.4933   29.4581 H   0  0  0  0  0  0  0  0  0  0  0  0
    5.6766    9.8180   29.0739 H   0  0  0  0  0  0  0  0  0  0  0  0
  1  2  1  0  0  0  0
  1  4  2  0  0  0  0
  2  6  2  0  0  0  0
  3  5  2  0  0  0  0
  3  6  1  0  0  0  0
  4  5  1  0  0  0  0
  4 14  1  0  0  0  0
  5 19  1  0  0  0  0
  6 21  1  0  0  0  0
  7 14  1  0  0  0  0
  7 16  2  0  0  0  0
  7 20  1  0  0  0  0
  8  9  1  0  0  0  0
  8 14  1  0  0  0  0
  9 19  1  0  0  0  0
 10 13  1  0  0  0  0
 11 13  1  0  0  0  0
 12 13  1  0  0  0  0
 13 20  1  0  0  0  0
 15 21  1  0  0  0  0
 17 21  2  0  0  0  0
 18 21  2  0  0  0  0
  1 22  1  0  0  0  0
  2 23  1  0  0  0  0
  3 24  1  0  0  0  0
  8 25  1  0  0  0  0
  8 26  1  0  0  0  0
  9 27  1  0  0  0  0
  9 28  1  0  0  0  0
 10 29  1  0  0  0  0
 10 30  1  0  0  0  0
 10 31  1  0  0  0  0
 11 32  1  0  0  0  0
 11 33  1  0  0  0  0
 11 34  1  0  0  0  0
 12 35  1  0  0  0  0
 12 36  1  0  0  0  0
 12 37  1  0  0  0  0
 15 38  1  0  0  0  0
 15 39  1  0  0  0  0
M  END
> <id>
EN300-27733431

> <smiles>
CC(C)(C)OC(=O)N1CCOC=2C=C(C=CC12)S(=O)(=O)N

> <IUPAC Name>
tert-butyl 7-sulfamoyl-3,4-dihydro-2H-1,4-benzoxazine-4-carboxylate

> <CAS>
2580234-91-7

> <URL>
https://www.enaminestore.com/catalog/EN300-27733431

> <ROCS_ShapeQuery>
A71EV2A-x0451_0A_A71EV2A-x0310_0A_A71EV2A-x0416_0A_peptide

> <ROCS_TanimotoCombo>
0.527 

> <ROCS_ShapeTanimoto>
0.350 

> <ROCS_ColorTanimoto>
0.177 

> <ROCS_RefTversky>
0.306 

> <ROCS_RefColorTversky>
0.196 

> <ROCS_RefTverskyCombo>
0.502 

> <ROCS_FitTversky>
1.709 

> <ROCS_FitColorTversky>
0.651 

> <ROCS_FitTverskyCombo>
2.360 

> <ROCS_ColorScore>
-5.981

> <ROCS_Overlap>
2121.798

> <ROCS_Rank>
114                 

$$$$
untitled-dbase-86950_78
  -OEChem-11132313473D

 37 38  0     0  0  0  0  0  0999 V2000
    6.1041   11.6314   26.0415 C   0  0  0  0  0  0  0  0  0  0  0  0
    6.6432   10.5362   25.3786 C   0  0  0  0  0  0  0  0  0  0  0  0
    7.8748   13.0214   25.1478 C   0  0  0  0  0  0  0  0  0  0  0  0
    6.7213   12.8709   25.9280 C   0  0  0  0  0  0  0  0  0  0  0  0
    8.4423   11.9313   24.4703 C   0  0  0  0  0  0  0  0  0  0  0  0
    7.8066   10.6812   24.6126 C   0  0  0  0  0  0  0  0  0  0  0  0
    6.1559   14.0233   26.6132 C   0  0  0  0  0  0  0  0  0  0  0  0
   10.3541   13.2154   23.4461 C   0  0  0  0  0  0  0  0  0  0  0  0
    9.9234   10.8256   22.8554 C   0  0  0  0  0  0  0  0  0  0  0  0
    9.6241    9.5829   23.6644 C   0  0  0  0  0  0  0  0  0  0  0  0
   12.8555   14.4898   22.8490 C   0  0  0  0  0  0  0  0  0  0  0  0
   12.1329   14.3698   20.4463 C   0  0  0  0  0  0  0  0  0  0  0  0
   10.7914   15.7139   22.0901 C   0  0  0  0  0  0  0  0  0  0  0  0
   11.6617   14.4732   21.8953 C   0  0  0  0  0  0  0  0  0  0  0  0
    9.5981   12.0394   23.6185 N   0  0  0  0  0  0  0  0  0  0  0  0
    5.0223   14.4784   26.4315 O   0  0  0  0  0  0  0  0  0  0  0  0
   10.5629   14.0801   24.2921 O   0  0  0  0  0  0  0  0  0  0  0  0
    8.2452    9.5277   24.0097 O   0  0  0  0  0  0  0  0  0  0  0  0
    7.0226   14.5735   27.5068 O   0  0  0  0  0  0  0  0  0  0  0  0
   10.8703   13.3122   22.1757 O   0  0  0  0  0  0  0  0  0  0  0  0
    5.2052   11.5079   26.6392 H   0  0  0  0  0  0  0  0  0  0  0  0
    6.1607    9.5661   25.4673 H   0  0  0  0  0  0  0  0  0  0  0  0
    8.2849   14.0217   25.0765 H   0  0  0  0  0  0  0  0  0  0  0  0
   10.9783   10.8181   22.5650 H   0  0  0  0  0  0  0  0  0  0  0  0
    9.3171   10.8567   21.9419 H   0  0  0  0  0  0  0  0  0  0  0  0
    9.8485    8.6920   23.0685 H   0  0  0  0  0  0  0  0  0  0  0  0
   10.2378    9.5276   24.5726 H   0  0  0  0  0  0  0  0  0  0  0  0
   12.5215   14.5639   23.8901 H   0  0  0  0  0  0  0  0  0  0  0  0
   13.4684   13.5887   22.7438 H   0  0  0  0  0  0  0  0  0  0  0  0
   13.4907   15.3639   22.6652 H   0  0  0  0  0  0  0  0  0  0  0  0
   11.2796   14.3576   19.7586 H   0  0  0  0  0  0  0  0  0  0  0  0
   12.6777   13.4337   20.2789 H   0  0  0  0  0  0  0  0  0  0  0  0
   12.7862   15.2048   20.1734 H   0  0  0  0  0  0  0  0  0  0  0  0
    9.9351   15.7022   21.4062 H   0  0  0  0  0  0  0  0  0  0  0  0
   10.4139   15.7848   23.1154 H   0  0  0  0  0  0  0  0  0  0  0  0
   11.3560   16.6255   21.8631 H   0  0  0  0  0  0  0  0  0  0  0  0
    6.6503   15.3510   27.9750 H   0  0  0  0  0  0  0  0  0  0  0  0
  1  2  1  0  0  0  0
  1  4  2  0  0  0  0
  2  6  2  0  0  0  0
  3  4  1  0  0  0  0
  3  5  2  0  0  0  0
  4  7  1  0  0  0  0
  5  6  1  0  0  0  0
  5 15  1  0  0  0  0
  6 18  1  0  0  0  0
  7 16  2  0  0  0  0
  7 19  1  0  0  0  0
  8 15  1  0  0  0  0
  8 17  2  0  0  0  0
  8 20  1  0  0  0  0
  9 10  1  0  0  0  0
  9 15  1  0  0  0  0
 10 18  1  0  0  0  0
 11 14  1  0  0  0  0
 12 14  1  0  0  0  0
 13 14  1  0  0  0  0
 14 20  1  0  0  0  0
  1 21  1  0  0  0  0
  2 22  1  0  0  0  0
  3 23  1  0  0  0  0
  9 24  1  0  0  0  0
  9 25  1  0  0  0  0
 10 26  1  0  0  0  0
 10 27  1  0  0  0  0
 11 28  1  0  0  0  0
 11 29  1  0  0  0  0
 11 30  1  0  0  0  0
 12 31  1  0  0  0  0
 12 32  1  0  0  0  0
 12 33  1  0  0  0  0
 13 34  1  0  0  0  0
 13 35  1  0  0  0  0
 13 36  1  0  0  0  0
 19 37  1  0  0  0  0
M  END
> <id>
EN300-6511174

> <smiles>
CC(C)(C)OC(=O)N1CCOC=2C=CC(=CC12)C(=O)O

> <MDLNUMBER>
MFCD24387087

> <IUPAC Name>
4-[(tert-butoxy)carbonyl]-3,4-dihydro-2H-1,4-benzoxazine-6-carboxylic acid

> <CAS>
1782814-10-1

> <URL>
https://www.enaminestore.com/catalog/EN300-6511174

> <ROCS_ShapeQuery>
A71EV2A-x0451_0A_A71EV2A-x0310_0A_A71EV2A-x0416_0A_peptide

> <ROCS_TanimotoCombo>
0.527 

> <ROCS_ShapeTanimoto>
0.350 

> <ROCS_ColorTanimoto>
0.178 

> <ROCS_RefTversky>
0.305 

> <ROCS_RefColorTversky>
0.196 

> <ROCS_RefTverskyCombo>
0.501 

> <ROCS_FitTversky>
1.728 

> <ROCS_FitColorTversky>
0.652 

> <ROCS_FitTverskyCombo>
2.380 

> <ROCS_ColorScore>
-5.996

> <ROCS_Overlap>
2114.568

> <ROCS_Rank>
115                 

$$$$
untitled-dbase-104036_50
  -OEChem-11132313473D

 38 39  0     0  0  0  0  0  0999 V2000
    7.9938   10.9704   24.6804 C   0  0  0  0  0  0  0  0  0  0  0  0
    6.1762   11.0743   26.0780 C   0  0  0  0  0  0  0  0  0  0  0  0
    6.3204   12.4326   26.1516 C   0  0  0  0  0  0  0  0  0  0  0  0
    8.1526   12.3563   24.7467 C   0  0  0  0  0  0  0  0  0  0  0  0
    8.9060   10.2928   23.8942 C   0  0  0  0  0  0  0  0  0  0  0  0
    9.9641   12.2045   23.3469 C   0  0  0  0  0  0  0  0  0  0  0  0
   11.2718   14.2261   22.6299 C   0  0  0  0  0  0  0  0  0  0  0  0
    5.0942   10.3560   26.8068 C   0  0  0  0  0  0  0  0  0  0  0  0
    5.3999   13.2744   26.9660 C   0  0  0  0  0  0  0  0  0  0  0  0
   10.6982   15.7489   20.6937 C   0  0  0  0  0  0  0  0  0  0  0  0
   13.0929   16.4912   20.8465 C   0  0  0  0  0  0  0  0  0  0  0  0
   12.4867   14.5061   19.4323 C   0  0  0  0  0  0  0  0  0  0  0  0
   12.1568   15.2937   20.6995 C   0  0  0  0  0  0  0  0  0  0  0  0
    7.0121   10.3267   25.3407 N   0  0  0  0  0  0  0  0  0  0  0  0
    7.3029   13.0747   25.4906 N   0  0  0  0  0  0  0  0  0  0  0  0
    9.1368   12.9724   24.0807 N   0  0  0  0  0  0  0  0  0  0  0  0
    9.9075   10.8749   23.2104 N   0  0  0  0  0  0  0  0  0  0  0  0
   10.9984   12.8722   22.6524 N   0  0  0  0  0  0  0  0  0  0  0  0
   10.6705   15.1222   23.2095 O   0  0  0  0  0  0  0  0  0  0  0  0
    8.8133    8.9285   23.7813 O   0  0  0  0  0  0  0  0  0  0  0  0
   12.3634   14.4448   21.8291 O   0  0  0  0  0  0  0  0  0  0  0  0
    4.1948   10.2806   26.1822 H   0  0  0  0  0  0  0  0  0  0  0  0
    5.4062    9.3410   27.0883 H   0  0  0  0  0  0  0  0  0  0  0  0
    4.8265   10.8738   27.7381 H   0  0  0  0  0  0  0  0  0  0  0  0
    5.7822   13.3814   27.9892 H   0  0  0  0  0  0  0  0  0  0  0  0
    5.2854   14.2770   26.5323 H   0  0  0  0  0  0  0  0  0  0  0  0
    4.3945   12.8348   27.0158 H   0  0  0  0  0  0  0  0  0  0  0  0
   10.0230   14.8922   20.5883 H   0  0  0  0  0  0  0  0  0  0  0  0
   10.4392   16.2847   21.6127 H   0  0  0  0  0  0  0  0  0  0  0  0
   10.4974   16.4074   19.8409 H   0  0  0  0  0  0  0  0  0  0  0  0
   14.1405   16.1692   20.8511 H   0  0  0  0  0  0  0  0  0  0  0  0
   12.9235   17.0043   21.8001 H   0  0  0  0  0  0  0  0  0  0  0  0
   12.9557   17.2133   20.0351 H   0  0  0  0  0  0  0  0  0  0  0  0
   13.5329   14.1795   19.4362 H   0  0  0  0  0  0  0  0  0  0  0  0
   11.8491   13.6221   19.3293 H   0  0  0  0  0  0  0  0  0  0  0  0
   12.3614   15.1316   18.5411 H   0  0  0  0  0  0  0  0  0  0  0  0
   11.6177   12.2831   22.1011 H   0  0  0  0  0  0  0  0  0  0  0  0
    8.0675    8.6085   24.3066 H   0  0  0  0  0  0  0  0  0  0  0  0
  1  4  1  0  0  0  0
  1  5  2  0  0  0  0
  1 14  1  0  0  0  0
  2  3  1  0  0  0  0
  2  8  1  0  0  0  0
  2 14  2  0  0  0  0
  3  9  1  0  0  0  0
  3 15  2  0  0  0  0
  4 15  1  0  0  0  0
  4 16  2  0  0  0  0
  5 17  1  0  0  0  0
  5 20  1  0  0  0  0
  6 16  1  0  0  0  0
  6 17  2  0  0  0  0
  6 18  1  0  0  0  0
  7 18  1  0  0  0  0
  7 19  2  0  0  0  0
  7 21  1  0  0  0  0
 10 13  1  0  0  0  0
 11 13  1  0  0  0  0
 12 13  1  0  0  0  0
 13 21  1  0  0  0  0
  8 22  1  0  0  0  0
  8 23  1  0  0  0  0
  8 24  1  0  0  0  0
  9 25  1  0  0  0  0
  9 26  1  0  0  0  0
  9 27  1  0  0  0  0
 10 28  1  0  0  0  0
 10 29  1  0  0  0  0
 10 30  1  0  0  0  0
 11 31  1  0  0  0  0
 11 32  1  0  0  0  0
 11 33  1  0  0  0  0
 12 34  1  0  0  0  0
 12 35  1  0  0  0  0
 12 36  1  0  0  0  0
 18 37  1  0  0  0  0
 20 38  1  0  0  0  0
M  END
> <id>
EN300-26665358

> <smiles>
CC=1N=C2N=C(NC(=O)OC(C)(C)C)N=C(O)C2=NC1C

> <IUPAC Name>
tert-butyl N-(4-hydroxy-6,7-dimethylpteridin-2-yl)carbamate

> <CAS>
2413883-53-9

> <URL>
https://www.enaminestore.com/catalog/EN300-26665358

> <ROCS_ShapeQuery>
A71EV2A-x0451_0A_A71EV2A-x0310_0A_A71EV2A-x0416_0A_peptide

> <ROCS_TanimotoCombo>
0.527 

> <ROCS_ShapeTanimoto>
0.369 

> <ROCS_ColorTanimoto>
0.158 

> <ROCS_RefTversky>
0.319 

> <ROCS_RefColorTversky>
0.190 

> <ROCS_RefTverskyCombo>
0.510 

> <ROCS_FitTversky>
1.727 

> <ROCS_FitColorTversky>
0.484 

> <ROCS_FitTverskyCombo>
2.211 

> <ROCS_ColorScore>
-5.841

> <ROCS_Overlap>
2217.709

> <ROCS_Rank>
116                 

$$$$
untitled-dbase-117894_13
  -OEChem-11132313473D

 37 38  0     0  0  0  0  0  0999 V2000
    6.6086   12.8146   25.8815 C   0  0  0  0  0  0  0  0  0  0  0  0
    7.7831   12.9891   25.1386 C   0  0  0  0  0  0  0  0  0  0  0  0
    6.5841   10.4835   25.3123 C   0  0  0  0  0  0  0  0  0  0  0  0
    6.0077   11.5648   25.9665 C   0  0  0  0  0  0  0  0  0  0  0  0
    8.3883   11.9135   24.4708 C   0  0  0  0  0  0  0  0  0  0  0  0
    7.7682   10.6525   24.5838 C   0  0  0  0  0  0  0  0  0  0  0  0
    4.7838   11.3910   26.7314 C   0  0  0  0  0  0  0  0  0  0  0  0
   10.3104   13.2351   23.5161 C   0  0  0  0  0  0  0  0  0  0  0  0
    9.9357   10.8439   22.8942 C   0  0  0  0  0  0  0  0  0  0  0  0
    9.6310    9.5901   23.6840 C   0  0  0  0  0  0  0  0  0  0  0  0
   12.8087   14.5529   23.0064 C   0  0  0  0  0  0  0  0  0  0  0  0
   12.1625   14.4412   20.5817 C   0  0  0  0  0  0  0  0  0  0  0  0
   10.7501   15.7510   22.1933 C   0  0  0  0  0  0  0  0  0  0  0  0
   11.6453   14.5255   22.0161 C   0  0  0  0  0  0  0  0  0  0  0  0
    9.5680   12.0463   23.6560 N   0  0  0  0  0  0  0  0  0  0  0  0
    4.1902   12.2835   27.3463 O   0  0  0  0  0  0  0  0  0  0  0  0
   10.4794   14.0961   24.3747 O   0  0  0  0  0  0  0  0  0  0  0  0
    8.2432    9.5109   23.9860 O   0  0  0  0  0  0  0  0  0  0  0  0
    4.3322   10.1068   26.7075 O   0  0  0  0  0  0  0  0  0  0  0  0
   10.8639   13.3502   22.2631 O   0  0  0  0  0  0  0  0  0  0  0  0
    6.1673   13.6736   26.3819 H   0  0  0  0  0  0  0  0  0  0  0  0
    8.1702   13.9996   25.0958 H   0  0  0  0  0  0  0  0  0  0  0  0
    6.1222    9.5001   25.3720 H   0  0  0  0  0  0  0  0  0  0  0  0
   10.9991   10.8553   22.6367 H   0  0  0  0  0  0  0  0  0  0  0  0
    9.3576   10.8725   21.9625 H   0  0  0  0  0  0  0  0  0  0  0  0
    9.8879    8.7076   23.0887 H   0  0  0  0  0  0  0  0  0  0  0  0
   10.2173    9.5371   24.6105 H   0  0  0  0  0  0  0  0  0  0  0  0
   12.4416   14.6134   24.0372 H   0  0  0  0  0  0  0  0  0  0  0  0
   13.4386   13.6622   22.9134 H   0  0  0  0  0  0  0  0  0  0  0  0
   13.4355   15.4381   22.8490 H   0  0  0  0  0  0  0  0  0  0  0  0
   11.3312   14.4213   19.8678 H   0  0  0  0  0  0  0  0  0  0  0  0
   12.7269   13.5149   20.4241 H   0  0  0  0  0  0  0  0  0  0  0  0
   12.8108   15.2883   20.3355 H   0  0  0  0  0  0  0  0  0  0  0  0
    9.9155   15.7317   21.4831 H   0  0  0  0  0  0  0  0  0  0  0  0
   10.3400   15.8078   23.2069 H   0  0  0  0  0  0  0  0  0  0  0  0
   11.3071   16.6730   21.9909 H   0  0  0  0  0  0  0  0  0  0  0  0
    3.5058    9.9792   27.2204 H   0  0  0  0  0  0  0  0  0  0  0  0
  1  2  1  0  0  0  0
  1  4  2  0  0  0  0
  2  5  2  0  0  0  0
  3  4  1  0  0  0  0
  3  6  2  0  0  0  0
  4  7  1  0  0  0  0
  5  6  1  0  0  0  0
  5 15  1  0  0  0  0
  6 18  1  0  0  0  0
  7 16  2  0  0  0  0
  7 19  1  0  0  0  0
  8 15  1  0  0  0  0
  8 17  2  0  0  0  0
  8 20  1  0  0  0  0
  9 10  1  0  0  0  0
  9 15  1  0  0  0  0
 10 18  1  0  0  0  0
 11 14  1  0  0  0  0
 12 14  1  0  0  0  0
 13 14  1  0  0  0  0
 14 20  1  0  0  0  0
  1 21  1  0  0  0  0
  2 22  1  0  0  0  0
  3 23  1  0  0  0  0
  9 24  1  0  0  0  0
  9 25  1  0  0  0  0
 10 26  1  0  0  0  0
 10 27  1  0  0  0  0
 11 28  1  0  0  0  0
 11 29  1  0  0  0  0
 11 30  1  0  0  0  0
 12 31  1  0  0  0  0
 12 32  1  0  0  0  0
 12 33  1  0  0  0  0
 13 34  1  0  0  0  0
 13 35  1  0  0  0  0
 13 36  1  0  0  0  0
 19 37  1  0  0  0  0
M  END
> <id>
EN300-1726125

> <smiles>
CC(C)(C)OC(=O)N1CCOC=2C=C(C=CC12)C(=O)O

> <MDLNUMBER>
MFCD31665590

> <IUPAC Name>
4-[(tert-butoxy)carbonyl]-3,4-dihydro-2H-1,4-benzoxazine-7-carboxylic acid

> <CAS>
2188180-64-3

> <Purity>
95

> <URL>
https://www.enaminestore.com/catalog/EN300-1726125

> <ROCS_ShapeQuery>
A71EV2A-x0451_0A_A71EV2A-x0310_0A_A71EV2A-x0416_0A_peptide

> <ROCS_TanimotoCombo>
0.527 

> <ROCS_ShapeTanimoto>
0.353 

> <ROCS_ColorTanimoto>
0.174 

> <ROCS_RefTversky>
0.307 

> <ROCS_RefColorTversky>
0.193 

> <ROCS_RefTverskyCombo>
0.500 

> <ROCS_FitTversky>
1.741 

> <ROCS_FitColorTversky>
0.640 

> <ROCS_FitTverskyCombo>
2.381 

> <ROCS_ColorScore>
-5.891

> <ROCS_Overlap>
2130.225

> <ROCS_Rank>
117                 

$$$$
untitled-dbase-116183_26
  -OEChem-11132313473D

 31 32  0     0  0  0  0  0  0999 V2000
    9.2231   10.0479   23.2820 C   0  0  0  0  0  0  0  0  0  0  0  0
    9.3658   11.4359   23.4116 C   0  0  0  0  0  0  0  0  0  0  0  0
    8.4220   11.8020   24.3441 C   0  0  0  0  0  0  0  0  0  0  0  0
    6.7418   10.6514   25.6633 C   0  0  0  0  0  0  0  0  0  0  0  0
    7.1240   12.9981   25.7536 C   0  0  0  0  0  0  0  0  0  0  0  0
    6.3649   11.8066   26.2233 C   0  0  0  0  0  0  0  0  0  0  0  0
   10.8222   13.4724   23.2050 C   0  0  0  0  0  0  0  0  0  0  0  0
   11.3463   16.2683   22.9089 C   0  0  0  0  0  0  0  0  0  0  0  0
   12.3557   15.6561   20.6918 C   0  0  0  0  0  0  0  0  0  0  0  0
    9.9196   15.2197   21.1201 C   0  0  0  0  0  0  0  0  0  0  0  0
   11.3135   15.2810   21.7432 C   0  0  0  0  0  0  0  0  0  0  0  0
    8.2666    9.5494   24.0644 N   0  0  0  0  0  0  0  0  0  0  0  0
    8.0850   13.0097   24.8790 N   0  0  0  0  0  0  0  0  0  0  0  0
    7.7680   10.6289   24.7220 N   0  0  0  0  0  0  0  0  0  0  0  0
   10.2704   12.2928   22.7442 N   0  0  0  0  0  0  0  0  0  0  0  0
   10.6369   14.0141   24.2879 O   0  0  0  0  0  0  0  0  0  0  0  0
   11.6483   13.9835   22.2370 O   0  0  0  0  0  0  0  0  0  0  0  0
    5.0264   12.0051   27.4791 Br  0  0  0  0  0  0  0  0  0  0  0  0
    9.7773    9.3703   22.6480 H   0  0  0  0  0  0  0  0  0  0  0  0
    6.2823    9.6995   25.9039 H   0  0  0  0  0  0  0  0  0  0  0  0
    6.8272   13.9606   26.2037 H   0  0  0  0  0  0  0  0  0  0  0  0
   10.5996   16.0024   23.6658 H   0  0  0  0  0  0  0  0  0  0  0  0
   12.3311   16.2958   23.3866 H   0  0  0  0  0  0  0  0  0  0  0  0
   11.0971   17.2807   22.5711 H   0  0  0  0  0  0  0  0  0  0  0  0
   12.3357   14.9504   19.8535 H   0  0  0  0  0  0  0  0  0  0  0  0
   13.3673   15.6090   21.1109 H   0  0  0  0  0  0  0  0  0  0  0  0
   12.1893   16.6647   20.2999 H   0  0  0  0  0  0  0  0  0  0  0  0
    9.8959   14.5116   20.2839 H   0  0  0  0  0  0  0  0  0  0  0  0
    9.1639   14.9160   21.8517 H   0  0  0  0  0  0  0  0  0  0  0  0
    9.6338   16.1943   20.7083 H   0  0  0  0  0  0  0  0  0  0  0  0
   10.5494   12.0054   21.8092 H   0  0  0  0  0  0  0  0  0  0  0  0
  1  2  1  0  0  0  0
  1 12  2  0  0  0  0
  2  3  2  0  0  0  0
  2 15  1  0  0  0  0
  3 13  1  0  0  0  0
  3 14  1  0  0  0  0
  4  6  2  0  0  0  0
  4 14  1  0  0  0  0
  5  6  1  0  0  0  0
  5 13  2  0  0  0  0
  6 18  1  0  0  0  0
  7 15  1  0  0  0  0
  7 16  2  0  0  0  0
  7 17  1  0  0  0  0
  8 11  1  0  0  0  0
  9 11  1  0  0  0  0
 10 11  1  0  0  0  0
 11 17  1  0  0  0  0
 12 14  1  0  0  0  0
  1 19  1  0  0  0  0
  4 20  1  0  0  0  0
  5 21  1  0  0  0  0
  8 22  1  0  0  0  0
  8 23  1  0  0  0  0
  8 24  1  0  0  0  0
  9 25  1  0  0  0  0
  9 26  1  0  0  0  0
  9 27  1  0  0  0  0
 10 28  1  0  0  0  0
 10 29  1  0  0  0  0
 10 30  1  0  0  0  0
 15 31  1  0  0  0  0
M  END
> <id>
EN300-7544721

> <smiles>
CC(C)(C)OC(=O)NC=1C=NN2C=C(Br)C=NC12

> <MDLNUMBER>
MFCD32668387

> <IUPAC Name>
tert-butyl N-{6-bromopyrazolo[1,5-a]pyrimidin-3-yl}carbamate

> <CAS>
2416233-73-1

> <Purity>
95

> <URL>
https://www.enaminestore.com/catalog/EN300-7544721

> <ROCS_ShapeQuery>
A71EV2A-x0451_0A_A71EV2A-x0310_0A_A71EV2A-x0416_0A_peptide

> <ROCS_TanimotoCombo>
0.527 

> <ROCS_ShapeTanimoto>
0.346 

> <ROCS_ColorTanimoto>
0.181 

> <ROCS_RefTversky>
0.299 

> <ROCS_RefColorTversky>
0.200 

> <ROCS_RefTverskyCombo>
0.499 

> <ROCS_FitTversky>
1.828 

> <ROCS_FitColorTversky>
0.662 

> <ROCS_FitTverskyCombo>
2.491 

> <ROCS_ColorScore>
-6.099

> <ROCS_Overlap>
2073.276

> <ROCS_Rank>
118                 

$$$$
untitled-dbase-163683_740
  -OEChem-11132313473D

 52 54  0     1  0  0  0  0  0999 V2000
    6.0620   10.3215   26.2503 C   0  0  0  0  0  0  0  0  0  0  0  0
    6.8770    9.6932   25.3082 C   0  0  0  0  0  0  0  0  0  0  0  0
    7.0296   12.4497   25.6604 C   0  0  0  0  0  0  0  0  0  0  0  0
    6.1374   11.7003   26.4249 C   0  0  0  0  0  0  0  0  0  0  0  0
    7.7812   10.4361   24.5316 C   0  0  0  0  0  0  0  0  0  0  0  0
    7.8557   11.8215   24.7226 C   0  0  0  0  0  0  0  0  0  0  0  0
    5.2754   12.3601   27.3929 C   0  0  0  0  0  0  0  0  0  0  0  0
   11.6692   15.0917   22.4710 C   0  0  0  0  0  0  0  0  0  0  0  0
   10.9850   11.8688   24.1576 C   0  0  0  0  0  0  0  0  0  0  0  0
    9.2585   10.7636   22.5533 C   0  0  0  0  0  0  0  0  0  0  0  0
   11.5765   13.2723   24.2172 C   0  0  0  0  0  0  0  0  0  0  0  0
   10.2198   13.0735   22.2398 C   0  0  0  0  0  0  0  0  0  0  0  0
    8.6394    9.7374   23.5077 C   0  0  1  0  0  0  0  0  0  0  0  0
    9.7412   12.0310   23.2651 C   0  0  2  0  0  0  0  0  0  0  0  0
   14.0438   14.7327   21.4247 C   0  0  0  0  0  0  0  0  0  0  0  0
   12.9750   14.6020   19.1554 C   0  0  0  0  0  0  0  0  0  0  0  0
   13.1931   16.8223   20.3090 C   0  0  0  0  0  0  0  0  0  0  0  0
    5.2635   13.6969   29.3693 C   0  0  0  0  0  0  0  0  0  0  0  0
   12.9777   15.3219   20.5022 C   0  0  0  0  0  0  0  0  0  0  0  0
   11.1918   13.8862   22.9568 N   0  0  0  0  0  0  0  0  0  0  0  0
    9.6482    8.8854   24.1404 N   0  0  0  0  0  0  0  0  0  0  0  0
    4.0377   12.3405   27.3569 O   0  0  0  0  0  0  0  0  0  0  0  0
   12.0310   16.0273   23.1809 O   0  0  0  0  0  0  0  0  0  0  0  0
    8.6842   12.6523   24.0171 O   0  0  0  0  0  0  0  0  0  0  0  0
    6.0019   13.0078   28.3546 O   0  0  0  0  0  0  0  0  0  0  0  0
   11.6934   15.1193   21.1022 O   0  0  0  0  0  0  0  0  0  0  0  0
    5.3726    9.7252   26.8412 H   0  0  0  0  0  0  0  0  0  0  0  0
    6.8006    8.6162   25.1886 H   0  0  0  0  0  0  0  0  0  0  0  0
    7.0760   13.5302   25.7829 H   0  0  0  0  0  0  0  0  0  0  0  0
   11.7118   11.1858   23.6992 H   0  0  0  0  0  0  0  0  0  0  0  0
   10.7417   11.5028   25.1614 H   0  0  0  0  0  0  0  0  0  0  0  0
   10.1267   10.3081   22.0327 H   0  0  0  0  0  0  0  0  0  0  0  0
    8.5332   11.0177   21.7546 H   0  0  0  0  0  0  0  0  0  0  0  0
   11.1335   13.8641   25.0256 H   0  0  0  0  0  0  0  0  0  0  0  0
   12.6640   13.2753   24.3358 H   0  0  0  0  0  0  0  0  0  0  0  0
   10.7464   12.6113   21.3959 H   0  0  0  0  0  0  0  0  0  0  0  0
    9.4205   13.7168   21.8554 H   0  0  0  0  0  0  0  0  0  0  0  0
    7.9565    9.0741   22.9369 H   0  0  0  0  0  0  0  0  0  0  0  0
   14.0489   15.2468   22.3926 H   0  0  0  0  0  0  0  0  0  0  0  0
   13.8803   13.6643   21.5994 H   0  0  0  0  0  0  0  0  0  0  0  0
   15.0452   14.8646   20.9994 H   0  0  0  0  0  0  0  0  0  0  0  0
   12.2116   15.0215   18.4902 H   0  0  0  0  0  0  0  0  0  0  0  0
   12.7269   13.5417   19.2801 H   0  0  0  0  0  0  0  0  0  0  0  0
   13.9470   14.6743   18.6567 H   0  0  0  0  0  0  0  0  0  0  0  0
   12.4286   17.2452   19.6473 H   0  0  0  0  0  0  0  0  0  0  0  0
   13.1613   17.3603   21.2620 H   0  0  0  0  0  0  0  0  0  0  0  0
   14.1593   17.0187   19.8303 H   0  0  0  0  0  0  0  0  0  0  0  0
    5.9575   14.1680   30.0696 H   0  0  0  0  0  0  0  0  0  0  0  0
    4.6205   12.9886   29.8978 H   0  0  0  0  0  0  0  0  0  0  0  0
    4.6459   14.4659   28.8992 H   0  0  0  0  0  0  0  0  0  0  0  0
    9.1794    8.2510   24.7399 H   0  0  0  0  0  0  0  0  0  0  0  0
   10.1331    8.4034   23.4232 H   0  0  0  0  0  0  0  0  0  0  0  0
  1  2  1  0  0  0  0
  1  4  2  0  0  0  0
  2  5  2  0  0  0  0
  3  4  1  0  0  0  0
  3  6  2  0  0  0  0
  4  7  1  0  0  0  0
  5  6  1  0  0  0  0
  5 13  1  0  0  0  0
  6 24  1  0  0  0  0
  7 22  2  0  0  0  0
  7 25  1  0  0  0  0
  8 20  1  0  0  0  0
  8 23  2  0  0  0  0
  8 26  1  0  0  0  0
  9 11  1  0  0  0  0
  9 14  1  0  0  0  0
 10 13  1  0  0  0  0
 10 14  1  0  0  0  0
 11 20  1  0  0  0  0
 12 14  1  0  0  0  0
 12 20  1  0  0  0  0
 13 21  1  0  0  0  0
 14 24  1  0  0  0  0
 15 19  1  0  0  0  0
 16 19  1  0  0  0  0
 17 19  1  0  0  0  0
 18 25  1  0  0  0  0
 19 26  1  0  0  0  0
  1 27  1  0  0  0  0
  2 28  1  0  0  0  0
  3 29  1  0  0  0  0
  9 30  1  0  0  0  0
  9 31  1  0  0  0  0
 10 32  1  0  0  0  0
 10 33  1  0  0  0  0
 11 34  1  0  0  0  0
 11 35  1  0  0  0  0
 12 36  1  0  0  0  0
 12 37  1  0  0  0  0
 13 38  1  0  0  0  0
 15 39  1  0  0  0  0
 15 40  1  0  0  0  0
 15 41  1  0  0  0  0
 16 42  1  0  0  0  0
 16 43  1  0  0  0  0
 16 44  1  0  0  0  0
 17 45  1  0  0  0  0
 17 46  1  0  0  0  0
 17 47  1  0  0  0  0
 18 48  1  0  0  0  0
 18 49  1  0  0  0  0
 18 50  1  0  0  0  0
 21 51  1  0  0  0  0
 21 52  1  0  0  0  0
M  END
> <id>
EN300-1129078

> <smiles>
COC(=O)C=1C=CC=2C(N)CC3(CCN(C3)C(=O)OC(C)(C)C)OC2C1

> <IUPAC Name>
1'-tert-butyl 7-methyl 4-amino-3,4-dihydrospiro[1-benzopyran-2,3'-pyrrolidine]-1',7-dicarboxylate

> <CAS>
2138012-03-8

> <URL>
https://www.enaminestore.com/catalog/EN300-1129078

> <ROCS_ShapeQuery>
A71EV2A-x0451_0A_A71EV2A-x0310_0A_A71EV2A-x0416_0A_peptide

> <ROCS_TanimotoCombo>
0.527 

> <ROCS_ShapeTanimoto>
0.393 

> <ROCS_ColorTanimoto>
0.134 

> <ROCS_RefTversky>
0.342 

> <ROCS_RefColorTversky>
0.157 

> <ROCS_RefTverskyCombo>
0.500 

> <ROCS_FitTversky>
1.605 

> <ROCS_FitColorTversky>
0.474 

> <ROCS_FitTverskyCombo>
2.079 

> <ROCS_ColorScore>
-4.812

> <ROCS_Overlap>
2380.703

> <ROCS_Rank>
119                 

$$$$
untitled-dbase-170239_19
  -OEChem-11132313473D

 34 35  0     0  0  0  0  0  0999 V2000
    9.7386    8.0736   23.2668 C   0  0  0  0  0  0  0  0  0  0  0  0
    8.6256    7.6367   23.9763 C   0  0  0  0  0  0  0  0  0  0  0  0
    9.9731    9.4382   23.1297 C   0  0  0  0  0  0  0  0  0  0  0  0
    7.7497    8.5646   24.5473 C   0  0  0  0  0  0  0  0  0  0  0  0
    9.0877   10.3650   23.7069 C   0  0  0  0  0  0  0  0  0  0  0  0
    7.9601    9.9360   24.4260 C   0  0  0  0  0  0  0  0  0  0  0  0
    9.2645   11.7421   23.6073 C   0  0  0  0  0  0  0  0  0  0  0  0
    7.3882   12.1218   24.8148 C   0  0  0  0  0  0  0  0  0  0  0  0
   11.0531   13.4386   23.1239 C   0  0  0  0  0  0  0  0  0  0  0  0
   12.0636   15.9495   22.2000 C   0  0  0  0  0  0  0  0  0  0  0  0
   13.2217   14.6166   20.4136 C   0  0  0  0  0  0  0  0  0  0  0  0
   10.7132   14.6270   20.5380 C   0  0  0  0  0  0  0  0  0  0  0  0
   12.0112   14.6862   21.3420 C   0  0  0  0  0  0  0  0  0  0  0  0
    7.1069   10.8137   24.9823 N   0  0  0  0  0  0  0  0  0  0  0  0
    8.4303   12.6480   24.1515 N   0  0  0  0  0  0  0  0  0  0  0  0
   10.3680   12.2525   22.9048 N   0  0  0  0  0  0  0  0  0  0  0  0
   10.8264   14.2818   23.9830 O   0  0  0  0  0  0  0  0  0  0  0  0
    6.5105   13.0143   25.3855 O   0  0  0  0  0  0  0  0  0  0  0  0
   12.0645   13.5455   22.2067 O   0  0  0  0  0  0  0  0  0  0  0  0
   10.4201    7.3544   22.8225 H   0  0  0  0  0  0  0  0  0  0  0  0
    8.4355    6.5731   24.0877 H   0  0  0  0  0  0  0  0  0  0  0  0
   10.8495    9.7555   22.5708 H   0  0  0  0  0  0  0  0  0  0  0  0
    6.8859    8.1967   25.0978 H   0  0  0  0  0  0  0  0  0  0  0  0
   11.1964   16.0032   22.8679 H   0  0  0  0  0  0  0  0  0  0  0  0
   12.9735   15.9869   22.8079 H   0  0  0  0  0  0  0  0  0  0  0  0
   12.0281   16.8488   21.5745 H   0  0  0  0  0  0  0  0  0  0  0  0
   13.1882   13.7117   19.7961 H   0  0  0  0  0  0  0  0  0  0  0  0
   14.1527   14.5631   20.9894 H   0  0  0  0  0  0  0  0  0  0  0  0
   13.2733   15.4867   19.7511 H   0  0  0  0  0  0  0  0  0  0  0  0
   10.6754   13.7210   19.9225 H   0  0  0  0  0  0  0  0  0  0  0  0
    9.8339   14.6387   21.1902 H   0  0  0  0  0  0  0  0  0  0  0  0
   10.6446   15.4741   19.8459 H   0  0  0  0  0  0  0  0  0  0  0  0
   10.7101   11.6767   22.1338 H   0  0  0  0  0  0  0  0  0  0  0  0
    6.8056   13.9157   25.2052 H   0  0  0  0  0  0  0  0  0  0  0  0
  1  2  2  0  0  0  0
  1  3  1  0  0  0  0
  2  4  1  0  0  0  0
  3  5  2  0  0  0  0
  4  6  2  0  0  0  0
  5  6  1  0  0  0  0
  5  7  1  0  0  0  0
  6 14  1  0  0  0  0
  7 15  2  0  0  0  0
  7 16  1  0  0  0  0
  8 14  2  0  0  0  0
  8 15  1  0  0  0  0
  8 18  1  0  0  0  0
  9 16  1  0  0  0  0
  9 17  2  0  0  0  0
  9 19  1  0  0  0  0
 10 13  1  0  0  0  0
 11 13  1  0  0  0  0
 12 13  1  0  0  0  0
 13 19  1  0  0  0  0
  1 20  1  0  0  0  0
  2 21  1  0  0  0  0
  3 22  1  0  0  0  0
  4 23  1  0  0  0  0
 10 24  1  0  0  0  0
 10 25  1  0  0  0  0
 10 26  1  0  0  0  0
 11 27  1  0  0  0  0
 11 28  1  0  0  0  0
 11 29  1  0  0  0  0
 12 30  1  0  0  0  0
 12 31  1  0  0  0  0
 12 32  1  0  0  0  0
 16 33  1  0  0  0  0
 18 34  1  0  0  0  0
M  END
> <id>
EN300-37355673

> <smiles>
CC(C)(C)OC(=O)NC=1N=C(O)N=C2C=CC=CC12

> <IUPAC Name>
tert-butyl N-(2-hydroxyquinazolin-4-yl)carbamate

> <CAS>
2763976-07-2

> <URL>
https://www.enaminestore.com/catalog/EN300-37355673

> <ROCS_ShapeQuery>
A71EV2A-x0451_0A_A71EV2A-x0310_0A_A71EV2A-x0416_0A_peptide

> <ROCS_TanimotoCombo>
0.527 

> <ROCS_ShapeTanimoto>
0.359 

> <ROCS_ColorTanimoto>
0.168 

> <ROCS_RefTversky>
0.309 

> <ROCS_RefColorTversky>
0.192 

> <ROCS_RefTverskyCombo>
0.501 

> <ROCS_FitTversky>
1.804 

> <ROCS_FitColorTversky>
0.576 

> <ROCS_FitTverskyCombo>
2.381 

> <ROCS_ColorScore>
-5.858

> <ROCS_Overlap>
2147.274

> <ROCS_Rank>
120                 

$$$$
untitled-dbase-84665_12
  -OEChem-11132313473D

 35 36  0     0  0  0  0  0  0999 V2000
    9.7433    8.0741   23.2891 C   0  0  0  0  0  0  0  0  0  0  0  0
    8.6309    7.6410   23.9999 C   0  0  0  0  0  0  0  0  0  0  0  0
    9.9770    9.4385   23.1434 C   0  0  0  0  0  0  0  0  0  0  0  0
    7.7552    8.5725   24.5632 C   0  0  0  0  0  0  0  0  0  0  0  0
    8.4192   12.6541   24.1502 C   0  0  0  0  0  0  0  0  0  0  0  0
    9.0961   10.3753   23.7101 C   0  0  0  0  0  0  0  0  0  0  0  0
    7.9648    9.9427   24.4332 C   0  0  0  0  0  0  0  0  0  0  0  0
    9.3075   11.7544   23.5788 C   0  0  0  0  0  0  0  0  0  0  0  0
    7.3411   12.1362   24.8390 C   0  0  0  0  0  0  0  0  0  0  0  0
   11.0805   13.4670   23.0947 C   0  0  0  0  0  0  0  0  0  0  0  0
   12.0688   15.9859   22.1686 C   0  0  0  0  0  0  0  0  0  0  0  0
   13.2415   14.6613   20.3854 C   0  0  0  0  0  0  0  0  0  0  0  0
   10.7328   14.6487   20.5068 C   0  0  0  0  0  0  0  0  0  0  0  0
   12.0292   14.7210   21.3123 C   0  0  0  0  0  0  0  0  0  0  0  0
    7.1010   10.8134   24.9888 N   0  0  0  0  0  0  0  0  0  0  0  0
   10.4032   12.2728   22.8787 N   0  0  0  0  0  0  0  0  0  0  0  0
   10.8448   14.3094   23.9523 O   0  0  0  0  0  0  0  0  0  0  0  0
    6.4445   12.9973   25.4156 O   0  0  0  0  0  0  0  0  0  0  0  0
   12.0919   13.5820   22.1786 O   0  0  0  0  0  0  0  0  0  0  0  0
   10.4259    7.3530   22.8500 H   0  0  0  0  0  0  0  0  0  0  0  0
    8.4407    6.5782   24.1185 H   0  0  0  0  0  0  0  0  0  0  0  0
   10.8551    9.7492   22.5822 H   0  0  0  0  0  0  0  0  0  0  0  0
    6.8910    8.2075   25.1153 H   0  0  0  0  0  0  0  0  0  0  0  0
    8.5620   13.7264   24.0620 H   0  0  0  0  0  0  0  0  0  0  0  0
   11.2004   16.0325   22.8353 H   0  0  0  0  0  0  0  0  0  0  0  0
   12.9776   16.0325   22.7775 H   0  0  0  0  0  0  0  0  0  0  0  0
   12.0258   16.8839   21.5417 H   0  0  0  0  0  0  0  0  0  0  0  0
   13.2172   13.7553   19.7692 H   0  0  0  0  0  0  0  0  0  0  0  0
   14.1722   14.6172   20.9625 H   0  0  0  0  0  0  0  0  0  0  0  0
   13.2858   15.5309   19.7218 H   0  0  0  0  0  0  0  0  0  0  0  0
   10.7042   13.7414   19.8925 H   0  0  0  0  0  0  0  0  0  0  0  0
    9.8527   14.6531   21.1579 H   0  0  0  0  0  0  0  0  0  0  0  0
   10.6573   15.4941   19.8134 H   0  0  0  0  0  0  0  0  0  0  0  0
   10.7509   11.6974   22.1073 H   0  0  0  0  0  0  0  0  0  0  0  0
    5.7478   12.4946   25.8602 H   0  0  0  0  0  0  0  0  0  0  0  0
  1  2  2  0  0  0  0
  1  3  1  0  0  0  0
  2  4  1  0  0  0  0
  3  6  2  0  0  0  0
  4  7  2  0  0  0  0
  5  8  2  0  0  0  0
  5  9  1  0  0  0  0
  6  7  1  0  0  0  0
  6  8  1  0  0  0  0
  7 15  1  0  0  0  0
  8 16  1  0  0  0  0
  9 15  2  0  0  0  0
  9 18  1  0  0  0  0
 10 16  1  0  0  0  0
 10 17  2  0  0  0  0
 10 19  1  0  0  0  0
 11 14  1  0  0  0  0
 12 14  1  0  0  0  0
 13 14  1  0  0  0  0
 14 19  1  0  0  0  0
  1 20  1  0  0  0  0
  2 21  1  0  0  0  0
  3 22  1  0  0  0  0
  4 23  1  0  0  0  0
  5 24  1  0  0  0  0
 11 25  1  0  0  0  0
 11 26  1  0  0  0  0
 11 27  1  0  0  0  0
 12 28  1  0  0  0  0
 12 29  1  0  0  0  0
 12 30  1  0  0  0  0
 13 31  1  0  0  0  0
 13 32  1  0  0  0  0
 13 33  1  0  0  0  0
 16 34  1  0  0  0  0
 18 35  1  0  0  0  0
M  END
> <id>
EN300-27718535

> <smiles>
CC(C)(C)OC(=O)NC=1C=C(O)N=C2C=CC=CC12

> <IUPAC Name>
tert-butyl N-(2-hydroxyquinolin-4-yl)carbamate

> <CAS>
1934486-69-7

> <URL>
https://www.enaminestore.com/catalog/EN300-27718535

> <ROCS_ShapeQuery>
A71EV2A-x0451_0A_A71EV2A-x0310_0A_A71EV2A-x0416_0A_peptide

> <ROCS_TanimotoCombo>
0.527 

> <ROCS_ShapeTanimoto>
0.357 

> <ROCS_ColorTanimoto>
0.170 

> <ROCS_RefTversky>
0.308 

> <ROCS_RefColorTversky>
0.189 

> <ROCS_RefTverskyCombo>
0.497 

> <ROCS_FitTversky>
1.804 

> <ROCS_FitColorTversky>
0.626 

> <ROCS_FitTverskyCombo>
2.431 

> <ROCS_ColorScore>
-5.764

> <ROCS_Overlap>
2137.754

> <ROCS_Rank>
121                 

$$$$
untitled-dbase-116923_41
  -OEChem-11132313473D

 41 44  0     1  0  0  0  0  0999 V2000
    5.9065   11.9847   26.3314 C   0  0  0  0  0  0  0  0  0  0  0  0
    5.6219   10.6478   26.0979 C   0  0  0  0  0  0  0  0  0  0  0  0
    7.0345   12.5569   25.7464 C   0  0  0  0  0  0  0  0  0  0  0  0
    6.4705    9.8988   25.2849 C   0  0  0  0  0  0  0  0  0  0  0  0
   14.2118   15.1893   21.6898 C   0  0  0  0  0  0  0  0  0  0  0  0
   15.1991   14.7832   22.5807 C   0  0  0  0  0  0  0  0  0  0  0  0
    7.8834   11.8106   24.9311 C   0  0  0  0  0  0  0  0  0  0  0  0
    7.6008   10.4677   24.7005 C   0  0  0  0  0  0  0  0  0  0  0  0
   12.8893   14.8220   21.9116 C   0  0  0  0  0  0  0  0  0  0  0  0
   12.6083   14.0541   23.0301 C   0  0  0  0  0  0  0  0  0  0  0  0
    9.7674   11.6475   23.5515 C   0  0  0  0  0  0  0  0  0  0  0  0
    9.5353   10.2779   23.3771 C   0  0  0  0  0  0  0  0  0  0  0  0
   14.8146   14.0171   23.6694 C   0  0  0  0  0  0  0  0  0  0  0  0
   11.2425   13.6176   23.3477 C   0  0  0  0  0  0  0  0  0  0  0  0
   12.2883   10.6789   21.7613 C   0  0  0  0  0  0  0  0  0  0  0  0
   11.2838   11.8068   21.5742 C   0  0  0  0  0  0  0  0  0  0  0  0
   11.8523    9.6797   22.8210 C   0  0  0  0  0  0  0  0  0  0  0  0
    9.9866    8.0657   22.4144 C   0  0  0  0  0  0  0  0  0  0  0  0
    8.9541   12.3758   24.3600 N   0  0  0  0  0  0  0  0  0  0  0  0
    8.4193    9.7326   23.9351 N   0  0  0  0  0  0  0  0  0  0  0  0
   13.5402   13.6407   23.9179 N   0  0  0  0  0  0  0  0  0  0  0  0
   10.8113   12.3721   22.8500 N   0  0  0  0  0  0  0  0  0  0  0  0
   10.4204    9.4208   22.7202 N   0  0  1  0  0  0  0  0  0  0  0  0
   10.6032   14.3928   24.0579 O   0  0  0  0  0  0  0  0  0  0  0  0
   11.6715   15.3272   20.8056 Cl  0  0  0  0  0  0  0  0  0  0  0  0
   15.9642   13.4701   24.8192 Cl  0  0  0  0  0  0  0  0  0  0  0  0
    5.2588   12.5808   26.9667 H   0  0  0  0  0  0  0  0  0  0  0  0
    4.7456   10.1876   26.5435 H   0  0  0  0  0  0  0  0  0  0  0  0
    7.2509   13.6062   25.9385 H   0  0  0  0  0  0  0  0  0  0  0  0
    6.2375    8.8511   25.1059 H   0  0  0  0  0  0  0  0  0  0  0  0
   14.4888   15.7908   20.8280 H   0  0  0  0  0  0  0  0  0  0  0  0
   16.2336   15.0649   22.4156 H   0  0  0  0  0  0  0  0  0  0  0  0
   12.4378   10.1503   20.8122 H   0  0  0  0  0  0  0  0  0  0  0  0
   13.2574   11.1130   22.0357 H   0  0  0  0  0  0  0  0  0  0  0  0
   11.7042   12.6213   20.9644 H   0  0  0  0  0  0  0  0  0  0  0  0
   10.4287   11.4271   20.9973 H   0  0  0  0  0  0  0  0  0  0  0  0
   12.4189    8.7442   22.7325 H   0  0  0  0  0  0  0  0  0  0  0  0
   12.1085   10.0825   23.8081 H   0  0  0  0  0  0  0  0  0  0  0  0
   10.7969    7.5280   21.9003 H   0  0  0  0  0  0  0  0  0  0  0  0
    9.7342    7.5422   23.3483 H   0  0  0  0  0  0  0  0  0  0  0  0
    9.1005    8.1025   21.7637 H   0  0  0  0  0  0  0  0  0  0  0  0
  1  2  2  0  0  0  0
  1  3  1  0  0  0  0
  2  4  1  0  0  0  0
  3  7  2  0  0  0  0
  4  8  2  0  0  0  0
  5  6  1  0  0  0  0
  5  9  2  0  0  0  0
  6 13  2  0  0  0  0
  7  8  1  0  0  0  0
  7 19  1  0  0  0  0
  8 20  1  0  0  0  0
  9 10  1  0  0  0  0
  9 25  1  0  0  0  0
 10 14  1  0  0  0  0
 10 21  2  0  0  0  0
 11 12  1  0  0  0  0
 11 19  2  0  0  0  0
 11 22  1  0  0  0  0
 12 20  2  0  0  0  0
 12 23  1  0  0  0  0
 13 21  1  0  0  0  0
 13 26  1  0  0  0  0
 14 22  1  0  0  0  0
 14 24  2  0  0  0  0
 15 16  1  0  0  0  0
 15 17  1  0  0  0  0
 16 22  1  0  0  0  0
 17 23  1  0  0  0  0
 18 23  1  0  0  0  0
  1 27  1  0  0  0  0
  2 28  1  0  0  0  0
  3 29  1  0  0  0  0
  4 30  1  0  0  0  0
  5 31  1  0  0  0  0
  6 32  1  0  0  0  0
 15 33  1  0  0  0  0
 15 34  1  0  0  0  0
 16 35  1  0  0  0  0
 16 36  1  0  0  0  0
 17 37  1  0  0  0  0
 17 38  1  0  0  0  0
 18 39  1  0  0  0  0
 18 40  1  0  0  0  0
 18 41  1  0  0  0  0
M  END
> <id>
EN300-26616386

> <smiles>
CN1CCCN(C(=O)C=2N=C(Cl)C=CC2Cl)C=3N=C4C=CC=CC4=NC13

> <IUPAC Name>
3,6-dichloro-2-{5-methyl-1H,2H,3H,4H,5H-[1,4]diazepino[2,3-b]quinoxaline-1-carbonyl}pyridine

> <CAS>
1110946-88-7

> <URL>
https://www.enaminestore.com/catalog/EN300-26616386

> <ROCS_ShapeQuery>
A71EV2A-x0451_0A_A71EV2A-x0310_0A_A71EV2A-x0416_0A_peptide

> <ROCS_TanimotoCombo>
0.527 

> <ROCS_ShapeTanimoto>
0.364 

> <ROCS_ColorTanimoto>
0.163 

> <ROCS_RefTversky>
0.325 

> <ROCS_RefColorTversky>
0.182 

> <ROCS_RefTverskyCombo>
0.507 

> <ROCS_FitTversky>
1.495 

> <ROCS_FitColorTversky>
0.605 

> <ROCS_FitTverskyCombo>
2.100 

> <ROCS_ColorScore>
-5.559

> <ROCS_Overlap>
2259.144

> <ROCS_Rank>
122                 

$$$$
untitled-dbase-145108_26
  -OEChem-11132313473D

 34 35  0     0  0  0  0  0  0999 V2000
    6.0134   11.0643   26.0226 C   0  0  0  0  0  0  0  0  0  0  0  0
    7.5304   10.3324   24.7713 C   0  0  0  0  0  0  0  0  0  0  0  0
    9.4940   11.7951   23.3950 C   0  0  0  0  0  0  0  0  0  0  0  0
    8.5914   12.4395   24.1610 C   0  0  0  0  0  0  0  0  0  0  0  0
    9.3233   10.2891   23.3750 C   0  0  0  0  0  0  0  0  0  0  0  0
   11.0873   13.5921   23.0662 C   0  0  0  0  0  0  0  0  0  0  0  0
   10.2955    9.4858   22.5391 C   0  0  0  0  0  0  0  0  0  0  0  0
   11.8376   16.2982   22.5498 C   0  0  0  0  0  0  0  0  0  0  0  0
   13.0068   15.3921   20.5197 C   0  0  0  0  0  0  0  0  0  0  0  0
   10.5160   15.1551   20.7384 C   0  0  0  0  0  0  0  0  0  0  0  0
   11.8449   15.1962   21.4913 C   0  0  0  0  0  0  0  0  0  0  0  0
    6.5230    9.9148   25.5111 N   0  0  0  0  0  0  0  0  0  0  0  0
    6.6304   12.1843   25.6573 N   0  0  0  0  0  0  0  0  0  0  0  0
    8.4091    9.6211   24.0171 N   0  0  0  0  0  0  0  0  0  0  0  0
    7.6147   11.7201   24.8464 N   0  0  0  0  0  0  0  0  0  0  0  0
   10.4827   12.4072   22.6895 N   0  0  0  0  0  0  0  0  0  0  0  0
   10.8234   14.2471   24.0698 O   0  0  0  0  0  0  0  0  0  0  0  0
    8.6150   13.8166   24.2821 O   0  0  0  0  0  0  0  0  0  0  0  0
   12.0374   13.9371   22.1457 O   0  0  0  0  0  0  0  0  0  0  0  0
    5.1620   11.0899   26.6859 H   0  0  0  0  0  0  0  0  0  0  0  0
   11.1468    9.2183   23.1532 H   0  0  0  0  0  0  0  0  0  0  0  0
   10.6152   10.0888   21.6974 H   0  0  0  0  0  0  0  0  0  0  0  0
    9.7955    8.5932   22.1821 H   0  0  0  0  0  0  0  0  0  0  0  0
   11.0051   16.1612   23.2491 H   0  0  0  0  0  0  0  0  0  0  0  0
   12.7718   16.3157   23.1204 H   0  0  0  0  0  0  0  0  0  0  0  0
   11.6952   17.2823   22.0887 H   0  0  0  0  0  0  0  0  0  0  0  0
   13.0159   14.6036   19.7585 H   0  0  0  0  0  0  0  0  0  0  0  0
   13.9679   15.3276   21.0425 H   0  0  0  0  0  0  0  0  0  0  0  0
   12.9515   16.3615   20.0140 H   0  0  0  0  0  0  0  0  0  0  0  0
   10.5210   14.3647   19.9791 H   0  0  0  0  0  0  0  0  0  0  0  0
    9.6741   14.9783   21.4156 H   0  0  0  0  0  0  0  0  0  0  0  0
   10.3415   16.0960   20.2041 H   0  0  0  0  0  0  0  0  0  0  0  0
   10.7975   11.9647   21.8294 H   0  0  0  0  0  0  0  0  0  0  0  0
    7.9041   14.1029   24.8630 H   0  0  0  0  0  0  0  0  0  0  0  0
  1 12  1  0  0  0  0
  1 13  2  0  0  0  0
  2 12  2  0  0  0  0
  2 14  1  0  0  0  0
  2 15  1  0  0  0  0
  3  4  2  0  0  0  0
  3  5  1  0  0  0  0
  3 16  1  0  0  0  0
  4 15  1  0  0  0  0
  4 18  1  0  0  0  0
  5  7  1  0  0  0  0
  5 14  2  0  0  0  0
  6 16  1  0  0  0  0
  6 17  2  0  0  0  0
  6 19  1  0  0  0  0
  8 11  1  0  0  0  0
  9 11  1  0  0  0  0
 10 11  1  0  0  0  0
 11 19  1  0  0  0  0
 13 15  1  0  0  0  0
  1 20  1  0  0  0  0
  7 21  1  0  0  0  0
  7 22  1  0  0  0  0
  7 23  1  0  0  0  0
  8 24  1  0  0  0  0
  8 25  1  0  0  0  0
  8 26  1  0  0  0  0
  9 27  1  0  0  0  0
  9 28  1  0  0  0  0
  9 29  1  0  0  0  0
 10 30  1  0  0  0  0
 10 31  1  0  0  0  0
 10 32  1  0  0  0  0
 16 33  1  0  0  0  0
 18 34  1  0  0  0  0
M  END
> <id>
EN300-27718587

> <smiles>
CC1=NC2=NC=NN2C(O)=C1NC(=O)OC(C)(C)C

> <IUPAC Name>
tert-butyl N-{7-hydroxy-5-methyl-[1,2,4]triazolo[1,5-a]pyrimidin-6-yl}carbamate

> <CAS>
2580244-19-3

> <URL>
https://www.enaminestore.com/catalog/EN300-27718587

> <ROCS_ShapeQuery>
A71EV2A-x0451_0A_A71EV2A-x0310_0A_A71EV2A-x0416_0A_peptide

> <ROCS_TanimotoCombo>
0.527 

> <ROCS_ShapeTanimoto>
0.360 

> <ROCS_ColorTanimoto>
0.167 

> <ROCS_RefTversky>
0.310 

> <ROCS_RefColorTversky>
0.195 

> <ROCS_RefTverskyCombo>
0.505 

> <ROCS_FitTversky>
1.797 

> <ROCS_FitColorTversky>
0.537 

> <ROCS_FitTverskyCombo>
2.334 

> <ROCS_ColorScore>
-5.977

> <ROCS_Overlap>
2151.956

> <ROCS_Rank>
123                 

$$$$
untitled-dbase-118854_41
  -OEChem-11132313473D

 35 36  0     0  0  0  0  0  0999 V2000
    6.7325   12.3044   25.4987 C   0  0  0  0  0  0  0  0  0  0  0  0
    8.4892   11.9918   24.3899 C   0  0  0  0  0  0  0  0  0  0  0  0
    5.7298   12.9697   26.2743 C   0  0  0  0  0  0  0  0  0  0  0  0
   10.3679   13.2268   23.5722 C   0  0  0  0  0  0  0  0  0  0  0  0
    9.6323    9.4987   23.6856 C   0  0  0  0  0  0  0  0  0  0  0  0
    8.1235    9.5683   23.8998 C   0  0  0  0  0  0  0  0  0  0  0  0
   10.1634   10.7727   23.0207 C   0  0  0  0  0  0  0  0  0  0  0  0
   12.7998   14.7018   23.2343 C   0  0  0  0  0  0  0  0  0  0  0  0
   12.3751   14.4817   20.7684 C   0  0  0  0  0  0  0  0  0  0  0  0
   10.7409   15.7272   22.2127 C   0  0  0  0  0  0  0  0  0  0  0  0
   11.7312   14.5653   22.1507 C   0  0  0  0  0  0  0  0  0  0  0  0
    7.8481   12.9455   25.0336 N   0  0  0  0  0  0  0  0  0  0  0  0
    6.6327   11.0097   25.1876 N   0  0  0  0  0  0  0  0  0  0  0  0
    7.7631   10.8368   24.4903 N   0  0  0  0  0  0  0  0  0  0  0  0
    9.6927   12.0036   23.6864 N   0  0  0  0  0  0  0  0  0  0  0  0
    5.4205   14.1773   26.2019 O   0  0  0  0  0  0  0  0  0  0  0  0
   10.3922   14.1118   24.4255 O   0  0  0  0  0  0  0  0  0  0  0  0
    5.0886   12.1420   27.1580 O   0  0  0  0  0  0  0  0  0  0  0  0
   11.0154   13.3438   22.3678 O   0  0  0  0  0  0  0  0  0  0  0  0
   10.1396    9.3322   24.6421 H   0  0  0  0  0  0  0  0  0  0  0  0
    9.8696    8.6407   23.0433 H   0  0  0  0  0  0  0  0  0  0  0  0
    7.5907    9.4627   22.9495 H   0  0  0  0  0  0  0  0  0  0  0  0
    7.7852    8.7882   24.5900 H   0  0  0  0  0  0  0  0  0  0  0  0
   11.2593   10.7937   23.0539 H   0  0  0  0  0  0  0  0  0  0  0  0
    9.8657   10.7860   21.9667 H   0  0  0  0  0  0  0  0  0  0  0  0
   12.3417   14.7621   24.2280 H   0  0  0  0  0  0  0  0  0  0  0  0
   13.4960   13.8568   23.2230 H   0  0  0  0  0  0  0  0  0  0  0  0
   13.3747   15.6256   23.1024 H   0  0  0  0  0  0  0  0  0  0  0  0
   11.6121   14.3837   19.9878 H   0  0  0  0  0  0  0  0  0  0  0  0
   13.0141   13.5948   20.6885 H   0  0  0  0  0  0  0  0  0  0  0  0
   12.9817   15.3668   20.5511 H   0  0  0  0  0  0  0  0  0  0  0  0
    9.9742   15.6295   21.4355 H   0  0  0  0  0  0  0  0  0  0  0  0
   10.2417   15.7802   23.1857 H   0  0  0  0  0  0  0  0  0  0  0  0
   11.2477   16.6815   22.0288 H   0  0  0  0  0  0  0  0  0  0  0  0
    5.4052   11.2138   27.1365 H   0  0  0  0  0  0  0  0  0  0  0  0
  1  3  1  0  0  0  0
  1 12  1  0  0  0  0
  1 13  2  0  0  0  0
  2 12  2  0  0  0  0
  2 14  1  0  0  0  0
  2 15  1  0  0  0  0
  3 16  2  0  0  0  0
  3 18  1  0  0  0  0
  4 15  1  0  0  0  0
  4 17  2  0  0  0  0
  4 19  1  0  0  0  0
  5  6  1  0  0  0  0
  5  7  1  0  0  0  0
  6 14  1  0  0  0  0
  7 15  1  0  0  0  0
  8 11  1  0  0  0  0
  9 11  1  0  0  0  0
 10 11  1  0  0  0  0
 11 19  1  0  0  0  0
 13 14  1  0  0  0  0
  5 20  1  0  0  0  0
  5 21  1  0  0  0  0
  6 22  1  0  0  0  0
  6 23  1  0  0  0  0
  7 24  1  0  0  0  0
  7 25  1  0  0  0  0
  8 26  1  0  0  0  0
  8 27  1  0  0  0  0
  8 28  1  0  0  0  0
  9 29  1  0  0  0  0
  9 30  1  0  0  0  0
  9 31  1  0  0  0  0
 10 32  1  0  0  0  0
 10 33  1  0  0  0  0
 10 34  1  0  0  0  0
 18 35  1  0  0  0  0
M  END
> <id>
EN300-259485

> <smiles>
CC(C)(C)OC(=O)N1CCCN2N=C(N=C12)C(=O)O

> <IUPAC Name>
4-[(tert-butoxy)carbonyl]-4H,5H,6H,7H-[1,2,4]triazolo[1,5-a]pyrimidine-2-carboxylic acid

> <CAS>
2091472-07-8

> <URL>
https://www.enaminestore.com/catalog/EN300-259485

> <ROCS_ShapeQuery>
A71EV2A-x0451_0A_A71EV2A-x0310_0A_A71EV2A-x0416_0A_peptide

> <ROCS_TanimotoCombo>
0.527 

> <ROCS_ShapeTanimoto>
0.358 

> <ROCS_ColorTanimoto>
0.169 

> <ROCS_RefTversky>
0.309 

> <ROCS_RefColorTversky>
0.193 

> <ROCS_RefTverskyCombo>
0.501 

> <ROCS_FitTversky>
1.797 

> <ROCS_FitColorTversky>
0.578 

> <ROCS_FitTverskyCombo>
2.375 

> <ROCS_ColorScore>
-5.887

> <ROCS_Overlap>
2142.757

> <ROCS_Rank>
124                 

$$$$
untitled-dbase-104227_366
  -OEChem-11132313473D

 44 45  0     0  0  0  0  0  0999 V2000
    6.4863   10.9773   26.6120 C   0  0  0  0  0  0  0  0  0  0  0  0
    7.3752   10.1060   25.9820 C   0  0  0  0  0  0  0  0  0  0  0  0
    6.9795   12.6451   24.9546 C   0  0  0  0  0  0  0  0  0  0  0  0
    6.2838   12.2474   26.0935 C   0  0  0  0  0  0  0  0  0  0  0  0
    7.8907   11.7804   24.3156 C   0  0  0  0  0  0  0  0  0  0  0  0
    8.0843   10.4760   24.8202 C   0  0  0  0  0  0  0  0  0  0  0  0
    5.3461   13.1565   26.7324 C   0  0  0  0  0  0  0  0  0  0  0  0
   10.9385   13.0801   23.5428 C   0  0  0  0  0  0  0  0  0  0  0  0
    8.6231   12.3084   23.1033 C   0  0  0  0  0  0  0  0  0  0  0  0
    9.4982    9.6064   22.9279 C   0  0  0  0  0  0  0  0  0  0  0  0
   10.5399   10.7123   22.8145 C   0  0  0  0  0  0  0  0  0  0  0  0
   12.6331   15.3080   22.9491 C   0  0  0  0  0  0  0  0  0  0  0  0
   13.9828   13.6833   21.5897 C   0  0  0  0  0  0  0  0  0  0  0  0
   11.5958   14.1551   20.9669 C   0  0  0  0  0  0  0  0  0  0  0  0
    3.8107   13.3846   28.5447 C   0  0  0  0  0  0  0  0  0  0  0  0
   12.5917   14.0262   22.1185 C   0  0  0  0  0  0  0  0  0  0  0  0
    8.9255    9.5273   24.2555 N   0  0  0  0  0  0  0  0  0  0  0  0
   10.0616   12.0501   23.1743 N   0  0  0  0  0  0  0  0  0  0  0  0
    5.1045   14.3053   26.3378 O   0  0  0  0  0  0  0  0  0  0  0  0
   10.6444   14.0066   24.2959 O   0  0  0  0  0  0  0  0  0  0  0  0
    4.7583   12.5856   27.8282 O   0  0  0  0  0  0  0  0  0  0  0  0
   12.1739   12.9485   22.9641 O   0  0  0  0  0  0  0  0  0  0  0  0
    5.9638   10.6512   27.5076 H   0  0  0  0  0  0  0  0  0  0  0  0
    7.5231    9.1182   26.4163 H   0  0  0  0  0  0  0  0  0  0  0  0
    6.8064   13.6406   24.5485 H   0  0  0  0  0  0  0  0  0  0  0  0
    8.2325   11.8328   22.1960 H   0  0  0  0  0  0  0  0  0  0  0  0
    8.4458   13.3823   22.9798 H   0  0  0  0  0  0  0  0  0  0  0  0
    8.6899    9.8256   22.2199 H   0  0  0  0  0  0  0  0  0  0  0  0
    9.9000    8.6335   22.6223 H   0  0  0  0  0  0  0  0  0  0  0  0
   11.3826   10.4897   23.4795 H   0  0  0  0  0  0  0  0  0  0  0  0
   10.9386   10.7371   21.7936 H   0  0  0  0  0  0  0  0  0  0  0  0
   11.6365   15.5576   23.3305 H   0  0  0  0  0  0  0  0  0  0  0  0
   13.3177   15.2163   23.7987 H   0  0  0  0  0  0  0  0  0  0  0  0
   12.9524   16.1599   22.3378 H   0  0  0  0  0  0  0  0  0  0  0  0
   13.9578   12.7642   20.9931 H   0  0  0  0  0  0  0  0  0  0  0  0
   14.6791   13.4966   22.4152 H   0  0  0  0  0  0  0  0  0  0  0  0
   14.3888   14.4886   20.9690 H   0  0  0  0  0  0  0  0  0  0  0  0
   11.5659   13.2358   20.3709 H   0  0  0  0  0  0  0  0  0  0  0  0
   10.5844   14.3646   21.3299 H   0  0  0  0  0  0  0  0  0  0  0  0
   11.8934   14.9577   20.2824 H   0  0  0  0  0  0  0  0  0  0  0  0
    3.4186   12.8150   29.3908 H   0  0  0  0  0  0  0  0  0  0  0  0
    2.9954   13.6717   27.8759 H   0  0  0  0  0  0  0  0  0  0  0  0
    4.3104   14.2834   28.9136 H   0  0  0  0  0  0  0  0  0  0  0  0
    9.2866    8.8038   24.8682 H   0  0  0  0  0  0  0  0  0  0  0  0
  1  2  1  0  0  0  0
  1  4  2  0  0  0  0
  2  6  2  0  0  0  0
  3  4  1  0  0  0  0
  3  5  2  0  0  0  0
  4  7  1  0  0  0  0
  5  6  1  0  0  0  0
  5  9  1  0  0  0  0
  6 17  1  0  0  0  0
  7 19  2  0  0  0  0
  7 21  1  0  0  0  0
  8 18  1  0  0  0  0
  8 20  2  0  0  0  0
  8 22  1  0  0  0  0
  9 18  1  0  0  0  0
 10 11  1  0  0  0  0
 10 17  1  0  0  0  0
 11 18  1  0  0  0  0
 12 16  1  0  0  0  0
 13 16  1  0  0  0  0
 14 16  1  0  0  0  0
 15 21  1  0  0  0  0
 16 22  1  0  0  0  0
  1 23  1  0  0  0  0
  2 24  1  0  0  0  0
  3 25  1  0  0  0  0
  9 26  1  0  0  0  0
  9 27  1  0  0  0  0
 10 28  1  0  0  0  0
 10 29  1  0  0  0  0
 11 30  1  0  0  0  0
 11 31  1  0  0  0  0
 12 32  1  0  0  0  0
 12 33  1  0  0  0  0
 12 34  1  0  0  0  0
 13 35  1  0  0  0  0
 13 36  1  0  0  0  0
 13 37  1  0  0  0  0
 14 38  1  0  0  0  0
 14 39  1  0  0  0  0
 14 40  1  0  0  0  0
 15 41  1  0  0  0  0
 15 42  1  0  0  0  0
 15 43  1  0  0  0  0
 17 44  1  0  0  0  0
M  END
> <id>
EN300-7493223

> <smiles>
COC(=O)C=1C=CC=2NCCN(CC2C1)C(=O)OC(C)(C)C

> <MDLNUMBER>
MFCD32662859

> <IUPAC Name>
4-tert-butyl 7-methyl 2,3,4,5-tetrahydro-1H-1,4-benzodiazepine-4,7-dicarboxylate

> <CAS>
2413876-66-9

> <Purity>
95

> <URL>
https://www.enaminestore.com/catalog/EN300-7493223

> <ROCS_ShapeQuery>
A71EV2A-x0451_0A_A71EV2A-x0310_0A_A71EV2A-x0416_0A_peptide

> <ROCS_TanimotoCombo>
0.526 

> <ROCS_ShapeTanimoto>
0.346 

> <ROCS_ColorTanimoto>
0.180 

> <ROCS_RefTversky>
0.305 

> <ROCS_RefColorTversky>
0.189 

> <ROCS_RefTverskyCombo>
0.494 

> <ROCS_FitTversky>
1.636 

> <ROCS_FitColorTversky>
0.790 

> <ROCS_FitTverskyCombo>
2.426 

> <ROCS_ColorScore>
-5.758

> <ROCS_Overlap>
2118.525

> <ROCS_Rank>
125                 

$$$$
untitled-dbase-174447_726
  -OEChem-11132313473D

 37 38  0     0  0  0  0  0  0999 V2000
    6.7564   12.8546   26.1255 C   0  0  0  0  0  0  0  0  0  0  0  0
    6.2448   11.5779   26.3243 C   0  0  0  0  0  0  0  0  0  0  0  0
    7.8046   13.0644   25.2221 C   0  0  0  0  0  0  0  0  0  0  0  0
    6.7754   10.5081   25.6128 C   0  0  0  0  0  0  0  0  0  0  0  0
    8.3751   11.9969   24.5123 C   0  0  0  0  0  0  0  0  0  0  0  0
    7.8314   10.7126   24.7160 C   0  0  0  0  0  0  0  0  0  0  0  0
    6.2114    9.1819   25.8366 C   0  0  0  0  0  0  0  0  0  0  0  0
   10.2606   13.2824   23.3876 C   0  0  0  0  0  0  0  0  0  0  0  0
    9.5981   11.0361   22.6347 C   0  0  0  0  0  0  0  0  0  0  0  0
    9.4945    9.7367   23.3924 C   0  0  0  0  0  0  0  0  0  0  0  0
   12.6996   14.5828   22.6325 C   0  0  0  0  0  0  0  0  0  0  0  0
   11.6571   14.8045   20.3580 C   0  0  0  0  0  0  0  0  0  0  0  0
   10.5963   15.9329   22.3353 C   0  0  0  0  0  0  0  0  0  0  0  0
   11.3887   14.7164   21.8588 C   0  0  0  0  0  0  0  0  0  0  0  0
    9.4260   12.1626   23.5506 N   0  0  0  0  0  0  0  0  0  0  0  0
    5.2904    8.9222   26.6142 O   0  0  0  0  0  0  0  0  0  0  0  0
   10.6050   14.0129   24.3173 O   0  0  0  0  0  0  0  0  0  0  0  0
    8.2564    9.5807   24.0645 O   0  0  0  0  0  0  0  0  0  0  0  0
    6.8173    8.2282   25.0801 O   0  0  0  0  0  0  0  0  0  0  0  0
   10.6021   13.5412   22.0884 O   0  0  0  0  0  0  0  0  0  0  0  0
   10.4998    9.6206   24.2951 F   0  0  0  0  0  0  0  0  0  0  0  0
    9.6238    8.6980   22.5289 F   0  0  0  0  0  0  0  0  0  0  0  0
    6.3333   13.6968   26.6656 H   0  0  0  0  0  0  0  0  0  0  0  0
    5.4326   11.4307   27.0317 H   0  0  0  0  0  0  0  0  0  0  0  0
    8.1187   14.0916   25.0909 H   0  0  0  0  0  0  0  0  0  0  0  0
   10.5680   11.0798   22.1389 H   0  0  0  0  0  0  0  0  0  0  0  0
    8.8187   11.1100   21.8734 H   0  0  0  0  0  0  0  0  0  0  0  0
   12.5112   14.5193   23.7102 H   0  0  0  0  0  0  0  0  0  0  0  0
   13.2610   13.6946   22.3247 H   0  0  0  0  0  0  0  0  0  0  0  0
   13.3345   15.4633   22.4811 H   0  0  0  0  0  0  0  0  0  0  0  0
   10.7193   14.9004   19.7990 H   0  0  0  0  0  0  0  0  0  0  0  0
   12.1415   13.8912   19.9939 H   0  0  0  0  0  0  0  0  0  0  0  0
   12.2966   15.6581   20.1114 H   0  0  0  0  0  0  0  0  0  0  0  0
    9.6560   16.0289   21.7805 H   0  0  0  0  0  0  0  0  0  0  0  0
   10.3626   15.8690   23.4030 H   0  0  0  0  0  0  0  0  0  0  0  0
   11.1568   16.8576   22.1562 H   0  0  0  0  0  0  0  0  0  0  0  0
    6.4441    7.3323   25.2230 H   0  0  0  0  0  0  0  0  0  0  0  0
  1  2  2  0  0  0  0
  1  3  1  0  0  0  0
  2  4  1  0  0  0  0
  3  5  2  0  0  0  0
  4  6  2  0  0  0  0
  4  7  1  0  0  0  0
  5  6  1  0  0  0  0
  5 15  1  0  0  0  0
  6 18  1  0  0  0  0
  7 16  2  0  0  0  0
  7 19  1  0  0  0  0
  8 15  1  0  0  0  0
  8 17  2  0  0  0  0
  8 20  1  0  0  0  0
  9 10  1  0  0  0  0
  9 15  1  0  0  0  0
 10 18  1  0  0  0  0
 10 21  1  0  0  0  0
 10 22  1  0  0  0  0
 11 14  1  0  0  0  0
 12 14  1  0  0  0  0
 13 14  1  0  0  0  0
 14 20  1  0  0  0  0
  1 23  1  0  0  0  0
  2 24  1  0  0  0  0
  3 25  1  0  0  0  0
  9 26  1  0  0  0  0
  9 27  1  0  0  0  0
 11 28  1  0  0  0  0
 11 29  1  0  0  0  0
 11 30  1  0  0  0  0
 12 31  1  0  0  0  0
 12 32  1  0  0  0  0
 12 33  1  0  0  0  0
 13 34  1  0  0  0  0
 13 35  1  0  0  0  0
 13 36  1  0  0  0  0
 19 37  1  0  0  0  0
M  END
> <id>
EN300-39918520

> <smiles>
CC(C)(C)OC(=O)N1CC(F)(F)OC=2C(=CC=CC12)C(=O)O

> <IUPAC Name>
4-[(tert-butoxy)carbonyl]-2,2-difluoro-3,4-dihydro-2H-1,4-benzoxazine-8-carboxylic acid

> <URL>
https://www.enaminestore.com/catalog/EN300-39918520

> <ROCS_ShapeQuery>
A71EV2A-x0451_0A_A71EV2A-x0310_0A_A71EV2A-x0416_0A_peptide

> <ROCS_TanimotoCombo>
0.526 

> <ROCS_ShapeTanimoto>
0.379 

> <ROCS_ColorTanimoto>
0.147 

> <ROCS_RefTversky>
0.327 

> <ROCS_RefColorTversky>
0.167 

> <ROCS_RefTverskyCombo>
0.494 

> <ROCS_FitTversky>
1.713 

> <ROCS_FitColorTversky>
0.553 

> <ROCS_FitTverskyCombo>
2.266 

> <ROCS_ColorScore>
-5.091

> <ROCS_Overlap>
2274.061

> <ROCS_Rank>
126                 

$$$$
untitled-dbase-81970_570
  -OEChem-11132313473D

 42 46  0     0  0  0  0  0  0999 V2000
   14.5882   16.9802   18.8269 C   0  0  0  0  0  0  0  0  0  0  0  0
   13.6117   16.5336   17.9415 C   0  0  0  0  0  0  0  0  0  0  0  0
   11.8482    9.6555   21.9866 C   0  0  0  0  0  0  0  0  0  0  0  0
    6.8934   13.1023   26.2668 C   0  0  0  0  0  0  0  0  0  0  0  0
   11.1725    8.4485   22.0167 C   0  0  0  0  0  0  0  0  0  0  0  0
    6.1731   11.9443   26.4973 C   0  0  0  0  0  0  0  0  0  0  0  0
   14.5022   16.6588   20.1818 C   0  0  0  0  0  0  0  0  0  0  0  0
   12.5455   15.7639   18.4076 C   0  0  0  0  0  0  0  0  0  0  0  0
   13.3335   15.5521   22.0290 C   0  0  0  0  0  0  0  0  0  0  0  0
   11.2647   10.7910   22.5533 C   0  0  0  0  0  0  0  0  0  0  0  0
    7.9486   13.0964   25.3495 C   0  0  0  0  0  0  0  0  0  0  0  0
   12.2673   14.7825   22.4951 C   0  0  0  0  0  0  0  0  0  0  0  0
    9.9244    8.3834   22.6261 C   0  0  0  0  0  0  0  0  0  0  0  0
    6.4986   10.7930   25.7910 C   0  0  0  0  0  0  0  0  0  0  0  0
   11.3767   14.6573   20.2548 C   0  0  0  0  0  0  0  0  0  0  0  0
   13.4360   15.8851   20.6685 C   0  0  0  0  0  0  0  0  0  0  0  0
   12.4430   15.4310   19.7681 C   0  0  0  0  0  0  0  0  0  0  0  0
    9.9840   10.7629   23.1553 C   0  0  0  0  0  0  0  0  0  0  0  0
    8.3337   11.9318   24.6463 C   0  0  0  0  0  0  0  0  0  0  0  0
   11.2908   14.3359   21.6097 C   0  0  0  0  0  0  0  0  0  0  0  0
    9.3324    9.5246   23.2037 C   0  0  0  0  0  0  0  0  0  0  0  0
    7.5603   10.7809   24.8632 C   0  0  0  0  0  0  0  0  0  0  0  0
   10.0869   13.2074   23.4508 C   0  0  0  0  0  0  0  0  0  0  0  0
    9.4408   11.9808   23.7174 N   0  0  0  0  0  0  0  0  0  0  0  0
   10.5608   13.9549   24.3060 O   0  0  0  0  0  0  0  0  0  0  0  0
   10.2111   13.5558   22.0837 O   0  0  0  0  0  0  0  0  0  0  0  0
    7.7541    9.2774   23.9525 S   0  0  0  0  0  0  0  0  0  0  0  0
   15.4175   17.5798   18.4634 H   0  0  0  0  0  0  0  0  0  0  0  0
   13.6791   16.7837   16.8866 H   0  0  0  0  0  0  0  0  0  0  0  0
   12.8230    9.7248   21.5156 H   0  0  0  0  0  0  0  0  0  0  0  0
    6.6350   14.0203   26.7869 H   0  0  0  0  0  0  0  0  0  0  0  0
   11.6081    7.5636   21.5657 H   0  0  0  0  0  0  0  0  0  0  0  0
    5.3562   11.9368   27.2096 H   0  0  0  0  0  0  0  0  0  0  0  0
   15.2761   17.0186   20.8566 H   0  0  0  0  0  0  0  0  0  0  0  0
   11.7934   15.4263   17.6975 H   0  0  0  0  0  0  0  0  0  0  0  0
   14.0850   15.8910   22.7392 H   0  0  0  0  0  0  0  0  0  0  0  0
   11.8246   11.7215   22.4632 H   0  0  0  0  0  0  0  0  0  0  0  0
    8.4422   14.0517   25.1607 H   0  0  0  0  0  0  0  0  0  0  0  0
   12.2050   14.5356   23.5515 H   0  0  0  0  0  0  0  0  0  0  0  0
    9.4102    7.4206   22.6513 H   0  0  0  0  0  0  0  0  0  0  0  0
    5.9097    9.8910   25.9668 H   0  0  0  0  0  0  0  0  0  0  0  0
   10.6048   14.2999   19.5755 H   0  0  0  0  0  0  0  0  0  0  0  0
  1  2  1  0  0  0  0
  1  7  2  0  0  0  0
  2  8  2  0  0  0  0
  3  5  2  0  0  0  0
  3 10  1  0  0  0  0
  4  6  2  0  0  0  0
  4 11  1  0  0  0  0
  5 13  1  0  0  0  0
  6 14  1  0  0  0  0
  7 16  1  0  0  0  0
  8 17  1  0  0  0  0
  9 12  1  0  0  0  0
  9 16  2  0  0  0  0
 10 18  2  0  0  0  0
 11 19  2  0  0  0  0
 12 20  2  0  0  0  0
 13 21  2  0  0  0  0
 14 22  2  0  0  0  0
 15 17  2  0  0  0  0
 15 20  1  0  0  0  0
 16 17  1  0  0  0  0
 18 21  1  0  0  0  0
 18 24  1  0  0  0  0
 19 22  1  0  0  0  0
 19 24  1  0  0  0  0
 20 26  1  0  0  0  0
 21 27  1  0  0  0  0
 22 27  1  0  0  0  0
 23 24  1  0  0  0  0
 23 25  2  0  0  0  0
 23 26  1  0  0  0  0
  1 28  1  0  0  0  0
  2 29  1  0  0  0  0
  3 30  1  0  0  0  0
  4 31  1  0  0  0  0
  5 32  1  0  0  0  0
  6 33  1  0  0  0  0
  7 34  1  0  0  0  0
  8 35  1  0  0  0  0
  9 36  1  0  0  0  0
 10 37  1  0  0  0  0
 11 38  1  0  0  0  0
 12 39  1  0  0  0  0
 13 40  1  0  0  0  0
 14 41  1  0  0  0  0
 15 42  1  0  0  0  0
M  END
> <id>
EN300-27777601

> <smiles>
O=C(OC=1C=CC=2C=CC=CC2C1)N3C=4C=CC=CC4SC=5C=CC=CC35

> <MDLNUMBER>
MFCD34167991

> <IUPAC Name>
naphthalen-2-yl 10H-phenothiazine-10-carboxylate

> <CAS>
1041173-18-5

> <Purity>
95

> <URL>
https://www.enaminestore.com/catalog/EN300-27777601

> <ROCS_ShapeQuery>
A71EV2A-x0451_0A_A71EV2A-x0310_0A_A71EV2A-x0416_0A_peptide

> <ROCS_TanimotoCombo>
0.526 

> <ROCS_ShapeTanimoto>
0.387 

> <ROCS_ColorTanimoto>
0.139 

> <ROCS_RefTversky>
0.342 

> <ROCS_RefColorTversky>
0.151 

> <ROCS_RefTverskyCombo>
0.493 

> <ROCS_FitTversky>
1.526 

> <ROCS_FitColorTversky>
0.630 

> <ROCS_FitTverskyCombo>
2.155 

> <ROCS_ColorScore>
-4.595

> <ROCS_Overlap>
2377.585

> <ROCS_Rank>
127                 

$$$$
untitled-dbase-101710_22
  -OEChem-11132313473D

 42 43  0     1  0  0  0  0  0999 V2000
   10.4288   13.0621   23.5139 C   0  0  0  0  0  0  0  0  0  0  0  0
    6.6912   12.5666   26.1789 C   0  0  0  0  0  0  0  0  0  0  0  0
    7.9026   13.1409   25.4212 C   0  0  0  0  0  0  0  0  0  0  0  0
    6.5875   11.0943   25.7684 C   0  0  0  0  0  0  0  0  0  0  0  0
    9.9591   10.6591   23.2594 C   0  0  0  0  0  0  0  0  0  0  0  0
    8.6544   11.9050   24.9331 C   0  0  1  0  0  0  0  0  0  0  0  0
    7.4838   11.0035   24.5469 C   0  0  1  0  0  0  0  0  0  0  0  0
    8.7511    9.7287   23.0744 C   0  0  1  0  0  0  0  0  0  0  0  0
   13.0081   14.1638   22.9359 C   0  0  0  0  0  0  0  0  0  0  0  0
   12.4481   13.7219   20.5275 C   0  0  0  0  0  0  0  0  0  0  0  0
   11.0502   15.3255   21.8626 C   0  0  0  0  0  0  0  0  0  0  0  0
    9.1990    8.3040   22.7778 C   0  0  0  0  0  0  0  0  0  0  0  0
   11.8829   14.0452   21.9089 C   0  0  0  0  0  0  0  0  0  0  0  0
    9.6029   11.9716   23.8199 N   0  0  0  0  0  0  0  0  0  0  0  0
    8.1432    7.3914   23.0692 N   0  0  0  0  0  0  0  0  0  0  0  0
   10.5989   14.0257   24.2600 O   0  0  0  0  0  0  0  0  0  0  0  0
    7.9396    9.6949   24.2589 O   0  0  0  0  0  0  0  0  0  0  0  0
   11.0297   12.9598   22.2909 O   0  0  0  0  0  0  0  0  0  0  0  0
    6.8283   12.6502   27.2625 H   0  0  0  0  0  0  0  0  0  0  0  0
    5.7821   13.1189   25.9174 H   0  0  0  0  0  0  0  0  0  0  0  0
    7.5487   13.7477   24.5780 H   0  0  0  0  0  0  0  0  0  0  0  0
    8.5105   13.7764   26.0737 H   0  0  0  0  0  0  0  0  0  0  0  0
    6.9471   10.4381   26.5697 H   0  0  0  0  0  0  0  0  0  0  0  0
    5.5583   10.7959   25.5463 H   0  0  0  0  0  0  0  0  0  0  0  0
   10.6674   10.2187   23.9754 H   0  0  0  0  0  0  0  0  0  0  0  0
   10.4911   10.7704   22.3075 H   0  0  0  0  0  0  0  0  0  0  0  0
    9.2144   11.4620   25.7694 H   0  0  0  0  0  0  0  0  0  0  0  0
    6.9348   11.4023   23.6784 H   0  0  0  0  0  0  0  0  0  0  0  0
    8.1353   10.0811   22.2383 H   0  0  0  0  0  0  0  0  0  0  0  0
   12.6065   14.3958   23.9288 H   0  0  0  0  0  0  0  0  0  0  0  0
   13.5913   13.2397   23.0039 H   0  0  0  0  0  0  0  0  0  0  0  0
   13.6879   14.9839   22.6781 H   0  0  0  0  0  0  0  0  0  0  0  0
   11.6443   13.6358   19.7875 H   0  0  0  0  0  0  0  0  0  0  0  0
   12.9663   12.7561   20.5340 H   0  0  0  0  0  0  0  0  0  0  0  0
   13.1506   14.4900   20.1885 H   0  0  0  0  0  0  0  0  0  0  0  0
   10.2431   15.2406   21.1260 H   0  0  0  0  0  0  0  0  0  0  0  0
   10.6062   15.5533   22.8371 H   0  0  0  0  0  0  0  0  0  0  0  0
   11.6641   16.1785   21.5517 H   0  0  0  0  0  0  0  0  0  0  0  0
    9.4620    8.2571   21.7210 H   0  0  0  0  0  0  0  0  0  0  0  0
   10.0658    8.0963   23.4051 H   0  0  0  0  0  0  0  0  0  0  0  0
    8.4444    6.7222   23.7543 H   0  0  0  0  0  0  0  0  0  0  0  0
    7.3479    7.8876   23.4287 H   0  0  0  0  0  0  0  0  0  0  0  0
  1 14  1  0  0  0  0
  1 16  2  0  0  0  0
  1 18  1  0  0  0  0
  2  3  1  0  0  0  0
  2  4  1  0  0  0  0
  3  6  1  6  0  0  0
  4  7  1  1  0  0  0
  5  8  1  0  0  0  0
  5 14  1  0  0  0  0
  6  7  1  0  0  0  0
  6 14  1  0  0  0  0
  7 17  1  0  0  0  0
  8 12  1  1  0  0  0
  8 17  1  0  0  0  0
  9 13  1  0  0  0  0
 10 13  1  0  0  0  0
 11 13  1  0  0  0  0
 12 15  1  0  0  0  0
 13 18  1  0  0  0  0
  2 19  1  0  0  0  0
  2 20  1  0  0  0  0
  3 21  1  0  0  0  0
  3 22  1  0  0  0  0
  4 23  1  0  0  0  0
  4 24  1  0  0  0  0
  5 25  1  0  0  0  0
  5 26  1  0  0  0  0
  6 27  1  0  0  0  0
  7 28  1  0  0  0  0
  8 29  1  0  0  0  0
  9 30  1  0  0  0  0
  9 31  1  0  0  0  0
  9 32  1  0  0  0  0
 10 33  1  0  0  0  0
 10 34  1  0  0  0  0
 10 35  1  0  0  0  0
 11 36  1  0  0  0  0
 11 37  1  0  0  0  0
 11 38  1  0  0  0  0
 12 39  1  0  0  0  0
 12 40  1  0  0  0  0
 15 41  1  0  0  0  0
 15 42  1  0  0  0  0
M  END
> <id>
EN300-7444834

> <smiles>
CC(C)(C)OC(=O)N1C[C@@H](CN)O[C@H]2CCC[C@@H]21 |&1:9,13,17,r|

> <IUPAC Name>
rac-tert-butyl (2R,4aS,7aS)-2-(aminomethyl)-octahydrocyclopenta[b]morpholine-4-carboxylate

> <CAS>
2375248-57-8

> <URL>
https://www.enaminestore.com/catalog/EN300-7444834

> <ROCS_ShapeQuery>
A71EV2A-x0451_0A_A71EV2A-x0310_0A_A71EV2A-x0416_0A_peptide

> <ROCS_TanimotoCombo>
0.526 

> <ROCS_ShapeTanimoto>
0.334 

> <ROCS_ColorTanimoto>
0.191 

> <ROCS_RefTversky>
0.291 

> <ROCS_RefColorTversky>
0.204 

> <ROCS_RefTverskyCombo>
0.495 

> <ROCS_FitTversky>
1.811 

> <ROCS_FitColorTversky>
0.754 

> <ROCS_FitTverskyCombo>
2.565 

> <ROCS_ColorScore>
-6.218

> <ROCS_Overlap>
2017.455

> <ROCS_Rank>
128                 

$$$$
untitled-dbase-118869_22
  -OEChem-11132313473D

 42 43  0     1  0  0  0  0  0999 V2000
   10.4288   13.0621   23.5139 C   0  0  0  0  0  0  0  0  0  0  0  0
    6.6912   12.5666   26.1789 C   0  0  0  0  0  0  0  0  0  0  0  0
    7.9026   13.1409   25.4212 C   0  0  0  0  0  0  0  0  0  0  0  0
    6.5875   11.0943   25.7684 C   0  0  0  0  0  0  0  0  0  0  0  0
    9.9591   10.6591   23.2594 C   0  0  0  0  0  0  0  0  0  0  0  0
    8.6544   11.9050   24.9331 C   0  0  1  0  0  0  0  0  0  0  0  0
    7.4838   11.0035   24.5469 C   0  0  1  0  0  0  0  0  0  0  0  0
    8.7511    9.7287   23.0744 C   0  0  1  0  0  0  0  0  0  0  0  0
   13.0081   14.1638   22.9359 C   0  0  0  0  0  0  0  0  0  0  0  0
   12.4481   13.7219   20.5275 C   0  0  0  0  0  0  0  0  0  0  0  0
   11.0502   15.3255   21.8626 C   0  0  0  0  0  0  0  0  0  0  0  0
    9.1990    8.3040   22.7778 C   0  0  0  0  0  0  0  0  0  0  0  0
   11.8829   14.0452   21.9089 C   0  0  0  0  0  0  0  0  0  0  0  0
    9.6029   11.9716   23.8199 N   0  0  0  0  0  0  0  0  0  0  0  0
    8.1432    7.3914   23.0692 N   0  0  0  0  0  0  0  0  0  0  0  0
   10.5989   14.0257   24.2600 O   0  0  0  0  0  0  0  0  0  0  0  0
    7.9396    9.6949   24.2589 O   0  0  0  0  0  0  0  0  0  0  0  0
   11.0297   12.9598   22.2909 O   0  0  0  0  0  0  0  0  0  0  0  0
    6.8283   12.6502   27.2625 H   0  0  0  0  0  0  0  0  0  0  0  0
    5.7821   13.1189   25.9174 H   0  0  0  0  0  0  0  0  0  0  0  0
    7.5487   13.7477   24.5780 H   0  0  0  0  0  0  0  0  0  0  0  0
    8.5105   13.7764   26.0737 H   0  0  0  0  0  0  0  0  0  0  0  0
    6.9471   10.4381   26.5697 H   0  0  0  0  0  0  0  0  0  0  0  0
    5.5583   10.7959   25.5463 H   0  0  0  0  0  0  0  0  0  0  0  0
   10.6674   10.2187   23.9754 H   0  0  0  0  0  0  0  0  0  0  0  0
   10.4911   10.7704   22.3075 H   0  0  0  0  0  0  0  0  0  0  0  0
    9.2144   11.4620   25.7694 H   0  0  0  0  0  0  0  0  0  0  0  0
    6.9348   11.4023   23.6784 H   0  0  0  0  0  0  0  0  0  0  0  0
    8.1353   10.0811   22.2383 H   0  0  0  0  0  0  0  0  0  0  0  0
   12.6065   14.3958   23.9288 H   0  0  0  0  0  0  0  0  0  0  0  0
   13.5913   13.2397   23.0039 H   0  0  0  0  0  0  0  0  0  0  0  0
   13.6879   14.9839   22.6781 H   0  0  0  0  0  0  0  0  0  0  0  0
   11.6443   13.6358   19.7875 H   0  0  0  0  0  0  0  0  0  0  0  0
   12.9663   12.7561   20.5340 H   0  0  0  0  0  0  0  0  0  0  0  0
   13.1506   14.4900   20.1885 H   0  0  0  0  0  0  0  0  0  0  0  0
   10.2431   15.2406   21.1260 H   0  0  0  0  0  0  0  0  0  0  0  0
   10.6062   15.5533   22.8371 H   0  0  0  0  0  0  0  0  0  0  0  0
   11.6641   16.1785   21.5517 H   0  0  0  0  0  0  0  0  0  0  0  0
    9.4620    8.2571   21.7210 H   0  0  0  0  0  0  0  0  0  0  0  0
   10.0658    8.0963   23.4051 H   0  0  0  0  0  0  0  0  0  0  0  0
    8.4444    6.7222   23.7543 H   0  0  0  0  0  0  0  0  0  0  0  0
    7.3479    7.8876   23.4287 H   0  0  0  0  0  0  0  0  0  0  0  0
  1 14  1  0  0  0  0
  1 16  2  0  0  0  0
  1 18  1  0  0  0  0
  2  3  1  0  0  0  0
  2  4  1  0  0  0  0
  3  6  1  6  0  0  0
  4  7  1  1  0  0  0
  5  8  1  0  0  0  0
  5 14  1  0  0  0  0
  6  7  1  0  0  0  0
  6 14  1  0  0  0  0
  7 17  1  0  0  0  0
  8 12  1  1  0  0  0
  8 17  1  0  0  0  0
  9 13  1  0  0  0  0
 10 13  1  0  0  0  0
 11 13  1  0  0  0  0
 12 15  1  0  0  0  0
 13 18  1  0  0  0  0
  2 19  1  0  0  0  0
  2 20  1  0  0  0  0
  3 21  1  0  0  0  0
  3 22  1  0  0  0  0
  4 23  1  0  0  0  0
  4 24  1  0  0  0  0
  5 25  1  0  0  0  0
  5 26  1  0  0  0  0
  6 27  1  0  0  0  0
  7 28  1  0  0  0  0
  8 29  1  0  0  0  0
  9 30  1  0  0  0  0
  9 31  1  0  0  0  0
  9 32  1  0  0  0  0
 10 33  1  0  0  0  0
 10 34  1  0  0  0  0
 10 35  1  0  0  0  0
 11 36  1  0  0  0  0
 11 37  1  0  0  0  0
 11 38  1  0  0  0  0
 12 39  1  0  0  0  0
 12 40  1  0  0  0  0
 15 41  1  0  0  0  0
 15 42  1  0  0  0  0
M  END
> <id>
EN300-7444833

> <smiles>
Cl.CC(C)(C)OC(=O)N1C[C@@H](CN)O[C@H]2CCC[C@@H]21 |&1:10,14,18,r|

> <IUPAC Name>
rac-tert-butyl (2R,4aS,7aS)-2-(aminomethyl)-octahydrocyclopenta[b]morpholine-4-carboxylate hydrochloride

> <CAS>
2375248-58-9

> <Purity>
95

> <URL>
https://www.enaminestore.com/catalog/EN300-7444833

> <Saltdate>
Cl

> <ROCS_ShapeQuery>
A71EV2A-x0451_0A_A71EV2A-x0310_0A_A71EV2A-x0416_0A_peptide

> <ROCS_TanimotoCombo>
0.526 

> <ROCS_ShapeTanimoto>
0.334 

> <ROCS_ColorTanimoto>
0.191 

> <ROCS_RefTversky>
0.291 

> <ROCS_RefColorTversky>
0.204 

> <ROCS_RefTverskyCombo>
0.495 

> <ROCS_FitTversky>
1.811 

> <ROCS_FitColorTversky>
0.754 

> <ROCS_FitTverskyCombo>
2.565 

> <ROCS_ColorScore>
-6.218

> <ROCS_Overlap>
2017.455

> <ROCS_Rank>
129                 

$$$$
untitled-dbase-49499_24
  -OEChem-11132313473D

 41 42  0     0  0  0  0  0  0999 V2000
    8.2817   12.5042   24.4433 C   0  0  0  0  0  0  0  0  0  0  0  0
    8.8246   10.2760   23.6560 C   0  0  0  0  0  0  0  0  0  0  0  0
    7.7528    9.7539   24.4019 C   0  0  0  0  0  0  0  0  0  0  0  0
    7.2325   11.9853   25.1990 C   0  0  0  0  0  0  0  0  0  0  0  0
    9.0740   11.6544   23.6720 C   0  0  0  0  0  0  0  0  0  0  0  0
    6.9699   10.6155   25.1817 C   0  0  0  0  0  0  0  0  0  0  0  0
   10.8742   13.3449   23.2115 C   0  0  0  0  0  0  0  0  0  0  0  0
    9.6624    9.3665   22.7938 C   0  0  0  0  0  0  0  0  0  0  0  0
    7.4844    8.2690   24.4199 C   0  0  0  0  0  0  0  0  0  0  0  0
    9.5079    7.8922   23.1713 C   0  0  0  0  0  0  0  0  0  0  0  0
    6.3910   12.8979   26.0257 C   0  0  0  0  0  0  0  0  0  0  0  0
   11.1477   15.8369   22.4439 C   0  0  0  0  0  0  0  0  0  0  0  0
   13.1124   15.1419   21.0417 C   0  0  0  0  0  0  0  0  0  0  0  0
   10.7817   14.5728   20.2985 C   0  0  0  0  0  0  0  0  0  0  0  0
   11.7038   14.7712   21.5006 C   0  0  0  0  0  0  0  0  0  0  0  0
    8.0920    7.5479   23.2955 N   0  0  0  0  0  0  0  0  0  0  0  0
   10.1185   12.2120   22.9285 N   0  0  0  0  0  0  0  0  0  0  0  0
   10.7672   14.0839   24.1825 O   0  0  0  0  0  0  0  0  0  0  0  0
   11.7946   13.5330   22.2149 O   0  0  0  0  0  0  0  0  0  0  0  0
    5.9601   10.1212   25.9137 F   0  0  0  0  0  0  0  0  0  0  0  0
    8.4802   13.5740   24.4571 H   0  0  0  0  0  0  0  0  0  0  0  0
    9.3851    9.4762   21.7390 H   0  0  0  0  0  0  0  0  0  0  0  0
   10.7135    9.6636   22.8999 H   0  0  0  0  0  0  0  0  0  0  0  0
    7.8760    7.8352   25.3473 H   0  0  0  0  0  0  0  0  0  0  0  0
    6.4000    8.1037   24.4156 H   0  0  0  0  0  0  0  0  0  0  0  0
    9.9881    7.2466   22.4249 H   0  0  0  0  0  0  0  0  0  0  0  0
   10.0149    7.7026   24.1237 H   0  0  0  0  0  0  0  0  0  0  0  0
    5.5374   13.2636   25.4420 H   0  0  0  0  0  0  0  0  0  0  0  0
    6.0085   12.3872   26.9189 H   0  0  0  0  0  0  0  0  0  0  0  0
    6.9685   13.7629   26.3772 H   0  0  0  0  0  0  0  0  0  0  0  0
   10.1367   15.5745   22.7756 H   0  0  0  0  0  0  0  0  0  0  0  0
   11.7815   15.9640   23.3275 H   0  0  0  0  0  0  0  0  0  0  0  0
   11.0648   16.8043   21.9354 H   0  0  0  0  0  0  0  0  0  0  0  0
   13.5153   14.3799   20.3647 H   0  0  0  0  0  0  0  0  0  0  0  0
   13.7999   15.1924   21.8938 H   0  0  0  0  0  0  0  0  0  0  0  0
   13.1282   16.1073   20.5257 H   0  0  0  0  0  0  0  0  0  0  0  0
   11.1804   13.8084   19.6218 H   0  0  0  0  0  0  0  0  0  0  0  0
    9.7759   14.2703   20.6073 H   0  0  0  0  0  0  0  0  0  0  0  0
   10.7032   15.4950   19.7113 H   0  0  0  0  0  0  0  0  0  0  0  0
    8.0013    6.5436   23.4509 H   0  0  0  0  0  0  0  0  0  0  0  0
   10.3586   11.7222   22.0619 H   0  0  0  0  0  0  0  0  0  0  0  0
  1  4  2  0  0  0  0
  1  5  1  0  0  0  0
  2  3  1  0  0  0  0
  2  5  2  0  0  0  0
  2  8  1  0  0  0  0
  3  6  2  0  0  0  0
  3  9  1  0  0  0  0
  4  6  1  0  0  0  0
  4 11  1  0  0  0  0
  5 17  1  0  0  0  0
  6 20  1  0  0  0  0
  7 17  1  0  0  0  0
  7 18  2  0  0  0  0
  7 19  1  0  0  0  0
  8 10  1  0  0  0  0
  9 16  1  0  0  0  0
 10 16  1  0  0  0  0
 12 15  1  0  0  0  0
 13 15  1  0  0  0  0
 14 15  1  0  0  0  0
 15 19  1  0  0  0  0
  1 21  1  0  0  0  0
  8 22  1  0  0  0  0
  8 23  1  0  0  0  0
  9 24  1  0  0  0  0
  9 25  1  0  0  0  0
 10 26  1  0  0  0  0
 10 27  1  0  0  0  0
 11 28  1  0  0  0  0
 11 29  1  0  0  0  0
 11 30  1  0  0  0  0
 12 31  1  0  0  0  0
 12 32  1  0  0  0  0
 12 33  1  0  0  0  0
 13 34  1  0  0  0  0
 13 35  1  0  0  0  0
 13 36  1  0  0  0  0
 14 37  1  0  0  0  0
 14 38  1  0  0  0  0
 14 39  1  0  0  0  0
 16 40  1  0  0  0  0
 17 41  1  0  0  0  0
M  END
> <id>
EN300-1609848

> <smiles>
CC=1C=C(NC(=O)OC(C)(C)C)C=2CCNCC2C1F

> <IUPAC Name>
tert-butyl N-(8-fluoro-7-methyl-1,2,3,4-tetrahydroisoquinolin-5-yl)carbamate

> <CAS>
2172541-07-8

> <URL>
https://www.enaminestore.com/catalog/EN300-1609848

> <ROCS_ShapeQuery>
A71EV2A-x0451_0A_A71EV2A-x0310_0A_A71EV2A-x0416_0A_peptide

> <ROCS_TanimotoCombo>
0.526 

> <ROCS_ShapeTanimoto>
0.367 

> <ROCS_ColorTanimoto>
0.159 

> <ROCS_RefTversky>
0.315 

> <ROCS_RefColorTversky>
0.174 

> <ROCS_RefTverskyCombo>
0.489 

> <ROCS_FitTversky>
1.808 

> <ROCS_FitColorTversky>
0.645 

> <ROCS_FitTverskyCombo>
2.453 

> <ROCS_ColorScore>
-5.314

> <ROCS_Overlap>
2186.293

> <ROCS_Rank>
130                 

$$$$
untitled-dbase-73411_1
  -OEChem-11132313473D

 35 37  0     1  0  0  0  0  0999 V2000
    6.4581    9.6267   25.7437 C   0  0  0  0  0  0  0  0  0  0  0  0
    5.4859   10.3504   26.4360 C   0  0  0  0  0  0  0  0  0  0  0  0
    6.3801   12.4075   25.5436 C   0  0  0  0  0  0  0  0  0  0  0  0
    7.3526   11.6769   24.8516 C   0  0  0  0  0  0  0  0  0  0  0  0
    7.4009   10.2838   24.9448 C   0  0  0  0  0  0  0  0  0  0  0  0
    5.4475   11.7395   26.3356 C   0  0  0  0  0  0  0  0  0  0  0  0
    8.3509   12.3665   24.0066 C   0  0  0  0  0  0  0  0  0  0  0  0
   11.2320   14.3157   20.8500 C   0  0  0  0  0  0  0  0  0  0  0  0
   10.6320   13.4815   23.1390 C   0  0  0  0  0  0  0  0  0  0  0  0
    9.2295   10.1433   23.5280 C   0  0  0  0  0  0  0  0  0  0  0  0
   10.8388   12.9800   20.2655 C   0  0  0  0  0  0  0  0  0  0  0  0
    9.7693   12.3010   21.1015 C   0  0  0  0  0  0  0  0  0  0  0  0
   10.2703   12.1396   22.5277 C   0  0  2  0  0  0  0  0  0  0  0  0
   10.2572    9.3076   22.8024 C   0  0  0  0  0  0  0  0  0  0  0  0
    8.3612    9.5236   24.2649 N   0  0  0  0  0  0  0  0  0  0  0  0
   11.0991   14.4305   22.2303 N   0  0  0  0  0  0  0  0  0  0  0  0
    9.2734   11.5264   23.3645 N   0  0  0  0  0  0  0  0  0  0  0  0
    4.4643   12.4695   27.0358 N   0  0  0  0  0  0  0  0  0  0  0  0
    8.3176   13.5907   23.9177 O   0  0  0  0  0  0  0  0  0  0  0  0
   11.6879   15.2156   20.1448 O   0  0  0  0  0  0  0  0  0  0  0  0
   10.5914   13.6951   24.3505 O   0  0  0  0  0  0  0  0  0  0  0  0
   10.0739    8.0028   23.0678 F   0  0  0  0  0  0  0  0  0  0  0  0
   10.1589    9.4878   21.4741 F   0  0  0  0  0  0  0  0  0  0  0  0
   11.5002    9.6474   23.1850 F   0  0  0  0  0  0  0  0  0  0  0  0
    6.4755    8.5430   25.8314 H   0  0  0  0  0  0  0  0  0  0  0  0
    4.7632    9.8196   27.0504 H   0  0  0  0  0  0  0  0  0  0  0  0
    6.3421   13.4918   25.4716 H   0  0  0  0  0  0  0  0  0  0  0  0
   10.4633   13.1423   19.2493 H   0  0  0  0  0  0  0  0  0  0  0  0
   11.7388   12.3582   20.2022 H   0  0  0  0  0  0  0  0  0  0  0  0
    8.8540   12.9075   21.0836 H   0  0  0  0  0  0  0  0  0  0  0  0
    9.5281   11.3242   20.6666 H   0  0  0  0  0  0  0  0  0  0  0  0
   11.1663   11.5060   22.5516 H   0  0  0  0  0  0  0  0  0  0  0  0
   11.3791   15.3229   22.6284 H   0  0  0  0  0  0  0  0  0  0  0  0
    3.7726   11.9754   27.5623 H   0  0  0  0  0  0  0  0  0  0  0  0
    4.4179   13.4614   26.9184 H   0  0  0  0  0  0  0  0  0  0  0  0
  1  2  1  0  0  0  0
  1  5  2  0  0  0  0
  2  6  2  0  0  0  0
  3  4  2  0  0  0  0
  3  6  1  0  0  0  0
  4  5  1  0  0  0  0
  4  7  1  0  0  0  0
  5 15  1  0  0  0  0
  6 18  1  0  0  0  0
  7 17  1  0  0  0  0
  7 19  2  0  0  0  0
  8 11  1  0  0  0  0
  8 16  1  0  0  0  0
  8 20  2  0  0  0  0
  9 13  1  0  0  0  0
  9 16  1  0  0  0  0
  9 21  2  0  0  0  0
 10 14  1  0  0  0  0
 10 15  2  0  0  0  0
 10 17  1  0  0  0  0
 11 12  1  0  0  0  0
 12 13  1  0  0  0  0
 13 17  1  0  0  0  0
 14 22  1  0  0  0  0
 14 23  1  0  0  0  0
 14 24  1  0  0  0  0
  1 25  1  0  0  0  0
  2 26  1  0  0  0  0
  3 27  1  0  0  0  0
 11 28  1  0  0  0  0
 11 29  1  0  0  0  0
 12 30  1  0  0  0  0
 12 31  1  0  0  0  0
 13 32  1  0  0  0  0
 16 33  1  0  0  0  0
 18 34  1  0  0  0  0
 18 35  1  0  0  0  0
M  END
> <id>
EN300-37447425

> <smiles>
NC=1C=CC=2N=C(N(C3CCC(=O)NC3=O)C(=O)C2C1)C(F)(F)F

> <IUPAC Name>
3-[6-amino-4-oxo-2-(trifluoromethyl)-3,4-dihydroquinazolin-3-yl]piperidine-2,6-dione

> <URL>
https://www.enaminestore.com/catalog/EN300-37447425

> <ROCS_ShapeQuery>
A71EV2A-x0451_0A_A71EV2A-x0310_0A_A71EV2A-x0416_0A_peptide

> <ROCS_TanimotoCombo>
0.526 

> <ROCS_ShapeTanimoto>
0.376 

> <ROCS_ColorTanimoto>
0.150 

> <ROCS_RefTversky>
0.330 

> <ROCS_RefColorTversky>
0.178 

> <ROCS_RefTverskyCombo>
0.507 

> <ROCS_FitTversky>
1.593 

> <ROCS_FitColorTversky>
0.491 

> <ROCS_FitTverskyCombo>
2.083 

> <ROCS_ColorScore>
-5.441

> <ROCS_Overlap>
2291.247

> <ROCS_Rank>
131                 

$$$$
untitled-dbase-148105_72
  -OEChem-11132313473D

 38 39  0     0  0  0  0  0  0999 V2000
    7.8855   13.1862   24.9153 C   0  0  0  0  0  0  0  0  0  0  0  0
    6.3677   11.6847   25.9829 C   0  0  0  0  0  0  0  0  0  0  0  0
    6.8110   12.9787   25.7845 C   0  0  0  0  0  0  0  0  0  0  0  0
    8.5072   12.1138   24.2650 C   0  0  0  0  0  0  0  0  0  0  0  0
    7.9503   10.8714   24.5510 C   0  0  0  0  0  0  0  0  0  0  0  0
    6.1871   14.0927   26.4780 C   0  0  0  0  0  0  0  0  0  0  0  0
   10.4021   13.4492   23.3355 C   0  0  0  0  0  0  0  0  0  0  0  0
    9.8527   11.1845   22.3941 C   0  0  0  0  0  0  0  0  0  0  0  0
   10.0602    9.8593   23.0959 C   0  0  0  0  0  0  0  0  0  0  0  0
   12.9533   14.6898   22.9075 C   0  0  0  0  0  0  0  0  0  0  0  0
   12.1995   14.9939   20.5308 C   0  0  0  0  0  0  0  0  0  0  0  0
   10.9411   16.1120   22.3947 C   0  0  0  0  0  0  0  0  0  0  0  0
   11.7497   14.8817   21.9859 C   0  0  0  0  0  0  0  0  0  0  0  0
    6.9145   10.6127   25.3817 N   0  0  0  0  0  0  0  0  0  0  0  0
    9.6042   12.2842   23.3469 N   0  0  0  0  0  0  0  0  0  0  0  0
    5.0010   14.4264   26.3779 O   0  0  0  0  0  0  0  0  0  0  0  0
   10.6594   14.1541   24.3089 O   0  0  0  0  0  0  0  0  0  0  0  0
    8.9466    8.5413   25.0475 O   0  0  0  0  0  0  0  0  0  0  0  0
    7.6292    8.9140   22.9143 O   0  0  0  0  0  0  0  0  0  0  0  0
    7.0598   14.7622   27.2809 O   0  0  0  0  0  0  0  0  0  0  0  0
   10.9075   13.7272   22.0895 O   0  0  0  0  0  0  0  0  0  0  0  0
    8.5736    9.3667   23.9161 S   0  0  0  0  0  0  0  0  0  0  0  0
    8.2436   14.2050   24.8044 H   0  0  0  0  0  0  0  0  0  0  0  0
    5.5420   11.4636   26.6518 H   0  0  0  0  0  0  0  0  0  0  0  0
   10.7282   11.4649   21.7952 H   0  0  0  0  0  0  0  0  0  0  0  0
    9.0180   11.0699   21.6976 H   0  0  0  0  0  0  0  0  0  0  0  0
   10.3412    9.0749   22.3856 H   0  0  0  0  0  0  0  0  0  0  0  0
   10.8426    9.9338   23.8573 H   0  0  0  0  0  0  0  0  0  0  0  0
   12.6346   14.6089   23.9529 H   0  0  0  0  0  0  0  0  0  0  0  0
   13.5219   13.7912   22.6467 H   0  0  0  0  0  0  0  0  0  0  0  0
   13.6270   15.5528   22.8556 H   0  0  0  0  0  0  0  0  0  0  0  0
   11.3391   15.1316   19.8660 H   0  0  0  0  0  0  0  0  0  0  0  0
   12.6977   14.0739   20.2042 H   0  0  0  0  0  0  0  0  0  0  0  0
   12.8885   15.8320   20.3843 H   0  0  0  0  0  0  0  0  0  0  0  0
   10.0777   16.2499   21.7338 H   0  0  0  0  0  0  0  0  0  0  0  0
   10.5786   16.0324   23.4247 H   0  0  0  0  0  0  0  0  0  0  0  0
   11.5455   17.0222   22.3076 H   0  0  0  0  0  0  0  0  0  0  0  0
    6.6478   15.5161   27.7545 H   0  0  0  0  0  0  0  0  0  0  0  0
  1  3  1  0  0  0  0
  1  4  2  0  0  0  0
  2  3  2  0  0  0  0
  2 14  1  0  0  0  0
  3  6  1  0  0  0  0
  4  5  1  0  0  0  0
  4 15  1  0  0  0  0
  5 14  2  0  0  0  0
  5 22  1  0  0  0  0
  6 16  2  0  0  0  0
  6 20  1  0  0  0  0
  7 15  1  0  0  0  0
  7 17  2  0  0  0  0
  7 21  1  0  0  0  0
  8  9  1  0  0  0  0
  8 15  1  0  0  0  0
  9 22  1  0  0  0  0
 10 13  1  0  0  0  0
 11 13  1  0  0  0  0
 12 13  1  0  0  0  0
 13 21  1  0  0  0  0
 18 22  2  0  0  0  0
 19 22  2  0  0  0  0
  1 23  1  0  0  0  0
  2 24  1  0  0  0  0
  8 25  1  0  0  0  0
  8 26  1  0  0  0  0
  9 27  1  0  0  0  0
  9 28  1  0  0  0  0
 10 29  1  0  0  0  0
 10 30  1  0  0  0  0
 10 31  1  0  0  0  0
 11 32  1  0  0  0  0
 11 33  1  0  0  0  0
 11 34  1  0  0  0  0
 12 35  1  0  0  0  0
 12 36  1  0  0  0  0
 12 37  1  0  0  0  0
 20 38  1  0  0  0  0
M  END
> <id>
EN300-27783646

> <smiles>
CC(C)(C)OC(=O)N1CCS(=O)(=O)C=2N=CC(=CC12)C(=O)O

> <IUPAC Name>
1-[(tert-butoxy)carbonyl]-4,4-dioxo-1H,2H,3H-4lambda6-pyrido[2,3-b][1,4]thiazine-7-carboxylic acid

> <CAS>
2639442-75-2

> <URL>
https://www.enaminestore.com/catalog/EN300-27783646

> <ROCS_ShapeQuery>
A71EV2A-x0451_0A_A71EV2A-x0310_0A_A71EV2A-x0416_0A_peptide

> <ROCS_TanimotoCombo>
0.526 

> <ROCS_ShapeTanimoto>
0.362 

> <ROCS_ColorTanimoto>
0.164 

> <ROCS_RefTversky>
0.315 

> <ROCS_RefColorTversky>
0.192 

> <ROCS_RefTverskyCombo>
0.507 

> <ROCS_FitTversky>
1.695 

> <ROCS_FitColorTversky>
0.529 

> <ROCS_FitTverskyCombo>
2.224 

> <ROCS_ColorScore>
-5.877

> <ROCS_Overlap>
2187.400

> <ROCS_Rank>
132                 

$$$$
untitled-dbase-83565_0
  -OEChem-11132313473D

 50 55  0     1  0  0  0  0  0999 V2000
    4.2674   11.2580   28.5426 C   0  0  0  0  0  0  0  0  0  0  0  0
    4.2906   12.6502   28.7104 C   0  0  0  0  0  0  0  0  0  0  0  0
    5.0650   10.6421   27.5768 C   0  0  0  0  0  0  0  0  0  0  0  0
    5.1087   13.4536   27.9118 C   0  0  0  0  0  0  0  0  0  0  0  0
    5.8655   11.4422   26.7808 C   0  0  0  0  0  0  0  0  0  0  0  0
    5.8915   12.8485   26.9390 C   0  0  0  0  0  0  0  0  0  0  0  0
    7.7840   11.8167   22.7086 C   0  0  0  0  0  0  0  0  0  0  0  0
    8.2288   10.8130   26.4001 C   0  0  0  0  0  0  0  0  0  0  0  0
    8.4392   10.4289   22.7572 C   0  0  2  0  0  0  0  0  0  0  0  0
    8.2335    9.8136   24.1719 C   0  0  1  0  0  0  0  0  0  0  0  0
    9.9479   10.7088   22.4978 C   0  0  1  0  0  0  0  0  0  0  0  0
    8.1421   12.5597   24.0274 C   0  0  1  0  0  0  0  0  0  0  0  0
    9.1019   10.6363   25.1758 C   0  0  1  0  0  0  0  0  0  0  0  0
    6.9167   12.4434   24.9693 C   0  0  1  0  0  0  0  0  0  0  0  0
    6.7788    9.9152   24.7368 C   0  0  2  0  0  0  0  0  0  0  0  0
   10.4293   11.7536   23.5512 C   0  0  2  0  0  0  0  0  0  0  0  0
    6.8733   11.0817   25.7375 C   0  0  2  0  0  0  0  0  0  0  0  0
   10.3220    8.4476   21.5001 C   0  0  0  0  0  0  0  0  0  0  0  0
    6.6520   14.8750   25.7250 C   0  0  0  0  0  0  0  0  0  0  0  0
   10.7917    9.4333   22.5179 C   0  0  0  0  0  0  0  0  0  0  0  0
    6.7745   13.4643   26.0199 N   0  0  1  0  0  0  0  0  0  0  0  0
    9.3980   11.9784   24.6029 N   0  0  1  0  0  0  0  0  0  0  0  0
    6.5003    8.6870   25.4056 O   0  0  0  0  0  0  0  0  0  0  0  0
   10.7797   12.9639   22.8757 O   0  0  0  0  0  0  0  0  0  0  0  0
    3.6305   10.6518   29.1814 H   0  0  0  0  0  0  0  0  0  0  0  0
    3.6667   13.1084   29.4735 H   0  0  0  0  0  0  0  0  0  0  0  0
    5.0593    9.5631   27.4830 H   0  0  0  0  0  0  0  0  0  0  0  0
    5.1116   14.5281   28.0609 H   0  0  0  0  0  0  0  0  0  0  0  0
    8.1576   12.3859   21.8469 H   0  0  0  0  0  0  0  0  0  0  0  0
    6.7041   11.7283   22.5493 H   0  0  0  0  0  0  0  0  0  0  0  0
    8.2075    9.8979   27.0063 H   0  0  0  0  0  0  0  0  0  0  0  0
    8.5848   11.6191   27.0537 H   0  0  0  0  0  0  0  0  0  0  0  0
    8.0215    9.7786   21.9811 H   0  0  0  0  0  0  0  0  0  0  0  0
    8.5677    8.7689   24.1681 H   0  0  0  0  0  0  0  0  0  0  0  0
   10.0468   11.1367   21.4903 H   0  0  0  0  0  0  0  0  0  0  0  0
    8.3097   13.6127   23.7773 H   0  0  0  0  0  0  0  0  0  0  0  0
   10.0250   10.1167   25.4578 H   0  0  0  0  0  0  0  0  0  0  0  0
    6.0054   12.5299   24.3540 H   0  0  0  0  0  0  0  0  0  0  0  0
    6.0217   10.0487   23.9585 H   0  0  0  0  0  0  0  0  0  0  0  0
   11.3555   11.4122   24.0297 H   0  0  0  0  0  0  0  0  0  0  0  0
    9.2754    8.1878   21.6975 H   0  0  0  0  0  0  0  0  0  0  0  0
   10.9143    7.5274   21.5437 H   0  0  0  0  0  0  0  0  0  0  0  0
   10.3830    8.8682   20.4907 H   0  0  0  0  0  0  0  0  0  0  0  0
    7.4209   15.1654   24.9940 H   0  0  0  0  0  0  0  0  0  0  0  0
    5.6545   15.0769   25.3076 H   0  0  0  0  0  0  0  0  0  0  0  0
    6.7871   15.4558   26.6493 H   0  0  0  0  0  0  0  0  0  0  0  0
   11.8345    9.6945   22.3240 H   0  0  0  0  0  0  0  0  0  0  0  0
   10.7384    8.9881   23.5139 H   0  0  0  0  0  0  0  0  0  0  0  0
    6.5830    7.9863   24.7406 H   0  0  0  0  0  0  0  0  0  0  0  0
   11.0716   13.5829   23.5610 H   0  0  0  0  0  0  0  0  0  0  0  0
  1  2  2  0  0  0  0
  1  3  1  0  0  0  0
  2  4  1  0  0  0  0
  3  5  2  0  0  0  0
  4  6  2  0  0  0  0
  5  6  1  0  0  0  0
  5 17  1  1  0  0  0
  6 21  1  0  0  0  0
  7  9  1  1  0  0  0
  7 12  1  6  0  0  0
  8 13  1  1  0  0  0
  8 17  1  0  0  0  0
  9 10  1  0  0  0  0
  9 11  1  0  0  0  0
 10 13  1  0  0  0  0
 10 15  1  0  0  0  0
 11 16  1  0  0  0  0
 11 20  1  6  0  0  0
 12 14  1  0  0  0  0
 12 22  1  0  0  0  0
 13 22  1  0  0  0  0
 14 17  1  0  0  0  0
 14 21  1  1  0  0  0
 15 17  1  0  0  0  0
 15 23  1  1  0  0  0
 16 22  1  0  0  0  0
 16 24  1  1  0  0  0
 18 20  1  0  0  0  0
 19 21  1  0  0  0  0
  1 25  1  0  0  0  0
  2 26  1  0  0  0  0
  3 27  1  0  0  0  0
  4 28  1  0  0  0  0
  7 29  1  0  0  0  0
  7 30  1  0  0  0  0
  8 31  1  0  0  0  0
  8 32  1  0  0  0  0
  9 33  1  0  0  0  0
 10 34  1  0  0  0  0
 11 35  1  0  0  0  0
 12 36  1  0  0  0  0
 13 37  1  0  0  0  0
 14 38  1  0  0  0  0
 15 39  1  0  0  0  0
 16 40  1  0  0  0  0
 18 41  1  0  0  0  0
 18 42  1  0  0  0  0
 18 43  1  0  0  0  0
 19 44  1  0  0  0  0
 19 45  1  0  0  0  0
 19 46  1  0  0  0  0
 20 47  1  0  0  0  0
 20 48  1  0  0  0  0
 23 49  1  0  0  0  0
 24 50  1  0  0  0  0
M  END
> <id>
EN300-26869018

> <smiles>
CC[C@@H]1[C@@H](O)N2[C@H]3C[C@@]45[C@H](O)C3[C@H]1C[C@H]2[C@@H]5N(C)C=6C=CC=CC64

> <IUPAC Name>
(1R,9R,10S,12R,13S,14R,16S,18R)-13-ethyl-8-methyl-8,15-diazahexacyclo[14.2.1.0^{1,9}.0^{2,7}.0^{10,15}.0^{12,17}]nonadeca-2(7),3,5-triene-14,18-diol

> <URL>
https://www.enaminestore.com/catalog/EN300-26869018

> <ROCS_ShapeQuery>
A71EV2A-x0451_0A_A71EV2A-x0310_0A_A71EV2A-x0416_0A_peptide

> <ROCS_TanimotoCombo>
0.526 

> <ROCS_ShapeTanimoto>
0.316 

> <ROCS_ColorTanimoto>
0.209 

> <ROCS_RefTversky>
0.290 

> <ROCS_RefColorTversky>
0.315 

> <ROCS_RefTverskyCombo>
0.605 

> <ROCS_FitTversky>
1.396 

> <ROCS_FitColorTversky>
0.384 

> <ROCS_FitTverskyCombo>
1.779 

> <ROCS_ColorScore>
-9.897

> <ROCS_Overlap>
2017.895

> <ROCS_Rank>
133                 

$$$$
untitled-dbase-104185_427
  -OEChem-11132313473D

 37 38  0     0  0  0  0  0  0999 V2000
    6.5763   10.7628   25.3163 C   0  0  0  0  0  0  0  0  0  0  0  0
    6.1261   11.9321   25.9100 C   0  0  0  0  0  0  0  0  0  0  0  0
    7.7722   10.7670   24.5986 C   0  0  0  0  0  0  0  0  0  0  0  0
    6.8968   13.0668   25.7512 C   0  0  0  0  0  0  0  0  0  0  0  0
    8.4837   11.9614   24.4602 C   0  0  0  0  0  0  0  0  0  0  0  0
   10.4120   13.1498   23.4546 C   0  0  0  0  0  0  0  0  0  0  0  0
   10.0047   10.7178   22.9784 C   0  0  0  0  0  0  0  0  0  0  0  0
    9.5575    9.5232   23.7953 C   0  0  0  0  0  0  0  0  0  0  0  0
   12.8960   14.4554   22.8752 C   0  0  0  0  0  0  0  0  0  0  0  0
   12.2413   14.2271   20.4609 C   0  0  0  0  0  0  0  0  0  0  0  0
   10.8258   15.6003   22.0161 C   0  0  0  0  0  0  0  0  0  0  0  0
    6.4545   14.3468   26.3779 C   0  0  0  0  0  0  0  0  0  0  0  0
   11.7290   14.3742   21.8921 C   0  0  0  0  0  0  0  0  0  0  0  0
    8.0505   13.1062   25.0462 N   0  0  0  0  0  0  0  0  0  0  0  0
    9.6706   11.9740   23.6560 N   0  0  0  0  0  0  0  0  0  0  0  0
   10.5709   14.0451   24.2818 O   0  0  0  0  0  0  0  0  0  0  0  0
    8.1558    9.5740   24.0487 O   0  0  0  0  0  0  0  0  0  0  0  0
    5.0343   14.3726   26.4457 O   0  0  0  0  0  0  0  0  0  0  0  0
   10.9572   13.2065   22.1963 O   0  0  0  0  0  0  0  0  0  0  0  0
    6.0000    9.8479   25.4231 H   0  0  0  0  0  0  0  0  0  0  0  0
    5.2028   11.9429   26.4786 H   0  0  0  0  0  0  0  0  0  0  0  0
   11.0817   10.6564   22.7938 H   0  0  0  0  0  0  0  0  0  0  0  0
    9.4939   10.7403   22.0081 H   0  0  0  0  0  0  0  0  0  0  0  0
    9.7569    8.6009   23.2393 H   0  0  0  0  0  0  0  0  0  0  0  0
   10.1027    9.4518   24.7452 H   0  0  0  0  0  0  0  0  0  0  0  0
   12.5324   14.5611   23.9036 H   0  0  0  0  0  0  0  0  0  0  0  0
   13.5319   13.5658   22.8208 H   0  0  0  0  0  0  0  0  0  0  0  0
   13.5158   15.3367   22.6744 H   0  0  0  0  0  0  0  0  0  0  0  0
   11.4074   14.1684   19.7522 H   0  0  0  0  0  0  0  0  0  0  0  0
   12.8116   13.2985   20.3441 H   0  0  0  0  0  0  0  0  0  0  0  0
   12.8826   15.0664   20.1731 H   0  0  0  0  0  0  0  0  0  0  0  0
    9.9886   15.5423   21.3110 H   0  0  0  0  0  0  0  0  0  0  0  0
   10.4192   15.7011   23.0276 H   0  0  0  0  0  0  0  0  0  0  0  0
   11.3754   16.5158   21.7689 H   0  0  0  0  0  0  0  0  0  0  0  0
    6.8569   14.4548   27.3941 H   0  0  0  0  0  0  0  0  0  0  0  0
    6.7963   15.2123   25.7944 H   0  0  0  0  0  0  0  0  0  0  0  0
    4.7666   13.6122   26.9864 H   0  0  0  0  0  0  0  0  0  0  0  0
  1  2  1  0  0  0  0
  1  3  2  0  0  0  0
  2  4  2  0  0  0  0
  3  5  1  0  0  0  0
  3 17  1  0  0  0  0
  4 12  1  0  0  0  0
  4 14  1  0  0  0  0
  5 14  2  0  0  0  0
  5 15  1  0  0  0  0
  6 15  1  0  0  0  0
  6 16  2  0  0  0  0
  6 19  1  0  0  0  0
  7  8  1  0  0  0  0
  7 15  1  0  0  0  0
  8 17  1  0  0  0  0
  9 13  1  0  0  0  0
 10 13  1  0  0  0  0
 11 13  1  0  0  0  0
 12 18  1  0  0  0  0
 13 19  1  0  0  0  0
  1 20  1  0  0  0  0
  2 21  1  0  0  0  0
  7 22  1  0  0  0  0
  7 23  1  0  0  0  0
  8 24  1  0  0  0  0
  8 25  1  0  0  0  0
  9 26  1  0  0  0  0
  9 27  1  0  0  0  0
  9 28  1  0  0  0  0
 10 29  1  0  0  0  0
 10 30  1  0  0  0  0
 10 31  1  0  0  0  0
 11 32  1  0  0  0  0
 11 33  1  0  0  0  0
 11 34  1  0  0  0  0
 12 35  1  0  0  0  0
 12 36  1  0  0  0  0
 18 37  1  0  0  0  0
M  END
> <id>
EN300-26666181

> <smiles>
CC(C)(C)OC(=O)N1CCOC=2C=CC(CO)=NC12

> <IUPAC Name>
tert-butyl 6-(hydroxymethyl)-2H,3H,4H-pyrido[3,2-b][1,4]oxazine-4-carboxylate

> <CAS>
2413898-62-9

> <URL>
https://www.enaminestore.com/catalog/EN300-26666181

> <ROCS_ShapeQuery>
A71EV2A-x0451_0A_A71EV2A-x0310_0A_A71EV2A-x0416_0A_peptide

> <ROCS_TanimotoCombo>
0.525 

> <ROCS_ShapeTanimoto>
0.349 

> <ROCS_ColorTanimoto>
0.177 

> <ROCS_RefTversky>
0.303 

> <ROCS_RefColorTversky>
0.195 

> <ROCS_RefTverskyCombo>
0.498 

> <ROCS_FitTversky>
1.778 

> <ROCS_FitColorTversky>
0.649 

> <ROCS_FitTverskyCombo>
2.427 

> <ROCS_ColorScore>
-5.964

> <ROCS_Overlap>
2099.164

> <ROCS_Rank>
134                 

$$$$
untitled-dbase-175987_84
  -OEChem-11132313473D

 30 31  0     0  0  0  0  0  0999 V2000
    6.7984   12.6812   24.8404 C   0  0  0  0  0  0  0  0  0  0  0  0
    6.0110   10.8970   26.2690 C   0  0  0  0  0  0  0  0  0  0  0  0
    5.9825   12.2350   25.8823 C   0  0  0  0  0  0  0  0  0  0  0  0
    7.6637   11.7978   24.1791 C   0  0  0  0  0  0  0  0  0  0  0  0
    7.6958   10.4574   24.5957 C   0  0  0  0  0  0  0  0  0  0  0  0
    6.8610   10.0041   25.6206 C   0  0  0  0  0  0  0  0  0  0  0  0
    5.0914   13.1669   26.5552 C   0  0  0  0  0  0  0  0  0  0  0  0
   10.8122   13.0598   23.7142 C   0  0  0  0  0  0  0  0  0  0  0  0
    8.4956   12.2869   23.0202 C   0  0  0  0  0  0  0  0  0  0  0  0
   10.4137   10.7085   23.0652 C   0  0  0  0  0  0  0  0  0  0  0  0
    9.8801    9.7922   24.1596 C   0  0  0  0  0  0  0  0  0  0  0  0
   12.2462   12.9575   23.2571 C   0  0  0  0  0  0  0  0  0  0  0  0
    9.9318   12.0812   23.2441 N   0  0  0  0  0  0  0  0  0  0  0  0
    4.9766   14.3675   26.2879 O   0  0  0  0  0  0  0  0  0  0  0  0
   10.4856   13.9794   24.4692 O   0  0  0  0  0  0  0  0  0  0  0  0
    8.4854    9.5204   23.9789 O   0  0  0  0  0  0  0  0  0  0  0  0
    4.3671   12.5732   27.5430 O   0  0  0  0  0  0  0  0  0  0  0  0
   12.4087   11.8956   22.4482 F   0  0  0  0  0  0  0  0  0  0  0  0
   12.6075   14.0625   22.5812 F   0  0  0  0  0  0  0  0  0  0  0  0
   13.0721   12.8174   24.3091 F   0  0  0  0  0  0  0  0  0  0  0  0
    6.8619    8.3514   26.1234 Cl  0  0  0  0  0  0  0  0  0  0  0  0
    6.7547   13.7249   24.5352 H   0  0  0  0  0  0  0  0  0  0  0  0
    5.3651   10.5547   27.0748 H   0  0  0  0  0  0  0  0  0  0  0  0
    8.2036   11.7512   22.1084 H   0  0  0  0  0  0  0  0  0  0  0  0
    8.2928   13.3431   22.8236 H   0  0  0  0  0  0  0  0  0  0  0  0
   11.5080   10.6939   23.0822 H   0  0  0  0  0  0  0  0  0  0  0  0
   10.0879   10.3678   22.0758 H   0  0  0  0  0  0  0  0  0  0  0  0
   10.3909    8.8257   24.0827 H   0  0  0  0  0  0  0  0  0  0  0  0
   10.0965   10.1776   25.1654 H   0  0  0  0  0  0  0  0  0  0  0  0
    3.7620   13.1935   28.0027 H   0  0  0  0  0  0  0  0  0  0  0  0
  1  3  1  0  0  0  0
  1  4  2  0  0  0  0
  2  3  2  0  0  0  0
  2  6  1  0  0  0  0
  3  7  1  0  0  0  0
  4  5  1  0  0  0  0
  4  9  1  0  0  0  0
  5  6  2  0  0  0  0
  5 16  1  0  0  0  0
  6 21  1  0  0  0  0
  7 14  2  0  0  0  0
  7 17  1  0  0  0  0
  8 12  1  0  0  0  0
  8 13  1  0  0  0  0
  8 15  2  0  0  0  0
  9 13  1  0  0  0  0
 10 11  1  0  0  0  0
 10 13  1  0  0  0  0
 11 16  1  0  0  0  0
 12 18  1  0  0  0  0
 12 19  1  0  0  0  0
 12 20  1  0  0  0  0
  1 22  1  0  0  0  0
  2 23  1  0  0  0  0
  9 24  1  0  0  0  0
  9 25  1  0  0  0  0
 10 26  1  0  0  0  0
 10 27  1  0  0  0  0
 11 28  1  0  0  0  0
 11 29  1  0  0  0  0
 17 30  1  0  0  0  0
M  END
> <id>
EN300-39680337

> <smiles>
OC(=O)C=1C=C(Cl)C=2OCCN(CC2C1)C(=O)C(F)(F)F

> <IUPAC Name>
9-chloro-4-(2,2,2-trifluoroacetyl)-2,3,4,5-tetrahydro-1,4-benzoxazepine-7-carboxylic acid

> <URL>
https://www.enaminestore.com/catalog/EN300-39680337

> <ROCS_ShapeQuery>
A71EV2A-x0451_0A_A71EV2A-x0310_0A_A71EV2A-x0416_0A_peptide

> <ROCS_TanimotoCombo>
0.525 

> <ROCS_ShapeTanimoto>
0.329 

> <ROCS_ColorTanimoto>
0.196 

> <ROCS_RefTversky>
0.293 

> <ROCS_RefColorTversky>
0.208 

> <ROCS_RefTverskyCombo>
0.501 

> <ROCS_FitTversky>
1.602 

> <ROCS_FitColorTversky>
0.769 

> <ROCS_FitTverskyCombo>
2.371 

> <ROCS_ColorScore>
-6.346

> <ROCS_Overlap>
2034.475

> <ROCS_Rank>
135                 

$$$$
untitled-dbase-154147_33
  -OEChem-11132313473D

 33 34  0     0  0  0  0  0  0999 V2000
    6.9187   12.4327   25.0929 C   0  0  0  0  0  0  0  0  0  0  0  0
    7.9107   10.6710   24.5327 C   0  0  0  0  0  0  0  0  0  0  0  0
   10.1100   10.3875   22.8294 C   0  0  0  0  0  0  0  0  0  0  0  0
    9.6195   11.6252   23.0584 C   0  0  0  0  0  0  0  0  0  0  0  0
    9.3920    9.2612   23.5394 C   0  0  0  0  0  0  0  0  0  0  0  0
   10.6534   13.8108   23.2303 C   0  0  0  0  0  0  0  0  0  0  0  0
    9.8673    7.8350   23.3448 C   0  0  0  0  0  0  0  0  0  0  0  0
   13.1200   14.2397   23.5508 C   0  0  0  0  0  0  0  0  0  0  0  0
   13.1163   14.8281   21.1089 C   0  0  0  0  0  0  0  0  0  0  0  0
   12.6121   16.5945   22.8217 C   0  0  0  0  0  0  0  0  0  0  0  0
   12.4848   15.1130   22.4698 C   0  0  0  0  0  0  0  0  0  0  0  0
    6.9061   11.0888   25.2760 N   0  0  0  0  0  0  0  0  0  0  0  0
    7.8646   12.8976   24.2829 N   0  0  0  0  0  0  0  0  0  0  0  0
    8.3691    9.4091   24.3305 N   0  0  0  0  0  0  0  0  0  0  0  0
    8.5164   11.7626   23.9130 N   0  0  0  0  0  0  0  0  0  0  0  0
   10.1422   12.7593   22.5005 N   0  0  0  0  0  0  0  0  0  0  0  0
   10.7127   13.8818   24.4540 O   0  0  0  0  0  0  0  0  0  0  0  0
   11.0940   14.7842   22.3774 O   0  0  0  0  0  0  0  0  0  0  0  0
   11.7232   10.0167   21.6042 I   0  0  0  0  0  0  0  0  0  0  0  0
    6.2142   13.1006   25.5653 H   0  0  0  0  0  0  0  0  0  0  0  0
   10.6085    7.6100   24.1008 H   0  0  0  0  0  0  0  0  0  0  0  0
   10.2982    7.7442   22.3556 H   0  0  0  0  0  0  0  0  0  0  0  0
    9.0181    7.1701   23.4397 H   0  0  0  0  0  0  0  0  0  0  0  0
   12.6694   14.4412   24.5292 H   0  0  0  0  0  0  0  0  0  0  0  0
   13.0048   13.1740   23.3278 H   0  0  0  0  0  0  0  0  0  0  0  0
   14.1892   14.4584   23.6520 H   0  0  0  0  0  0  0  0  0  0  0  0
   12.6635   15.4525   20.3303 H   0  0  0  0  0  0  0  0  0  0  0  0
   12.9447   13.7879   20.8090 H   0  0  0  0  0  0  0  0  0  0  0  0
   14.1953   15.0129   21.1176 H   0  0  0  0  0  0  0  0  0  0  0  0
   12.1565   17.2211   22.0465 H   0  0  0  0  0  0  0  0  0  0  0  0
   12.1319   16.8245   23.7784 H   0  0  0  0  0  0  0  0  0  0  0  0
   13.6653   16.8919   22.8803 H   0  0  0  0  0  0  0  0  0  0  0  0
   10.1542   12.8308   21.4895 H   0  0  0  0  0  0  0  0  0  0  0  0
  1 12  1  0  0  0  0
  1 13  2  0  0  0  0
  2 12  2  0  0  0  0
  2 14  1  0  0  0  0
  2 15  1  0  0  0  0
  3  4  2  0  0  0  0
  3  5  1  0  0  0  0
  3 19  1  0  0  0  0
  4 15  1  0  0  0  0
  4 16  1  0  0  0  0
  5  7  1  0  0  0  0
  5 14  2  0  0  0  0
  6 16  1  0  0  0  0
  6 17  2  0  0  0  0
  6 18  1  0  0  0  0
  8 11  1  0  0  0  0
  9 11  1  0  0  0  0
 10 11  1  0  0  0  0
 11 18  1  0  0  0  0
 13 15  1  0  0  0  0
  1 20  1  0  0  0  0
  7 21  1  0  0  0  0
  7 22  1  0  0  0  0
  7 23  1  0  0  0  0
  8 24  1  0  0  0  0
  8 25  1  0  0  0  0
  8 26  1  0  0  0  0
  9 27  1  0  0  0  0
  9 28  1  0  0  0  0
  9 29  1  0  0  0  0
 10 30  1  0  0  0  0
 10 31  1  0  0  0  0
 10 32  1  0  0  0  0
 16 33  1  0  0  0  0
M  END
> <id>
EN300-28301338

> <smiles>
CC1=NC2=NC=NN2C(NC(=O)OC(C)(C)C)=C1I

> <IUPAC Name>
tert-butyl N-{6-iodo-5-methyl-[1,2,4]triazolo[1,5-a]pyrimidin-7-yl}carbamate

> <CAS>
2680775-90-8

> <URL>
https://www.enaminestore.com/catalog/EN300-28301338

> <ROCS_ShapeQuery>
A71EV2A-x0451_0A_A71EV2A-x0310_0A_A71EV2A-x0416_0A_peptide

> <ROCS_TanimotoCombo>
0.525 

> <ROCS_ShapeTanimoto>
0.342 

> <ROCS_ColorTanimoto>
0.183 

> <ROCS_RefTversky>
0.298 

> <ROCS_RefColorTversky>
0.207 

> <ROCS_RefTverskyCombo>
0.505 

> <ROCS_FitTversky>
1.752 

> <ROCS_FitColorTversky>
0.621 

> <ROCS_FitTverskyCombo>
2.373 

> <ROCS_ColorScore>
-6.318

> <ROCS_Overlap>
2067.436

> <ROCS_Rank>
136                 

$$$$
untitled-dbase-2558_5
  -OEChem-11132313473D

 26 27  0     0  0  0  0  0  0999 V2000
   10.2698   10.7611   23.2429 C   0  0  0  0  0  0  0  0  0  0  0  0
    8.5577   12.0318   24.3385 C   0  0  0  0  0  0  0  0  0  0  0  0
    9.7911   11.9847   23.6938 C   0  0  0  0  0  0  0  0  0  0  0  0
    9.4891    9.6372   23.4596 C   0  0  0  0  0  0  0  0  0  0  0  0
    7.8350   10.8522   24.5156 C   0  0  0  0  0  0  0  0  0  0  0  0
    7.9961   13.3023   24.8401 C   0  0  0  0  0  0  0  0  0  0  0  0
    6.1200   11.9571   25.5852 C   0  0  0  0  0  0  0  0  0  0  0  0
   10.6330   13.1502   23.4547 C   0  0  0  0  0  0  0  0  0  0  0  0
    9.9772    8.3078   22.9875 C   0  0  0  0  0  0  0  0  0  0  0  0
   12.2552   14.0836   21.9793 C   0  0  0  0  0  0  0  0  0  0  0  0
    8.2879    9.6529   24.0826 N   0  0  0  0  0  0  0  0  0  0  0  0
    6.5829   10.8272   25.1581 N   0  0  0  0  0  0  0  0  0  0  0  0
    6.7622   13.1700   25.4555 N   0  0  0  0  0  0  0  0  0  0  0  0
    8.5699   14.3783   24.7237 O   0  0  0  0  0  0  0  0  0  0  0  0
   10.6664   14.1475   24.1847 O   0  0  0  0  0  0  0  0  0  0  0  0
   11.3830   13.0012   22.3215 O   0  0  0  0  0  0  0  0  0  0  0  0
    4.5837   12.0604   26.3970 S   0  0  0  0  0  0  0  0  0  0  0  0
   11.2269   10.6833   22.7358 H   0  0  0  0  0  0  0  0  0  0  0  0
   10.5682    7.8191   23.7711 H   0  0  0  0  0  0  0  0  0  0  0  0
    9.1409    7.6500   22.7196 H   0  0  0  0  0  0  0  0  0  0  0  0
   10.6022    8.4097   22.0913 H   0  0  0  0  0  0  0  0  0  0  0  0
   12.7941   13.8416   21.0600 H   0  0  0  0  0  0  0  0  0  0  0  0
   12.9626   14.2545   22.7947 H   0  0  0  0  0  0  0  0  0  0  0  0
   11.6584   14.9852   21.8224 H   0  0  0  0  0  0  0  0  0  0  0  0
    6.3132   14.0020   25.8262 H   0  0  0  0  0  0  0  0  0  0  0  0
    4.2780   10.7590   26.3389 H   0  0  0  0  0  0  0  0  0  0  0  0
  1  3  2  0  0  0  0
  1  4  1  0  0  0  0
  2  3  1  0  0  0  0
  2  5  2  0  0  0  0
  2  6  1  0  0  0  0
  3  8  1  0  0  0  0
  4  9  1  0  0  0  0
  4 11  2  0  0  0  0
  5 11  1  0  0  0  0
  5 12  1  0  0  0  0
  6 13  1  0  0  0  0
  6 14  2  0  0  0  0
  7 12  2  0  0  0  0
  7 13  1  0  0  0  0
  7 17  1  0  0  0  0
  8 15  2  0  0  0  0
  8 16  1  0  0  0  0
 10 16  1  0  0  0  0
  1 18  1  0  0  0  0
  9 19  1  0  0  0  0
  9 20  1  0  0  0  0
  9 21  1  0  0  0  0
 10 22  1  0  0  0  0
 10 23  1  0  0  0  0
 10 24  1  0  0  0  0
 13 25  1  0  0  0  0
 17 26  1  0  0  0  0
M  END
> <id>
EN300-12511

> <smiles>
COC(=O)C=1C=C(C)N=C2N=C(S)NC(=O)C12

> <MDLNUMBER>
MFCD06660829

> <IUPAC Name>
methyl 7-methyl-4-oxo-2-sulfanyl-3H,4H-pyrido[2,3-d]pyrimidine-5-carboxylate

> <CAS>
885524-05-0

> <Purity>
95

> <URL>
https://www.enaminestore.com/catalog/EN300-12511

> <ROCS_ShapeQuery>
A71EV2A-x0451_0A_A71EV2A-x0310_0A_A71EV2A-x0416_0A_peptide

> <ROCS_TanimotoCombo>
0.525 

> <ROCS_ShapeTanimoto>
0.330 

> <ROCS_ColorTanimoto>
0.195 

> <ROCS_RefTversky>
0.287 

> <ROCS_RefColorTversky>
0.213 

> <ROCS_RefTverskyCombo>
0.500 

> <ROCS_FitTversky>
1.810 

> <ROCS_FitColorTversky>
0.706 

> <ROCS_FitTverskyCombo>
2.515 

> <ROCS_ColorScore>
-6.492

> <ROCS_Overlap>
1991.839

> <ROCS_Rank>
137                 

$$$$
untitled-dbase-104653_21
  -OEChem-11132313473D

 34 35  0     0  0  0  0  0  0999 V2000
    6.7680   12.5647   26.2471 C   0  0  0  0  0  0  0  0  0  0  0  0
    6.8143   11.2397   25.8325 C   0  0  0  0  0  0  0  0  0  0  0  0
    9.4398   10.0788   22.8566 C   0  0  0  0  0  0  0  0  0  0  0  0
    7.6213   13.4534   25.6309 C   0  0  0  0  0  0  0  0  0  0  0  0
    7.6893   10.8289   24.8341 C   0  0  0  0  0  0  0  0  0  0  0  0
    8.5183   11.8143   24.2696 C   0  0  0  0  0  0  0  0  0  0  0  0
    9.3933   11.4037   23.2712 C   0  0  0  0  0  0  0  0  0  0  0  0
    8.5864    9.1900   23.4727 C   0  0  0  0  0  0  0  0  0  0  0  0
   10.8140   13.4742   23.1969 C   0  0  0  0  0  0  0  0  0  0  0  0
   13.1623   14.9773   23.8341 C   0  0  0  0  0  0  0  0  0  0  0  0
   13.0614   15.7912   21.4599 C   0  0  0  0  0  0  0  0  0  0  0  0
   11.1814   16.3124   23.0416 C   0  0  0  0  0  0  0  0  0  0  0  0
   12.2474   15.2899   22.6508 C   0  0  0  0  0  0  0  0  0  0  0  0
    8.4887   13.1045   24.6575 N   0  0  0  0  0  0  0  0  0  0  0  0
    7.7191    9.5388   24.4461 N   0  0  0  0  0  0  0  0  0  0  0  0
   10.2517   12.3229   22.6577 N   0  0  0  0  0  0  0  0  0  0  0  0
   10.6633   13.9127   24.3308 O   0  0  0  0  0  0  0  0  0  0  0  0
    8.5983    7.8748   23.0915 O   0  0  0  0  0  0  0  0  0  0  0  0
   11.5936   14.0807   22.2483 O   0  0  0  0  0  0  0  0  0  0  0  0
    6.0853   12.8849   27.0252 H   0  0  0  0  0  0  0  0  0  0  0  0
    6.1498   10.5185   26.3038 H   0  0  0  0  0  0  0  0  0  0  0  0
   10.1200    9.7524   22.0764 H   0  0  0  0  0  0  0  0  0  0  0  0
    7.6336   14.5018   25.9088 H   0  0  0  0  0  0  0  0  0  0  0  0
   12.5817   14.6171   24.6910 H   0  0  0  0  0  0  0  0  0  0  0  0
   13.9095   14.2194   23.5771 H   0  0  0  0  0  0  0  0  0  0  0  0
   13.6859   15.8788   24.1724 H   0  0  0  0  0  0  0  0  0  0  0  0
   12.4090   16.0167   20.6086 H   0  0  0  0  0  0  0  0  0  0  0  0
   13.7634   15.0230   21.1159 H   0  0  0  0  0  0  0  0  0  0  0  0
   13.6296   16.6930   21.7098 H   0  0  0  0  0  0  0  0  0  0  0  0
   10.5250   16.5368   22.1930 H   0  0  0  0  0  0  0  0  0  0  0  0
   10.5633   15.9538   23.8711 H   0  0  0  0  0  0  0  0  0  0  0  0
   11.6420   17.2624   23.3359 H   0  0  0  0  0  0  0  0  0  0  0  0
   10.4976   12.1212   21.6849 H   0  0  0  0  0  0  0  0  0  0  0  0
    7.9499    7.3773   23.6095 H   0  0  0  0  0  0  0  0  0  0  0  0
  1  2  1  0  0  0  0
  1  4  2  0  0  0  0
  2  5  2  0  0  0  0
  3  7  2  0  0  0  0
  3  8  1  0  0  0  0
  4 14  1  0  0  0  0
  5  6  1  0  0  0  0
  5 15  1  0  0  0  0
  6  7  1  0  0  0  0
  6 14  2  0  0  0  0
  7 16  1  0  0  0  0
  8 15  2  0  0  0  0
  8 18  1  0  0  0  0
  9 16  1  0  0  0  0
  9 17  2  0  0  0  0
  9 19  1  0  0  0  0
 10 13  1  0  0  0  0
 11 13  1  0  0  0  0
 12 13  1  0  0  0  0
 13 19  1  0  0  0  0
  1 20  1  0  0  0  0
  2 21  1  0  0  0  0
  3 22  1  0  0  0  0
  4 23  1  0  0  0  0
 10 24  1  0  0  0  0
 10 25  1  0  0  0  0
 10 26  1  0  0  0  0
 11 27  1  0  0  0  0
 11 28  1  0  0  0  0
 11 29  1  0  0  0  0
 12 30  1  0  0  0  0
 12 31  1  0  0  0  0
 12 32  1  0  0  0  0
 16 33  1  0  0  0  0
 18 34  1  0  0  0  0
M  END
> <id>
EN300-26665258

> <smiles>
CC(C)(C)OC(=O)NC=1C=C(O)N=C2C=CC=NC12

> <IUPAC Name>
tert-butyl N-(2-hydroxy-1,5-naphthyridin-4-yl)carbamate

> <CAS>
2413876-10-3

> <URL>
https://www.enaminestore.com/catalog/EN300-26665258

> <ROCS_ShapeQuery>
A71EV2A-x0451_0A_A71EV2A-x0310_0A_A71EV2A-x0416_0A_peptide

> <ROCS_TanimotoCombo>
0.525 

> <ROCS_ShapeTanimoto>
0.353 

> <ROCS_ColorTanimoto>
0.172 

> <ROCS_RefTversky>
0.306 

> <ROCS_RefColorTversky>
0.195 

> <ROCS_RefTverskyCombo>
0.501 

> <ROCS_FitTversky>
1.782 

> <ROCS_FitColorTversky>
0.588 

> <ROCS_FitTverskyCombo>
2.370 

> <ROCS_ColorScore>
-5.967

> <ROCS_Overlap>
2122.282

> <ROCS_Rank>
138                 

$$$$
untitled-dbase-118980_61
  -OEChem-11132313473D

 38 39  0     1  0  0  0  0  0999 V2000
    9.2173   10.0575   23.3087 C   0  0  0  0  0  0  0  0  0  0  0  0
    9.3502   11.4574   23.4283 C   0  0  0  0  0  0  0  0  0  0  0  0
    8.4000   11.8118   24.3547 C   0  0  0  0  0  0  0  0  0  0  0  0
   10.7879   13.5061   23.2093 C   0  0  0  0  0  0  0  0  0  0  0  0
    6.0160   11.9115   25.8396 C   0  0  0  0  0  0  0  0  0  0  0  0
    6.6985   10.5546   25.6732 C   0  0  0  0  0  0  0  0  0  0  0  0
    7.0307   13.0630   25.9601 C   0  0  1  0  0  0  0  0  0  0  0  0
    7.7358   13.0773   27.3153 C   0  0  0  0  0  0  0  0  0  0  0  0
   11.2829   16.3050   22.8927 C   0  0  0  0  0  0  0  0  0  0  0  0
   12.2938   15.6877   20.6777 C   0  0  0  0  0  0  0  0  0  0  0  0
    9.8632   15.2296   21.1143 C   0  0  0  0  0  0  0  0  0  0  0  0
   11.2577   15.3094   21.7339 C   0  0  0  0  0  0  0  0  0  0  0  0
    8.2573    9.5570   24.0940 N   0  0  0  0  0  0  0  0  0  0  0  0
    7.7744   10.6497   24.7088 N   0  0  0  0  0  0  0  0  0  0  0  0
    8.0292   12.9916   24.8954 N   0  0  0  0  0  0  0  0  0  0  0  0
   10.2219   12.2942   22.7748 N   0  0  0  0  0  0  0  0  0  0  0  0
   10.5970   14.0530   24.2886 O   0  0  0  0  0  0  0  0  0  0  0  0
   11.6077   14.0149   22.2374 O   0  0  0  0  0  0  0  0  0  0  0  0
    9.7794    9.3797   22.6820 H   0  0  0  0  0  0  0  0  0  0  0  0
    5.3357   12.0879   24.9903 H   0  0  0  0  0  0  0  0  0  0  0  0
    5.3782   11.8880   26.7409 H   0  0  0  0  0  0  0  0  0  0  0  0
    7.1149   10.2090   26.6248 H   0  0  0  0  0  0  0  0  0  0  0  0
    5.9975    9.8040   25.2922 H   0  0  0  0  0  0  0  0  0  0  0  0
    6.4902   14.0236   25.8449 H   0  0  0  0  0  0  0  0  0  0  0  0
    8.2787   12.1440   27.4613 H   0  0  0  0  0  0  0  0  0  0  0  0
    7.0032   13.1902   28.1138 H   0  0  0  0  0  0  0  0  0  0  0  0
    8.4395   13.9079   27.3590 H   0  0  0  0  0  0  0  0  0  0  0  0
   10.5406   16.0369   23.6530 H   0  0  0  0  0  0  0  0  0  0  0  0
   12.2683   16.3459   23.3680 H   0  0  0  0  0  0  0  0  0  0  0  0
   11.0227   17.3125   22.5483 H   0  0  0  0  0  0  0  0  0  0  0  0
   12.2792   14.9760   19.8443 H   0  0  0  0  0  0  0  0  0  0  0  0
   13.3067   15.6538   21.0948 H   0  0  0  0  0  0  0  0  0  0  0  0
   12.1164   16.6918   20.2791 H   0  0  0  0  0  0  0  0  0  0  0  0
    9.8449   14.5155   20.2831 H   0  0  0  0  0  0  0  0  0  0  0  0
    9.1121   14.9233   21.8496 H   0  0  0  0  0  0  0  0  0  0  0  0
    9.5666   16.1983   20.6963 H   0  0  0  0  0  0  0  0  0  0  0  0
    8.3354   13.8732   24.4810 H   0  0  0  0  0  0  0  0  0  0  0  0
   10.5025   11.9888   21.8262 H   0  0  0  0  0  0  0  0  0  0  0  0
  1  2  1  0  0  0  0
  1 13  2  0  0  0  0
  2  3  2  0  0  0  0
  2 16  1  0  0  0  0
  3 14  1  0  0  0  0
  3 15  1  0  0  0  0
  4 16  1  0  0  0  0
  4 17  2  0  0  0  0
  4 18  1  0  0  0  0
  5  6  1  0  0  0  0
  5  7  1  0  0  0  0
  6 14  1  0  0  0  0
  7  8  1  0  0  0  0
  7 15  1  0  0  0  0
  9 12  1  0  0  0  0
 10 12  1  0  0  0  0
 11 12  1  0  0  0  0
 12 18  1  0  0  0  0
 13 14  1  0  0  0  0
  1 19  1  0  0  0  0
  5 20  1  0  0  0  0
  5 21  1  0  0  0  0
  6 22  1  0  0  0  0
  6 23  1  0  0  0  0
  7 24  1  0  0  0  0
  8 25  1  0  0  0  0
  8 26  1  0  0  0  0
  8 27  1  0  0  0  0
  9 28  1  0  0  0  0
  9 29  1  0  0  0  0
  9 30  1  0  0  0  0
 10 31  1  0  0  0  0
 10 32  1  0  0  0  0
 10 33  1  0  0  0  0
 11 34  1  0  0  0  0
 11 35  1  0  0  0  0
 11 36  1  0  0  0  0
 15 37  1  0  0  0  0
 16 38  1  0  0  0  0
M  END
> <id>
EN300-26618108

> <smiles>
CC1CCN2N=CC(NC(=O)OC(C)(C)C)=C2N1

> <MDLNUMBER>
MFCD32692158

> <IUPAC Name>
tert-butyl N-{5-methyl-4H,5H,6H,7H-pyrazolo[1,5-a]pyrimidin-3-yl}carbamate

> <CAS>
2445791-55-7

> <Purity>
95

> <URL>
https://www.enaminestore.com/catalog/EN300-26618108

> <ROCS_ShapeQuery>
A71EV2A-x0451_0A_A71EV2A-x0310_0A_A71EV2A-x0416_0A_peptide

> <ROCS_TanimotoCombo>
0.525 

> <ROCS_ShapeTanimoto>
0.334 

> <ROCS_ColorTanimoto>
0.191 

> <ROCS_RefTversky>
0.291 

> <ROCS_RefColorTversky>
0.204 

> <ROCS_RefTverskyCombo>
0.495 

> <ROCS_FitTversky>
1.783 

> <ROCS_FitColorTversky>
0.753 

> <ROCS_FitTverskyCombo>
2.536 

> <ROCS_ColorScore>
-6.219

> <ROCS_Overlap>
2018.449

> <ROCS_Rank>
139                 

$$$$
untitled-dbase-51288_441
  -OEChem-11132313473D

 43 44  0     0  0  0  0  0  0999 V2000
    6.1579   11.0783   26.4726 C   0  0  0  0  0  0  0  0  0  0  0  0
    6.9466   10.1401   25.8105 C   0  0  0  0  0  0  0  0  0  0  0  0
    6.8877   12.7854   24.9234 C   0  0  0  0  0  0  0  0  0  0  0  0
    6.1321   12.4002   26.0328 C   0  0  0  0  0  0  0  0  0  0  0  0
    7.6874   11.8546   24.2458 C   0  0  0  0  0  0  0  0  0  0  0  0
    7.7222   10.5323   24.7168 C   0  0  0  0  0  0  0  0  0  0  0  0
    5.3056   13.3780   26.7226 C   0  0  0  0  0  0  0  0  0  0  0  0
   10.7852   13.0511   23.5966 C   0  0  0  0  0  0  0  0  0  0  0  0
    8.4568   12.2738   23.0197 C   0  0  0  0  0  0  0  0  0  0  0  0
   10.3612   10.6708   23.0358 C   0  0  0  0  0  0  0  0  0  0  0  0
    9.8667    9.8045   24.1888 C   0  0  0  0  0  0  0  0  0  0  0  0
   12.5626   15.2373   23.0947 C   0  0  0  0  0  0  0  0  0  0  0  0
   13.9289   13.5849   21.7862 C   0  0  0  0  0  0  0  0  0  0  0  0
   11.5857   14.1237   21.0600 C   0  0  0  0  0  0  0  0  0  0  0  0
    3.7783   13.6804   28.5304 C   0  0  0  0  0  0  0  0  0  0  0  0
   12.5249   13.9617   22.2543 C   0  0  0  0  0  0  0  0  0  0  0  0
    9.8967   12.0515   23.1802 N   0  0  0  0  0  0  0  0  0  0  0  0
    5.2196   14.5715   26.4042 O   0  0  0  0  0  0  0  0  0  0  0  0
   10.4829   13.9809   24.3424 O   0  0  0  0  0  0  0  0  0  0  0  0
    8.4583    9.5568   24.0923 O   0  0  0  0  0  0  0  0  0  0  0  0
    4.6298   12.8157   27.7710 O   0  0  0  0  0  0  0  0  0  0  0  0
   12.0412   12.8908   23.0729 O   0  0  0  0  0  0  0  0  0  0  0  0
    5.5653   10.7675   27.3292 H   0  0  0  0  0  0  0  0  0  0  0  0
    6.9603    9.1097   26.1550 H   0  0  0  0  0  0  0  0  0  0  0  0
    6.8484   13.8168   24.5787 H   0  0  0  0  0  0  0  0  0  0  0  0
    8.1064   11.7049   22.1497 H   0  0  0  0  0  0  0  0  0  0  0  0
    8.2698   13.3282   22.7906 H   0  0  0  0  0  0  0  0  0  0  0  0
   11.4554   10.6506   23.0103 H   0  0  0  0  0  0  0  0  0  0  0  0
    9.9916   10.2941   22.0756 H   0  0  0  0  0  0  0  0  0  0  0  0
   10.3533    8.8250   24.1207 H   0  0  0  0  0  0  0  0  0  0  0  0
   10.1433   10.2208   25.1673 H   0  0  0  0  0  0  0  0  0  0  0  0
   11.5567   15.5111   23.4327 H   0  0  0  0  0  0  0  0  0  0  0  0
   13.2055   15.1225   23.9735 H   0  0  0  0  0  0  0  0  0  0  0  0
   12.9315   16.0838   22.5043 H   0  0  0  0  0  0  0  0  0  0  0  0
   13.9066   12.6702   21.1828 H   0  0  0  0  0  0  0  0  0  0  0  0
   14.5821   13.3750   22.6409 H   0  0  0  0  0  0  0  0  0  0  0  0
   14.3836   14.3826   21.1899 H   0  0  0  0  0  0  0  0  0  0  0  0
   11.5585   13.2089   20.4570 H   0  0  0  0  0  0  0  0  0  0  0  0
   10.5648   14.3580   21.3786 H   0  0  0  0  0  0  0  0  0  0  0  0
   11.9349   14.9220   20.3951 H   0  0  0  0  0  0  0  0  0  0  0  0
    3.3013   13.1112   29.3320 H   0  0  0  0  0  0  0  0  0  0  0  0
    3.0187   14.1131   27.8745 H   0  0  0  0  0  0  0  0  0  0  0  0
    4.3812   14.4815   28.9645 H   0  0  0  0  0  0  0  0  0  0  0  0
  1  2  1  0  0  0  0
  1  4  2  0  0  0  0
  2  6  2  0  0  0  0
  3  4  1  0  0  0  0
  3  5  2  0  0  0  0
  4  7  1  0  0  0  0
  5  6  1  0  0  0  0
  5  9  1  0  0  0  0
  6 20  1  0  0  0  0
  7 18  2  0  0  0  0
  7 21  1  0  0  0  0
  8 17  1  0  0  0  0
  8 19  2  0  0  0  0
  8 22  1  0  0  0  0
  9 17  1  0  0  0  0
 10 11  1  0  0  0  0
 10 17  1  0  0  0  0
 11 20  1  0  0  0  0
 12 16  1  0  0  0  0
 13 16  1  0  0  0  0
 14 16  1  0  0  0  0
 15 21  1  0  0  0  0
 16 22  1  0  0  0  0
  1 23  1  0  0  0  0
  2 24  1  0  0  0  0
  3 25  1  0  0  0  0
  9 26  1  0  0  0  0
  9 27  1  0  0  0  0
 10 28  1  0  0  0  0
 10 29  1  0  0  0  0
 11 30  1  0  0  0  0
 11 31  1  0  0  0  0
 12 32  1  0  0  0  0
 12 33  1  0  0  0  0
 12 34  1  0  0  0  0
 13 35  1  0  0  0  0
 13 36  1  0  0  0  0
 13 37  1  0  0  0  0
 14 38  1  0  0  0  0
 14 39  1  0  0  0  0
 14 40  1  0  0  0  0
 15 41  1  0  0  0  0
 15 42  1  0  0  0  0
 15 43  1  0  0  0  0
M  END
> <id>
EN300-1653044

> <smiles>
COC(=O)C=1C=CC=2OCCN(CC2C1)C(=O)OC(C)(C)C

> <IUPAC Name>
4-tert-butyl 7-methyl 2,3,4,5-tetrahydro-1,4-benzoxazepine-4,7-dicarboxylate

> <CAS>
2172222-00-1

> <URL>
https://www.enaminestore.com/catalog/EN300-1653044

> <ROCS_ShapeQuery>
A71EV2A-x0451_0A_A71EV2A-x0310_0A_A71EV2A-x0416_0A_peptide

> <ROCS_TanimotoCombo>
0.525 

> <ROCS_ShapeTanimoto>
0.344 

> <ROCS_ColorTanimoto>
0.181 

> <ROCS_RefTversky>
0.304 

> <ROCS_RefColorTversky>
0.190 

> <ROCS_RefTverskyCombo>
0.494 

> <ROCS_FitTversky>
1.622 

> <ROCS_FitColorTversky>
0.794 

> <ROCS_FitTverskyCombo>
2.416 

> <ROCS_ColorScore>
-5.785

> <ROCS_Overlap>
2108.250

> <ROCS_Rank>
140                 

$$$$
untitled-dbase-144563_343
  -OEChem-11132313473D

 41 42  0     1  0  0  0  0  0999 V2000
    5.9405   12.0157   26.1148 C   0  0  0  0  0  0  0  0  0  0  0  0
    6.4759   10.8178   25.6565 C   0  0  0  0  0  0  0  0  0  0  0  0
    7.6934   13.2225   24.9614 C   0  0  0  0  0  0  0  0  0  0  0  0
    6.5468   13.2160   25.7640 C   0  0  0  0  0  0  0  0  0  0  0  0
    8.2682   12.0254   24.5092 C   0  0  0  0  0  0  0  0  0  0  0  0
    7.6304   10.8205   24.8644 C   0  0  0  0  0  0  0  0  0  0  0  0
   10.3276   13.0122   23.3878 C   0  0  0  0  0  0  0  0  0  0  0  0
    9.6197   10.6886   22.9803 C   0  0  0  0  0  0  0  0  0  0  0  0
    9.3937    9.5532   23.9659 C   0  0  2  0  0  0  0  0  0  0  0  0
   12.1461   14.9957   22.4032 C   0  0  0  0  0  0  0  0  0  0  0  0
   11.6375   14.0615   20.1277 C   0  0  0  0  0  0  0  0  0  0  0  0
    9.8029   15.1030   21.4907 C   0  0  0  0  0  0  0  0  0  0  0  0
    9.6085    8.2013   23.2965 C   0  0  0  0  0  0  0  0  0  0  0  0
    5.9631   14.5060   26.2361 C   0  0  0  0  0  0  0  0  0  0  0  0
   11.0994   14.2957   21.5376 C   0  0  0  0  0  0  0  0  0  0  0  0
    9.4183   11.9734   23.6545 N   0  0  0  0  0  0  0  0  0  0  0  0
   10.6148   13.8888   24.2038 O   0  0  0  0  0  0  0  0  0  0  0  0
    8.0528    9.5784   24.4586 O   0  0  0  0  0  0  0  0  0  0  0  0
    8.4397    7.8654   22.5703 O   0  0  0  0  0  0  0  0  0  0  0  0
   10.8177   13.0132   22.1106 O   0  0  0  0  0  0  0  0  0  0  0  0
    4.8411   14.3514   26.9987 F   0  0  0  0  0  0  0  0  0  0  0  0
    6.8184   15.2426   27.0041 F   0  0  0  0  0  0  0  0  0  0  0  0
    5.5975   15.3230   25.2064 F   0  0  0  0  0  0  0  0  0  0  0  0
    5.0524   12.0038   26.7408 H   0  0  0  0  0  0  0  0  0  0  0  0
    5.9963    9.8800   25.9267 H   0  0  0  0  0  0  0  0  0  0  0  0
    8.0902   14.1931   24.6923 H   0  0  0  0  0  0  0  0  0  0  0  0
   10.6273   10.6183   22.5702 H   0  0  0  0  0  0  0  0  0  0  0  0
    8.9029   10.6502   22.1563 H   0  0  0  0  0  0  0  0  0  0  0  0
   10.0897    9.6293   24.8153 H   0  0  0  0  0  0  0  0  0  0  0  0
   11.7637   15.1656   23.4160 H   0  0  0  0  0  0  0  0  0  0  0  0
   13.0685   14.4100   22.4734 H   0  0  0  0  0  0  0  0  0  0  0  0
   12.3931   15.9830   21.9964 H   0  0  0  0  0  0  0  0  0  0  0  0
   10.8897   13.5595   19.5031 H   0  0  0  0  0  0  0  0  0  0  0  0
   12.5139   13.4038   20.1486 H   0  0  0  0  0  0  0  0  0  0  0  0
   11.9205   15.0010   19.6420 H   0  0  0  0  0  0  0  0  0  0  0  0
    9.0519   14.6012   20.8699 H   0  0  0  0  0  0  0  0  0  0  0  0
    9.3825   15.2493   22.4910 H   0  0  0  0  0  0  0  0  0  0  0  0
    9.9723   16.0862   21.0369 H   0  0  0  0  0  0  0  0  0  0  0  0
    9.7950    7.4362   24.0509 H   0  0  0  0  0  0  0  0  0  0  0  0
   10.4548    8.2539   22.6107 H   0  0  0  0  0  0  0  0  0  0  0  0
    7.7082    7.8265   23.2097 H   0  0  0  0  0  0  0  0  0  0  0  0
  1  2  1  0  0  0  0
  1  4  2  0  0  0  0
  2  6  2  0  0  0  0
  3  4  1  0  0  0  0
  3  5  2  0  0  0  0
  4 14  1  0  0  0  0
  5  6  1  0  0  0  0
  5 16  1  0  0  0  0
  6 18  1  0  0  0  0
  7 16  1  0  0  0  0
  7 17  2  0  0  0  0
  7 20  1  0  0  0  0
  8  9  1  0  0  0  0
  8 16  1  0  0  0  0
  9 13  1  0  0  0  0
  9 18  1  0  0  0  0
 10 15  1  0  0  0  0
 11 15  1  0  0  0  0
 12 15  1  0  0  0  0
 13 19  1  0  0  0  0
 14 21  1  0  0  0  0
 14 22  1  0  0  0  0
 14 23  1  0  0  0  0
 15 20  1  0  0  0  0
  1 24  1  0  0  0  0
  2 25  1  0  0  0  0
  3 26  1  0  0  0  0
  8 27  1  0  0  0  0
  8 28  1  0  0  0  0
  9 29  1  0  0  0  0
 10 30  1  0  0  0  0
 10 31  1  0  0  0  0
 10 32  1  0  0  0  0
 11 33  1  0  0  0  0
 11 34  1  0  0  0  0
 11 35  1  0  0  0  0
 12 36  1  0  0  0  0
 12 37  1  0  0  0  0
 12 38  1  0  0  0  0
 13 39  1  0  0  0  0
 13 40  1  0  0  0  0
 19 41  1  0  0  0  0
M  END
> <id>
EN300-27718282

> <smiles>
CC(C)(C)OC(=O)N1CC(CO)OC=2C=CC(=CC12)C(F)(F)F

> <IUPAC Name>
tert-butyl 2-(hydroxymethyl)-6-(trifluoromethyl)-3,4-dihydro-2H-1,4-benzoxazine-4-carboxylate

> <CAS>
2580187-26-2

> <URL>
https://www.enaminestore.com/catalog/EN300-27718282

> <ROCS_ShapeQuery>
A71EV2A-x0451_0A_A71EV2A-x0310_0A_A71EV2A-x0416_0A_peptide

> <ROCS_TanimotoCombo>
0.525 

> <ROCS_ShapeTanimoto>
0.367 

> <ROCS_ColorTanimoto>
0.157 

> <ROCS_RefTversky>
0.321 

> <ROCS_RefColorTversky>
0.173 

> <ROCS_RefTverskyCombo>
0.494 

> <ROCS_FitTversky>
1.649 

> <ROCS_FitColorTversky>
0.638 

> <ROCS_FitTverskyCombo>
2.287 

> <ROCS_ColorScore>
-5.259

> <ROCS_Overlap>
2230.720

> <ROCS_Rank>
141                 

$$$$
untitled-dbase-93676_21
  -OEChem-11132313473D

 32 33  0     0  0  0  0  0  0999 V2000
    6.9110   12.9566   25.9045 C   0  0  0  0  0  0  0  0  0  0  0  0
    6.3018   11.7436   26.2357 C   0  0  0  0  0  0  0  0  0  0  0  0
    7.9561   13.0100   24.9721 C   0  0  0  0  0  0  0  0  0  0  0  0
    6.7121   10.5423   25.6498 C   0  0  0  0  0  0  0  0  0  0  0  0
    9.2774   10.0908   23.2551 C   0  0  0  0  0  0  0  0  0  0  0  0
    8.3847   11.8139   24.3703 C   0  0  0  0  0  0  0  0  0  0  0  0
    9.3719   11.4539   23.4154 C   0  0  0  0  0  0  0  0  0  0  0  0
    7.7528   10.6270   24.7267 C   0  0  0  0  0  0  0  0  0  0  0  0
   10.8438   13.4773   23.1918 C   0  0  0  0  0  0  0  0  0  0  0  0
   11.3861   16.2658   22.8610 C   0  0  0  0  0  0  0  0  0  0  0  0
   12.3981   15.6187   20.6551 C   0  0  0  0  0  0  0  0  0  0  0  0
    9.9582   15.2029   21.0817 C   0  0  0  0  0  0  0  0  0  0  0  0
   11.3506   15.2637   21.7081 C   0  0  0  0  0  0  0  0  0  0  0  0
   10.2611   12.2729   22.7610 N   0  0  0  0  0  0  0  0  0  0  0  0
   10.6564   14.0338   24.2668 O   0  0  0  0  0  0  0  0  0  0  0  0
    8.2983    9.5797   24.0463 O   0  0  0  0  0  0  0  0  0  0  0  0
   11.6768   13.9668   22.2212 O   0  0  0  0  0  0  0  0  0  0  0  0
    6.5697   13.8742   26.3767 H   0  0  0  0  0  0  0  0  0  0  0  0
    5.4934   11.7329   26.9626 H   0  0  0  0  0  0  0  0  0  0  0  0
    8.4187   13.9607   24.7253 H   0  0  0  0  0  0  0  0  0  0  0  0
    6.2440    9.5980   25.9011 H   0  0  0  0  0  0  0  0  0  0  0  0
    9.8060    9.3704   22.6474 H   0  0  0  0  0  0  0  0  0  0  0  0
   10.6356   16.0145   23.6190 H   0  0  0  0  0  0  0  0  0  0  0  0
   12.3696   16.2935   23.3413 H   0  0  0  0  0  0  0  0  0  0  0  0
   11.1441   17.2753   22.5093 H   0  0  0  0  0  0  0  0  0  0  0  0
   12.3762   14.9023   19.8259 H   0  0  0  0  0  0  0  0  0  0  0  0
   13.4082   15.5708   21.0777 H   0  0  0  0  0  0  0  0  0  0  0  0
   12.2392   16.6232   20.2496 H   0  0  0  0  0  0  0  0  0  0  0  0
    9.9325   14.4842   20.2546 H   0  0  0  0  0  0  0  0  0  0  0  0
    9.1984   14.9134   21.8149 H   0  0  0  0  0  0  0  0  0  0  0  0
    9.6795   16.1738   20.6563 H   0  0  0  0  0  0  0  0  0  0  0  0
   10.5415   11.9576   21.8162 H   0  0  0  0  0  0  0  0  0  0  0  0
  1  2  2  0  0  0  0
  1  3  1  0  0  0  0
  2  4  1  0  0  0  0
  3  6  2  0  0  0  0
  4  8  2  0  0  0  0
  5  7  2  0  0  0  0
  5 16  1  0  0  0  0
  6  7  1  0  0  0  0
  6  8  1  0  0  0  0
  7 14  1  0  0  0  0
  8 16  1  0  0  0  0
  9 14  1  0  0  0  0
  9 15  2  0  0  0  0
  9 17  1  0  0  0  0
 10 13  1  0  0  0  0
 11 13  1  0  0  0  0
 12 13  1  0  0  0  0
 13 17  1  0  0  0  0
  1 18  1  0  0  0  0
  2 19  1  0  0  0  0
  3 20  1  0  0  0  0
  4 21  1  0  0  0  0
  5 22  1  0  0  0  0
 10 23  1  0  0  0  0
 10 24  1  0  0  0  0
 10 25  1  0  0  0  0
 11 26  1  0  0  0  0
 11 27  1  0  0  0  0
 11 28  1  0  0  0  0
 12 29  1  0  0  0  0
 12 30  1  0  0  0  0
 12 31  1  0  0  0  0
 14 32  1  0  0  0  0
M  END
> <id>
EN300-207273

> <smiles>
CC(C)(C)OC(=O)NC1=COC=2C=CC=CC12

> <MDLNUMBER>
MFCD31536534

> <IUPAC Name>
tert-butyl N-(1-benzofuran-3-yl)carbamate

> <CAS>
1935192-97-4

> <Purity>
95

> <URL>
https://www.enaminestore.com/catalog/EN300-207273

> <ROCS_ShapeQuery>
A71EV2A-x0451_0A_A71EV2A-x0310_0A_A71EV2A-x0416_0A_peptide

> <ROCS_TanimotoCombo>
0.525 

> <ROCS_ShapeTanimoto>
0.333 

> <ROCS_ColorTanimoto>
0.192 

> <ROCS_RefTversky>
0.289 

> <ROCS_RefColorTversky>
0.200 

> <ROCS_RefTverskyCombo>
0.489 

> <ROCS_FitTversky>
1.828 

> <ROCS_FitColorTversky>
0.831 

> <ROCS_FitTverskyCombo>
2.660 

> <ROCS_ColorScore>
-6.073

> <ROCS_Overlap>
2005.601

> <ROCS_Rank>
142                 

$$$$
untitled-dbase-150873_26
  -OEChem-11132313473D

 33 34  0     0  0  0  0  0  0999 V2000
    9.7610   12.0130   23.5798 C   0  0  0  0  0  0  0  0  0  0  0  0
    9.9680   10.7373   23.0174 C   0  0  0  0  0  0  0  0  0  0  0  0
    8.6328   11.8728   24.3552 C   0  0  0  0  0  0  0  0  0  0  0  0
    6.8792   12.1629   25.7251 C   0  0  0  0  0  0  0  0  0  0  0  0
    7.1362   10.0394   24.8522 C   0  0  0  0  0  0  0  0  0  0  0  0
   10.5213   13.2157   23.4151 C   0  0  0  0  0  0  0  0  0  0  0  0
   11.0428   10.3184   22.1004 C   0  0  0  0  0  0  0  0  0  0  0  0
   12.2351   15.3863   22.5705 C   0  0  0  0  0  0  0  0  0  0  0  0
   12.0357   14.3944   20.2715 C   0  0  0  0  0  0  0  0  0  0  0  0
    9.9902   15.2672   21.4387 C   0  0  0  0  0  0  0  0  0  0  0  0
   11.3457   14.5857   21.6204 C   0  0  0  0  0  0  0  0  0  0  0  0
    9.0471    9.8474   23.3998 N   0  0  0  0  0  0  0  0  0  0  0  0
    7.9136   12.7036   25.1469 N   0  0  0  0  0  0  0  0  0  0  0  0
    6.4554   10.8513   25.6101 N   0  0  0  0  0  0  0  0  0  0  0  0
    8.2510   10.5665   24.2111 N   0  0  0  0  0  0  0  0  0  0  0  0
    6.8384    8.7200   24.6427 N   0  0  0  0  0  0  0  0  0  0  0  0
   10.6399   14.1184   24.2727 O   0  0  0  0  0  0  0  0  0  0  0  0
   11.1311   13.2869   22.1831 O   0  0  0  0  0  0  0  0  0  0  0  0
    6.2658   12.8047   26.3788 H   0  0  0  0  0  0  0  0  0  0  0  0
   11.9196    9.9451   22.6563 H   0  0  0  0  0  0  0  0  0  0  0  0
   10.7164    9.5162   21.4154 H   0  0  0  0  0  0  0  0  0  0  0  0
   11.3854   11.1466   21.4550 H   0  0  0  0  0  0  0  0  0  0  0  0
   11.7434   15.5258   23.5399 H   0  0  0  0  0  0  0  0  0  0  0  0
   13.1970   14.8904   22.7367 H   0  0  0  0  0  0  0  0  0  0  0  0
   12.4270   16.3899   22.1740 H   0  0  0  0  0  0  0  0  0  0  0  0
   11.4011   13.8204   19.5866 H   0  0  0  0  0  0  0  0  0  0  0  0
   12.9634   13.8221   20.3853 H   0  0  0  0  0  0  0  0  0  0  0  0
   12.2753   15.3533   19.8007 H   0  0  0  0  0  0  0  0  0  0  0  0
    9.3521   14.6931   20.7572 H   0  0  0  0  0  0  0  0  0  0  0  0
    9.4643   15.3796   22.3923 H   0  0  0  0  0  0  0  0  0  0  0  0
   10.1101   16.2591   20.9882 H   0  0  0  0  0  0  0  0  0  0  0  0
    7.4293    8.1917   24.0419 H   0  0  0  0  0  0  0  0  0  0  0  0
    6.0419    8.3368   25.0988 H   0  0  0  0  0  0  0  0  0  0  0  0
  1  2  1  0  0  0  0
  1  3  2  0  0  0  0
  1  6  1  0  0  0  0
  2  7  1  0  0  0  0
  2 12  2  0  0  0  0
  3 13  1  0  0  0  0
  3 15  1  0  0  0  0
  4 13  2  0  0  0  0
  4 14  1  0  0  0  0
  5 14  2  0  0  0  0
  5 15  1  0  0  0  0
  5 16  1  0  0  0  0
  6 17  2  0  0  0  0
  6 18  1  0  0  0  0
  8 11  1  0  0  0  0
  9 11  1  0  0  0  0
 10 11  1  0  0  0  0
 11 18  1  0  0  0  0
 12 15  1  0  0  0  0
  4 19  1  0  0  0  0
  7 20  1  0  0  0  0
  7 21  1  0  0  0  0
  7 22  1  0  0  0  0
  8 23  1  0  0  0  0
  8 24  1  0  0  0  0
  8 25  1  0  0  0  0
  9 26  1  0  0  0  0
  9 27  1  0  0  0  0
  9 28  1  0  0  0  0
 10 29  1  0  0  0  0
 10 30  1  0  0  0  0
 10 31  1  0  0  0  0
 16 32  1  0  0  0  0
 16 33  1  0  0  0  0
M  END
> <id>
EN300-28278445

> <smiles>
CC1=NN2C(N)=NC=NC2=C1C(=O)OC(C)(C)C

> <IUPAC Name>
tert-butyl 4-amino-7-methylpyrazolo[1,5-a][1,3,5]triazine-8-carboxylate

> <CAS>
2680857-95-6

> <URL>
https://www.enaminestore.com/catalog/EN300-28278445

> <ROCS_ShapeQuery>
A71EV2A-x0451_0A_A71EV2A-x0310_0A_A71EV2A-x0416_0A_peptide

> <ROCS_TanimotoCombo>
0.525 

> <ROCS_ShapeTanimoto>
0.347 

> <ROCS_ColorTanimoto>
0.177 

> <ROCS_RefTversky>
0.301 

> <ROCS_RefColorTversky>
0.201 

> <ROCS_RefTverskyCombo>
0.501 

> <ROCS_FitTversky>
1.803 

> <ROCS_FitColorTversky>
0.603 

> <ROCS_FitTverskyCombo>
2.406 

> <ROCS_ColorScore>
-6.132

> <ROCS_Overlap>
2087.432

> <ROCS_Rank>
143                 

$$$$
untitled-dbase-117524_225
  -OEChem-11132313473D

 40 42  0     1  0  0  0  0  0999 V2000
    5.2975   12.7136   26.4477 C   0  0  0  0  0  0  0  0  0  0  0  0
   10.3666   12.7727   23.6157 C   0  0  0  0  0  0  0  0  0  0  0  0
    8.4366   10.0793   25.1070 C   0  0  0  0  0  0  0  0  0  0  0  0
    6.3483   11.7680   26.0454 C   0  0  1  0  0  0  0  0  0  0  0  0
    7.4966   10.4947   23.9537 C   0  0  1  0  0  0  0  0  0  0  0  0
    6.6724   11.6324   24.5734 C   0  0  2  0  0  0  0  0  0  0  0  0
    7.6453   12.3193   25.4935 C   0  0  2  0  0  0  0  0  0  0  0  0
    8.9340   11.5153   25.3188 C   0  0  2  0  0  0  0  0  0  0  0  0
    8.5167   11.1652   22.9829 C   0  0  2  0  0  0  0  0  0  0  0  0
    9.2549   10.1697   22.0955 C   0  0  0  0  0  0  0  0  0  0  0  0
   12.5088   14.3241   22.5326 C   0  0  0  0  0  0  0  0  0  0  0  0
   12.2592   12.8970   20.4807 C   0  0  0  0  0  0  0  0  0  0  0  0
   10.3563   14.3558   21.2286 C   0  0  0  0  0  0  0  0  0  0  0  0
   11.5395   13.5027   21.6838 C   0  0  0  0  0  0  0  0  0  0  0  0
    9.4037   11.8406   23.9536 N   0  0  0  0  0  0  0  0  0  0  0  0
    5.3515   13.9258   26.3034 O   0  0  0  0  0  0  0  0  0  0  0  0
   10.5960   13.7947   24.2579 O   0  0  0  0  0  0  0  0  0  0  0  0
    4.2519   12.0575   27.0076 O   0  0  0  0  0  0  0  0  0  0  0  0
   11.0422   12.4205   22.4788 O   0  0  0  0  0  0  0  0  0  0  0  0
    7.9169    9.6551   25.9694 H   0  0  0  0  0  0  0  0  0  0  0  0
    9.2306    9.3864   24.8127 H   0  0  0  0  0  0  0  0  0  0  0  0
    6.3847   10.8835   26.6669 H   0  0  0  0  0  0  0  0  0  0  0  0
    6.8966    9.6908   23.5237 H   0  0  0  0  0  0  0  0  0  0  0  0
    6.1200   12.2210   23.8537 H   0  0  0  0  0  0  0  0  0  0  0  0
    7.7762   13.3903   25.4175 H   0  0  0  0  0  0  0  0  0  0  0  0
    9.6814   11.6674   26.0988 H   0  0  0  0  0  0  0  0  0  0  0  0
    8.0433   11.9292   22.3544 H   0  0  0  0  0  0  0  0  0  0  0  0
    9.7299    9.4049   22.7094 H   0  0  0  0  0  0  0  0  0  0  0  0
   10.0206   10.6846   21.5157 H   0  0  0  0  0  0  0  0  0  0  0  0
    8.5547    9.6906   21.4114 H   0  0  0  0  0  0  0  0  0  0  0  0
   11.9961   14.7606   23.3972 H   0  0  0  0  0  0  0  0  0  0  0  0
   13.3438   13.7153   22.8944 H   0  0  0  0  0  0  0  0  0  0  0  0
   12.9162   15.1641   21.9584 H   0  0  0  0  0  0  0  0  0  0  0  0
   11.5674   12.3068   19.8689 H   0  0  0  0  0  0  0  0  0  0  0  0
   13.0490   12.2094   20.8040 H   0  0  0  0  0  0  0  0  0  0  0  0
   12.7091   13.6691   19.8483 H   0  0  0  0  0  0  0  0  0  0  0  0
    9.6609   13.7668   20.6198 H   0  0  0  0  0  0  0  0  0  0  0  0
    9.8057   14.7688   22.0800 H   0  0  0  0  0  0  0  0  0  0  0  0
   10.6942   15.1853   20.5969 H   0  0  0  0  0  0  0  0  0  0  0  0
    3.5396   12.6723   27.2849 H   0  0  0  0  0  0  0  0  0  0  0  0
  1  4  1  0  0  0  0
  1 16  2  0  0  0  0
  1 18  1  0  0  0  0
  2 15  1  0  0  0  0
  2 17  2  0  0  0  0
  2 19  1  0  0  0  0
  3  5  1  0  0  0  0
  3  8  1  0  0  0  0
  4  6  1  0  0  0  0
  4  7  1  0  0  0  0
  5  6  1  0  0  0  0
  5  9  1  0  0  0  0
  6  7  1  0  0  0  0
  7  8  1  0  0  0  0
  8 15  1  0  0  0  0
  9 10  1  0  0  0  0
  9 15  1  0  0  0  0
 11 14  1  0  0  0  0
 12 14  1  0  0  0  0
 13 14  1  0  0  0  0
 14 19  1  0  0  0  0
  3 20  1  0  0  0  0
  3 21  1  0  0  0  0
  4 22  1  0  0  0  0
  5 23  1  0  0  0  0
  6 24  1  0  0  0  0
  7 25  1  0  0  0  0
  8 26  1  0  0  0  0
  9 27  1  0  0  0  0
 10 28  1  0  0  0  0
 10 29  1  0  0  0  0
 10 30  1  0  0  0  0
 11 31  1  0  0  0  0
 11 32  1  0  0  0  0
 11 33  1  0  0  0  0
 12 34  1  0  0  0  0
 12 35  1  0  0  0  0
 12 36  1  0  0  0  0
 13 37  1  0  0  0  0
 13 38  1  0  0  0  0
 13 39  1  0  0  0  0
 18 40  1  0  0  0  0
M  END
> <id>
EN300-1653458

> <smiles>
CC1C2CC(C3C(C32)C(=O)O)N1C(=O)OC(C)(C)C

> <IUPAC Name>
6-[(tert-butoxy)carbonyl]-7-methyl-6-azatricyclo[3.2.1.0,2,4]octane-3-carboxylic acid

> <CAS>
2172486-30-3

> <URL>
https://www.enaminestore.com/catalog/EN300-1653458

> <ROCS_ShapeQuery>
A71EV2A-x0451_0A_A71EV2A-x0310_0A_A71EV2A-x0416_0A_peptide

> <ROCS_TanimotoCombo>
0.525 

> <ROCS_ShapeTanimoto>
0.303 

> <ROCS_ColorTanimoto>
0.222 

> <ROCS_RefTversky>
0.272 

> <ROCS_RefColorTversky>
0.313 

> <ROCS_RefTverskyCombo>
0.585 

> <ROCS_FitTversky>
1.601 

> <ROCS_FitColorTversky>
0.432 

> <ROCS_FitTverskyCombo>
2.032 

> <ROCS_ColorScore>
-9.768

> <ROCS_Overlap>
1887.767

> <ROCS_Rank>
144                 

$$$$
untitled-dbase-159223_10
  -OEChem-11132313473D

 25 27  0     0  0  0  0  0  0999 V2000
    6.8812   12.7475   25.9620 C   0  0  0  0  0  0  0  0  0  0  0  0
    6.2913   11.4969   26.1199 C   0  0  0  0  0  0  0  0  0  0  0  0
    7.9835   12.8986   25.1202 C   0  0  0  0  0  0  0  0  0  0  0  0
    6.8014   10.3926   25.4367 C   0  0  0  0  0  0  0  0  0  0  0  0
   10.1293   10.8275   22.8902 C   0  0  0  0  0  0  0  0  0  0  0  0
    9.5394    9.5769   23.0482 C   0  0  0  0  0  0  0  0  0  0  0  0
    8.5102   11.7980   24.4247 C   0  0  0  0  0  0  0  0  0  0  0  0
    7.9103   10.5263   24.5854 C   0  0  0  0  0  0  0  0  0  0  0  0
    9.6191   11.9318   23.5734 C   0  0  0  0  0  0  0  0  0  0  0  0
    8.4371    9.4258   23.8899 C   0  0  0  0  0  0  0  0  0  0  0  0
   10.2868   13.2004   23.3610 C   0  0  0  0  0  0  0  0  0  0  0  0
   11.4120   14.7781   22.3842 C   0  0  0  0  0  0  0  0  0  0  0  0
   10.3890   14.1969   24.2113 N   0  0  0  0  0  0  0  0  0  0  0  0
   11.1049   15.2006   23.5898 N   0  0  0  0  0  0  0  0  0  0  0  0
   10.9167   13.5232   22.1975 N   0  0  0  0  0  0  0  0  0  0  0  0
   12.2920   15.5941   21.1563 S   0  0  0  0  0  0  0  0  0  0  0  0
    7.7806    7.8243   24.0143 Cl  0  0  0  0  0  0  0  0  0  0  0  0
    6.4837   13.6066   26.4944 H   0  0  0  0  0  0  0  0  0  0  0  0
    5.4320   11.3812   26.7742 H   0  0  0  0  0  0  0  0  0  0  0  0
    8.4115   13.8939   25.0268 H   0  0  0  0  0  0  0  0  0  0  0  0
    6.3045    9.4393   25.5951 H   0  0  0  0  0  0  0  0  0  0  0  0
   10.9890   10.9242   22.2308 H   0  0  0  0  0  0  0  0  0  0  0  0
    9.9527    8.7292   22.5069 H   0  0  0  0  0  0  0  0  0  0  0  0
   11.0014   12.9553   21.3643 H   0  0  0  0  0  0  0  0  0  0  0  0
   12.2672   14.6553   20.1846 H   0  0  0  0  0  0  0  0  0  0  0  0
  1  2  2  0  0  0  0
  1  3  1  0  0  0  0
  2  4  1  0  0  0  0
  3  7  2  0  0  0  0
  4  8  2  0  0  0  0
  5  6  1  0  0  0  0
  5  9  2  0  0  0  0
  6 10  2  0  0  0  0
  7  8  1  0  0  0  0
  7  9  1  0  0  0  0
  8 10  1  0  0  0  0
  9 11  1  0  0  0  0
 10 17  1  0  0  0  0
 11 13  2  0  0  0  0
 11 15  1  0  0  0  0
 12 14  2  0  0  0  0
 12 15  1  0  0  0  0
 12 16  1  0  0  0  0
 13 14  1  0  0  0  0
  1 18  1  0  0  0  0
  2 19  1  0  0  0  0
  3 20  1  0  0  0  0
  4 21  1  0  0  0  0
  5 22  1  0  0  0  0
  6 23  1  0  0  0  0
 15 24  1  0  0  0  0
 16 25  1  0  0  0  0
M  END
> <id>
EN300-30455179

> <smiles>
SC1=NN=C(N1)C=2C=CC(Cl)=C3C=CC=CC23

> <IUPAC Name>
5-(4-chloronaphthalen-1-yl)-4H-1,2,4-triazole-3-thiol

> <CAS>
1515136-28-3

> <Purity>
95

> <URL>
https://www.enaminestore.com/catalog/EN300-30455179

> <ROCS_ShapeQuery>
A71EV2A-x0451_0A_A71EV2A-x0310_0A_A71EV2A-x0416_0A_peptide

> <ROCS_TanimotoCombo>
0.524 

> <ROCS_ShapeTanimoto>
0.344 

> <ROCS_ColorTanimoto>
0.180 

> <ROCS_RefTversky>
0.297 

> <ROCS_RefColorTversky>
0.195 

> <ROCS_RefTverskyCombo>
0.492 

> <ROCS_FitTversky>
1.865 

> <ROCS_FitColorTversky>
0.698 

> <ROCS_FitTverskyCombo>
2.563 

> <ROCS_ColorScore>
-5.952

> <ROCS_Overlap>
2059.326

> <ROCS_Rank>
145                 

$$$$
untitled-dbase-155829_3
  -OEChem-11132313473D

 26 27  0     0  0  0  0  0  0999 V2000
    7.6840   13.0678   25.0912 C   0  0  0  0  0  0  0  0  0  0  0  0
    6.5413   12.4003   25.5785 C   0  0  0  0  0  0  0  0  0  0  0  0
    8.4204   12.1075   24.4262 C   0  0  0  0  0  0  0  0  0  0  0  0
    5.4619   12.9609   26.3395 C   0  0  0  0  0  0  0  0  0  0  0  0
   10.4756   13.1577   23.5113 C   0  0  0  0  0  0  0  0  0  0  0  0
    9.4991    9.5637   23.7594 C   0  0  0  0  0  0  0  0  0  0  0  0
    8.0041    9.6656   24.0075 C   0  0  0  0  0  0  0  0  0  0  0  0
   10.0008   10.8047   23.0281 C   0  0  0  0  0  0  0  0  0  0  0  0
   11.2287   13.3071   22.2170 C   0  0  0  0  0  0  0  0  0  0  0  0
    6.5268   11.1089   25.2549 N   0  0  0  0  0  0  0  0  0  0  0  0
    7.6683   10.9600   24.5643 N   0  0  0  0  0  0  0  0  0  0  0  0
    9.6270   12.0617   23.7098 N   0  0  0  0  0  0  0  0  0  0  0  0
    5.0520   14.1365   26.2772 O   0  0  0  0  0  0  0  0  0  0  0  0
   10.6300   14.0423   24.3644 O   0  0  0  0  0  0  0  0  0  0  0  0
    4.8766   12.0622   27.1898 O   0  0  0  0  0  0  0  0  0  0  0  0
   10.9464   12.2860   21.3913 F   0  0  0  0  0  0  0  0  0  0  0  0
   10.8893   14.4546   21.6065 F   0  0  0  0  0  0  0  0  0  0  0  0
   12.5532   13.3201   22.4408 F   0  0  0  0  0  0  0  0  0  0  0  0
    7.9199   14.1173   25.2185 H   0  0  0  0  0  0  0  0  0  0  0  0
   10.0270    9.4733   24.7152 H   0  0  0  0  0  0  0  0  0  0  0  0
    9.7226    8.6652   23.1777 H   0  0  0  0  0  0  0  0  0  0  0  0
    7.4359    9.5656   23.0746 H   0  0  0  0  0  0  0  0  0  0  0  0
    7.6729    8.8905   24.7088 H   0  0  0  0  0  0  0  0  0  0  0  0
   11.0878   10.7402   22.9299 H   0  0  0  0  0  0  0  0  0  0  0  0
    9.5762   10.8518   22.0185 H   0  0  0  0  0  0  0  0  0  0  0  0
    5.2772   11.1673   27.1581 H   0  0  0  0  0  0  0  0  0  0  0  0
  1  2  1  0  0  0  0
  1  3  2  0  0  0  0
  2  4  1  0  0  0  0
  2 10  2  0  0  0  0
  3 11  1  0  0  0  0
  3 12  1  0  0  0  0
  4 13  2  0  0  0  0
  4 15  1  0  0  0  0
  5  9  1  0  0  0  0
  5 12  1  0  0  0  0
  5 14  2  0  0  0  0
  6  7  1  0  0  0  0
  6  8  1  0  0  0  0
  7 11  1  0  0  0  0
  8 12  1  0  0  0  0
  9 16  1  0  0  0  0
  9 17  1  0  0  0  0
  9 18  1  0  0  0  0
 10 11  1  0  0  0  0
  1 19  1  0  0  0  0
  6 20  1  0  0  0  0
  6 21  1  0  0  0  0
  7 22  1  0  0  0  0
  7 23  1  0  0  0  0
  8 24  1  0  0  0  0
  8 25  1  0  0  0  0
 15 26  1  0  0  0  0
M  END
> <id>
EN300-28281353

> <smiles>
OC(=O)C=1C=C2N(CCCN2N1)C(=O)C(F)(F)F

> <IUPAC Name>
4-(2,2,2-trifluoroacetyl)-4H,5H,6H,7H-pyrazolo[1,5-a]pyrimidine-2-carboxylic acid

> <CAS>
2680762-20-1

> <URL>
https://www.enaminestore.com/catalog/EN300-28281353

> <ROCS_ShapeQuery>
A71EV2A-x0451_0A_A71EV2A-x0310_0A_A71EV2A-x0416_0A_peptide

> <ROCS_TanimotoCombo>
0.524 

> <ROCS_ShapeTanimoto>
0.337 

> <ROCS_ColorTanimoto>
0.188 

> <ROCS_RefTversky>
0.294 

> <ROCS_RefColorTversky>
0.201 

> <ROCS_RefTverskyCombo>
0.495 

> <ROCS_FitTversky>
1.756 

> <ROCS_FitColorTversky>
0.740 

> <ROCS_FitTverskyCombo>
2.496 

> <ROCS_ColorScore>
-6.119

> <ROCS_Overlap>
2040.445

> <ROCS_Rank>
146                 

$$$$
untitled-dbase-145721_66
  -OEChem-11132313473D

 34 35  0     0  0  0  0  0  0999 V2000
    8.0298   13.1791   25.0958 C   0  0  0  0  0  0  0  0  0  0  0  0
    6.8666   13.1785   25.8461 C   0  0  0  0  0  0  0  0  0  0  0  0
   10.0633   10.7643   23.1556 C   0  0  0  0  0  0  0  0  0  0  0  0
    8.4787   11.9929   24.4978 C   0  0  0  0  0  0  0  0  0  0  0  0
    9.6517   11.9542   23.7307 C   0  0  0  0  0  0  0  0  0  0  0  0
    7.7342   10.8133   24.6717 C   0  0  0  0  0  0  0  0  0  0  0  0
    6.1980   11.9801   25.9661 C   0  0  0  0  0  0  0  0  0  0  0  0
    9.2758    9.6557   23.3756 C   0  0  0  0  0  0  0  0  0  0  0  0
   10.4825   13.1320   23.5005 C   0  0  0  0  0  0  0  0  0  0  0  0
    9.8445   15.0747   21.9918 C   0  0  0  0  0  0  0  0  0  0  0  0
   12.1590   14.8159   21.0509 C   0  0  0  0  0  0  0  0  0  0  0  0
   10.2618   13.4794   20.0904 C   0  0  0  0  0  0  0  0  0  0  0  0
   10.8418   14.1064   21.3573 C   0  0  0  0  0  0  0  0  0  0  0  0
    6.6098   10.8215   25.3995 N   0  0  0  0  0  0  0  0  0  0  0  0
    8.1397    9.6661   24.1118 N   0  0  0  0  0  0  0  0  0  0  0  0
    5.0064   11.9740   26.7327 N   0  0  0  0  0  0  0  0  0  0  0  0
   10.5927   14.0709   24.2955 O   0  0  0  0  0  0  0  0  0  0  0  0
    9.6458    8.4564   22.8256 O   0  0  0  0  0  0  0  0  0  0  0  0
   11.1225   13.0620   22.2954 O   0  0  0  0  0  0  0  0  0  0  0  0
    8.5732   14.1143   24.9880 H   0  0  0  0  0  0  0  0  0  0  0  0
    6.5098   14.0898   26.3131 H   0  0  0  0  0  0  0  0  0  0  0  0
   10.9659   10.7012   22.5568 H   0  0  0  0  0  0  0  0  0  0  0  0
    8.8977   14.5693   22.2133 H   0  0  0  0  0  0  0  0  0  0  0  0
   10.2345   15.5048   22.9200 H   0  0  0  0  0  0  0  0  0  0  0  0
    9.6041   15.8943   21.3049 H   0  0  0  0  0  0  0  0  0  0  0  0
   12.8775   14.1249   20.5955 H   0  0  0  0  0  0  0  0  0  0  0  0
   12.6265   15.1854   21.9707 H   0  0  0  0  0  0  0  0  0  0  0  0
   12.0136   15.6621   20.3717 H   0  0  0  0  0  0  0  0  0  0  0  0
   10.9769   12.7848   19.6351 H   0  0  0  0  0  0  0  0  0  0  0  0
    9.3351   12.9345   20.2979 H   0  0  0  0  0  0  0  0  0  0  0  0
   10.0531   14.2468   19.3362 H   0  0  0  0  0  0  0  0  0  0  0  0
    4.7242   12.8133   27.1905 H   0  0  0  0  0  0  0  0  0  0  0  0
    4.5296   11.1101   26.8739 H   0  0  0  0  0  0  0  0  0  0  0  0
    9.0021    7.7748   23.0638 H   0  0  0  0  0  0  0  0  0  0  0  0
  1  2  1  0  0  0  0
  1  4  2  0  0  0  0
  2  7  2  0  0  0  0
  3  5  2  0  0  0  0
  3  8  1  0  0  0  0
  4  5  1  0  0  0  0
  4  6  1  0  0  0  0
  5  9  1  0  0  0  0
  6 14  2  0  0  0  0
  6 15  1  0  0  0  0
  7 14  1  0  0  0  0
  7 16  1  0  0  0  0
  8 15  2  0  0  0  0
  8 18  1  0  0  0  0
  9 17  2  0  0  0  0
  9 19  1  0  0  0  0
 10 13  1  0  0  0  0
 11 13  1  0  0  0  0
 12 13  1  0  0  0  0
 13 19  1  0  0  0  0
  1 20  1  0  0  0  0
  2 21  1  0  0  0  0
  3 22  1  0  0  0  0
 10 23  1  0  0  0  0
 10 24  1  0  0  0  0
 10 25  1  0  0  0  0
 11 26  1  0  0  0  0
 11 27  1  0  0  0  0
 11 28  1  0  0  0  0
 12 29  1  0  0  0  0
 12 30  1  0  0  0  0
 12 31  1  0  0  0  0
 16 32  1  0  0  0  0
 16 33  1  0  0  0  0
 18 34  1  0  0  0  0
M  END
> <id>
EN300-27724193

> <smiles>
CC(C)(C)OC(=O)C=1C=C(O)N=C2N=C(N)C=CC12

> <IUPAC Name>
tert-butyl 7-amino-2-hydroxy-1,8-naphthyridine-4-carboxylate

> <CAS>
2639447-62-2

> <URL>
https://www.enaminestore.com/catalog/EN300-27724193

> <ROCS_ShapeQuery>
A71EV2A-x0451_0A_A71EV2A-x0310_0A_A71EV2A-x0416_0A_peptide

> <ROCS_TanimotoCombo>
0.524 

> <ROCS_ShapeTanimoto>
0.357 

> <ROCS_ColorTanimoto>
0.167 

> <ROCS_RefTversky>
0.308 

> <ROCS_RefColorTversky>
0.195 

> <ROCS_RefTverskyCombo>
0.503 

> <ROCS_FitTversky>
1.797 

> <ROCS_FitColorTversky>
0.537 

> <ROCS_FitTverskyCombo>
2.334 

> <ROCS_ColorScore>
-5.964

> <ROCS_Overlap>
2139.286

> <ROCS_Rank>
147                 

$$$$
untitled-dbase-91484_253
  -OEChem-11132313473D

 46 48  0     1  0  0  0  0  0999 V2000
    7.0117   11.5194   27.5493 C   0  0  0  0  0  0  0  0  0  0  0  0
    6.2049   12.0991   28.5221 C   0  0  0  0  0  0  0  0  0  0  0  0
    5.1230   11.4366   26.1062 C   0  0  0  0  0  0  0  0  0  0  0  0
    6.4682   11.1788   26.3157 C   0  0  0  0  0  0  0  0  0  0  0  0
    4.8715   12.3159   28.2138 C   0  0  0  0  0  0  0  0  0  0  0  0
   10.5257   13.0878   23.6461 C   0  0  0  0  0  0  0  0  0  0  0  0
    9.8022   10.0152   24.5755 C   0  0  0  0  0  0  0  0  0  0  0  0
    8.8049   10.3538   25.7013 C   0  0  0  0  0  0  0  0  0  0  0  0
    8.1293   10.4876   22.7987 C   0  0  0  0  0  0  0  0  0  0  0  0
    8.0450   12.6099   23.8408 C   0  0  0  0  0  0  0  0  0  0  0  0
    7.2942   11.2629   23.8330 C   0  0  2  0  0  0  0  0  0  0  0  0
    9.5347   10.8094   23.2903 C   0  0  1  0  0  0  0  0  0  0  0  0
    7.3311   10.5386   25.2215 C   0  0  2  0  0  0  0  0  0  0  0  0
   13.0173   14.4695   23.4246 C   0  0  0  0  0  0  0  0  0  0  0  0
   13.3749   13.1109   21.3424 C   0  0  0  0  0  0  0  0  0  0  0  0
   11.4449   14.7127   21.4744 C   0  0  0  0  0  0  0  0  0  0  0  0
   12.3361   13.7519   22.2601 C   0  0  0  0  0  0  0  0  0  0  0  0
    4.3078   11.9983   27.0268 N   0  0  0  0  0  0  0  0  0  0  0  0
    9.4370   12.2371   23.5912 N   0  0  0  0  0  0  0  0  0  0  0  0
   10.5971   14.0731   24.3768 O   0  0  0  0  0  0  0  0  0  0  0  0
    6.7417    9.2389   25.0369 O   0  0  0  0  0  0  0  0  0  0  0  0
   11.5195   12.7009   22.7877 O   0  0  0  0  0  0  0  0  0  0  0  0
    3.7514   13.1059   29.5282 Br  0  0  0  0  0  0  0  0  0  0  0  0
    8.0620   11.3372   27.7610 H   0  0  0  0  0  0  0  0  0  0  0  0
    6.6249   12.3663   29.4859 H   0  0  0  0  0  0  0  0  0  0  0  0
    4.6442   11.1932   25.1627 H   0  0  0  0  0  0  0  0  0  0  0  0
   10.8224   10.2013   24.9318 H   0  0  0  0  0  0  0  0  0  0  0  0
    9.7396    8.9424   24.3541 H   0  0  0  0  0  0  0  0  0  0  0  0
    8.8580    9.5688   26.4666 H   0  0  0  0  0  0  0  0  0  0  0  0
    9.1495   11.2775   26.1864 H   0  0  0  0  0  0  0  0  0  0  0  0
    7.9116    9.4167   22.7657 H   0  0  0  0  0  0  0  0  0  0  0  0
    7.9687   10.8937   21.7919 H   0  0  0  0  0  0  0  0  0  0  0  0
    7.7232   13.2483   23.0101 H   0  0  0  0  0  0  0  0  0  0  0  0
    7.9570   13.1774   24.7715 H   0  0  0  0  0  0  0  0  0  0  0  0
    6.2607   11.3753   23.4855 H   0  0  0  0  0  0  0  0  0  0  0  0
   10.3068   10.6161   22.5395 H   0  0  0  0  0  0  0  0  0  0  0  0
   12.2750   14.9310   24.0857 H   0  0  0  0  0  0  0  0  0  0  0  0
   13.6319   13.7839   24.0169 H   0  0  0  0  0  0  0  0  0  0  0  0
   13.6567   15.2827   23.0625 H   0  0  0  0  0  0  0  0  0  0  0  0
   12.8906   12.5949   20.5054 H   0  0  0  0  0  0  0  0  0  0  0  0
   13.9545   12.3514   21.8794 H   0  0  0  0  0  0  0  0  0  0  0  0
   14.0689   13.8540   20.9366 H   0  0  0  0  0  0  0  0  0  0  0  0
   10.9562   14.1983   20.6391 H   0  0  0  0  0  0  0  0  0  0  0  0
   10.6699   15.1544   22.1092 H   0  0  0  0  0  0  0  0  0  0  0  0
   12.0379   15.5226   21.0344 H   0  0  0  0  0  0  0  0  0  0  0  0
    6.8030    8.7855   25.8915 H   0  0  0  0  0  0  0  0  0  0  0  0
  1  2  1  0  0  0  0
  1  4  2  0  0  0  0
  2  5  2  0  0  0  0
  3  4  1  0  0  0  0
  3 18  2  0  0  0  0
  4 13  1  0  0  0  0
  5 18  1  0  0  0  0
  5 23  1  0  0  0  0
  6 19  1  0  0  0  0
  6 20  2  0  0  0  0
  6 22  1  0  0  0  0
  7  8  1  0  0  0  0
  7 12  1  0  0  0  0
  8 13  1  0  0  0  0
  9 11  1  0  0  0  0
  9 12  1  0  0  0  0
 10 11  1  0  0  0  0
 10 19  1  0  0  0  0
 11 13  1  0  0  0  0
 12 19  1  0  0  0  0
 13 21  1  0  0  0  0
 14 17  1  0  0  0  0
 15 17  1  0  0  0  0
 16 17  1  0  0  0  0
 17 22  1  0  0  0  0
  1 24  1  0  0  0  0
  2 25  1  0  0  0  0
  3 26  1  0  0  0  0
  7 27  1  0  0  0  0
  7 28  1  0  0  0  0
  8 29  1  0  0  0  0
  8 30  1  0  0  0  0
  9 31  1  0  0  0  0
  9 32  1  0  0  0  0
 10 33  1  0  0  0  0
 10 34  1  0  0  0  0
 11 35  1  0  0  0  0
 12 36  1  0  0  0  0
 14 37  1  0  0  0  0
 14 38  1  0  0  0  0
 14 39  1  0  0  0  0
 15 40  1  0  0  0  0
 15 41  1  0  0  0  0
 15 42  1  0  0  0  0
 16 43  1  0  0  0  0
 16 44  1  0  0  0  0
 16 45  1  0  0  0  0
 21 46  1  0  0  0  0
M  END
> <id>
EN300-7428887

> <smiles>
CC(C)(C)OC(=O)N1CC2CC1CCC2(O)C=3C=CC(Br)=NC3

> <IUPAC Name>
tert-butyl 2-(6-bromopyridin-3-yl)-2-hydroxy-6-azabicyclo[3.2.1]octane-6-carboxylate

> <CAS>
2309457-89-2

> <URL>
https://www.enaminestore.com/catalog/EN300-7428887

> <ROCS_ShapeQuery>
A71EV2A-x0451_0A_A71EV2A-x0310_0A_A71EV2A-x0416_0A_peptide

> <ROCS_TanimotoCombo>
0.524 

> <ROCS_ShapeTanimoto>
0.324 

> <ROCS_ColorTanimoto>
0.200 

> <ROCS_RefTversky>
0.292 

> <ROCS_RefColorTversky>
0.241 

> <ROCS_RefTverskyCombo>
0.533 

> <ROCS_FitTversky>
1.513 

> <ROCS_FitColorTversky>
0.538 

> <ROCS_FitTverskyCombo>
2.052 

> <ROCS_ColorScore>
-7.419

> <ROCS_Overlap>
2027.868

> <ROCS_Rank>
148                 

$$$$
untitled-dbase-164594_445
  -OEChem-11132313473D

 52 54  0     1  0  0  0  0  0999 V2000
    6.8831   12.6404   25.2787 C   0  0  0  0  0  0  0  0  0  0  0  0
    6.7471    9.8649   25.1255 C   0  0  0  0  0  0  0  0  0  0  0  0
    5.8984   11.9533   25.9861 C   0  0  0  0  0  0  0  0  0  0  0  0
    7.7452   10.5445   24.4081 C   0  0  0  0  0  0  0  0  0  0  0  0
    7.8096   11.9406   24.4988 C   0  0  0  0  0  0  0  0  0  0  0  0
    5.8312   10.5651   25.9111 C   0  0  0  0  0  0  0  0  0  0  0  0
    4.9346   12.6910   26.7879 C   0  0  0  0  0  0  0  0  0  0  0  0
   11.8972   15.0237   22.4758 C   0  0  0  0  0  0  0  0  0  0  0  0
   10.9844   11.9426   24.3125 C   0  0  0  0  0  0  0  0  0  0  0  0
    9.4522   10.7160   22.6026 C   0  0  0  0  0  0  0  0  0  0  0  0
   11.5781   13.3463   24.3339 C   0  0  0  0  0  0  0  0  0  0  0  0
   10.4666   12.9941   22.2290 C   0  0  0  0  0  0  0  0  0  0  0  0
    8.7132    9.7678   23.5523 C   0  0  1  0  0  0  0  0  0  0  0  0
    9.8583   12.0350   23.2669 C   0  0  2  0  0  0  0  0  0  0  0  0
   14.4698   15.2241   21.2471 C   0  0  0  0  0  0  0  0  0  0  0  0
   13.2143   15.4763   19.0863 C   0  0  0  0  0  0  0  0  0  0  0  0
   12.9293   17.1848   20.9050 C   0  0  0  0  0  0  0  0  0  0  0  0
    4.2686   14.8764   27.4756 C   0  0  0  0  0  0  0  0  0  0  0  0
   13.1758   15.7090   20.5951 C   0  0  0  0  0  0  0  0  0  0  0  0
   11.3534   13.8600   22.9926 N   0  0  0  0  0  0  0  0  0  0  0  0
    9.6304    8.9675   24.3658 N   0  0  0  0  0  0  0  0  0  0  0  0
    4.0270   12.1684   27.4485 O   0  0  0  0  0  0  0  0  0  0  0  0
   12.1804   16.0118   23.1493 O   0  0  0  0  0  0  0  0  0  0  0  0
    8.7248   12.7135   23.8358 O   0  0  0  0  0  0  0  0  0  0  0  0
    5.1548   14.0399   26.7242 O   0  0  0  0  0  0  0  0  0  0  0  0
   12.0857   14.9443   21.1218 O   0  0  0  0  0  0  0  0  0  0  0  0
    4.8915    9.8915   26.5884 F   0  0  0  0  0  0  0  0  0  0  0  0
    6.9252   13.7271   25.3217 H   0  0  0  0  0  0  0  0  0  0  0  0
    6.6753    8.7819   25.0819 H   0  0  0  0  0  0  0  0  0  0  0  0
   11.7544   11.2263   23.9984 H   0  0  0  0  0  0  0  0  0  0  0  0
   10.6189   11.6562   25.3051 H   0  0  0  0  0  0  0  0  0  0  0  0
   10.3725   10.2210   22.2280 H   0  0  0  0  0  0  0  0  0  0  0  0
    8.8309   10.9071   21.7048 H   0  0  0  0  0  0  0  0  0  0  0  0
   11.0467   13.9996   25.0347 H   0  0  0  0  0  0  0  0  0  0  0  0
   12.6437   13.3581   24.5817 H   0  0  0  0  0  0  0  0  0  0  0  0
   11.0860   12.4669   21.4929 H   0  0  0  0  0  0  0  0  0  0  0  0
    9.7256   13.6057   21.7024 H   0  0  0  0  0  0  0  0  0  0  0  0
    8.0977    9.0618   22.9567 H   0  0  0  0  0  0  0  0  0  0  0  0
   14.4461   15.3894   22.3302 H   0  0  0  0  0  0  0  0  0  0  0  0
   14.6403   14.1586   21.0617 H   0  0  0  0  0  0  0  0  0  0  0  0
   15.3324   15.7838   20.8678 H   0  0  0  0  0  0  0  0  0  0  0  0
   12.2878   15.8227   18.6143 H   0  0  0  0  0  0  0  0  0  0  0  0
   13.2959   14.4074   18.8582 H   0  0  0  0  0  0  0  0  0  0  0  0
   14.0569   15.9958   18.6187 H   0  0  0  0  0  0  0  0  0  0  0  0
   12.0012   17.5329   20.4373 H   0  0  0  0  0  0  0  0  0  0  0  0
   12.8618   17.3648   21.9828 H   0  0  0  0  0  0  0  0  0  0  0  0
   13.7335   17.8081   20.4975 H   0  0  0  0  0  0  0  0  0  0  0  0
    4.5514   15.9231   27.3396 H   0  0  0  0  0  0  0  0  0  0  0  0
    4.3222   14.6079   28.5337 H   0  0  0  0  0  0  0  0  0  0  0  0
    3.2480   14.7273   27.1152 H   0  0  0  0  0  0  0  0  0  0  0  0
    9.0870    8.3818   24.9519 H   0  0  0  0  0  0  0  0  0  0  0  0
   10.1932    8.4308   23.7518 H   0  0  0  0  0  0  0  0  0  0  0  0
  1  3  2  0  0  0  0
  1  5  1  0  0  0  0
  2  4  1  0  0  0  0
  2  6  2  0  0  0  0
  3  6  1  0  0  0  0
  3  7  1  0  0  0  0
  4  5  2  0  0  0  0
  4 13  1  0  0  0  0
  5 24  1  0  0  0  0
  6 27  1  0  0  0  0
  7 22  2  0  0  0  0
  7 25  1  0  0  0  0
  8 20  1  0  0  0  0
  8 23  2  0  0  0  0
  8 26  1  0  0  0  0
  9 11  1  0  0  0  0
  9 14  1  0  0  0  0
 10 13  1  0  0  0  0
 10 14  1  0  0  0  0
 11 20  1  0  0  0  0
 12 14  1  0  0  0  0
 12 20  1  0  0  0  0
 13 21  1  0  0  0  0
 14 24  1  0  0  0  0
 15 19  1  0  0  0  0
 16 19  1  0  0  0  0
 17 19  1  0  0  0  0
 18 25  1  0  0  0  0
 19 26  1  0  0  0  0
  1 28  1  0  0  0  0
  2 29  1  0  0  0  0
  9 30  1  0  0  0  0
  9 31  1  0  0  0  0
 10 32  1  0  0  0  0
 10 33  1  0  0  0  0
 11 34  1  0  0  0  0
 11 35  1  0  0  0  0
 12 36  1  0  0  0  0
 12 37  1  0  0  0  0
 13 38  1  0  0  0  0
 15 39  1  0  0  0  0
 15 40  1  0  0  0  0
 15 41  1  0  0  0  0
 16 42  1  0  0  0  0
 16 43  1  0  0  0  0
 16 44  1  0  0  0  0
 17 45  1  0  0  0  0
 17 46  1  0  0  0  0
 17 47  1  0  0  0  0
 18 48  1  0  0  0  0
 18 49  1  0  0  0  0
 18 50  1  0  0  0  0
 21 51  1  0  0  0  0
 21 52  1  0  0  0  0
M  END
> <id>
EN300-1129082

> <smiles>
COC(=O)C=1C=C2OC3(CCN(C3)C(=O)OC(C)(C)C)CC(N)C2=CC1F

> <IUPAC Name>
1'-tert-butyl 7-methyl 4-amino-6-fluoro-3,4-dihydrospiro[1-benzopyran-2,3'-pyrrolidine]-1',7-dicarboxylate

> <CAS>
2137602-10-7

> <URL>
https://www.enaminestore.com/catalog/EN300-1129082

> <ROCS_ShapeQuery>
A71EV2A-x0451_0A_A71EV2A-x0310_0A_A71EV2A-x0416_0A_peptide

> <ROCS_TanimotoCombo>
0.524 

> <ROCS_ShapeTanimoto>
0.390 

> <ROCS_ColorTanimoto>
0.134 

> <ROCS_RefTversky>
0.342 

> <ROCS_RefColorTversky>
0.157 

> <ROCS_RefTverskyCombo>
0.500 

> <ROCS_FitTversky>
1.554 

> <ROCS_FitColorTversky>
0.475 

> <ROCS_FitTverskyCombo>
2.029 

> <ROCS_ColorScore>
-4.815

> <ROCS_Overlap>
2380.267

> <ROCS_Rank>
149                 

$$$$
untitled-dbase-97483_40
  -OEChem-11132313473D

 35 36  0     0  0  0  0  0  0999 V2000
    9.2170   10.0536   23.3141 C   0  0  0  0  0  0  0  0  0  0  0  0
    9.3503   11.4546   23.4228 C   0  0  0  0  0  0  0  0  0  0  0  0
    8.3755   11.8203   24.3186 C   0  0  0  0  0  0  0  0  0  0  0  0
   10.7982   13.4977   23.2216 C   0  0  0  0  0  0  0  0  0  0  0  0
    6.6321   11.8184   26.5221 C   0  0  0  0  0  0  0  0  0  0  0  0
    6.6566   10.5790   25.6291 C   0  0  0  0  0  0  0  0  0  0  0  0
    6.8132   13.0935   25.6933 C   0  0  0  0  0  0  0  0  0  0  0  0
   11.3082   16.2922   22.8899 C   0  0  0  0  0  0  0  0  0  0  0  0
   12.3766   15.6500   20.7092 C   0  0  0  0  0  0  0  0  0  0  0  0
    9.9341   15.2016   21.0851 C   0  0  0  0  0  0  0  0  0  0  0  0
   11.3117   15.2848   21.7410 C   0  0  0  0  0  0  0  0  0  0  0  0
    8.2384    9.5622   24.0823 N   0  0  0  0  0  0  0  0  0  0  0  0
    7.7542   10.6598   24.6868 N   0  0  0  0  0  0  0  0  0  0  0  0
    7.9919   13.0028   24.8429 N   0  0  0  0  0  0  0  0  0  0  0  0
   10.2410   12.2826   22.7845 N   0  0  0  0  0  0  0  0  0  0  0  0
   10.5798   14.0560   24.2898 O   0  0  0  0  0  0  0  0  0  0  0  0
   11.6449   13.9948   22.2669 O   0  0  0  0  0  0  0  0  0  0  0  0
    9.7918    9.3686   22.7067 H   0  0  0  0  0  0  0  0  0  0  0  0
    5.6910   11.8592   27.0814 H   0  0  0  0  0  0  0  0  0  0  0  0
    7.4416   11.7545   27.2609 H   0  0  0  0  0  0  0  0  0  0  0  0
    6.7793    9.6707   26.2273 H   0  0  0  0  0  0  0  0  0  0  0  0
    5.7382   10.5007   25.0375 H   0  0  0  0  0  0  0  0  0  0  0  0
    5.9308   13.2584   25.0640 H   0  0  0  0  0  0  0  0  0  0  0  0
    6.9091   13.9591   26.3573 H   0  0  0  0  0  0  0  0  0  0  0  0
   10.5452   16.0334   23.6327 H   0  0  0  0  0  0  0  0  0  0  0  0
   12.2807   16.3358   23.3910 H   0  0  0  0  0  0  0  0  0  0  0  0
   11.0598   17.2966   22.5284 H   0  0  0  0  0  0  0  0  0  0  0  0
   12.3826   14.9299   19.8830 H   0  0  0  0  0  0  0  0  0  0  0  0
   13.3779   15.6182   21.1537 H   0  0  0  0  0  0  0  0  0  0  0  0
   12.2124   16.6504   20.2958 H   0  0  0  0  0  0  0  0  0  0  0  0
    9.9363   14.4791   20.2610 H   0  0  0  0  0  0  0  0  0  0  0  0
    9.1628   14.9045   21.8031 H   0  0  0  0  0  0  0  0  0  0  0  0
    9.6511   16.1667   20.6494 H   0  0  0  0  0  0  0  0  0  0  0  0
    8.4429   13.8733   24.5767 H   0  0  0  0  0  0  0  0  0  0  0  0
   10.5461   11.9668   21.8468 H   0  0  0  0  0  0  0  0  0  0  0  0
  1  2  1  0  0  0  0
  1 12  2  0  0  0  0
  2  3  2  0  0  0  0
  2 15  1  0  0  0  0
  3 13  1  0  0  0  0
  3 14  1  0  0  0  0
  4 15  1  0  0  0  0
  4 16  2  0  0  0  0
  4 17  1  0  0  0  0
  5  6  1  0  0  0  0
  5  7  1  0  0  0  0
  6 13  1  0  0  0  0
  7 14  1  0  0  0  0
  8 11  1  0  0  0  0
  9 11  1  0  0  0  0
 10 11  1  0  0  0  0
 11 17  1  0  0  0  0
 12 13  1  0  0  0  0
  1 18  1  0  0  0  0
  5 19  1  0  0  0  0
  5 20  1  0  0  0  0
  6 21  1  0  0  0  0
  6 22  1  0  0  0  0
  7 23  1  0  0  0  0
  7 24  1  0  0  0  0
  8 25  1  0  0  0  0
  8 26  1  0  0  0  0
  8 27  1  0  0  0  0
  9 28  1  0  0  0  0
  9 29  1  0  0  0  0
  9 30  1  0  0  0  0
 10 31  1  0  0  0  0
 10 32  1  0  0  0  0
 10 33  1  0  0  0  0
 14 34  1  0  0  0  0
 15 35  1  0  0  0  0
M  END
> <id>
EN300-364866

> <smiles>
CC(C)(C)OC(=O)NC=1C=NN2CCCNC12

> <MDLNUMBER>
MFCD30749992

> <IUPAC Name>
tert-butyl N-{4H,5H,6H,7H-pyrazolo[1,5-a]pyrimidin-3-yl}carbamate

> <CAS>
2091447-06-0

> <Purity>
95

> <URL>
https://www.enaminestore.com/catalog/EN300-364866

> <ROCS_ShapeQuery>
A71EV2A-x0451_0A_A71EV2A-x0310_0A_A71EV2A-x0416_0A_peptide

> <ROCS_TanimotoCombo>
0.524 

> <ROCS_ShapeTanimoto>
0.332 

> <ROCS_ColorTanimoto>
0.192 

> <ROCS_RefTversky>
0.288 

> <ROCS_RefColorTversky>
0.205 

> <ROCS_RefTverskyCombo>
0.493 

> <ROCS_FitTversky>
1.830 

> <ROCS_FitColorTversky>
0.756 

> <ROCS_FitTverskyCombo>
2.585 

> <ROCS_ColorScore>
-6.239

> <ROCS_Overlap>
1999.687

> <ROCS_Rank>
150                 

$$$$
untitled-dbase-95410_540
  -OEChem-11132313473D

 40 41  0     0  0  0  0  0  0999 V2000
    6.8290   12.6879   24.8246 C   0  0  0  0  0  0  0  0  0  0  0  0
    6.0444   10.9135   26.2677 C   0  0  0  0  0  0  0  0  0  0  0  0
    6.0189   12.2500   25.8744 C   0  0  0  0  0  0  0  0  0  0  0  0
    7.6832   11.7959   24.1614 C   0  0  0  0  0  0  0  0  0  0  0  0
    7.7157   10.4580   24.5863 C   0  0  0  0  0  0  0  0  0  0  0  0
    6.8867   10.0133   25.6190 C   0  0  0  0  0  0  0  0  0  0  0  0
    5.1371   13.1892   26.5496 C   0  0  0  0  0  0  0  0  0  0  0  0
   10.7899   13.0665   23.7342 C   0  0  0  0  0  0  0  0  0  0  0  0
    8.5129   12.2724   22.9971 C   0  0  0  0  0  0  0  0  0  0  0  0
   10.4429   10.7016   23.0657 C   0  0  0  0  0  0  0  0  0  0  0  0
    9.8999    9.7857   24.1568 C   0  0  0  0  0  0  0  0  0  0  0  0
   12.5520   15.2988   23.4132 C   0  0  0  0  0  0  0  0  0  0  0  0
   14.0209   13.7182   22.1274 C   0  0  0  0  0  0  0  0  0  0  0  0
   11.7131   14.2443   21.2874 C   0  0  0  0  0  0  0  0  0  0  0  0
   12.5859   14.0543   22.5272 C   0  0  0  0  0  0  0  0  0  0  0  0
    9.9454   12.0682   23.2321 N   0  0  0  0  0  0  0  0  0  0  0  0
    5.0260   14.3890   26.2777 O   0  0  0  0  0  0  0  0  0  0  0  0
   10.4286   13.9633   24.4940 O   0  0  0  0  0  0  0  0  0  0  0  0
    8.5042    9.5183   23.9709 O   0  0  0  0  0  0  0  0  0  0  0  0
    4.4173   12.6032   27.5454 O   0  0  0  0  0  0  0  0  0  0  0  0
   12.0764   12.9463   23.2780 O   0  0  0  0  0  0  0  0  0  0  0  0
    6.8793    8.2027   26.1883 Br  0  0  0  0  0  0  0  0  0  0  0  0
    6.7896   13.7305   24.5154 H   0  0  0  0  0  0  0  0  0  0  0  0
    5.4019   10.5809   27.0803 H   0  0  0  0  0  0  0  0  0  0  0  0
    8.2231   11.7302   22.0889 H   0  0  0  0  0  0  0  0  0  0  0  0
    8.3195   13.3314   22.7956 H   0  0  0  0  0  0  0  0  0  0  0  0
   11.5369   10.7005   23.1023 H   0  0  0  0  0  0  0  0  0  0  0  0
   10.1356   10.3543   22.0730 H   0  0  0  0  0  0  0  0  0  0  0  0
   10.4079    8.8175   24.0820 H   0  0  0  0  0  0  0  0  0  0  0  0
   10.1127   10.1703   25.1639 H   0  0  0  0  0  0  0  0  0  0  0  0
   11.5236   15.5433   23.7024 H   0  0  0  0  0  0  0  0  0  0  0  0
   13.1459   15.1626   24.3229 H   0  0  0  0  0  0  0  0  0  0  0  0
   12.9379   16.1723   22.8754 H   0  0  0  0  0  0  0  0  0  0  0  0
   14.0500   12.8260   21.4916 H   0  0  0  0  0  0  0  0  0  0  0  0
   14.6283   13.4881   23.0102 H   0  0  0  0  0  0  0  0  0  0  0  0
   14.4939   14.5446   21.5870 H   0  0  0  0  0  0  0  0  0  0  0  0
   11.7373   13.3518   20.6517 H   0  0  0  0  0  0  0  0  0  0  0  0
   10.6716   14.4499   21.5550 H   0  0  0  0  0  0  0  0  0  0  0  0
   12.0846   15.0720   20.6725 H   0  0  0  0  0  0  0  0  0  0  0  0
    3.8185   13.2285   28.0067 H   0  0  0  0  0  0  0  0  0  0  0  0
  1  3  1  0  0  0  0
  1  4  2  0  0  0  0
  2  3  2  0  0  0  0
  2  6  1  0  0  0  0
  3  7  1  0  0  0  0
  4  5  1  0  0  0  0
  4  9  1  0  0  0  0
  5  6  2  0  0  0  0
  5 19  1  0  0  0  0
  6 22  1  0  0  0  0
  7 17  2  0  0  0  0
  7 20  1  0  0  0  0
  8 16  1  0  0  0  0
  8 18  2  0  0  0  0
  8 21  1  0  0  0  0
  9 16  1  0  0  0  0
 10 11  1  0  0  0  0
 10 16  1  0  0  0  0
 11 19  1  0  0  0  0
 12 15  1  0  0  0  0
 13 15  1  0  0  0  0
 14 15  1  0  0  0  0
 15 21  1  0  0  0  0
  1 23  1  0  0  0  0
  2 24  1  0  0  0  0
  9 25  1  0  0  0  0
  9 26  1  0  0  0  0
 10 27  1  0  0  0  0
 10 28  1  0  0  0  0
 11 29  1  0  0  0  0
 11 30  1  0  0  0  0
 12 31  1  0  0  0  0
 12 32  1  0  0  0  0
 12 33  1  0  0  0  0
 13 34  1  0  0  0  0
 13 35  1  0  0  0  0
 13 36  1  0  0  0  0
 14 37  1  0  0  0  0
 14 38  1  0  0  0  0
 14 39  1  0  0  0  0
 20 40  1  0  0  0  0
M  END
> <id>
EN300-1608113

> <smiles>
CC(C)(C)OC(=O)N1CCOC=2C(Br)=CC(=CC2C1)C(=O)O

> <MDLNUMBER>
MFCD31615973

> <IUPAC Name>
9-bromo-4-[(tert-butoxy)carbonyl]-2,3,4,5-tetrahydro-1,4-benzoxazepine-7-carboxylic acid

> <CAS>
2172250-40-5

> <Purity>
95

> <URL>
https://www.enaminestore.com/catalog/EN300-1608113

> <ROCS_ShapeQuery>
A71EV2A-x0451_0A_A71EV2A-x0310_0A_A71EV2A-x0416_0A_peptide

> <ROCS_TanimotoCombo>
0.524 

> <ROCS_ShapeTanimoto>
0.342 

> <ROCS_ColorTanimoto>
0.182 

> <ROCS_RefTversky>
0.302 

> <ROCS_RefColorTversky>
0.205 

> <ROCS_RefTverskyCombo>
0.507 

> <ROCS_FitTversky>
1.627 

> <ROCS_FitColorTversky>
0.617 

> <ROCS_FitTverskyCombo>
2.244 

> <ROCS_ColorScore>
-6.262

> <ROCS_Overlap>
2098.653

> <ROCS_Rank>
151                 

$$$$
untitled-dbase-76685_40
  -OEChem-11132313473D

 38 41  0     0  0  0  0  0  0999 V2000
    6.5967   12.9145   25.7049 C   0  0  0  0  0  0  0  0  0  0  0  0
   13.4580   15.4163   18.3628 C   0  0  0  0  0  0  0  0  0  0  0  0
   13.4909   16.4910   19.2476 C   0  0  0  0  0  0  0  0  0  0  0  0
    6.0204   11.6510   25.7450 C   0  0  0  0  0  0  0  0  0  0  0  0
    7.7986   13.1003   25.0278 C   0  0  0  0  0  0  0  0  0  0  0  0
   12.6949   14.2886   18.6633 C   0  0  0  0  0  0  0  0  0  0  0  0
   12.7654   16.4374   20.4374 C   0  0  0  0  0  0  0  0  0  0  0  0
    6.6467   10.5767   25.1083 C   0  0  0  0  0  0  0  0  0  0  0  0
   10.2354   11.0913   23.0768 C   0  0  0  0  0  0  0  0  0  0  0  0
    8.4284   12.0195   24.3875 C   0  0  0  0  0  0  0  0  0  0  0  0
    9.6386   12.1784   23.6989 C   0  0  0  0  0  0  0  0  0  0  0  0
   11.9513   14.2305   19.8498 C   0  0  0  0  0  0  0  0  0  0  0  0
   11.9983   15.3069   20.7540 C   0  0  0  0  0  0  0  0  0  0  0  0
    7.8489   10.7339   24.4240 C   0  0  0  0  0  0  0  0  0  0  0  0
    9.5935    9.8729   23.1670 C   0  0  0  0  0  0  0  0  0  0  0  0
   10.3295   13.4732   23.5970 C   0  0  0  0  0  0  0  0  0  0  0  0
   11.1518   12.9956   20.1744 C   0  0  0  0  0  0  0  0  0  0  0  0
   11.2269   15.2836   22.0522 C   0  0  0  0  0  0  0  0  0  0  0  0
   10.0245   13.3074   21.1511 C   0  0  0  0  0  0  0  0  0  0  0  0
    8.4258    9.6771   23.8212 N   0  0  0  0  0  0  0  0  0  0  0  0
   10.5476   14.0071   22.3225 N   0  0  0  0  0  0  0  0  0  0  0  0
   10.6729   13.9933   24.6577 O   0  0  0  0  0  0  0  0  0  0  0  0
   10.2485    8.4671   22.4331 Cl  0  0  0  0  0  0  0  0  0  0  0  0
    6.1124   13.7519   26.1978 H   0  0  0  0  0  0  0  0  0  0  0  0
   14.0278   15.4558   17.4390 H   0  0  0  0  0  0  0  0  0  0  0  0
   14.0844   17.3699   19.0132 H   0  0  0  0  0  0  0  0  0  0  0  0
    5.0831   11.4976   26.2718 H   0  0  0  0  0  0  0  0  0  0  0  0
    8.2272   14.0994   25.0132 H   0  0  0  0  0  0  0  0  0  0  0  0
   12.6814   13.4547   17.9659 H   0  0  0  0  0  0  0  0  0  0  0  0
   12.8032   17.2820   21.1210 H   0  0  0  0  0  0  0  0  0  0  0  0
    6.1745    9.5969   25.1538 H   0  0  0  0  0  0  0  0  0  0  0  0
   11.1728   11.1954   22.5391 H   0  0  0  0  0  0  0  0  0  0  0  0
   10.7180   12.5791   19.2576 H   0  0  0  0  0  0  0  0  0  0  0  0
   11.8241   12.2414   20.6011 H   0  0  0  0  0  0  0  0  0  0  0  0
   11.9091   15.5191   22.8752 H   0  0  0  0  0  0  0  0  0  0  0  0
   10.4456   16.0525   22.0203 H   0  0  0  0  0  0  0  0  0  0  0  0
    9.2732   13.9607   20.6900 H   0  0  0  0  0  0  0  0  0  0  0  0
    9.5182   12.3818   21.4437 H   0  0  0  0  0  0  0  0  0  0  0  0
  1  4  1  0  0  0  0
  1  5  2  0  0  0  0
  2  3  2  0  0  0  0
  2  6  1  0  0  0  0
  3  7  1  0  0  0  0
  4  8  2  0  0  0  0
  5 10  1  0  0  0  0
  6 12  2  0  0  0  0
  7 13  2  0  0  0  0
  8 14  1  0  0  0  0
  9 11  1  0  0  0  0
  9 15  2  0  0  0  0
 10 11  2  0  0  0  0
 10 14  1  0  0  0  0
 11 16  1  0  0  0  0
 12 13  1  0  0  0  0
 12 17  1  0  0  0  0
 13 18  1  0  0  0  0
 14 20  2  0  0  0  0
 15 20  1  0  0  0  0
 15 23  1  0  0  0  0
 16 21  1  0  0  0  0
 16 22  2  0  0  0  0
 17 19  1  0  0  0  0
 18 21  1  0  0  0  0
 19 21  1  0  0  0  0
  1 24  1  0  0  0  0
  2 25  1  0  0  0  0
  3 26  1  0  0  0  0
  4 27  1  0  0  0  0
  5 28  1  0  0  0  0
  6 29  1  0  0  0  0
  7 30  1  0  0  0  0
  8 31  1  0  0  0  0
  9 32  1  0  0  0  0
 17 33  1  0  0  0  0
 17 34  1  0  0  0  0
 18 35  1  0  0  0  0
 18 36  1  0  0  0  0
 19 37  1  0  0  0  0
 19 38  1  0  0  0  0
M  END
> <id>
EN300-17991995

> <smiles>
ClC=1C=C(C(=O)N2CCC=3C=CC=CC3C2)C=4C=CC=CC4N1

> <MDLNUMBER>
MFCD02722422

> <IUPAC Name>
2-chloro-4-(1,2,3,4-tetrahydroisoquinoline-2-carbonyl)quinoline

> <CAS>
380210-23-1

> <URL>
https://www.enaminestore.com/catalog/EN300-17991995

> <ROCS_ShapeQuery>
A71EV2A-x0451_0A_A71EV2A-x0310_0A_A71EV2A-x0416_0A_peptide

> <ROCS_TanimotoCombo>
0.524 

> <ROCS_ShapeTanimoto>
0.362 

> <ROCS_ColorTanimoto>
0.161 

> <ROCS_RefTversky>
0.318 

> <ROCS_RefColorTversky>
0.172 

> <ROCS_RefTverskyCombo>
0.491 

> <ROCS_FitTversky>
1.613 

> <ROCS_FitColorTversky>
0.718 

> <ROCS_FitTverskyCombo>
2.332 

> <ROCS_ColorScore>
-5.241

> <ROCS_Overlap>
2212.887

> <ROCS_Rank>
152                 

$$$$
untitled-dbase-170995_20
  -OEChem-11132313473D

 34 35  0     0  0  0  0  0  0999 V2000
    4.4897   11.3630   27.8539 C   0  0  0  0  0  0  0  0  0  0  0  0
    5.3951   11.4199   27.0672 C   0  0  0  0  0  0  0  0  0  0  0  0
    6.9785   12.7336   25.7529 C   0  0  0  0  0  0  0  0  0  0  0  0
    8.0346   12.8358   24.8386 C   0  0  0  0  0  0  0  0  0  0  0  0
    7.0045   10.3031   25.6099 C   0  0  0  0  0  0  0  0  0  0  0  0
    6.4737   11.4879   26.1306 C   0  0  0  0  0  0  0  0  0  0  0  0
    8.5783   11.6547   24.3067 C   0  0  0  0  0  0  0  0  0  0  0  0
    8.0567   10.4272   24.6999 C   0  0  0  0  0  0  0  0  0  0  0  0
    9.6050   11.3230   23.3966 C   0  0  0  0  0  0  0  0  0  0  0  0
   10.8155   13.5132   23.1759 C   0  0  0  0  0  0  0  0  0  0  0  0
   11.0095   16.3435   22.8140 C   0  0  0  0  0  0  0  0  0  0  0  0
   12.1507   15.8018   20.6429 C   0  0  0  0  0  0  0  0  0  0  0  0
    9.7728   15.0859   21.0186 C   0  0  0  0  0  0  0  0  0  0  0  0
   11.1300   15.3304   21.6765 C   0  0  0  0  0  0  0  0  0  0  0  0
    9.7344   10.0064   23.2185 N   0  0  0  0  0  0  0  0  0  0  0  0
    8.7861    9.4907   24.0183 N   0  0  0  0  0  0  0  0  0  0  0  0
   10.4049   12.2444   22.7471 N   0  0  0  0  0  0  0  0  0  0  0  0
   10.5321   14.0551   24.2373 O   0  0  0  0  0  0  0  0  0  0  0  0
   11.6043   14.0919   22.2176 O   0  0  0  0  0  0  0  0  0  0  0  0
    3.6871   11.3123   28.5519 H   0  0  0  0  0  0  0  0  0  0  0  0
    6.5571   13.6483   26.1656 H   0  0  0  0  0  0  0  0  0  0  0  0
    8.4173   13.8110   24.5538 H   0  0  0  0  0  0  0  0  0  0  0  0
    6.6222    9.3276   25.8935 H   0  0  0  0  0  0  0  0  0  0  0  0
   10.2778   16.0088   23.5580 H   0  0  0  0  0  0  0  0  0  0  0  0
   11.9692   16.5016   23.3167 H   0  0  0  0  0  0  0  0  0  0  0  0
   10.6510   17.3097   22.4407 H   0  0  0  0  0  0  0  0  0  0  0  0
   12.2404   15.0779   19.8249 H   0  0  0  0  0  0  0  0  0  0  0  0
   13.1477   15.8875   21.0899 H   0  0  0  0  0  0  0  0  0  0  0  0
   11.8765   16.7728   20.2180 H   0  0  0  0  0  0  0  0  0  0  0  0
    9.8590   14.3592   20.2026 H   0  0  0  0  0  0  0  0  0  0  0  0
    9.0373   14.7119   21.7382 H   0  0  0  0  0  0  0  0  0  0  0  0
    9.3846   16.0082   20.5715 H   0  0  0  0  0  0  0  0  0  0  0  0
    8.6865    8.4839   24.0546 H   0  0  0  0  0  0  0  0  0  0  0  0
   10.7472   11.9578   21.8175 H   0  0  0  0  0  0  0  0  0  0  0  0
  1  2  3  0  0  0  0
  2  6  1  0  0  0  0
  3  4  1  0  0  0  0
  3  6  2  0  0  0  0
  4  7  2  0  0  0  0
  5  6  1  0  0  0  0
  5  8  2  0  0  0  0
  7  8  1  0  0  0  0
  7  9  1  0  0  0  0
  8 16  1  0  0  0  0
  9 15  2  0  0  0  0
  9 17  1  0  0  0  0
 10 17  1  0  0  0  0
 10 18  2  0  0  0  0
 10 19  1  0  0  0  0
 11 14  1  0  0  0  0
 12 14  1  0  0  0  0
 13 14  1  0  0  0  0
 14 19  1  0  0  0  0
 15 16  1  0  0  0  0
  1 20  1  0  0  0  0
  3 21  1  0  0  0  0
  4 22  1  0  0  0  0
  5 23  1  0  0  0  0
 11 24  1  0  0  0  0
 11 25  1  0  0  0  0
 11 26  1  0  0  0  0
 12 27  1  0  0  0  0
 12 28  1  0  0  0  0
 12 29  1  0  0  0  0
 13 30  1  0  0  0  0
 13 31  1  0  0  0  0
 13 32  1  0  0  0  0
 16 33  1  0  0  0  0
 17 34  1  0  0  0  0
M  END
> <id>
EN300-37397591

> <smiles>
CC(C)(C)OC(=O)NC1=NNC=2C=C(C#C)C=CC12

> <IUPAC Name>
tert-butyl N-(6-ethynyl-1H-indazol-3-yl)carbamate

> <CAS>
2770529-96-7

> <URL>
https://www.enaminestore.com/catalog/EN300-37397591

> <ROCS_ShapeQuery>
A71EV2A-x0451_0A_A71EV2A-x0310_0A_A71EV2A-x0416_0A_peptide

> <ROCS_TanimotoCombo>
0.524 

> <ROCS_ShapeTanimoto>
0.350 

> <ROCS_ColorTanimoto>
0.173 

> <ROCS_RefTversky>
0.304 

> <ROCS_RefColorTversky>
0.192 

> <ROCS_RefTverskyCombo>
0.496 

> <ROCS_FitTversky>
1.779 

> <ROCS_FitColorTversky>
0.638 

> <ROCS_FitTverskyCombo>
2.417 

> <ROCS_ColorScore>
-5.873

> <ROCS_Overlap>
2106.261

> <ROCS_Rank>
153                 

$$$$
untitled-dbase-169855_14
  -OEChem-11132313473D

 38 39  0     0  0  0  0  0  0999 V2000
    6.4921   12.8617   25.9092 C   0  0  0  0  0  0  0  0  0  0  0  0
    7.6785   13.1530   25.2270 C   0  0  0  0  0  0  0  0  0  0  0  0
    6.7005   10.5026   25.3867 C   0  0  0  0  0  0  0  0  0  0  0  0
    7.8944   10.7791   24.6976 C   0  0  0  0  0  0  0  0  0  0  0  0
    6.0089   11.5579   25.9888 C   0  0  0  0  0  0  0  0  0  0  0  0
    8.3668   12.0886   24.6250 C   0  0  0  0  0  0  0  0  0  0  0  0
    8.8416   10.0203   23.9884 C   0  0  0  0  0  0  0  0  0  0  0  0
    4.7728   11.2889   26.7073 C   0  0  0  0  0  0  0  0  0  0  0  0
   10.4026   13.0667   23.5337 C   0  0  0  0  0  0  0  0  0  0  0  0
   13.0226   13.9703   22.9320 C   0  0  0  0  0  0  0  0  0  0  0  0
   12.5119   13.2948   20.5673 C   0  0  0  0  0  0  0  0  0  0  0  0
   11.1475   15.0869   21.6784 C   0  0  0  0  0  0  0  0  0  0  0  0
    3.2537    9.5669   27.3534 C   0  0  0  0  0  0  0  0  0  0  0  0
   11.9226   13.7868   21.8874 C   0  0  0  0  0  0  0  0  0  0  0  0
    9.8358   10.7578   23.4995 N   0  0  0  0  0  0  0  0  0  0  0  0
    9.5431   12.0242   23.8900 N   0  0  0  0  0  0  0  0  0  0  0  0
    8.7156    8.6753   23.8397 N   0  0  0  0  0  0  0  0  0  0  0  0
    4.0905   12.1526   27.2738 O   0  0  0  0  0  0  0  0  0  0  0  0
   10.5264   14.0538   24.2399 O   0  0  0  0  0  0  0  0  0  0  0  0
    4.4543    9.9587   26.6791 O   0  0  0  0  0  0  0  0  0  0  0  0
   11.0143   12.7849   22.3540 O   0  0  0  0  0  0  0  0  0  0  0  0
    5.9478   13.6767   26.3818 H   0  0  0  0  0  0  0  0  0  0  0  0
    8.0391   14.1740   25.1763 H   0  0  0  0  0  0  0  0  0  0  0  0
    6.3231    9.4856   25.4509 H   0  0  0  0  0  0  0  0  0  0  0  0
   12.6038   14.3234   23.8811 H   0  0  0  0  0  0  0  0  0  0  0  0
   13.5634   13.0363   23.1167 H   0  0  0  0  0  0  0  0  0  0  0  0
   13.7441   14.7302   22.6108 H   0  0  0  0  0  0  0  0  0  0  0  0
   11.7261   13.1617   19.8148 H   0  0  0  0  0  0  0  0  0  0  0  0
   12.9876   12.3154   20.6931 H   0  0  0  0  0  0  0  0  0  0  0  0
   13.2560   13.9935   20.1716 H   0  0  0  0  0  0  0  0  0  0  0  0
   10.3584   14.9556   20.9292 H   0  0  0  0  0  0  0  0  0  0  0  0
   10.6865   15.4356   22.6083 H   0  0  0  0  0  0  0  0  0  0  0  0
   11.8060   15.8765   21.2988 H   0  0  0  0  0  0  0  0  0  0  0  0
    3.1160    8.4873   27.2561 H   0  0  0  0  0  0  0  0  0  0  0  0
    2.4013   10.0945   26.9178 H   0  0  0  0  0  0  0  0  0  0  0  0
    3.3389    9.8272   28.4111 H   0  0  0  0  0  0  0  0  0  0  0  0
    9.3821    8.1297   23.2822 H   0  0  0  0  0  0  0  0  0  0  0  0
    7.8997    8.1674   24.1989 H   0  0  0  0  0  0  0  0  0  0  0  0
  1  2  1  0  0  0  0
  1  5  2  0  0  0  0
  2  6  2  0  0  0  0
  3  4  2  0  0  0  0
  3  5  1  0  0  0  0
  4  6  1  0  0  0  0
  4  7  1  0  0  0  0
  5  8  1  0  0  0  0
  6 16  1  0  0  0  0
  7 15  2  0  0  0  0
  7 17  1  0  0  0  0
  8 18  2  0  0  0  0
  8 20  1  0  0  0  0
  9 16  1  0  0  0  0
  9 19  2  0  0  0  0
  9 21  1  0  0  0  0
 10 14  1  0  0  0  0
 11 14  1  0  0  0  0
 12 14  1  0  0  0  0
 13 20  1  0  0  0  0
 14 21  1  0  0  0  0
 15 16  1  0  0  0  0
  1 22  1  0  0  0  0
  2 23  1  0  0  0  0
  3 24  1  0  0  0  0
 10 25  1  0  0  0  0
 10 26  1  0  0  0  0
 10 27  1  0  0  0  0
 11 28  1  0  0  0  0
 11 29  1  0  0  0  0
 11 30  1  0  0  0  0
 12 31  1  0  0  0  0
 12 32  1  0  0  0  0
 12 33  1  0  0  0  0
 13 34  1  0  0  0  0
 13 35  1  0  0  0  0
 13 36  1  0  0  0  0
 17 37  1  0  0  0  0
 17 38  1  0  0  0  0
M  END
> <id>
EN300-39874880

> <smiles>
COC(=O)C=1C=CC=2N(N=C(N)C2C1)C(=O)OC(C)(C)C

> <IUPAC Name>
1-tert-butyl 5-methyl 3-amino-1H-indazole-1,5-dicarboxylate

> <URL>
https://www.enaminestore.com/catalog/EN300-39874880

> <ROCS_ShapeQuery>
A71EV2A-x0451_0A_A71EV2A-x0310_0A_A71EV2A-x0416_0A_peptide

> <ROCS_TanimotoCombo>
0.523 

> <ROCS_ShapeTanimoto>
0.343 

> <ROCS_ColorTanimoto>
0.181 

> <ROCS_RefTversky>
0.302 

> <ROCS_RefColorTversky>
0.199 

> <ROCS_RefTverskyCombo>
0.501 

> <ROCS_FitTversky>
1.640 

> <ROCS_FitColorTversky>
0.660 

> <ROCS_FitTverskyCombo>
2.300 

> <ROCS_ColorScore>
-6.080

> <ROCS_Overlap>
2099.021

> <ROCS_Rank>
154                 

$$$$
untitled-dbase-18996_338
  -OEChem-11132313473D

 42 43  0     1  0  0  0  0  0999 V2000
    6.2724   11.6016   26.0617 C   0  0  0  0  0  0  0  0  0  0  0  0
    7.0816   12.7105   26.2451 C   0  0  0  0  0  0  0  0  0  0  0  0
    6.6560   10.6129   25.1598 C   0  0  0  0  0  0  0  0  0  0  0  0
    8.2508   12.8518   25.4955 C   0  0  0  0  0  0  0  0  0  0  0  0
    7.8535   10.7172   24.4216 C   0  0  0  0  0  0  0  0  0  0  0  0
    8.6341   11.8945   24.5376 C   0  0  0  0  0  0  0  0  0  0  0  0
   10.4361   13.3083   23.4325 C   0  0  0  0  0  0  0  0  0  0  0  0
   10.3419   10.9203   23.0005 C   0  0  0  0  0  0  0  0  0  0  0  0
    8.2788    9.6005   23.4802 C   0  0  1  0  0  0  0  0  0  0  0  0
    9.8084    9.5649   23.4298 C   0  0  1  0  0  0  0  0  0  0  0  0
   12.8768   14.7230   22.9258 C   0  0  0  0  0  0  0  0  0  0  0  0
   12.3267   14.4216   20.4936 C   0  0  0  0  0  0  0  0  0  0  0  0
   10.7901   15.7536   21.9676 C   0  0  0  0  0  0  0  0  0  0  0  0
    7.8144    7.3585   22.7504 C   0  0  0  0  0  0  0  0  0  0  0  0
   11.7535   14.5695   21.9014 C   0  0  0  0  0  0  0  0  0  0  0  0
    9.8052   12.0735   23.7181 N   0  0  0  0  0  0  0  0  0  0  0  0
    7.8027    8.2690   23.8827 N   0  0  0  0  0  0  0  0  0  0  0  0
   10.5221   14.2275   24.2487 O   0  0  0  0  0  0  0  0  0  0  0  0
   10.2622    8.6180   22.4636 O   0  0  0  0  0  0  0  0  0  0  0  0
   11.0256   13.3719   22.1991 O   0  0  0  0  0  0  0  0  0  0  0  0
    5.3492   11.4963   26.6256 H   0  0  0  0  0  0  0  0  0  0  0  0
    6.8115   13.4649   26.9763 H   0  0  0  0  0  0  0  0  0  0  0  0
    6.0108    9.7442   25.0344 H   0  0  0  0  0  0  0  0  0  0  0  0
    8.8486   13.7254   25.7214 H   0  0  0  0  0  0  0  0  0  0  0  0
   11.4461   10.9660   23.0890 H   0  0  0  0  0  0  0  0  0  0  0  0
   10.1252   11.0306   21.9196 H   0  0  0  0  0  0  0  0  0  0  0  0
    7.9195    9.8203   22.4808 H   0  0  0  0  0  0  0  0  0  0  0  0
   10.2333    9.2862   24.3790 H   0  0  0  0  0  0  0  0  0  0  0  0
   12.4695   14.8295   23.9377 H   0  0  0  0  0  0  0  0  0  0  0  0
   13.5550   13.8636   22.9126 H   0  0  0  0  0  0  0  0  0  0  0  0
   13.4622   15.6290   22.7314 H   0  0  0  0  0  0  0  0  0  0  0  0
   11.5242   14.3111   19.7553 H   0  0  0  0  0  0  0  0  0  0  0  0
   12.9437   13.5191   20.4162 H   0  0  0  0  0  0  0  0  0  0  0  0
   12.9388   15.2851   20.2138 H   0  0  0  0  0  0  0  0  0  0  0  0
    9.9843   15.6437   21.2329 H   0  0  0  0  0  0  0  0  0  0  0  0
   10.3407   15.8528   22.9611 H   0  0  0  0  0  0  0  0  0  0  0  0
   11.3056   16.6895   21.7235 H   0  0  0  0  0  0  0  0  0  0  0  0
    7.1545    7.7464   21.9604 H   0  0  0  0  0  0  0  0  0  0  0  0
    8.8395    7.2707   22.3612 H   0  0  0  0  0  0  0  0  0  0  0  0
    7.4584    6.3687   23.0722 H   0  0  0  0  0  0  0  0  0  0  0  0
    8.4119    7.9130   24.6143 H   0  0  0  0  0  0  0  0  0  0  0  0
   11.2302    8.6526   22.4812 H   0  0  0  0  0  0  0  0  0  0  0  0
  1  2  2  0  0  0  0
  1  3  1  0  0  0  0
  2  4  1  0  0  0  0
  3  5  2  0  0  0  0
  4  6  2  0  0  0  0
  5  6  1  0  0  0  0
  5  9  1  0  0  0  0
  6 16  1  0  0  0  0
  7 16  1  0  0  0  0
  7 18  2  0  0  0  0
  7 20  1  0  0  0  0
  8 10  1  0  0  0  0
  8 16  1  0  0  0  0
  9 10  1  0  0  0  0
  9 17  1  6  0  0  0
 10 19  1  1  0  0  0
 11 15  1  0  0  0  0
 12 15  1  0  0  0  0
 13 15  1  0  0  0  0
 14 17  1  0  0  0  0
 15 20  1  0  0  0  0
  1 21  1  0  0  0  0
  2 22  1  0  0  0  0
  3 23  1  0  0  0  0
  4 24  1  0  0  0  0
  8 25  1  0  0  0  0
  8 26  1  0  0  0  0
  9 27  1  0  0  0  0
 10 28  1  0  0  0  0
 11 29  1  0  0  0  0
 11 30  1  0  0  0  0
 11 31  1  0  0  0  0
 12 32  1  0  0  0  0
 12 33  1  0  0  0  0
 12 34  1  0  0  0  0
 13 35  1  0  0  0  0
 13 36  1  0  0  0  0
 13 37  1  0  0  0  0
 14 38  1  0  0  0  0
 14 39  1  0  0  0  0
 14 40  1  0  0  0  0
 17 41  1  0  0  0  0
 19 42  1  0  0  0  0
M  END
> <id>
EN300-256009

> <smiles>
CN[C@@H]1[C@@H](O)CN(C(=O)OC(C)(C)C)C=2C=CC=CC12 |&1:2,3,r|

> <MDLNUMBER>
MFCD28954322

> <IUPAC Name>
rac-tert-butyl (3R,4R)-3-hydroxy-4-(methylamino)-1,2,3,4-tetrahydroquinoline-1-carboxylate

> <CAS>
185943-07-1

> <Purity>
95

> <URL>
https://www.enaminestore.com/catalog/EN300-256009

> <ROCS_ShapeQuery>
A71EV2A-x0451_0A_A71EV2A-x0310_0A_A71EV2A-x0416_0A_peptide

> <ROCS_TanimotoCombo>
0.523 

> <ROCS_ShapeTanimoto>
0.364 

> <ROCS_ColorTanimoto>
0.159 

> <ROCS_RefTversky>
0.313 

> <ROCS_RefColorTversky>
0.179 

> <ROCS_RefTverskyCombo>
0.492 

> <ROCS_FitTversky>
1.803 

> <ROCS_FitColorTversky>
0.593 

> <ROCS_FitTverskyCombo>
2.396 

> <ROCS_ColorScore>
-5.448

> <ROCS_Overlap>
2175.684

> <ROCS_Rank>
155                 

$$$$
untitled-dbase-108650_338
  -OEChem-11132313473D

 42 43  0     1  0  0  0  0  0999 V2000
    6.2724   11.6016   26.0617 C   0  0  0  0  0  0  0  0  0  0  0  0
    7.0816   12.7105   26.2451 C   0  0  0  0  0  0  0  0  0  0  0  0
    6.6560   10.6129   25.1598 C   0  0  0  0  0  0  0  0  0  0  0  0
    8.2508   12.8518   25.4955 C   0  0  0  0  0  0  0  0  0  0  0  0
    7.8535   10.7172   24.4216 C   0  0  0  0  0  0  0  0  0  0  0  0
    8.6341   11.8945   24.5376 C   0  0  0  0  0  0  0  0  0  0  0  0
   10.4361   13.3083   23.4325 C   0  0  0  0  0  0  0  0  0  0  0  0
   10.3419   10.9203   23.0005 C   0  0  0  0  0  0  0  0  0  0  0  0
    8.2788    9.6005   23.4802 C   0  0  1  0  0  0  0  0  0  0  0  0
    9.8084    9.5649   23.4298 C   0  0  1  0  0  0  0  0  0  0  0  0
   12.8768   14.7230   22.9258 C   0  0  0  0  0  0  0  0  0  0  0  0
   12.3267   14.4216   20.4936 C   0  0  0  0  0  0  0  0  0  0  0  0
   10.7901   15.7536   21.9676 C   0  0  0  0  0  0  0  0  0  0  0  0
    7.8144    7.3585   22.7504 C   0  0  0  0  0  0  0  0  0  0  0  0
   11.7535   14.5695   21.9014 C   0  0  0  0  0  0  0  0  0  0  0  0
    9.8052   12.0735   23.7181 N   0  0  0  0  0  0  0  0  0  0  0  0
    7.8027    8.2690   23.8827 N   0  0  0  0  0  0  0  0  0  0  0  0
   10.5221   14.2275   24.2487 O   0  0  0  0  0  0  0  0  0  0  0  0
   10.2622    8.6180   22.4636 O   0  0  0  0  0  0  0  0  0  0  0  0
   11.0256   13.3719   22.1991 O   0  0  0  0  0  0  0  0  0  0  0  0
    5.3492   11.4963   26.6256 H   0  0  0  0  0  0  0  0  0  0  0  0
    6.8115   13.4649   26.9763 H   0  0  0  0  0  0  0  0  0  0  0  0
    6.0108    9.7442   25.0344 H   0  0  0  0  0  0  0  0  0  0  0  0
    8.8486   13.7254   25.7214 H   0  0  0  0  0  0  0  0  0  0  0  0
   11.4461   10.9660   23.0890 H   0  0  0  0  0  0  0  0  0  0  0  0
   10.1252   11.0306   21.9196 H   0  0  0  0  0  0  0  0  0  0  0  0
    7.9195    9.8203   22.4808 H   0  0  0  0  0  0  0  0  0  0  0  0
   10.2333    9.2862   24.3790 H   0  0  0  0  0  0  0  0  0  0  0  0
   12.4695   14.8295   23.9377 H   0  0  0  0  0  0  0  0  0  0  0  0
   13.5550   13.8636   22.9126 H   0  0  0  0  0  0  0  0  0  0  0  0
   13.4622   15.6290   22.7314 H   0  0  0  0  0  0  0  0  0  0  0  0
   11.5242   14.3111   19.7553 H   0  0  0  0  0  0  0  0  0  0  0  0
   12.9437   13.5191   20.4162 H   0  0  0  0  0  0  0  0  0  0  0  0
   12.9388   15.2851   20.2138 H   0  0  0  0  0  0  0  0  0  0  0  0
    9.9843   15.6437   21.2329 H   0  0  0  0  0  0  0  0  0  0  0  0
   10.3407   15.8528   22.9611 H   0  0  0  0  0  0  0  0  0  0  0  0
   11.3056   16.6895   21.7235 H   0  0  0  0  0  0  0  0  0  0  0  0
    7.1545    7.7464   21.9604 H   0  0  0  0  0  0  0  0  0  0  0  0
    8.8395    7.2707   22.3612 H   0  0  0  0  0  0  0  0  0  0  0  0
    7.4584    6.3687   23.0722 H   0  0  0  0  0  0  0  0  0  0  0  0
    8.4119    7.9130   24.6143 H   0  0  0  0  0  0  0  0  0  0  0  0
   11.2302    8.6526   22.4812 H   0  0  0  0  0  0  0  0  0  0  0  0
  1  2  2  0  0  0  0
  1  3  1  0  0  0  0
  2  4  1  0  0  0  0
  3  5  2  0  0  0  0
  4  6  2  0  0  0  0
  5  6  1  0  0  0  0
  5  9  1  0  0  0  0
  6 16  1  0  0  0  0
  7 16  1  0  0  0  0
  7 18  2  0  0  0  0
  7 20  1  0  0  0  0
  8 10  1  0  0  0  0
  8 16  1  0  0  0  0
  9 10  1  0  0  0  0
  9 17  1  6  0  0  0
 10 19  1  1  0  0  0
 11 15  1  0  0  0  0
 12 15  1  0  0  0  0
 13 15  1  0  0  0  0
 14 17  1  0  0  0  0
 15 20  1  0  0  0  0
  1 21  1  0  0  0  0
  2 22  1  0  0  0  0
  3 23  1  0  0  0  0
  4 24  1  0  0  0  0
  8 25  1  0  0  0  0
  8 26  1  0  0  0  0
  9 27  1  0  0  0  0
 10 28  1  0  0  0  0
 11 29  1  0  0  0  0
 11 30  1  0  0  0  0
 11 31  1  0  0  0  0
 12 32  1  0  0  0  0
 12 33  1  0  0  0  0
 12 34  1  0  0  0  0
 13 35  1  0  0  0  0
 13 36  1  0  0  0  0
 13 37  1  0  0  0  0
 14 38  1  0  0  0  0
 14 39  1  0  0  0  0
 14 40  1  0  0  0  0
 17 41  1  0  0  0  0
 19 42  1  0  0  0  0
M  END
> <id>
EN300-220195

> <smiles>
CN[C@@H]1[C@@H](O)CN(C(=O)OC(C)(C)C)C=2C=CC=CC12

> <MDLNUMBER>
MFCD29060502

> <IUPAC Name>
tert-butyl (3S,4S)-3-hydroxy-4-(methylamino)-1,2,3,4-tetrahydroquinoline-1-carboxylate

> <CAS>
185943-07-1

> <URL>
https://www.enaminestore.com/catalog/EN300-220195

> <ROCS_ShapeQuery>
A71EV2A-x0451_0A_A71EV2A-x0310_0A_A71EV2A-x0416_0A_peptide

> <ROCS_TanimotoCombo>
0.523 

> <ROCS_ShapeTanimoto>
0.364 

> <ROCS_ColorTanimoto>
0.159 

> <ROCS_RefTversky>
0.313 

> <ROCS_RefColorTversky>
0.179 

> <ROCS_RefTverskyCombo>
0.492 

> <ROCS_FitTversky>
1.803 

> <ROCS_FitColorTversky>
0.593 

> <ROCS_FitTverskyCombo>
2.396 

> <ROCS_ColorScore>
-5.448

> <ROCS_Overlap>
2175.684

> <ROCS_Rank>
156                 

$$$$
untitled-dbase-172087_235
  -OEChem-11132313473D

 40 41  0     0  0  0  0  0  0999 V2000
    6.7519   12.9771   25.8827 C   0  0  0  0  0  0  0  0  0  0  0  0
    7.7419   13.1223   24.9110 C   0  0  0  0  0  0  0  0  0  0  0  0
    7.0180   10.6009   25.7484 C   0  0  0  0  0  0  0  0  0  0  0  0
    6.3874   11.7116   26.3026 C   0  0  0  0  0  0  0  0  0  0  0  0
    8.4039   12.0117   24.3374 C   0  0  0  0  0  0  0  0  0  0  0  0
    8.0309   10.7211   24.7683 C   0  0  0  0  0  0  0  0  0  0  0  0
    9.5914    9.0990   23.5379 C   0  0  0  0  0  0  0  0  0  0  0  0
    5.3585   11.5423   27.3159 C   0  0  0  0  0  0  0  0  0  0  0  0
   10.2150   13.3922   23.3372 C   0  0  0  0  0  0  0  0  0  0  0  0
   10.3670   10.1224   22.7632 C   0  0  0  0  0  0  0  0  0  0  0  0
    9.4953   11.2462   22.2648 C   0  0  0  0  0  0  0  0  0  0  0  0
   12.9786   13.3327   22.5742 C   0  0  0  0  0  0  0  0  0  0  0  0
   12.2578   14.6385   20.5531 C   0  0  0  0  0  0  0  0  0  0  0  0
   11.9633   15.6196   22.8464 C   0  0  0  0  0  0  0  0  0  0  0  0
   11.9655   14.3338   22.0207 C   0  0  0  0  0  0  0  0  0  0  0  0
    8.5816    9.4720   24.3828 N   0  0  0  0  0  0  0  0  0  0  0  0
    9.3689   12.2605   23.3079 N   0  0  0  0  0  0  0  0  0  0  0  0
    9.9055    7.9069   23.4318 O   0  0  0  0  0  0  0  0  0  0  0  0
    4.1882   11.9269   27.2198 O   0  0  0  0  0  0  0  0  0  0  0  0
   10.5666   13.9961   24.3490 O   0  0  0  0  0  0  0  0  0  0  0  0
    5.8184   10.8957   28.4222 O   0  0  0  0  0  0  0  0  0  0  0  0
   10.6607   13.7464   22.0880 O   0  0  0  0  0  0  0  0  0  0  0  0
    6.2897   13.8626   26.3111 H   0  0  0  0  0  0  0  0  0  0  0  0
    8.0229   14.1408   24.6529 H   0  0  0  0  0  0  0  0  0  0  0  0
    6.7033    9.6112   26.0815 H   0  0  0  0  0  0  0  0  0  0  0  0
   11.1165   10.5429   23.4451 H   0  0  0  0  0  0  0  0  0  0  0  0
   10.9131    9.6240   21.9548 H   0  0  0  0  0  0  0  0  0  0  0  0
    9.8832   11.7112   21.3494 H   0  0  0  0  0  0  0  0  0  0  0  0
    8.5086   10.8502   22.0052 H   0  0  0  0  0  0  0  0  0  0  0  0
   12.7722   13.1114   23.6274 H   0  0  0  0  0  0  0  0  0  0  0  0
   12.9654   12.3931   22.0123 H   0  0  0  0  0  0  0  0  0  0  0  0
   13.9941   13.7434   22.5378 H   0  0  0  0  0  0  0  0  0  0  0  0
   11.5333   15.3564   20.1519 H   0  0  0  0  0  0  0  0  0  0  0  0
   12.1672   13.7338   19.9411 H   0  0  0  0  0  0  0  0  0  0  0  0
   13.2637   15.0490   20.4183 H   0  0  0  0  0  0  0  0  0  0  0  0
   11.2367   16.3378   22.4496 H   0  0  0  0  0  0  0  0  0  0  0  0
   11.7189   15.4247   23.8956 H   0  0  0  0  0  0  0  0  0  0  0  0
   12.9412   16.1126   22.8023 H   0  0  0  0  0  0  0  0  0  0  0  0
    8.1262    8.6803   24.8330 H   0  0  0  0  0  0  0  0  0  0  0  0
    5.1311   10.7756   29.1118 H   0  0  0  0  0  0  0  0  0  0  0  0
  1  2  1  0  0  0  0
  1  4  2  0  0  0  0
  2  5  2  0  0  0  0
  3  4  1  0  0  0  0
  3  6  2  0  0  0  0
  4  8  1  0  0  0  0
  5  6  1  0  0  0  0
  5 17  1  0  0  0  0
  6 16  1  0  0  0  0
  7 10  1  0  0  0  0
  7 16  1  0  0  0  0
  7 18  2  0  0  0  0
  8 19  2  0  0  0  0
  8 21  1  0  0  0  0
  9 17  1  0  0  0  0
  9 20  2  0  0  0  0
  9 22  1  0  0  0  0
 10 11  1  0  0  0  0
 11 17  1  0  0  0  0
 12 15  1  0  0  0  0
 13 15  1  0  0  0  0
 14 15  1  0  0  0  0
 15 22  1  0  0  0  0
  1 23  1  0  0  0  0
  2 24  1  0  0  0  0
  3 25  1  0  0  0  0
 10 26  1  0  0  0  0
 10 27  1  0  0  0  0
 11 28  1  0  0  0  0
 11 29  1  0  0  0  0
 12 30  1  0  0  0  0
 12 31  1  0  0  0  0
 12 32  1  0  0  0  0
 13 33  1  0  0  0  0
 13 34  1  0  0  0  0
 13 35  1  0  0  0  0
 14 36  1  0  0  0  0
 14 37  1  0  0  0  0
 14 38  1  0  0  0  0
 16 39  1  0  0  0  0
 21 40  1  0  0  0  0
M  END
> <id>
EN300-24592093

> <smiles>
CC(C)(C)OC(=O)N1CCC(=O)NC=2C=C(C=CC12)C(=O)O

> <MDLNUMBER>
MFCD17170897

> <IUPAC Name>
1-[(tert-butoxy)carbonyl]-4-oxo-2,3,4,5-tetrahydro-1H-1,5-benzodiazepine-7-carboxylic acid

> <CAS>
1823474-50-5

> <URL>
https://www.enaminestore.com/catalog/EN300-24592093

> <ROCS_ShapeQuery>
A71EV2A-x0451_0A_A71EV2A-x0310_0A_A71EV2A-x0416_0A_peptide

> <ROCS_TanimotoCombo>
0.523 

> <ROCS_ShapeTanimoto>
0.371 

> <ROCS_ColorTanimoto>
0.152 

> <ROCS_RefTversky>
0.322 

> <ROCS_RefColorTversky>
0.176 

> <ROCS_RefTverskyCombo>
0.497 

> <ROCS_FitTversky>
1.709 

> <ROCS_FitColorTversky>
0.530 

> <ROCS_FitTverskyCombo>
2.239 

> <ROCS_ColorScore>
-5.376

> <ROCS_Overlap>
2233.928

> <ROCS_Rank>
157                 

$$$$
untitled-dbase-108571_215
  -OEChem-11132313473D

 42 43  0     1  0  0  0  0  0999 V2000
    6.4591   11.5380   26.2643 C   0  0  0  0  0  0  0  0  0  0  0  0
    6.8193   12.8244   25.8969 C   0  0  0  0  0  0  0  0  0  0  0  0
    7.0982   10.4527   25.6732 C   0  0  0  0  0  0  0  0  0  0  0  0
    7.8485   13.0257   24.9741 C   0  0  0  0  0  0  0  0  0  0  0  0
    8.1112   10.6362   24.7087 C   0  0  0  0  0  0  0  0  0  0  0  0
    8.5505   11.9478   24.4038 C   0  0  0  0  0  0  0  0  0  0  0  0
   10.4398   13.3305   23.4059 C   0  0  0  0  0  0  0  0  0  0  0  0
   10.1402   11.0212   22.7155 C   0  0  0  0  0  0  0  0  0  0  0  0
    8.7485    9.4300   24.0396 C   0  0  2  0  0  0  0  0  0  0  0  0
    9.2065    9.8267   22.6350 C   0  0  2  0  0  0  0  0  0  0  0  0
   12.8707   14.7970   23.0103 C   0  0  0  0  0  0  0  0  0  0  0  0
   12.2659   14.7753   20.5725 C   0  0  0  0  0  0  0  0  0  0  0  0
   10.7645   15.9281   22.2233 C   0  0  0  0  0  0  0  0  0  0  0  0
    8.5981    7.0490   23.7522 C   0  0  0  0  0  0  0  0  0  0  0  0
   11.7246   14.7605   22.0004 C   0  0  0  0  0  0  0  0  0  0  0  0
    9.6608   12.1522   23.5075 N   0  0  0  0  0  0  0  0  0  0  0  0
    7.8432    8.2769   23.9376 N   0  0  0  0  0  0  0  0  0  0  0  0
   10.5457   14.1507   24.3194 O   0  0  0  0  0  0  0  0  0  0  0  0
    9.9371    8.7643   22.0253 O   0  0  0  0  0  0  0  0  0  0  0  0
   11.0017   13.5358   22.1753 O   0  0  0  0  0  0  0  0  0  0  0  0
    5.6808   11.3761   27.0054 H   0  0  0  0  0  0  0  0  0  0  0  0
    6.2994   13.6755   26.3232 H   0  0  0  0  0  0  0  0  0  0  0  0
    6.7997    9.4483   25.9690 H   0  0  0  0  0  0  0  0  0  0  0  0
    8.0527   14.0584   24.7305 H   0  0  0  0  0  0  0  0  0  0  0  0
   11.0944   10.6655   23.1404 H   0  0  0  0  0  0  0  0  0  0  0  0
   10.3728   11.4085   21.7083 H   0  0  0  0  0  0  0  0  0  0  0  0
    9.6407    9.1365   24.6081 H   0  0  0  0  0  0  0  0  0  0  0  0
    8.3726   10.0555   21.9928 H   0  0  0  0  0  0  0  0  0  0  0  0
   12.4863   14.7865   24.0365 H   0  0  0  0  0  0  0  0  0  0  0  0
   13.5472   13.9455   22.8837 H   0  0  0  0  0  0  0  0  0  0  0  0
   13.4529   15.7199   22.9078 H   0  0  0  0  0  0  0  0  0  0  0  0
   11.4470   14.7492   19.8446 H   0  0  0  0  0  0  0  0  0  0  0  0
   12.8797   13.8883   20.3785 H   0  0  0  0  0  0  0  0  0  0  0  0
   12.8728   15.6659   20.3798 H   0  0  0  0  0  0  0  0  0  0  0  0
    9.9424   15.9021   21.4990 H   0  0  0  0  0  0  0  0  0  0  0  0
   10.3377   15.9125   23.2314 H   0  0  0  0  0  0  0  0  0  0  0  0
   11.2758   16.8864   22.0765 H   0  0  0  0  0  0  0  0  0  0  0  0
    9.2693    6.8975   24.6104 H   0  0  0  0  0  0  0  0  0  0  0  0
    7.9033    6.1996   23.6758 H   0  0  0  0  0  0  0  0  0  0  0  0
    9.1929    7.1203   22.8296 H   0  0  0  0  0  0  0  0  0  0  0  0
    7.2220    8.4192   23.1457 H   0  0  0  0  0  0  0  0  0  0  0  0
   10.1990    9.0816   21.1482 H   0  0  0  0  0  0  0  0  0  0  0  0
  1  2  2  0  0  0  0
  1  3  1  0  0  0  0
  2  4  1  0  0  0  0
  3  5  2  0  0  0  0
  4  6  2  0  0  0  0
  5  6  1  0  0  0  0
  5  9  1  0  0  0  0
  6 16  1  0  0  0  0
  7 16  1  0  0  0  0
  7 18  2  0  0  0  0
  7 20  1  0  0  0  0
  8 10  1  0  0  0  0
  8 16  1  0  0  0  0
  9 10  1  0  0  0  0
  9 17  1  0  0  0  0
 10 19  1  0  0  0  0
 11 15  1  0  0  0  0
 12 15  1  0  0  0  0
 13 15  1  0  0  0  0
 14 17  1  0  0  0  0
 15 20  1  0  0  0  0
  1 21  1  0  0  0  0
  2 22  1  0  0  0  0
  3 23  1  0  0  0  0
  4 24  1  0  0  0  0
  8 25  1  0  0  0  0
  8 26  1  0  0  0  0
  9 27  1  0  0  0  0
 10 28  1  0  0  0  0
 11 29  1  0  0  0  0
 11 30  1  0  0  0  0
 11 31  1  0  0  0  0
 12 32  1  0  0  0  0
 12 33  1  0  0  0  0
 12 34  1  0  0  0  0
 13 35  1  0  0  0  0
 13 36  1  0  0  0  0
 13 37  1  0  0  0  0
 14 38  1  0  0  0  0
 14 39  1  0  0  0  0
 14 40  1  0  0  0  0
 17 41  1  0  0  0  0
 19 42  1  0  0  0  0
M  END
> <id>
EN300-220009

> <smiles>
CNC1C(O)CN(C(=O)OC(C)(C)C)C=2C=CC=CC12

> <MDLNUMBER>
MFCD24543659

> <IUPAC Name>
tert-butyl 3-hydroxy-4-(methylamino)-1,2,3,4-tetrahydroquinoline-1-carboxylate

> <CAS>
1824526-82-0

> <URL>
https://www.enaminestore.com/catalog/EN300-220009

> <ROCS_ShapeQuery>
A71EV2A-x0451_0A_A71EV2A-x0310_0A_A71EV2A-x0416_0A_peptide

> <ROCS_TanimotoCombo>
0.523 

> <ROCS_ShapeTanimoto>
0.362 

> <ROCS_ColorTanimoto>
0.161 

> <ROCS_RefTversky>
0.312 

> <ROCS_RefColorTversky>
0.180 

> <ROCS_RefTverskyCombo>
0.492 

> <ROCS_FitTversky>
1.795 

> <ROCS_FitColorTversky>
0.599 

> <ROCS_FitTverskyCombo>
2.394 

> <ROCS_ColorScore>
-5.505

> <ROCS_Overlap>
2166.265

> <ROCS_Rank>
158                 

$$$$
untitled-dbase-155655_88
  -OEChem-11132313473D

 30 31  0     0  0  0  0  0  0999 V2000
    6.0100   10.8957   26.2688 C   0  0  0  0  0  0  0  0  0  0  0  0
    6.8612   10.0029   25.6221 C   0  0  0  0  0  0  0  0  0  0  0  0
    6.7963   12.6789   24.8384 C   0  0  0  0  0  0  0  0  0  0  0  0
    5.9804   12.2332   25.8804 C   0  0  0  0  0  0  0  0  0  0  0  0
    7.6629   11.7955   24.1787 C   0  0  0  0  0  0  0  0  0  0  0  0
    7.6961   10.4557   24.5971 C   0  0  0  0  0  0  0  0  0  0  0  0
    5.0894   13.1648   26.5540 C   0  0  0  0  0  0  0  0  0  0  0  0
   10.8104   13.0602   23.7139 C   0  0  0  0  0  0  0  0  0  0  0  0
    8.4950   12.2840   23.0197 C   0  0  0  0  0  0  0  0  0  0  0  0
   10.4147   10.7076   23.0678 C   0  0  0  0  0  0  0  0  0  0  0  0
    9.8814    9.7922   24.1631 C   0  0  0  0  0  0  0  0  0  0  0  0
   12.2447   12.9587   23.2577 C   0  0  0  0  0  0  0  0  0  0  0  0
    9.9313   12.0800   23.2446 N   0  0  0  0  0  0  0  0  0  0  0  0
    4.9811   14.3674   26.2933 O   0  0  0  0  0  0  0  0  0  0  0  0
   10.4824   13.9804   24.4676 O   0  0  0  0  0  0  0  0  0  0  0  0
    8.4871    9.5187   23.9820 O   0  0  0  0  0  0  0  0  0  0  0  0
    4.3570   12.5682   27.5341 O   0  0  0  0  0  0  0  0  0  0  0  0
   12.4088   11.8960   22.4503 F   0  0  0  0  0  0  0  0  0  0  0  0
   12.6053   14.0632   22.5806 F   0  0  0  0  0  0  0  0  0  0  0  0
   13.0703   12.8209   24.3104 F   0  0  0  0  0  0  0  0  0  0  0  0
    5.3715   10.5375   27.0721 H   0  0  0  0  0  0  0  0  0  0  0  0
    6.8764    8.9592   25.9246 H   0  0  0  0  0  0  0  0  0  0  0  0
    6.7516   13.7224   24.5327 H   0  0  0  0  0  0  0  0  0  0  0  0
    8.2037   11.7479   22.1079 H   0  0  0  0  0  0  0  0  0  0  0  0
    8.2916   13.3399   22.8228 H   0  0  0  0  0  0  0  0  0  0  0  0
   11.5088   10.6940   23.0867 H   0  0  0  0  0  0  0  0  0  0  0  0
   10.0911   10.3656   22.0781 H   0  0  0  0  0  0  0  0  0  0  0  0
   10.3931    8.8260   24.0873 H   0  0  0  0  0  0  0  0  0  0  0  0
   10.0969   10.1787   25.1687 H   0  0  0  0  0  0  0  0  0  0  0  0
    3.7519   13.1883   27.9941 H   0  0  0  0  0  0  0  0  0  0  0  0
  1  2  1  0  0  0  0
  1  4  2  0  0  0  0
  2  6  2  0  0  0  0
  3  4  1  0  0  0  0
  3  5  2  0  0  0  0
  4  7  1  0  0  0  0
  5  6  1  0  0  0  0
  5  9  1  0  0  0  0
  6 16  1  0  0  0  0
  7 14  2  0  0  0  0
  7 17  1  0  0  0  0
  8 12  1  0  0  0  0
  8 13  1  0  0  0  0
  8 15  2  0  0  0  0
  9 13  1  0  0  0  0
 10 11  1  0  0  0  0
 10 13  1  0  0  0  0
 11 16  1  0  0  0  0
 12 18  1  0  0  0  0
 12 19  1  0  0  0  0
 12 20  1  0  0  0  0
  1 21  1  0  0  0  0
  2 22  1  0  0  0  0
  3 23  1  0  0  0  0
  9 24  1  0  0  0  0
  9 25  1  0  0  0  0
 10 26  1  0  0  0  0
 10 27  1  0  0  0  0
 11 28  1  0  0  0  0
 11 29  1  0  0  0  0
 17 30  1  0  0  0  0
M  END
> <id>
EN300-28287790

> <smiles>
OC(=O)C=1C=CC=2OCCN(CC2C1)C(=O)C(F)(F)F

> <IUPAC Name>
4-(2,2,2-trifluoroacetyl)-2,3,4,5-tetrahydro-1,4-benzoxazepine-7-carboxylic acid

> <CAS>
2680706-04-9

> <URL>
https://www.enaminestore.com/catalog/EN300-28287790

> <ROCS_ShapeQuery>
A71EV2A-x0451_0A_A71EV2A-x0310_0A_A71EV2A-x0416_0A_peptide

> <ROCS_TanimotoCombo>
0.523 

> <ROCS_ShapeTanimoto>
0.327 

> <ROCS_ColorTanimoto>
0.196 

> <ROCS_RefTversky>
0.290 

> <ROCS_RefColorTversky>
0.209 

> <ROCS_RefTverskyCombo>
0.499 

> <ROCS_FitTversky>
1.630 

> <ROCS_FitColorTversky>
0.771 

> <ROCS_FitTverskyCombo>
2.400 

> <ROCS_ColorScore>
-6.356

> <ROCS_Overlap>
2012.840

> <ROCS_Rank>
159                 

$$$$
untitled-dbase-15307_7
  -OEChem-11132313473D

 29 30  0     0  0  0  0  0  0999 V2000
    9.9254   10.7375   23.0074 C   0  0  0  0  0  0  0  0  0  0  0  0
    8.5045   11.8839   24.5442 C   0  0  0  0  0  0  0  0  0  0  0  0
    9.6019   11.9189   23.6748 C   0  0  0  0  0  0  0  0  0  0  0  0
    9.1539    9.6029   23.2355 C   0  0  0  0  0  0  0  0  0  0  0  0
    7.8189   12.7686   25.4001 C   0  0  0  0  0  0  0  0  0  0  0  0
    7.8211   10.6856   24.6796 C   0  0  0  0  0  0  0  0  0  0  0  0
   10.3795   13.1262   23.4673 C   0  0  0  0  0  0  0  0  0  0  0  0
    9.5138    8.3435   22.5135 C   0  0  0  0  0  0  0  0  0  0  0  0
    8.1083   14.1909   25.6561 C   0  0  0  0  0  0  0  0  0  0  0  0
    5.8296    9.9790   26.0358 C   0  0  0  0  0  0  0  0  0  0  0  0
    8.0856    9.5195   24.0649 N   0  0  0  0  0  0  0  0  0  0  0  0
    6.7896   12.1896   26.0271 N   0  0  0  0  0  0  0  0  0  0  0  0
    6.8160   10.9248   25.5695 N   0  0  0  0  0  0  0  0  0  0  0  0
   11.7078   14.4074   21.9248 N   0  0  0  0  0  0  0  0  0  0  0  0
   10.9720   13.2713   22.2084 N   0  0  0  0  0  0  0  0  0  0  0  0
   10.5052   14.0062   24.3369 O   0  0  0  0  0  0  0  0  0  0  0  0
   10.7672   10.7052   22.3211 H   0  0  0  0  0  0  0  0  0  0  0  0
   10.2260    7.7588   23.1059 H   0  0  0  0  0  0  0  0  0  0  0  0
    8.6256    7.7293   22.3254 H   0  0  0  0  0  0  0  0  0  0  0  0
    9.9646    8.5631   21.5386 H   0  0  0  0  0  0  0  0  0  0  0  0
    7.5639   14.8424   24.9518 H   0  0  0  0  0  0  0  0  0  0  0  0
    7.8249   14.4957   26.6789 H   0  0  0  0  0  0  0  0  0  0  0  0
    9.1841   14.4206   25.5590 H   0  0  0  0  0  0  0  0  0  0  0  0
    6.2281    9.4882   26.9276 H   0  0  0  0  0  0  0  0  0  0  0  0
    4.9019   10.5074   26.2725 H   0  0  0  0  0  0  0  0  0  0  0  0
    5.6329    9.2448   25.2496 H   0  0  0  0  0  0  0  0  0  0  0  0
   11.5697   14.6082   20.9352 H   0  0  0  0  0  0  0  0  0  0  0  0
   11.2697   15.1758   22.4309 H   0  0  0  0  0  0  0  0  0  0  0  0
   10.8625   12.5468   21.5070 H   0  0  0  0  0  0  0  0  0  0  0  0
  1  3  1  0  0  0  0
  1  4  2  0  0  0  0
  2  3  2  0  0  0  0
  2  5  1  0  0  0  0
  2  6  1  0  0  0  0
  3  7  1  0  0  0  0
  4  8  1  0  0  0  0
  4 11  1  0  0  0  0
  5  9  1  0  0  0  0
  5 12  2  0  0  0  0
  6 11  2  0  0  0  0
  6 13  1  0  0  0  0
  7 15  1  0  0  0  0
  7 16  2  0  0  0  0
 10 13  1  0  0  0  0
 12 13  1  0  0  0  0
 14 15  1  0  0  0  0
  1 17  1  0  0  0  0
  8 18  1  0  0  0  0
  8 19  1  0  0  0  0
  8 20  1  0  0  0  0
  9 21  1  0  0  0  0
  9 22  1  0  0  0  0
  9 23  1  0  0  0  0
 10 24  1  0  0  0  0
 10 25  1  0  0  0  0
 10 26  1  0  0  0  0
 14 27  1  0  0  0  0
 14 28  1  0  0  0  0
 15 29  1  0  0  0  0
M  END
> <id>
EN300-230364

> <smiles>
CC1=NN(C)C=2N=C(C)C=C(C(=O)NN)C12

> <MDLNUMBER>
MFCD06739317

> <IUPAC Name>
1,3,6-trimethyl-1H-pyrazolo[3,4-b]pyridine-4-carbohydrazide

> <CAS>
886496-12-4

> <Purity>
95

> <URL>
https://www.enaminestore.com/catalog/EN300-230364

> <ROCS_ShapeQuery>
A71EV2A-x0451_0A_A71EV2A-x0310_0A_A71EV2A-x0416_0A_peptide

> <ROCS_TanimotoCombo>
0.523 

> <ROCS_ShapeTanimoto>
0.320 

> <ROCS_ColorTanimoto>
0.202 

> <ROCS_RefTversky>
0.280 

> <ROCS_RefColorTversky>
0.216 

> <ROCS_RefTverskyCombo>
0.495 

> <ROCS_FitTversky>
1.828 

> <ROCS_FitColorTversky>
0.770 

> <ROCS_FitTverskyCombo>
2.597 

> <ROCS_ColorScore>
-6.571

> <ROCS_Overlap>
1940.129

> <ROCS_Rank>
160                 

$$$$
untitled-dbase-148533_1252
  -OEChem-11132313473D

 40 41  0     0  0  0  0  0  0999 V2000
    7.5036   12.7045   24.8967 C   0  0  0  0  0  0  0  0  0  0  0  0
    6.2001   10.8021   25.6188 C   0  0  0  0  0  0  0  0  0  0  0  0
    6.4217   12.1723   25.6052 C   0  0  0  0  0  0  0  0  0  0  0  0
    8.1501   10.4843   24.2005 C   0  0  0  0  0  0  0  0  0  0  0  0
    8.4007   11.8762   24.2012 C   0  0  0  0  0  0  0  0  0  0  0  0
    7.0533    9.9632   24.9105 C   0  0  0  0  0  0  0  0  0  0  0  0
    5.5132   13.0572   26.3173 C   0  0  0  0  0  0  0  0  0  0  0  0
   10.0889   13.6801   23.6076 C   0  0  0  0  0  0  0  0  0  0  0  0
    8.9964    9.5135   23.4156 C   0  0  0  0  0  0  0  0  0  0  0  0
   10.3238   10.1177   22.9926 C   0  0  0  0  0  0  0  0  0  0  0  0
   10.1002   11.5141   22.4409 C   0  0  0  0  0  0  0  0  0  0  0  0
   12.7070   13.7026   23.3704 C   0  0  0  0  0  0  0  0  0  0  0  0
   12.4358   14.4594   20.9907 C   0  0  0  0  0  0  0  0  0  0  0  0
   12.0270   16.0738   22.8708 C   0  0  0  0  0  0  0  0  0  0  0  0
   11.9303   14.6160   22.4232 C   0  0  0  0  0  0  0  0  0  0  0  0
    9.5193   12.3997   23.4578 N   0  0  0  0  0  0  0  0  0  0  0  0
    5.6023   14.2881   26.3633 O   0  0  0  0  0  0  0  0  0  0  0  0
   10.1075   14.2964   24.6735 O   0  0  0  0  0  0  0  0  0  0  0  0
    6.7890    8.6239   24.9179 O   0  0  0  0  0  0  0  0  0  0  0  0
    4.5174   12.3789   26.9504 O   0  0  0  0  0  0  0  0  0  0  0  0
   10.5523   14.2242   22.4400 O   0  0  0  0  0  0  0  0  0  0  0  0
    7.5895   13.7834   24.8857 H   0  0  0  0  0  0  0  0  0  0  0  0
    5.3595   10.3847   26.1684 H   0  0  0  0  0  0  0  0  0  0  0  0
    9.2091    8.6111   24.0079 H   0  0  0  0  0  0  0  0  0  0  0  0
    8.4300    9.1964   22.5266 H   0  0  0  0  0  0  0  0  0  0  0  0
   11.0124   10.1633   23.8460 H   0  0  0  0  0  0  0  0  0  0  0  0
   10.7941    9.4819   22.2342 H   0  0  0  0  0  0  0  0  0  0  0  0
   11.0603   11.8967   22.0970 H   0  0  0  0  0  0  0  0  0  0  0  0
    9.4182   11.4985   21.5889 H   0  0  0  0  0  0  0  0  0  0  0  0
   12.3472   13.8120   24.3997 H   0  0  0  0  0  0  0  0  0  0  0  0
   12.6169   12.6506   23.0805 H   0  0  0  0  0  0  0  0  0  0  0  0
   13.7704   13.9677   23.3848 H   0  0  0  0  0  0  0  0  0  0  0  0
   11.8812   15.1130   20.3077 H   0  0  0  0  0  0  0  0  0  0  0  0
   12.2808   13.4354   20.6319 H   0  0  0  0  0  0  0  0  0  0  0  0
   13.5013   14.6976   20.9099 H   0  0  0  0  0  0  0  0  0  0  0  0
   11.4700   16.7292   22.1916 H   0  0  0  0  0  0  0  0  0  0  0  0
   11.6344   16.2116   23.8835 H   0  0  0  0  0  0  0  0  0  0  0  0
   13.0669   16.4194   22.8504 H   0  0  0  0  0  0  0  0  0  0  0  0
    7.4519    8.1524   24.3915 H   0  0  0  0  0  0  0  0  0  0  0  0
    3.8980   12.9669   27.4329 H   0  0  0  0  0  0  0  0  0  0  0  0
  1  3  1  0  0  0  0
  1  5  2  0  0  0  0
  2  3  2  0  0  0  0
  2  6  1  0  0  0  0
  3  7  1  0  0  0  0
  4  5  1  0  0  0  0
  4  6  2  0  0  0  0
  4  9  1  0  0  0  0
  5 16  1  0  0  0  0
  6 19  1  0  0  0  0
  7 17  2  0  0  0  0
  7 20  1  0  0  0  0
  8 16  1  0  0  0  0
  8 18  2  0  0  0  0
  8 21  1  0  0  0  0
  9 10  1  0  0  0  0
 10 11  1  0  0  0  0
 11 16  1  0  0  0  0
 12 15  1  0  0  0  0
 13 15  1  0  0  0  0
 14 15  1  0  0  0  0
 15 21  1  0  0  0  0
  1 22  1  0  0  0  0
  2 23  1  0  0  0  0
  9 24  1  0  0  0  0
  9 25  1  0  0  0  0
 10 26  1  0  0  0  0
 10 27  1  0  0  0  0
 11 28  1  0  0  0  0
 11 29  1  0  0  0  0
 12 30  1  0  0  0  0
 12 31  1  0  0  0  0
 12 32  1  0  0  0  0
 13 33  1  0  0  0  0
 13 34  1  0  0  0  0
 13 35  1  0  0  0  0
 14 36  1  0  0  0  0
 14 37  1  0  0  0  0
 14 38  1  0  0  0  0
 19 39  1  0  0  0  0
 20 40  1  0  0  0  0
M  END
> <id>
EN300-27782814

> <smiles>
CC(C)(C)OC(=O)N1CCCC=2C(O)=CC(=CC12)C(=O)O

> <IUPAC Name>
1-[(tert-butoxy)carbonyl]-5-hydroxy-1,2,3,4-tetrahydroquinoline-7-carboxylic acid

> <CAS>
2639406-24-7

> <URL>
https://www.enaminestore.com/catalog/EN300-27782814

> <ROCS_ShapeQuery>
A71EV2A-x0451_0A_A71EV2A-x0310_0A_A71EV2A-x0416_0A_peptide

> <ROCS_TanimotoCombo>
0.523 

> <ROCS_ShapeTanimoto>
0.363 

> <ROCS_ColorTanimoto>
0.160 

> <ROCS_RefTversky>
0.315 

> <ROCS_RefColorTversky>
0.183 

> <ROCS_RefTverskyCombo>
0.498 

> <ROCS_FitTversky>
1.736 

> <ROCS_FitColorTversky>
0.552 

> <ROCS_FitTverskyCombo>
2.288 

> <ROCS_ColorScore>
-5.602

> <ROCS_Overlap>
2186.106

> <ROCS_Rank>
161                 

$$$$
untitled-dbase-119000_60
  -OEChem-11132313473D

 35 38  0     0  0  0  0  0  0999 V2000
   12.8585   15.5954   18.6187 B   0  0  0  0  0  0  0  0  0  0  0  0
   10.8348   14.0552   19.6516 C   0  0  0  0  0  0  0  0  0  0  0  0
   10.3391   13.6016   20.8786 C   0  0  0  0  0  0  0  0  0  0  0  0
    8.0959   12.8040   25.2174 C   0  0  0  0  0  0  0  0  0  0  0  0
   12.0963   14.7746   22.0766 C   0  0  0  0  0  0  0  0  0  0  0  0
    7.0792   11.9844   25.7504 C   0  0  0  0  0  0  0  0  0  0  0  0
   11.9506   14.8602   19.6453 C   0  0  0  0  0  0  0  0  0  0  0  0
   10.9647   13.9580   22.0820 C   0  0  0  0  0  0  0  0  0  0  0  0
   12.5874   15.2250   20.8556 C   0  0  0  0  0  0  0  0  0  0  0  0
    8.7098   12.0308   24.2540 C   0  0  0  0  0  0  0  0  0  0  0  0
   10.4232   13.4668   23.3604 C   0  0  0  0  0  0  0  0  0  0  0  0
   13.7854   16.1051   20.6771 C   0  0  0  0  0  0  0  0  0  0  0  0
    9.7661    9.7489   22.9558 C   0  0  0  0  0  0  0  0  0  0  0  0
    8.3215    9.7010   23.4319 C   0  0  0  0  0  0  0  0  0  0  0  0
   10.1156   11.1350   22.4128 C   0  0  0  0  0  0  0  0  0  0  0  0
    7.0363   10.7790   25.1801 N   0  0  0  0  0  0  0  0  0  0  0  0
    8.0360   10.8352   24.2856 N   0  0  0  0  0  0  0  0  0  0  0  0
    9.7665   12.2244   23.3544 N   0  0  0  0  0  0  0  0  0  0  0  0
   10.6047   14.2115   24.3219 O   0  0  0  0  0  0  0  0  0  0  0  0
   13.8911   16.2927   19.2428 O   0  0  0  0  0  0  0  0  0  0  0  0
   12.6658   15.5607   17.2695 O   0  0  0  0  0  0  0  0  0  0  0  0
   10.3387   13.7691   18.7290 H   0  0  0  0  0  0  0  0  0  0  0  0
    9.4569   12.9652   20.8882 H   0  0  0  0  0  0  0  0  0  0  0  0
    8.3312   13.8152   25.5131 H   0  0  0  0  0  0  0  0  0  0  0  0
   12.5871   15.0558   23.0037 H   0  0  0  0  0  0  0  0  0  0  0  0
    6.3705   12.2186   26.5317 H   0  0  0  0  0  0  0  0  0  0  0  0
   13.6480   17.0820   21.1544 H   0  0  0  0  0  0  0  0  0  0  0  0
   14.7008   15.6257   21.0414 H   0  0  0  0  0  0  0  0  0  0  0  0
   10.4406    9.4842   23.7774 H   0  0  0  0  0  0  0  0  0  0  0  0
    9.9185    9.0058   22.1624 H   0  0  0  0  0  0  0  0  0  0  0  0
    7.6327    9.7246   22.5813 H   0  0  0  0  0  0  0  0  0  0  0  0
    8.1277    8.8010   24.0254 H   0  0  0  0  0  0  0  0  0  0  0  0
   11.1930   11.2121   22.2220 H   0  0  0  0  0  0  0  0  0  0  0  0
    9.5986   11.2850   21.4594 H   0  0  0  0  0  0  0  0  0  0  0  0
   11.8926   15.0209   17.0273 H   0  0  0  0  0  0  0  0  0  0  0  0
  1  7  1  0  0  0  0
  1 20  1  0  0  0  0
  1 21  1  0  0  0  0
  2  3  1  0  0  0  0
  2  7  2  0  0  0  0
  3  8  2  0  0  0  0
  4  6  1  0  0  0  0
  4 10  2  0  0  0  0
  5  8  1  0  0  0  0
  5  9  2  0  0  0  0
  6 16  2  0  0  0  0
  7  9  1  0  0  0  0
  8 11  1  0  0  0  0
  9 12  1  0  0  0  0
 10 17  1  0  0  0  0
 10 18  1  0  0  0  0
 11 18  1  0  0  0  0
 11 19  2  0  0  0  0
 12 20  1  0  0  0  0
 13 14  1  0  0  0  0
 13 15  1  0  0  0  0
 14 17  1  0  0  0  0
 15 18  1  0  0  0  0
 16 17  1  0  0  0  0
  2 22  1  0  0  0  0
  3 23  1  0  0  0  0
  4 24  1  0  0  0  0
  5 25  1  0  0  0  0
  6 26  1  0  0  0  0
 12 27  1  0  0  0  0
 12 28  1  0  0  0  0
 13 29  1  0  0  0  0
 13 30  1  0  0  0  0
 14 31  1  0  0  0  0
 14 32  1  0  0  0  0
 15 33  1  0  0  0  0
 15 34  1  0  0  0  0
 21 35  1  0  0  0  0
M  END
> <id>
EN300-26618060

> <smiles>
OB1OCC=2C=C(C=CC12)C(=O)N3CCCN4N=CC=C34

> <IUPAC Name>
5-{4H,5H,6H,7H-pyrazolo[1,5-a]pyrimidine-4-carbonyl}-1,3-dihydro-2,1-benzoxaborol-1-ol

> <URL>
https://www.enaminestore.com/catalog/EN300-26618060

> <ROCS_ShapeQuery>
A71EV2A-x0451_0A_A71EV2A-x0310_0A_A71EV2A-x0416_0A_peptide

> <ROCS_TanimotoCombo>
0.523 

> <ROCS_ShapeTanimoto>
0.341 

> <ROCS_ColorTanimoto>
0.181 

> <ROCS_RefTversky>
0.302 

> <ROCS_RefColorTversky>
0.191 

> <ROCS_RefTverskyCombo>
0.493 

> <ROCS_FitTversky>
1.616 

> <ROCS_FitColorTversky>
0.792 

> <ROCS_FitTverskyCombo>
2.408 

> <ROCS_ColorScore>
-5.798

> <ROCS_Overlap>
2097.826

> <ROCS_Rank>
162                 

$$$$
untitled-dbase-99249_380
  -OEChem-11132313473D

 43 44  0     1  0  0  0  0  0999 V2000
    7.2907   12.8589   26.8156 C   0  0  0  0  0  0  0  0  0  0  0  0
    8.3228   12.8894   25.8718 C   0  0  0  0  0  0  0  0  0  0  0  0
    6.2293   11.0876   25.5951 C   0  0  0  0  0  0  0  0  0  0  0  0
    6.2358   11.9692   26.6696 C   0  0  0  0  0  0  0  0  0  0  0  0
    7.2730   11.0978   24.6529 C   0  0  0  0  0  0  0  0  0  0  0  0
    8.3173   12.0419   24.7508 C   0  0  0  0  0  0  0  0  0  0  0  0
    5.1393   11.9701   27.6247 C   0  0  0  0  0  0  0  0  0  0  0  0
   10.2226   13.1634   23.4973 C   0  0  0  0  0  0  0  0  0  0  0  0
    7.2348   10.0932   23.5324 C   0  0  0  0  0  0  0  0  0  0  0  0
    9.4716   10.9502   22.8106 C   0  0  0  0  0  0  0  0  0  0  0  0
    8.6504    9.7138   23.1351 C   0  0  1  0  0  0  0  0  0  0  0  0
   12.8364   14.0504   22.7251 C   0  0  0  0  0  0  0  0  0  0  0  0
   11.8754   14.2644   20.4143 C   0  0  0  0  0  0  0  0  0  0  0  0
   10.9544   15.6629   22.2862 C   0  0  0  0  0  0  0  0  0  0  0  0
    4.5862   11.6748   29.9271 C   0  0  0  0  0  0  0  0  0  0  0  0
   11.5717   14.3167   21.9100 C   0  0  0  0  0  0  0  0  0  0  0  0
    9.3507   12.0766   23.7472 N   0  0  0  0  0  0  0  0  0  0  0  0
    3.9550   12.1838   27.3319 O   0  0  0  0  0  0  0  0  0  0  0  0
   10.6543   13.9000   24.3857 O   0  0  0  0  0  0  0  0  0  0  0  0
    9.2901    8.9852   24.1810 O   0  0  0  0  0  0  0  0  0  0  0  0
    5.5765   11.7032   28.8936 O   0  0  0  0  0  0  0  0  0  0  0  0
   10.6205   13.2835   22.1937 O   0  0  0  0  0  0  0  0  0  0  0  0
    7.3193   13.5490   27.6551 H   0  0  0  0  0  0  0  0  0  0  0  0
    9.0966   13.6277   26.0421 H   0  0  0  0  0  0  0  0  0  0  0  0
    5.4085   10.3838   25.4825 H   0  0  0  0  0  0  0  0  0  0  0  0
    6.6963    9.2056   23.8526 H   0  0  0  0  0  0  0  0  0  0  0  0
    6.7262   10.5492   22.6871 H   0  0  0  0  0  0  0  0  0  0  0  0
   10.5343   10.6398   22.7396 H   0  0  0  0  0  0  0  0  0  0  0  0
    9.2079   11.3408   21.8039 H   0  0  0  0  0  0  0  0  0  0  0  0
    8.6180    9.0501   22.2610 H   0  0  0  0  0  0  0  0  0  0  0  0
   12.6226   14.0871   23.7993 H   0  0  0  0  0  0  0  0  0  0  0  0
   13.2694   13.0727   22.4899 H   0  0  0  0  0  0  0  0  0  0  0  0
   13.5937   14.8193   22.5342 H   0  0  0  0  0  0  0  0  0  0  0  0
   10.9708   14.4549   19.8256 H   0  0  0  0  0  0  0  0  0  0  0  0
   12.2296   13.2691   20.1225 H   0  0  0  0  0  0  0  0  0  0  0  0
   12.6351   14.9998   20.1303 H   0  0  0  0  0  0  0  0  0  0  0  0
   10.0473   15.8542   21.7017 H   0  0  0  0  0  0  0  0  0  0  0  0
   10.6959   15.7051   23.3492 H   0  0  0  0  0  0  0  0  0  0  0  0
   11.6450   16.4842   22.0629 H   0  0  0  0  0  0  0  0  0  0  0  0
    5.0639   11.4527   30.8845 H   0  0  0  0  0  0  0  0  0  0  0  0
    3.8382   10.9124   29.6954 H   0  0  0  0  0  0  0  0  0  0  0  0
    4.1020   12.6527   29.9823 H   0  0  0  0  0  0  0  0  0  0  0  0
    9.3019    9.5684   24.9554 H   0  0  0  0  0  0  0  0  0  0  0  0
  1  2  1  0  0  0  0
  1  4  2  0  0  0  0
  2  6  2  0  0  0  0
  3  4  1  0  0  0  0
  3  5  2  0  0  0  0
  4  7  1  0  0  0  0
  5  6  1  0  0  0  0
  5  9  1  0  0  0  0
  6 17  1  0  0  0  0
  7 18  2  0  0  0  0
  7 21  1  0  0  0  0
  8 17  1  0  0  0  0
  8 19  2  0  0  0  0
  8 22  1  0  0  0  0
  9 11  1  0  0  0  0
 10 11  1  0  0  0  0
 10 17  1  0  0  0  0
 11 20  1  0  0  0  0
 12 16  1  0  0  0  0
 13 16  1  0  0  0  0
 14 16  1  0  0  0  0
 15 21  1  0  0  0  0
 16 22  1  0  0  0  0
  1 23  1  0  0  0  0
  2 24  1  0  0  0  0
  3 25  1  0  0  0  0
  9 26  1  0  0  0  0
  9 27  1  0  0  0  0
 10 28  1  0  0  0  0
 10 29  1  0  0  0  0
 11 30  1  0  0  0  0
 12 31  1  0  0  0  0
 12 32  1  0  0  0  0
 12 33  1  0  0  0  0
 13 34  1  0  0  0  0
 13 35  1  0  0  0  0
 13 36  1  0  0  0  0
 14 37  1  0  0  0  0
 14 38  1  0  0  0  0
 14 39  1  0  0  0  0
 15 40  1  0  0  0  0
 15 41  1  0  0  0  0
 15 42  1  0  0  0  0
 20 43  1  0  0  0  0
M  END
> <id>
EN300-37100386

> <smiles>
COC(=O)C=1C=CC=2N(CC(O)CC2C1)C(=O)OC(C)(C)C

> <IUPAC Name>
1-tert-butyl 6-methyl 3-hydroxy-1,2,3,4-tetrahydroquinoline-1,6-dicarboxylate

> <CAS>
2757956-34-4

> <URL>
https://www.enaminestore.com/catalog/EN300-37100386

> <ROCS_ShapeQuery>
A71EV2A-x0451_0A_A71EV2A-x0310_0A_A71EV2A-x0416_0A_peptide

> <ROCS_TanimotoCombo>
0.523 

> <ROCS_ShapeTanimoto>
0.347 

> <ROCS_ColorTanimoto>
0.176 

> <ROCS_RefTversky>
0.306 

> <ROCS_RefColorTversky>
0.190 

> <ROCS_RefTverskyCombo>
0.496 

> <ROCS_FitTversky>
1.635 

> <ROCS_FitColorTversky>
0.703 

> <ROCS_FitTverskyCombo>
2.338 

> <ROCS_ColorScore>
-5.795

> <ROCS_Overlap>
2122.423

> <ROCS_Rank>
163                 

$$$$
untitled-dbase-154069_3
  -OEChem-11132313473D

 30 31  0     1  0  0  0  0  0999 V2000
    6.5822   12.8576   25.7856 C   0  0  0  0  0  0  0  0  0  0  0  0
    7.7315   13.0241   25.0035 C   0  0  0  0  0  0  0  0  0  0  0  0
    6.6345   10.4942   25.3711 C   0  0  0  0  0  0  0  0  0  0  0  0
    6.0340   11.5946   25.9703 C   0  0  0  0  0  0  0  0  0  0  0  0
    8.3665   11.9276   24.3987 C   0  0  0  0  0  0  0  0  0  0  0  0
    7.7929   10.6565   24.6007 C   0  0  0  0  0  0  0  0  0  0  0  0
    4.8349   11.4274   26.7751 C   0  0  0  0  0  0  0  0  0  0  0  0
   10.3139   13.2256   23.5028 C   0  0  0  0  0  0  0  0  0  0  0  0
    9.6393    9.6102   23.6335 C   0  0  0  0  0  0  0  0  0  0  0  0
    9.8570   10.8451   22.7681 C   0  0  1  0  0  0  0  0  0  0  0  0
    9.0381   10.7916   21.4723 C   0  0  0  0  0  0  0  0  0  0  0  0
   11.0713   13.4735   22.2171 C   0  0  0  0  0  0  0  0  0  0  0  0
    9.5314   12.0576   23.5545 N   0  0  0  0  0  0  0  0  0  0  0  0
    4.2196   12.3369   27.3417 O   0  0  0  0  0  0  0  0  0  0  0  0
   10.4637   14.0385   24.4179 O   0  0  0  0  0  0  0  0  0  0  0  0
    8.2862    9.4960   24.0578 O   0  0  0  0  0  0  0  0  0  0  0  0
    4.4347   10.1282   26.8500 O   0  0  0  0  0  0  0  0  0  0  0  0
   10.8369   12.4849   21.3385 F   0  0  0  0  0  0  0  0  0  0  0  0
   10.6874   14.6354   21.6630 F   0  0  0  0  0  0  0  0  0  0  0  0
   12.3928   13.5302   22.4517 F   0  0  0  0  0  0  0  0  0  0  0  0
    6.1165   13.7325   26.2335 H   0  0  0  0  0  0  0  0  0  0  0  0
    8.0684   14.0445   24.8623 H   0  0  0  0  0  0  0  0  0  0  0  0
    6.2092    9.5015   25.5040 H   0  0  0  0  0  0  0  0  0  0  0  0
    9.8817    8.7048   23.0659 H   0  0  0  0  0  0  0  0  0  0  0  0
   10.2967    9.6169   24.5131 H   0  0  0  0  0  0  0  0  0  0  0  0
   10.9162   10.8583   22.4957 H   0  0  0  0  0  0  0  0  0  0  0  0
    7.9786   10.7774   21.7133 H   0  0  0  0  0  0  0  0  0  0  0  0
    9.2949    9.8931   20.9180 H   0  0  0  0  0  0  0  0  0  0  0  0
    9.2598   11.6662   20.8669 H   0  0  0  0  0  0  0  0  0  0  0  0
    3.6254   10.0048   27.3905 H   0  0  0  0  0  0  0  0  0  0  0  0
  1  2  1  0  0  0  0
  1  4  2  0  0  0  0
  2  5  2  0  0  0  0
  3  4  1  0  0  0  0
  3  6  2  0  0  0  0
  4  7  1  0  0  0  0
  5  6  1  0  0  0  0
  5 13  1  0  0  0  0
  6 16  1  0  0  0  0
  7 14  2  0  0  0  0
  7 17  1  0  0  0  0
  8 12  1  0  0  0  0
  8 13  1  0  0  0  0
  8 15  2  0  0  0  0
  9 10  1  0  0  0  0
  9 16  1  0  0  0  0
 10 11  1  0  0  0  0
 10 13  1  0  0  0  0
 12 18  1  0  0  0  0
 12 19  1  0  0  0  0
 12 20  1  0  0  0  0
  1 21  1  0  0  0  0
  2 22  1  0  0  0  0
  3 23  1  0  0  0  0
  9 24  1  0  0  0  0
  9 25  1  0  0  0  0
 10 26  1  0  0  0  0
 11 27  1  0  0  0  0
 11 28  1  0  0  0  0
 11 29  1  0  0  0  0
 17 30  1  0  0  0  0
M  END
> <id>
EN300-28287770

> <smiles>
CC1COC=2C=C(C=CC2N1C(=O)C(F)(F)F)C(=O)O

> <IUPAC Name>
3-methyl-4-(2,2,2-trifluoroacetyl)-3,4-dihydro-2H-1,4-benzoxazine-7-carboxylic acid

> <CAS>
2680890-42-8

> <URL>
https://www.enaminestore.com/catalog/EN300-28287770

> <ROCS_ShapeQuery>
A71EV2A-x0451_0A_A71EV2A-x0310_0A_A71EV2A-x0416_0A_peptide

> <ROCS_TanimotoCombo>
0.523 

> <ROCS_ShapeTanimoto>
0.345 

> <ROCS_ColorTanimoto>
0.178 

> <ROCS_RefTversky>
0.302 

> <ROCS_RefColorTversky>
0.192 

> <ROCS_RefTverskyCombo>
0.494 

> <ROCS_FitTversky>
1.687 

> <ROCS_FitColorTversky>
0.709 

> <ROCS_FitTverskyCombo>
2.396 

> <ROCS_ColorScore>
-5.855

> <ROCS_Overlap>
2098.386

> <ROCS_Rank>
164                 

$$$$
untitled-dbase-103281_25
  -OEChem-11132313473D

 40 41  0     1  0  0  0  0  0999 V2000
   10.4247   13.0602   23.5130 C   0  0  0  0  0  0  0  0  0  0  0  0
    9.9632   10.6536   23.2314 C   0  0  0  0  0  0  0  0  0  0  0  0
    7.9060   13.0785   25.4425 C   0  0  0  0  0  0  0  0  0  0  0  0
    6.6164   11.1456   25.7385 C   0  0  0  0  0  0  0  0  0  0  0  0
    8.6701   11.8768   24.9197 C   0  0  1  0  0  0  0  0  0  0  0  0
    7.5002   10.9997   24.5249 C   0  0  1  0  0  0  0  0  0  0  0  0
    8.7550    9.7164   23.0559 C   0  0  1  0  0  0  0  0  0  0  0  0
   12.9932   14.1851   22.9342 C   0  0  0  0  0  0  0  0  0  0  0  0
   12.4222   13.7707   20.5235 C   0  0  0  0  0  0  0  0  0  0  0  0
   11.0217   15.3477   21.8872 C   0  0  0  0  0  0  0  0  0  0  0  0
    9.2064    8.2908   22.7690 C   0  0  0  0  0  0  0  0  0  0  0  0
   11.8629   14.0724   21.9122 C   0  0  0  0  0  0  0  0  0  0  0  0
    9.6095   11.9605   23.8073 N   0  0  0  0  0  0  0  0  0  0  0  0
    8.1540    7.3773   23.0698 N   0  0  0  0  0  0  0  0  0  0  0  0
   10.5920   14.0144   24.2715 O   0  0  0  0  0  0  0  0  0  0  0  0
    6.7538   12.5267   26.1276 O   0  0  0  0  0  0  0  0  0  0  0  0
    7.9370    9.6875   24.2390 O   0  0  0  0  0  0  0  0  0  0  0  0
   11.0190   12.9767   22.2849 O   0  0  0  0  0  0  0  0  0  0  0  0
   10.6830   10.2103   23.9340 H   0  0  0  0  0  0  0  0  0  0  0  0
   10.4824   10.7754   22.2735 H   0  0  0  0  0  0  0  0  0  0  0  0
    8.4829   13.6804   26.1506 H   0  0  0  0  0  0  0  0  0  0  0  0
    7.5309   13.7220   24.6384 H   0  0  0  0  0  0  0  0  0  0  0  0
    5.5670   10.9257   25.5236 H   0  0  0  0  0  0  0  0  0  0  0  0
    6.9366   10.5077   26.5694 H   0  0  0  0  0  0  0  0  0  0  0  0
    9.2246   11.4084   25.7462 H   0  0  0  0  0  0  0  0  0  0  0  0
    6.9669   11.4144   23.6539 H   0  0  0  0  0  0  0  0  0  0  0  0
    8.1390   10.0616   22.2171 H   0  0  0  0  0  0  0  0  0  0  0  0
   12.5958   14.4016   23.9323 H   0  0  0  0  0  0  0  0  0  0  0  0
   13.5827   13.2640   22.9869 H   0  0  0  0  0  0  0  0  0  0  0  0
   13.6662   15.0129   22.6832 H   0  0  0  0  0  0  0  0  0  0  0  0
   11.6147   13.6890   19.7870 H   0  0  0  0  0  0  0  0  0  0  0  0
   12.9467   12.8083   20.5146 H   0  0  0  0  0  0  0  0  0  0  0  0
   13.1178   14.5477   20.1905 H   0  0  0  0  0  0  0  0  0  0  0  0
   10.2109   15.2671   21.1542 H   0  0  0  0  0  0  0  0  0  0  0  0
   10.5819   15.5600   22.8671 H   0  0  0  0  0  0  0  0  0  0  0  0
   11.6283   16.2087   21.5839 H   0  0  0  0  0  0  0  0  0  0  0  0
    9.4671    8.2366   21.7120 H   0  0  0  0  0  0  0  0  0  0  0  0
   10.0753    8.0903   23.3958 H   0  0  0  0  0  0  0  0  0  0  0  0
    8.4587    6.7143   23.7592 H   0  0  0  0  0  0  0  0  0  0  0  0
    7.3581    7.8739   23.4273 H   0  0  0  0  0  0  0  0  0  0  0  0
  1 13  1  0  0  0  0
  1 15  2  0  0  0  0
  1 18  1  0  0  0  0
  2  7  1  0  0  0  0
  2 13  1  0  0  0  0
  3  5  1  6  0  0  0
  3 16  1  0  0  0  0
  4  6  1  1  0  0  0
  4 16  1  0  0  0  0
  5  6  1  0  0  0  0
  5 13  1  0  0  0  0
  6 17  1  0  0  0  0
  7 11  1  1  0  0  0
  7 17  1  0  0  0  0
  8 12  1  0  0  0  0
  9 12  1  0  0  0  0
 10 12  1  0  0  0  0
 11 14  1  0  0  0  0
 12 18  1  0  0  0  0
  2 19  1  0  0  0  0
  2 20  1  0  0  0  0
  3 21  1  0  0  0  0
  3 22  1  0  0  0  0
  4 23  1  0  0  0  0
  4 24  1  0  0  0  0
  5 25  1  0  0  0  0
  6 26  1  0  0  0  0
  7 27  1  0  0  0  0
  8 28  1  0  0  0  0
  8 29  1  0  0  0  0
  8 30  1  0  0  0  0
  9 31  1  0  0  0  0
  9 32  1  0  0  0  0
  9 33  1  0  0  0  0
 10 34  1  0  0  0  0
 10 35  1  0  0  0  0
 10 36  1  0  0  0  0
 11 37  1  0  0  0  0
 11 38  1  0  0  0  0
 14 39  1  0  0  0  0
 14 40  1  0  0  0  0
M  END
> <id>
EN300-7544723

> <smiles>
Cl.CC(C)(C)OC(=O)N1C[C@@H](CN)O[C@H]2COC[C@@H]21 |&1:10,14,18,r|

> <IUPAC Name>
rac-tert-butyl (2R,4aS,7aR)-2-(aminomethyl)-hexahydro-2H-furo[3,4-b][1,4]oxazine-4-carboxylate hydrochloride

> <CAS>
2411178-71-5

> <Purity>
95

> <URL>
https://www.enaminestore.com/catalog/EN300-7544723

> <Saltdate>
Cl

> <ROCS_ShapeQuery>
A71EV2A-x0451_0A_A71EV2A-x0310_0A_A71EV2A-x0416_0A_peptide

> <ROCS_TanimotoCombo>
0.523 

> <ROCS_ShapeTanimoto>
0.336 

> <ROCS_ColorTanimoto>
0.187 

> <ROCS_RefTversky>
0.292 

> <ROCS_RefColorTversky>
0.205 

> <ROCS_RefTverskyCombo>
0.497 

> <ROCS_FitTversky>
1.807 

> <ROCS_FitColorTversky>
0.680 

> <ROCS_FitTverskyCombo>
2.487 

> <ROCS_ColorScore>
-6.256

> <ROCS_Overlap>
2024.699

> <ROCS_Rank>
165                 

$$$$
untitled-dbase-103282_25
  -OEChem-11132313473D

 40 41  0     1  0  0  0  0  0999 V2000
   10.4247   13.0602   23.5130 C   0  0  0  0  0  0  0  0  0  0  0  0
    9.9632   10.6536   23.2314 C   0  0  0  0  0  0  0  0  0  0  0  0
    7.9060   13.0785   25.4425 C   0  0  0  0  0  0  0  0  0  0  0  0
    6.6164   11.1456   25.7385 C   0  0  0  0  0  0  0  0  0  0  0  0
    8.6701   11.8768   24.9197 C   0  0  1  0  0  0  0  0  0  0  0  0
    7.5002   10.9997   24.5249 C   0  0  1  0  0  0  0  0  0  0  0  0
    8.7550    9.7164   23.0559 C   0  0  1  0  0  0  0  0  0  0  0  0
   12.9932   14.1851   22.9342 C   0  0  0  0  0  0  0  0  0  0  0  0
   12.4222   13.7707   20.5235 C   0  0  0  0  0  0  0  0  0  0  0  0
   11.0217   15.3477   21.8872 C   0  0  0  0  0  0  0  0  0  0  0  0
    9.2064    8.2908   22.7690 C   0  0  0  0  0  0  0  0  0  0  0  0
   11.8629   14.0724   21.9122 C   0  0  0  0  0  0  0  0  0  0  0  0
    9.6095   11.9605   23.8073 N   0  0  0  0  0  0  0  0  0  0  0  0
    8.1540    7.3773   23.0698 N   0  0  0  0  0  0  0  0  0  0  0  0
   10.5920   14.0144   24.2715 O   0  0  0  0  0  0  0  0  0  0  0  0
    6.7538   12.5267   26.1276 O   0  0  0  0  0  0  0  0  0  0  0  0
    7.9370    9.6875   24.2390 O   0  0  0  0  0  0  0  0  0  0  0  0
   11.0190   12.9767   22.2849 O   0  0  0  0  0  0  0  0  0  0  0  0
   10.6830   10.2103   23.9340 H   0  0  0  0  0  0  0  0  0  0  0  0
   10.4824   10.7754   22.2735 H   0  0  0  0  0  0  0  0  0  0  0  0
    8.4829   13.6804   26.1506 H   0  0  0  0  0  0  0  0  0  0  0  0
    7.5309   13.7220   24.6384 H   0  0  0  0  0  0  0  0  0  0  0  0
    5.5670   10.9257   25.5236 H   0  0  0  0  0  0  0  0  0  0  0  0
    6.9366   10.5077   26.5694 H   0  0  0  0  0  0  0  0  0  0  0  0
    9.2246   11.4084   25.7462 H   0  0  0  0  0  0  0  0  0  0  0  0
    6.9669   11.4144   23.6539 H   0  0  0  0  0  0  0  0  0  0  0  0
    8.1390   10.0616   22.2171 H   0  0  0  0  0  0  0  0  0  0  0  0
   12.5958   14.4016   23.9323 H   0  0  0  0  0  0  0  0  0  0  0  0
   13.5827   13.2640   22.9869 H   0  0  0  0  0  0  0  0  0  0  0  0
   13.6662   15.0129   22.6832 H   0  0  0  0  0  0  0  0  0  0  0  0
   11.6147   13.6890   19.7870 H   0  0  0  0  0  0  0  0  0  0  0  0
   12.9467   12.8083   20.5146 H   0  0  0  0  0  0  0  0  0  0  0  0
   13.1178   14.5477   20.1905 H   0  0  0  0  0  0  0  0  0  0  0  0
   10.2109   15.2671   21.1542 H   0  0  0  0  0  0  0  0  0  0  0  0
   10.5819   15.5600   22.8671 H   0  0  0  0  0  0  0  0  0  0  0  0
   11.6283   16.2087   21.5839 H   0  0  0  0  0  0  0  0  0  0  0  0
    9.4671    8.2366   21.7120 H   0  0  0  0  0  0  0  0  0  0  0  0
   10.0753    8.0903   23.3958 H   0  0  0  0  0  0  0  0  0  0  0  0
    8.4587    6.7143   23.7592 H   0  0  0  0  0  0  0  0  0  0  0  0
    7.3581    7.8739   23.4273 H   0  0  0  0  0  0  0  0  0  0  0  0
  1 13  1  0  0  0  0
  1 15  2  0  0  0  0
  1 18  1  0  0  0  0
  2  7  1  0  0  0  0
  2 13  1  0  0  0  0
  3  5  1  6  0  0  0
  3 16  1  0  0  0  0
  4  6  1  1  0  0  0
  4 16  1  0  0  0  0
  5  6  1  0  0  0  0
  5 13  1  0  0  0  0
  6 17  1  0  0  0  0
  7 11  1  1  0  0  0
  7 17  1  0  0  0  0
  8 12  1  0  0  0  0
  9 12  1  0  0  0  0
 10 12  1  0  0  0  0
 11 14  1  0  0  0  0
 12 18  1  0  0  0  0
  2 19  1  0  0  0  0
  2 20  1  0  0  0  0
  3 21  1  0  0  0  0
  3 22  1  0  0  0  0
  4 23  1  0  0  0  0
  4 24  1  0  0  0  0
  5 25  1  0  0  0  0
  6 26  1  0  0  0  0
  7 27  1  0  0  0  0
  8 28  1  0  0  0  0
  8 29  1  0  0  0  0
  8 30  1  0  0  0  0
  9 31  1  0  0  0  0
  9 32  1  0  0  0  0
  9 33  1  0  0  0  0
 10 34  1  0  0  0  0
 10 35  1  0  0  0  0
 10 36  1  0  0  0  0
 11 37  1  0  0  0  0
 11 38  1  0  0  0  0
 14 39  1  0  0  0  0
 14 40  1  0  0  0  0
M  END
> <id>
EN300-7544724

> <smiles>
CC(C)(C)OC(=O)N1C[C@@H](CN)O[C@H]2COC[C@@H]21 |&1:9,13,17,r|

> <IUPAC Name>
rac-tert-butyl (2R,4aS,7aR)-2-(aminomethyl)-hexahydro-2H-furo[3,4-b][1,4]oxazine-4-carboxylate

> <CAS>
2411178-70-4

> <URL>
https://www.enaminestore.com/catalog/EN300-7544724

> <ROCS_ShapeQuery>
A71EV2A-x0451_0A_A71EV2A-x0310_0A_A71EV2A-x0416_0A_peptide

> <ROCS_TanimotoCombo>
0.523 

> <ROCS_ShapeTanimoto>
0.336 

> <ROCS_ColorTanimoto>
0.187 

> <ROCS_RefTversky>
0.292 

> <ROCS_RefColorTversky>
0.205 

> <ROCS_RefTverskyCombo>
0.497 

> <ROCS_FitTversky>
1.807 

> <ROCS_FitColorTversky>
0.680 

> <ROCS_FitTverskyCombo>
2.487 

> <ROCS_ColorScore>
-6.256

> <ROCS_Overlap>
2024.699

> <ROCS_Rank>
166                 

$$$$
untitled-dbase-172489_2235
  -OEChem-11132313473D

 50 50  0     1  0  0  0  0  0999 V2000
   10.4912   13.1619   23.5192 C   0  0  0  0  0  0  0  0  0  0  0  0
    5.7732   13.2867   26.2143 C   0  0  0  0  0  0  0  0  0  0  0  0
    7.0541   11.0787   23.7883 C   0  0  0  0  0  0  0  0  0  0  0  0
    8.9643   12.1047   25.1608 C   0  0  0  0  0  0  0  0  0  0  0  0
    9.4338   10.9440   22.9917 C   0  0  0  0  0  0  0  0  0  0  0  0
    7.4569   11.8180   25.0751 C   0  0  1  0  0  0  0  0  0  0  0  0
    8.1650   10.1489   23.3065 C   0  0  1  0  0  0  0  0  0  0  0  0
   13.1120   14.0607   22.8040 C   0  0  0  0  0  0  0  0  0  0  0  0
   12.3919   13.6851   20.4271 C   0  0  0  0  0  0  0  0  0  0  0  0
   11.1958   15.3797   21.8434 C   0  0  0  0  0  0  0  0  0  0  0  0
    3.4331   12.5029   27.6494 C   0  0  0  0  0  0  0  0  0  0  0  0
    4.9723   11.0432   28.9945 C   0  0  0  0  0  0  0  0  0  0  0  0
    5.2736   13.5365   29.0202 C   0  0  0  0  0  0  0  0  0  0  0  0
   11.9279   14.0385   21.8385 C   0  0  0  0  0  0  0  0  0  0  0  0
    4.8553   12.3302   28.1808 C   0  0  0  0  0  0  0  0  0  0  0  0
    9.6149   12.1222   23.8529 N   0  0  0  0  0  0  0  0  0  0  0  0
    6.6694   13.0462   25.1934 N   0  0  0  0  0  0  0  0  0  0  0  0
   10.7725   14.1005   24.2618 O   0  0  0  0  0  0  0  0  0  0  0  0
    5.0960   14.3006   26.3483 O   0  0  0  0  0  0  0  0  0  0  0  0
    8.4577    9.1697   24.2994 O   0  0  0  0  0  0  0  0  0  0  0  0
   11.0148   13.0191   22.2605 O   0  0  0  0  0  0  0  0  0  0  0  0
    5.7477   12.2187   27.0664 O   0  0  0  0  0  0  0  0  0  0  0  0
    6.1422   10.4989   23.9773 H   0  0  0  0  0  0  0  0  0  0  0  0
    6.8288   11.8081   22.9998 H   0  0  0  0  0  0  0  0  0  0  0  0
    9.1466   13.0924   25.6225 H   0  0  0  0  0  0  0  0  0  0  0  0
    9.4495   11.3615   25.8178 H   0  0  0  0  0  0  0  0  0  0  0  0
   10.3127   10.2812   23.0561 H   0  0  0  0  0  0  0  0  0  0  0  0
    9.3985   11.3174   21.9525 H   0  0  0  0  0  0  0  0  0  0  0  0
    7.1529   11.2091   25.9500 H   0  0  0  0  0  0  0  0  0  0  0  0
    7.8342    9.6208   22.4070 H   0  0  0  0  0  0  0  0  0  0  0  0
   12.7831   14.3140   23.8183 H   0  0  0  0  0  0  0  0  0  0  0  0
   13.6245   13.0937   22.8360 H   0  0  0  0  0  0  0  0  0  0  0  0
   13.8387   14.8282   22.5140 H   0  0  0  0  0  0  0  0  0  0  0  0
   11.5455   13.6681   19.7310 H   0  0  0  0  0  0  0  0  0  0  0  0
   12.8332   12.6822   20.4011 H   0  0  0  0  0  0  0  0  0  0  0  0
   13.1329   14.3998   20.0546 H   0  0  0  0  0  0  0  0  0  0  0  0
   10.3464   15.3641   21.1509 H   0  0  0  0  0  0  0  0  0  0  0  0
   10.8233   15.6323   22.8414 H   0  0  0  0  0  0  0  0  0  0  0  0
   11.8566   16.1856   21.5040 H   0  0  0  0  0  0  0  0  0  0  0  0
    3.3450   13.4256   27.0647 H   0  0  0  0  0  0  0  0  0  0  0  0
    3.1337   11.6607   27.0171 H   0  0  0  0  0  0  0  0  0  0  0  0
    2.7156   12.5894   28.4734 H   0  0  0  0  0  0  0  0  0  0  0  0
    5.9911   10.9152   29.3778 H   0  0  0  0  0  0  0  0  0  0  0  0
    4.7649   10.1665   28.3703 H   0  0  0  0  0  0  0  0  0  0  0  0
    4.2796   11.0368   29.8423 H   0  0  0  0  0  0  0  0  0  0  0  0
    6.2936   13.4129   29.4015 H   0  0  0  0  0  0  0  0  0  0  0  0
    5.2312   14.4649   28.4413 H   0  0  0  0  0  0  0  0  0  0  0  0
    4.6262   13.6437   29.8981 H   0  0  0  0  0  0  0  0  0  0  0  0
    6.7897   13.7624   24.4833 H   0  0  0  0  0  0  0  0  0  0  0  0
    9.1649    8.6138   23.9377 H   0  0  0  0  0  0  0  0  0  0  0  0
  1 16  1  0  0  0  0
  1 18  2  0  0  0  0
  1 21  1  0  0  0  0
  2 17  1  0  0  0  0
  2 19  2  0  0  0  0
  2 22  1  0  0  0  0
  3  6  1  0  0  0  0
  3  7  1  0  0  0  0
  4  6  1  0  0  0  0
  4 16  1  0  0  0  0
  5  7  1  0  0  0  0
  5 16  1  0  0  0  0
  6 17  1  1  0  0  0
  7 20  1  6  0  0  0
  8 14  1  0  0  0  0
  9 14  1  0  0  0  0
 10 14  1  0  0  0  0
 11 15  1  0  0  0  0
 12 15  1  0  0  0  0
 13 15  1  0  0  0  0
 14 21  1  0  0  0  0
 15 22  1  0  0  0  0
  3 23  1  0  0  0  0
  3 24  1  0  0  0  0
  4 25  1  0  0  0  0
  4 26  1  0  0  0  0
  5 27  1  0  0  0  0
  5 28  1  0  0  0  0
  6 29  1  0  0  0  0
  7 30  1  0  0  0  0
  8 31  1  0  0  0  0
  8 32  1  0  0  0  0
  8 33  1  0  0  0  0
  9 34  1  0  0  0  0
  9 35  1  0  0  0  0
  9 36  1  0  0  0  0
 10 37  1  0  0  0  0
 10 38  1  0  0  0  0
 10 39  1  0  0  0  0
 11 40  1  0  0  0  0
 11 41  1  0  0  0  0
 11 42  1  0  0  0  0
 12 43  1  0  0  0  0
 12 44  1  0  0  0  0
 12 45  1  0  0  0  0
 13 46  1  0  0  0  0
 13 47  1  0  0  0  0
 13 48  1  0  0  0  0
 17 49  1  0  0  0  0
 20 50  1  0  0  0  0
M  END
> <id>
EN300-37355698

> <smiles>
CC(C)(C)OC(=O)N[C@H]1C[C@H](O)CN(C1)C(=O)OC(C)(C)C

> <IUPAC Name>
tert-butyl (3S,5S)-3-{[(tert-butoxy)carbonyl]amino}-5-hydroxypiperidine-1-carboxylate

> <CAS>
2763891-61-6

> <URL>
https://www.enaminestore.com/catalog/EN300-37355698

> <ROCS_ShapeQuery>
A71EV2A-x0451_0A_A71EV2A-x0310_0A_A71EV2A-x0416_0A_peptide

> <ROCS_TanimotoCombo>
0.523 

> <ROCS_ShapeTanimoto>
0.323 

> <ROCS_ColorTanimoto>
0.199 

> <ROCS_RefTversky>
0.289 

> <ROCS_RefColorTversky>
0.216 

> <ROCS_RefTverskyCombo>
0.505 

> <ROCS_FitTversky>
1.584 

> <ROCS_FitColorTversky>
0.718 

> <ROCS_FitTverskyCombo>
2.303 

> <ROCS_ColorScore>
-6.599

> <ROCS_Overlap>
2005.365

> <ROCS_Rank>
167                 

$$$$
untitled-dbase-152482_20
  -OEChem-11132313473D

 31 32  0     0  0  0  0  0  0999 V2000
    8.0358   12.7652   24.7281 C   0  0  0  0  0  0  0  0  0  0  0  0
    6.9613   12.5510   25.5832 C   0  0  0  0  0  0  0  0  0  0  0  0
    8.6376   11.6121   24.2148 C   0  0  0  0  0  0  0  0  0  0  0  0
    8.1392   10.3675   24.5805 C   0  0  0  0  0  0  0  0  0  0  0  0
    9.7105   11.3154   23.3470 C   0  0  0  0  0  0  0  0  0  0  0  0
    7.0612   10.2242   25.4405 C   0  0  0  0  0  0  0  0  0  0  0  0
   10.8619   13.5420   23.1819 C   0  0  0  0  0  0  0  0  0  0  0  0
   10.9877   16.3785   22.8384 C   0  0  0  0  0  0  0  0  0  0  0  0
   12.2381   15.8807   20.7176 C   0  0  0  0  0  0  0  0  0  0  0  0
    9.8683   15.0934   20.9863 C   0  0  0  0  0  0  0  0  0  0  0  0
   11.1877   15.3747   21.7039 C   0  0  0  0  0  0  0  0  0  0  0  0
    6.4743   11.3378   25.9407 N   0  0  0  0  0  0  0  0  0  0  0  0
    9.8869   10.0037   23.1702 N   0  0  0  0  0  0  0  0  0  0  0  0
    8.9222    9.4558   23.9285 N   0  0  0  0  0  0  0  0  0  0  0  0
   10.5262   12.2844   22.7196 N   0  0  0  0  0  0  0  0  0  0  0  0
   10.5188   14.0712   24.2321 O   0  0  0  0  0  0  0  0  0  0  0  0
   11.6729   14.1518   22.2594 O   0  0  0  0  0  0  0  0  0  0  0  0
    6.4064    8.7264   25.9237 Cl  0  0  0  0  0  0  0  0  0  0  0  0
    8.3761   13.7640   24.4825 H   0  0  0  0  0  0  0  0  0  0  0  0
    6.4395   13.3953   26.0243 H   0  0  0  0  0  0  0  0  0  0  0  0
   10.2344   16.0189   23.5485 H   0  0  0  0  0  0  0  0  0  0  0  0
   11.9194   16.5624   23.3832 H   0  0  0  0  0  0  0  0  0  0  0  0
   10.6173   17.3354   22.4531 H   0  0  0  0  0  0  0  0  0  0  0  0
   12.3849   15.1636   19.9018 H   0  0  0  0  0  0  0  0  0  0  0  0
   13.2117   15.9937   21.2081 H   0  0  0  0  0  0  0  0  0  0  0  0
   11.9541   16.8452   20.2844 H   0  0  0  0  0  0  0  0  0  0  0  0
   10.0115   14.3734   20.1725 H   0  0  0  0  0  0  0  0  0  0  0  0
    9.1135   14.6945   21.6718 H   0  0  0  0  0  0  0  0  0  0  0  0
    9.4729   16.0060   20.5258 H   0  0  0  0  0  0  0  0  0  0  0  0
    8.8523    8.4462   23.9573 H   0  0  0  0  0  0  0  0  0  0  0  0
   10.9137   12.0234   21.8161 H   0  0  0  0  0  0  0  0  0  0  0  0
  1  2  1  0  0  0  0
  1  3  2  0  0  0  0
  2 12  2  0  0  0  0
  3  4  1  0  0  0  0
  3  5  1  0  0  0  0
  4  6  2  0  0  0  0
  4 14  1  0  0  0  0
  5 13  2  0  0  0  0
  5 15  1  0  0  0  0
  6 12  1  0  0  0  0
  6 18  1  0  0  0  0
  7 15  1  0  0  0  0
  7 16  2  0  0  0  0
  7 17  1  0  0  0  0
  8 11  1  0  0  0  0
  9 11  1  0  0  0  0
 10 11  1  0  0  0  0
 11 17  1  0  0  0  0
 13 14  1  0  0  0  0
  1 19  1  0  0  0  0
  2 20  1  0  0  0  0
  8 21  1  0  0  0  0
  8 22  1  0  0  0  0
  8 23  1  0  0  0  0
  9 24  1  0  0  0  0
  9 25  1  0  0  0  0
  9 26  1  0  0  0  0
 10 27  1  0  0  0  0
 10 28  1  0  0  0  0
 10 29  1  0  0  0  0
 14 30  1  0  0  0  0
 15 31  1  0  0  0  0
M  END
> <id>
EN300-28282920

> <smiles>
CC(C)(C)OC(=O)NC1=NNC=2C(Cl)=NC=CC12

> <IUPAC Name>
tert-butyl N-{7-chloro-1H-pyrazolo[3,4-c]pyridin-3-yl}carbamate

> <CAS>
2680882-06-6

> <URL>
https://www.enaminestore.com/catalog/EN300-28282920

> <ROCS_ShapeQuery>
A71EV2A-x0451_0A_A71EV2A-x0310_0A_A71EV2A-x0416_0A_peptide

> <ROCS_TanimotoCombo>
0.522 

> <ROCS_ShapeTanimoto>
0.342 

> <ROCS_ColorTanimoto>
0.181 

> <ROCS_RefTversky>
0.297 

> <ROCS_RefColorTversky>
0.199 

> <ROCS_RefTverskyCombo>
0.496 

> <ROCS_FitTversky>
1.807 

> <ROCS_FitColorTversky>
0.660 

> <ROCS_FitTverskyCombo>
2.467 

> <ROCS_ColorScore>
-6.077

> <ROCS_Overlap>
2057.504

> <ROCS_Rank>
168                 

$$$$
untitled-dbase-152163_8
  -OEChem-11132313473D

 30 31  0     0  0  0  0  0  0999 V2000
    9.0582    8.4801   23.4351 C   0  0  0  0  0  0  0  0  0  0  0  0
    7.9688   10.0198   24.3570 C   0  0  0  0  0  0  0  0  0  0  0  0
    8.4293   12.7586   24.2425 C   0  0  0  0  0  0  0  0  0  0  0  0
    9.2604   11.9470   23.5688 C   0  0  0  0  0  0  0  0  0  0  0  0
    7.3274   12.0951   24.9944 C   0  0  0  0  0  0  0  0  0  0  0  0
   10.9897   13.5903   23.1392 C   0  0  0  0  0  0  0  0  0  0  0  0
   11.9502   16.1852   22.4344 C   0  0  0  0  0  0  0  0  0  0  0  0
   13.0811   15.0400   20.5060 C   0  0  0  0  0  0  0  0  0  0  0  0
   10.5762   15.0054   20.6867 C   0  0  0  0  0  0  0  0  0  0  0  0
   11.8920   15.0067   21.4636 C   0  0  0  0  0  0  0  0  0  0  0  0
    7.9871    8.7076   24.2370 N   0  0  0  0  0  0  0  0  0  0  0  0
    9.7244    9.5591   23.0356 N   0  0  0  0  0  0  0  0  0  0  0  0
    7.1083   10.8166   25.0510 N   0  0  0  0  0  0  0  0  0  0  0  0
    9.0290   10.5663   23.6259 N   0  0  0  0  0  0  0  0  0  0  0  0
   10.3070   12.4290   22.8385 N   0  0  0  0  0  0  0  0  0  0  0  0
   10.7595   14.3391   24.0837 O   0  0  0  0  0  0  0  0  0  0  0  0
   11.9782   13.7915   22.2164 O   0  0  0  0  0  0  0  0  0  0  0  0
    6.2172   13.0800   25.8849 Cl  0  0  0  0  0  0  0  0  0  0  0  0
    9.3668    7.4921   23.1281 H   0  0  0  0  0  0  0  0  0  0  0  0
    8.5235   13.8369   24.2615 H   0  0  0  0  0  0  0  0  0  0  0  0
   11.0984   16.1649   23.1236 H   0  0  0  0  0  0  0  0  0  0  0  0
   12.8736   16.1780   23.0227 H   0  0  0  0  0  0  0  0  0  0  0  0
   11.8900   17.1383   21.8965 H   0  0  0  0  0  0  0  0  0  0  0  0
   13.0433   14.1962   19.8076 H   0  0  0  0  0  0  0  0  0  0  0  0
   14.0259   14.9455   21.0534 H   0  0  0  0  0  0  0  0  0  0  0  0
   13.1074   15.9686   19.9267 H   0  0  0  0  0  0  0  0  0  0  0  0
   10.5342   14.1601   19.9903 H   0  0  0  0  0  0  0  0  0  0  0  0
    9.7124   14.9445   21.3565 H   0  0  0  0  0  0  0  0  0  0  0  0
   10.4820   15.9122   20.0784 H   0  0  0  0  0  0  0  0  0  0  0  0
   10.6021   11.9008   22.0233 H   0  0  0  0  0  0  0  0  0  0  0  0
  1 11  1  0  0  0  0
  1 12  2  0  0  0  0
  2 11  2  0  0  0  0
  2 13  1  0  0  0  0
  2 14  1  0  0  0  0
  3  4  2  0  0  0  0
  3  5  1  0  0  0  0
  4 14  1  0  0  0  0
  4 15  1  0  0  0  0
  5 13  2  0  0  0  0
  5 18  1  0  0  0  0
  6 15  1  0  0  0  0
  6 16  2  0  0  0  0
  6 17  1  0  0  0  0
  7 10  1  0  0  0  0
  8 10  1  0  0  0  0
  9 10  1  0  0  0  0
 10 17  1  0  0  0  0
 12 14  1  0  0  0  0
  1 19  1  0  0  0  0
  3 20  1  0  0  0  0
  7 21  1  0  0  0  0
  7 22  1  0  0  0  0
  7 23  1  0  0  0  0
  8 24  1  0  0  0  0
  8 25  1  0  0  0  0
  8 26  1  0  0  0  0
  9 27  1  0  0  0  0
  9 28  1  0  0  0  0
  9 29  1  0  0  0  0
 15 30  1  0  0  0  0
M  END
> <id>
EN300-3973387

> <smiles>
CC(C)(C)OC(=O)NC1=CC(Cl)=NC2=NC=NN12

> <IUPAC Name>
tert-butyl N-{5-chloro-[1,2,4]triazolo[1,5-a]pyrimidin-7-yl}carbamate

> <CAS>
2303321-25-5

> <URL>
https://www.enaminestore.com/catalog/EN300-3973387

> <ROCS_ShapeQuery>
A71EV2A-x0451_0A_A71EV2A-x0310_0A_A71EV2A-x0416_0A_peptide

> <ROCS_TanimotoCombo>
0.522 

> <ROCS_ShapeTanimoto>
0.359 

> <ROCS_ColorTanimoto>
0.163 

> <ROCS_RefTversky>
0.308 

> <ROCS_RefColorTversky>
0.183 

> <ROCS_RefTverskyCombo>
0.491 

> <ROCS_FitTversky>
1.864 

> <ROCS_FitColorTversky>
0.604 

> <ROCS_FitTverskyCombo>
2.467 

> <ROCS_ColorScore>
-5.571

> <ROCS_Overlap>
2137.404

> <ROCS_Rank>
169                 

$$$$
untitled-dbase-102979_64
  -OEChem-11132313473D

 35 38  0     0  0  0  0  0  0999 V2000
   13.8643   16.1401   20.4247 B   0  0  0  0  0  0  0  0  0  0  0  0
   10.4354   13.6342   20.8986 C   0  0  0  0  0  0  0  0  0  0  0  0
   10.9722   14.0662   19.6852 C   0  0  0  0  0  0  0  0  0  0  0  0
   12.1547   14.8392   22.1334 C   0  0  0  0  0  0  0  0  0  0  0  0
    8.0459   12.8884   25.1383 C   0  0  0  0  0  0  0  0  0  0  0  0
   12.6847   15.2658   20.9375 C   0  0  0  0  0  0  0  0  0  0  0  0
   11.0225   14.0178   22.1130 C   0  0  0  0  0  0  0  0  0  0  0  0
   12.0983   14.8824   19.7076 C   0  0  0  0  0  0  0  0  0  0  0  0
    8.6913   12.0890   24.2268 C   0  0  0  0  0  0  0  0  0  0  0  0
    7.9914   10.8612   24.2806 C   0  0  0  0  0  0  0  0  0  0  0  0
   10.4400   13.5489   23.3813 C   0  0  0  0  0  0  0  0  0  0  0  0
   12.7949   15.4280   18.4998 C   0  0  0  0  0  0  0  0  0  0  0  0
    8.3465    9.6834   23.4553 C   0  0  0  0  0  0  0  0  0  0  0  0
    9.8150    9.7917   23.0228 C   0  0  0  0  0  0  0  0  0  0  0  0
   10.1655   11.1869   22.4712 C   0  0  0  0  0  0  0  0  0  0  0  0
    6.9791   10.8757   25.1499 N   0  0  0  0  0  0  0  0  0  0  0  0
    7.0384   12.1208   25.6565 N   0  0  0  0  0  0  0  0  0  0  0  0
    9.7879   12.3059   23.3785 N   0  0  0  0  0  0  0  0  0  0  0  0
   10.5828   14.3082   24.3380 O   0  0  0  0  0  0  0  0  0  0  0  0
   13.8946   16.2090   19.0332 O   0  0  0  0  0  0  0  0  0  0  0  0
   14.7608   16.7643   21.2406 O   0  0  0  0  0  0  0  0  0  0  0  0
    9.5556   12.9949   20.8915 H   0  0  0  0  0  0  0  0  0  0  0  0
   10.5173   13.7674   18.7465 H   0  0  0  0  0  0  0  0  0  0  0  0
   12.6056   15.1335   23.0774 H   0  0  0  0  0  0  0  0  0  0  0  0
    8.1911   13.9051   25.4728 H   0  0  0  0  0  0  0  0  0  0  0  0
   13.1998   14.6297   17.8676 H   0  0  0  0  0  0  0  0  0  0  0  0
   12.1422   16.0862   17.9156 H   0  0  0  0  0  0  0  0  0  0  0  0
    8.2019    8.7708   24.0454 H   0  0  0  0  0  0  0  0  0  0  0  0
    7.7043    9.6137   22.5705 H   0  0  0  0  0  0  0  0  0  0  0  0
   10.4667    9.5543   23.8713 H   0  0  0  0  0  0  0  0  0  0  0  0
   10.0223    9.0452   22.2444 H   0  0  0  0  0  0  0  0  0  0  0  0
   11.2469   11.2670   22.3046 H   0  0  0  0  0  0  0  0  0  0  0  0
    9.6721   11.3157   21.5023 H   0  0  0  0  0  0  0  0  0  0  0  0
    6.3580   12.3852   26.3578 H   0  0  0  0  0  0  0  0  0  0  0  0
   14.5731   16.5965   22.1811 H   0  0  0  0  0  0  0  0  0  0  0  0
  1  6  1  0  0  0  0
  1 20  1  0  0  0  0
  1 21  1  0  0  0  0
  2  3  1  0  0  0  0
  2  7  2  0  0  0  0
  3  8  2  0  0  0  0
  4  6  2  0  0  0  0
  4  7  1  0  0  0  0
  5  9  2  0  0  0  0
  5 17  1  0  0  0  0
  6  8  1  0  0  0  0
  7 11  1  0  0  0  0
  8 12  1  0  0  0  0
  9 10  1  0  0  0  0
  9 18  1  0  0  0  0
 10 13  1  0  0  0  0
 10 16  2  0  0  0  0
 11 18  1  0  0  0  0
 11 19  2  0  0  0  0
 12 20  1  0  0  0  0
 13 14  1  0  0  0  0
 14 15  1  0  0  0  0
 15 18  1  0  0  0  0
 16 17  1  0  0  0  0
  2 22  1  0  0  0  0
  3 23  1  0  0  0  0
  4 24  1  0  0  0  0
  5 25  1  0  0  0  0
 12 26  1  0  0  0  0
 12 27  1  0  0  0  0
 13 28  1  0  0  0  0
 13 29  1  0  0  0  0
 14 30  1  0  0  0  0
 14 31  1  0  0  0  0
 15 32  1  0  0  0  0
 15 33  1  0  0  0  0
 17 34  1  0  0  0  0
 21 35  1  0  0  0  0
M  END
> <id>
EN300-26618028

> <smiles>
OB1OCC=2C=CC(=CC12)C(=O)N3CCCC4=NNC=C34

> <IUPAC Name>
6-{2H,4H,5H,6H,7H-pyrazolo[4,3-b]pyridine-4-carbonyl}-1,3-dihydro-2,1-benzoxaborol-1-ol

> <URL>
https://www.enaminestore.com/catalog/EN300-26618028

> <ROCS_ShapeQuery>
A71EV2A-x0451_0A_A71EV2A-x0310_0A_A71EV2A-x0416_0A_peptide

> <ROCS_TanimotoCombo>
0.522 

> <ROCS_ShapeTanimoto>
0.341 

> <ROCS_ColorTanimoto>
0.181 

> <ROCS_RefTversky>
0.302 

> <ROCS_RefColorTversky>
0.195 

> <ROCS_RefTverskyCombo>
0.497 

> <ROCS_FitTversky>
1.618 

> <ROCS_FitColorTversky>
0.719 

> <ROCS_FitTverskyCombo>
2.337 

> <ROCS_ColorScore>
-5.945

> <ROCS_Overlap>
2095.931

> <ROCS_Rank>
170                 

$$$$
untitled-dbase-146220_286
  -OEChem-11132313473D

 36 37  0     0  0  0  0  0  0999 V2000
    6.7190   10.5488   25.5627 C   0  0  0  0  0  0  0  0  0  0  0  0
    7.0447   12.8055   26.1965 C   0  0  0  0  0  0  0  0  0  0  0  0
    6.3295   11.6324   26.3351 C   0  0  0  0  0  0  0  0  0  0  0  0
    7.8028   10.6723   24.6936 C   0  0  0  0  0  0  0  0  0  0  0  0
    8.4608   11.9004   24.5896 C   0  0  0  0  0  0  0  0  0  0  0  0
    5.2133   11.5360   27.2587 C   0  0  0  0  0  0  0  0  0  0  0  0
   10.2028   13.2582   23.4654 C   0  0  0  0  0  0  0  0  0  0  0  0
    9.7884   10.8754   22.7889 C   0  0  0  0  0  0  0  0  0  0  0  0
    9.4865    9.5864   23.5249 C   0  0  0  0  0  0  0  0  0  0  0  0
   12.9254   13.5295   22.6144 C   0  0  0  0  0  0  0  0  0  0  0  0
   11.9711   14.3409   20.4372 C   0  0  0  0  0  0  0  0  0  0  0  0
   11.5391   15.6291   22.5495 C   0  0  0  0  0  0  0  0  0  0  0  0
   11.7509   14.2418   21.9452 C   0  0  0  0  0  0  0  0  0  0  0  0
    8.0877   12.9610   25.3495 N   0  0  0  0  0  0  0  0  0  0  0  0
    9.5235   12.0410   23.6375 N   0  0  0  0  0  0  0  0  0  0  0  0
    4.1857   12.2230   27.2179 O   0  0  0  0  0  0  0  0  0  0  0  0
   10.4550   14.0680   24.3552 O   0  0  0  0  0  0  0  0  0  0  0  0
    8.1330    9.5582   23.9708 O   0  0  0  0  0  0  0  0  0  0  0  0
    5.4047   10.5825   28.2124 O   0  0  0  0  0  0  0  0  0  0  0  0
   10.5659   13.4658   22.1582 O   0  0  0  0  0  0  0  0  0  0  0  0
    6.1901    9.6016   25.6396 H   0  0  0  0  0  0  0  0  0  0  0  0
    6.7960   13.6907   26.7740 H   0  0  0  0  0  0  0  0  0  0  0  0
   10.8300   10.8738   22.4535 H   0  0  0  0  0  0  0  0  0  0  0  0
    9.1465   10.9802   21.9056 H   0  0  0  0  0  0  0  0  0  0  0  0
    9.6278    8.7350   22.8507 H   0  0  0  0  0  0  0  0  0  0  0  0
   10.1602    9.4382   24.3789 H   0  0  0  0  0  0  0  0  0  0  0  0
   12.7712   13.4564   23.6969 H   0  0  0  0  0  0  0  0  0  0  0  0
   13.0661   12.5201   22.2142 H   0  0  0  0  0  0  0  0  0  0  0  0
   13.8558   14.0910   22.4720 H   0  0  0  0  0  0  0  0  0  0  0  0
   11.1307   14.8513   19.9529 H   0  0  0  0  0  0  0  0  0  0  0  0
   12.0289   13.3442   19.9849 H   0  0  0  0  0  0  0  0  0  0  0  0
   12.8910   14.8841   20.1981 H   0  0  0  0  0  0  0  0  0  0  0  0
   10.6966   16.1403   22.0697 H   0  0  0  0  0  0  0  0  0  0  0  0
   11.3429   15.5747   23.6253 H   0  0  0  0  0  0  0  0  0  0  0  0
   12.4183   16.2631   22.3875 H   0  0  0  0  0  0  0  0  0  0  0  0
    4.6554   10.5089   28.8412 H   0  0  0  0  0  0  0  0  0  0  0  0
  1  3  1  0  0  0  0
  1  4  2  0  0  0  0
  2  3  2  0  0  0  0
  2 14  1  0  0  0  0
  3  6  1  0  0  0  0
  4  5  1  0  0  0  0
  4 18  1  0  0  0  0
  5 14  2  0  0  0  0
  5 15  1  0  0  0  0
  6 16  2  0  0  0  0
  6 19  1  0  0  0  0
  7 15  1  0  0  0  0
  7 17  2  0  0  0  0
  7 20  1  0  0  0  0
  8  9  1  0  0  0  0
  8 15  1  0  0  0  0
  9 18  1  0  0  0  0
 10 13  1  0  0  0  0
 11 13  1  0  0  0  0
 12 13  1  0  0  0  0
 13 20  1  0  0  0  0
  1 21  1  0  0  0  0
  2 22  1  0  0  0  0
  8 23  1  0  0  0  0
  8 24  1  0  0  0  0
  9 25  1  0  0  0  0
  9 26  1  0  0  0  0
 10 27  1  0  0  0  0
 10 28  1  0  0  0  0
 10 29  1  0  0  0  0
 11 30  1  0  0  0  0
 11 31  1  0  0  0  0
 11 32  1  0  0  0  0
 12 33  1  0  0  0  0
 12 34  1  0  0  0  0
 12 35  1  0  0  0  0
 19 36  1  0  0  0  0
M  END
> <id>
EN300-27782627

> <smiles>
CC(C)(C)OC(=O)N1CCOC=2C=C(C=NC12)C(=O)O

> <IUPAC Name>
4-[(tert-butoxy)carbonyl]-2H,3H,4H-pyrido[3,2-b][1,4]oxazine-7-carboxylic acid

> <CAS>
2639447-49-5

> <URL>
https://www.enaminestore.com/catalog/EN300-27782627

> <ROCS_ShapeQuery>
A71EV2A-x0451_0A_A71EV2A-x0310_0A_A71EV2A-x0416_0A_peptide

> <ROCS_TanimotoCombo>
0.522 

> <ROCS_ShapeTanimoto>
0.352 

> <ROCS_ColorTanimoto>
0.171 

> <ROCS_RefTversky>
0.306 

> <ROCS_RefColorTversky>
0.194 

> <ROCS_RefTverskyCombo>
0.500 

> <ROCS_FitTversky>
1.728 

> <ROCS_FitColorTversky>
0.584 

> <ROCS_FitTverskyCombo>
2.313 

> <ROCS_ColorScore>
-5.935

> <ROCS_Overlap>
2126.661

> <ROCS_Rank>
171                 

$$$$
untitled-dbase-58130_30
  -OEChem-11132313473D

 50 52  0     1  0  0  0  0  0999 V2000
   11.0121   13.6795   23.0509 C   0  0  0  0  0  0  0  0  0  0  0  0
    7.4671   11.7607   25.6594 C   0  0  0  0  0  0  0  0  0  0  0  0
    9.8978   11.6563   25.0296 C   0  0  0  0  0  0  0  0  0  0  0  0
    8.2118   12.5317   23.3861 C   0  0  0  0  0  0  0  0  0  0  0  0
    8.5691    9.5385   25.2654 C   0  0  0  0  0  0  0  0  0  0  0  0
    6.8872   10.4115   23.6222 C   0  0  0  0  0  0  0  0  0  0  0  0
    9.3127   10.3106   22.9949 C   0  0  0  0  0  0  0  0  0  0  0  0
    8.7777   10.9582   25.8351 C   0  0  2  0  0  0  0  0  0  0  0  0
    7.0680   11.8447   24.1674 C   0  0  1  0  0  0  0  0  0  0  0  0
    9.5278   11.7390   23.5326 C   0  0  0  0  0  0  0  0  0  0  0  0
    8.1900    9.6114   23.7773 C   0  0  0  0  0  0  0  0  0  0  0  0
    9.1581   10.8830   27.3167 C   0  0  0  0  0  0  0  0  0  0  0  0
    5.7675   12.6382   24.0106 C   0  0  0  0  0  0  0  0  0  0  0  0
   11.5280   16.3591   22.2123 C   0  0  0  0  0  0  0  0  0  0  0  0
   13.0200   15.3307   20.4728 C   0  0  0  0  0  0  0  0  0  0  0  0
   10.5600   14.8242   20.4682 C   0  0  0  0  0  0  0  0  0  0  0  0
   11.7779   15.1307   21.3385 C   0  0  0  0  0  0  0  0  0  0  0  0
   10.5883   12.3932   22.7972 N   0  0  0  0  0  0  0  0  0  0  0  0
   10.5608   14.4271   23.9122 O   0  0  0  0  0  0  0  0  0  0  0  0
    8.0073    8.2911   23.2844 O   0  0  0  0  0  0  0  0  0  0  0  0
   12.0230   14.0069   22.1917 O   0  0  0  0  0  0  0  0  0  0  0  0
    6.6602   11.2869   26.2349 H   0  0  0  0  0  0  0  0  0  0  0  0
    7.5903   12.7718   26.0705 H   0  0  0  0  0  0  0  0  0  0  0  0
   10.0672   12.6657   25.4291 H   0  0  0  0  0  0  0  0  0  0  0  0
   10.8407   11.1062   25.1523 H   0  0  0  0  0  0  0  0  0  0  0  0
    7.9399   12.6123   22.3248 H   0  0  0  0  0  0  0  0  0  0  0  0
    8.3478   13.5575   23.7552 H   0  0  0  0  0  0  0  0  0  0  0  0
    9.4774    8.9332   25.3887 H   0  0  0  0  0  0  0  0  0  0  0  0
    7.7863    9.0068   25.8233 H   0  0  0  0  0  0  0  0  0  0  0  0
    6.0704    9.8967   24.1461 H   0  0  0  0  0  0  0  0  0  0  0  0
    6.5870   10.4347   22.5658 H   0  0  0  0  0  0  0  0  0  0  0  0
    9.0630   10.3315   21.9253 H   0  0  0  0  0  0  0  0  0  0  0  0
   10.2365    9.7209   23.0715 H   0  0  0  0  0  0  0  0  0  0  0  0
   10.0799   10.3173   27.4285 H   0  0  0  0  0  0  0  0  0  0  0  0
    8.3639   10.3907   27.8728 H   0  0  0  0  0  0  0  0  0  0  0  0
    9.3023   11.8874   27.7078 H   0  0  0  0  0  0  0  0  0  0  0  0
    5.4967   12.6909   22.9588 H   0  0  0  0  0  0  0  0  0  0  0  0
    5.9055   13.6449   24.3976 H   0  0  0  0  0  0  0  0  0  0  0  0
    4.9708   12.1460   24.5633 H   0  0  0  0  0  0  0  0  0  0  0  0
   10.6372   16.2195   22.8352 H   0  0  0  0  0  0  0  0  0  0  0  0
   12.3805   16.5690   22.8665 H   0  0  0  0  0  0  0  0  0  0  0  0
   11.3383   17.2453   21.5959 H   0  0  0  0  0  0  0  0  0  0  0  0
   13.2031   14.4517   19.8443 H   0  0  0  0  0  0  0  0  0  0  0  0
   13.9133   15.4566   21.0951 H   0  0  0  0  0  0  0  0  0  0  0  0
   12.9232   16.2070   19.8237 H   0  0  0  0  0  0  0  0  0  0  0  0
   10.7390   13.9431   19.8414 H   0  0  0  0  0  0  0  0  0  0  0  0
    9.6668   14.6414   21.0744 H   0  0  0  0  0  0  0  0  0  0  0  0
   10.3519   15.6540   19.7831 H   0  0  0  0  0  0  0  0  0  0  0  0
   11.0451   11.8763   22.0537 H   0  0  0  0  0  0  0  0  0  0  0  0
    7.2929    7.8929   23.8077 H   0  0  0  0  0  0  0  0  0  0  0  0
  1 18  1  0  0  0  0
  1 19  2  0  0  0  0
  1 21  1  0  0  0  0
  2  8  1  0  0  0  0
  2  9  1  0  0  0  0
  3  8  1  0  0  0  0
  3 10  1  0  0  0  0
  4  9  1  0  0  0  0
  4 10  1  0  0  0  0
  5  8  1  0  0  0  0
  5 11  1  0  0  0  0
  6  9  1  0  0  0  0
  6 11  1  0  0  0  0
  7 10  1  0  0  0  0
  7 11  1  0  0  0  0
  8 12  1  0  0  0  0
  9 13  1  0  0  0  0
 10 18  1  0  0  0  0
 11 20  1  0  0  0  0
 14 17  1  0  0  0  0
 15 17  1  0  0  0  0
 16 17  1  0  0  0  0
 17 21  1  0  0  0  0
  2 22  1  0  0  0  0
  2 23  1  0  0  0  0
  3 24  1  0  0  0  0
  3 25  1  0  0  0  0
  4 26  1  0  0  0  0
  4 27  1  0  0  0  0
  5 28  1  0  0  0  0
  5 29  1  0  0  0  0
  6 30  1  0  0  0  0
  6 31  1  0  0  0  0
  7 32  1  0  0  0  0
  7 33  1  0  0  0  0
 12 34  1  0  0  0  0
 12 35  1  0  0  0  0
 12 36  1  0  0  0  0
 13 37  1  0  0  0  0
 13 38  1  0  0  0  0
 13 39  1  0  0  0  0
 14 40  1  0  0  0  0
 14 41  1  0  0  0  0
 14 42  1  0  0  0  0
 15 43  1  0  0  0  0
 15 44  1  0  0  0  0
 15 45  1  0  0  0  0
 16 46  1  0  0  0  0
 16 47  1  0  0  0  0
 16 48  1  0  0  0  0
 18 49  1  0  0  0  0
 20 50  1  0  0  0  0
M  END
> <id>
EN300-7548425

> <smiles>
CC(C)(C)OC(=O)NC1(CC2(C)CC3(C)CC(O)(C2)C1)C3

> <IUPAC Name>
tert-butyl N-(3-hydroxy-5,7-dimethyladamantan-1-yl)carbamate

> <CAS>
356572-10-6

> <URL>
https://www.enaminestore.com/catalog/EN300-7548425

> <ROCS_ShapeQuery>
A71EV2A-x0451_0A_A71EV2A-x0310_0A_A71EV2A-x0416_0A_peptide

> <ROCS_TanimotoCombo>
0.522 

> <ROCS_ShapeTanimoto>
0.325 

> <ROCS_ColorTanimoto>
0.197 

> <ROCS_RefTversky>
0.290 

> <ROCS_RefColorTversky>
0.232 

> <ROCS_RefTverskyCombo>
0.521 

> <ROCS_FitTversky>
1.599 

> <ROCS_FitColorTversky>
0.571 

> <ROCS_FitTverskyCombo>
2.169 

> <ROCS_ColorScore>
-7.113

> <ROCS_Overlap>
2011.158

> <ROCS_Rank>
172                 

$$$$
untitled-dbase-35975_150
  -OEChem-11132313473D

 42 44  0     0  0  0  0  0  0999 V2000
    6.7281   12.1899   27.5853 C   0  0  0  0  0  0  0  0  0  0  0  0
    5.9323   12.8559   28.5108 C   0  0  0  0  0  0  0  0  0  0  0  0
    4.7486   11.4238   26.5124 C   0  0  0  0  0  0  0  0  0  0  0  0
    6.1328   11.4580   26.5640 C   0  0  0  0  0  0  0  0  0  0  0  0
    7.8642   11.2021   24.6865 C   0  0  0  0  0  0  0  0  0  0  0  0
    6.9305   10.7570   25.5899 C   0  0  0  0  0  0  0  0  0  0  0  0
    8.2893   10.0316   24.0172 C   0  0  0  0  0  0  0  0  0  0  0  0
    4.5571   12.7592   28.3720 C   0  0  0  0  0  0  0  0  0  0  0  0
   10.6265   13.3616   23.5683 C   0  0  0  0  0  0  0  0  0  0  0  0
    8.3707   12.5631   24.3904 C   0  0  0  0  0  0  0  0  0  0  0  0
    9.3188   10.0411   22.9504 C   0  0  0  0  0  0  0  0  0  0  0  0
    9.4990   11.4693   22.4092 C   0  0  0  0  0  0  0  0  0  0  0  0
   12.3670   15.3561   22.4806 C   0  0  0  0  0  0  0  0  0  0  0  0
   13.0081   13.6111   20.7915 C   0  0  0  0  0  0  0  0  0  0  0  0
   10.6361   14.4288   20.9062 C   0  0  0  0  0  0  0  0  0  0  0  0
   11.8997   14.1228   21.7090 C   0  0  0  0  0  0  0  0  0  0  0  0
    3.9425   12.0578   27.3932 N   0  0  0  0  0  0  0  0  0  0  0  0
    7.6826    8.9287   24.4596 N   0  0  0  0  0  0  0  0  0  0  0  0
    6.8603    9.4032   25.4149 N   0  0  0  0  0  0  0  0  0  0  0  0
    9.5480   12.4713   23.4946 N   0  0  0  0  0  0  0  0  0  0  0  0
   10.7048   14.2921   24.3683 O   0  0  0  0  0  0  0  0  0  0  0  0
   11.6027   13.0831   22.6482 O   0  0  0  0  0  0  0  0  0  0  0  0
    3.7770   13.3975   29.2579 F   0  0  0  0  0  0  0  0  0  0  0  0
    7.8100   12.2506   27.6725 H   0  0  0  0  0  0  0  0  0  0  0  0
    6.3747   13.4326   29.3149 H   0  0  0  0  0  0  0  0  0  0  0  0
    4.2225   10.8703   25.7398 H   0  0  0  0  0  0  0  0  0  0  0  0
    7.5864   13.1733   23.9337 H   0  0  0  0  0  0  0  0  0  0  0  0
    8.7040   13.0563   25.3101 H   0  0  0  0  0  0  0  0  0  0  0  0
   10.2763    9.6683   23.3307 H   0  0  0  0  0  0  0  0  0  0  0  0
    9.0010    9.3782   22.1369 H   0  0  0  0  0  0  0  0  0  0  0  0
   10.4489   11.5516   21.8661 H   0  0  0  0  0  0  0  0  0  0  0  0
    8.6982   11.7001   21.6993 H   0  0  0  0  0  0  0  0  0  0  0  0
   11.5742   15.7265   23.1404 H   0  0  0  0  0  0  0  0  0  0  0  0
   13.2522   15.1406   23.0878 H   0  0  0  0  0  0  0  0  0  0  0  0
   12.6083   16.1774   21.7962 H   0  0  0  0  0  0  0  0  0  0  0  0
   12.6772   12.7263   20.2359 H   0  0  0  0  0  0  0  0  0  0  0  0
   13.8839   13.3008   21.3729 H   0  0  0  0  0  0  0  0  0  0  0  0
   13.3220   14.3746   20.0725 H   0  0  0  0  0  0  0  0  0  0  0  0
   10.3007   13.5444   20.3526 H   0  0  0  0  0  0  0  0  0  0  0  0
    9.8182   14.7623   21.5531 H   0  0  0  0  0  0  0  0  0  0  0  0
   10.8283   15.2070   20.1587 H   0  0  0  0  0  0  0  0  0  0  0  0
    6.2749    8.7416   25.9098 H   0  0  0  0  0  0  0  0  0  0  0  0
  1  2  1  0  0  0  0
  1  4  2  0  0  0  0
  2  8  2  0  0  0  0
  3  4  1  0  0  0  0
  3 17  2  0  0  0  0
  4  6  1  0  0  0  0
  5  6  2  0  0  0  0
  5  7  1  0  0  0  0
  5 10  1  0  0  0  0
  6 19  1  0  0  0  0
  7 11  1  0  0  0  0
  7 18  2  0  0  0  0
  8 17  1  0  0  0  0
  8 23  1  0  0  0  0
  9 20  1  0  0  0  0
  9 21  2  0  0  0  0
  9 22  1  0  0  0  0
 10 20  1  0  0  0  0
 11 12  1  0  0  0  0
 12 20  1  0  0  0  0
 13 16  1  0  0  0  0
 14 16  1  0  0  0  0
 15 16  1  0  0  0  0
 16 22  1  0  0  0  0
 18 19  1  0  0  0  0
  1 24  1  0  0  0  0
  2 25  1  0  0  0  0
  3 26  1  0  0  0  0
 10 27  1  0  0  0  0
 10 28  1  0  0  0  0
 11 29  1  0  0  0  0
 11 30  1  0  0  0  0
 12 31  1  0  0  0  0
 12 32  1  0  0  0  0
 13 33  1  0  0  0  0
 13 34  1  0  0  0  0
 13 35  1  0  0  0  0
 14 36  1  0  0  0  0
 14 37  1  0  0  0  0
 14 38  1  0  0  0  0
 15 39  1  0  0  0  0
 15 40  1  0  0  0  0
 15 41  1  0  0  0  0
 19 42  1  0  0  0  0
M  END
> <id>
EN300-784379

> <smiles>
CC(C)(C)OC(=O)N1CCC2=NNC(=C2C1)C=3C=CC(F)=NC3

> <IUPAC Name>
tert-butyl 3-(6-fluoropyridin-3-yl)-2H,4H,5H,6H,7H-pyrazolo[4,3-c]pyridine-5-carboxylate

> <CAS>
2137910-93-9

> <URL>
https://www.enaminestore.com/catalog/EN300-784379

> <ROCS_ShapeQuery>
A71EV2A-x0451_0A_A71EV2A-x0310_0A_A71EV2A-x0416_0A_peptide

> <ROCS_TanimotoCombo>
0.522 

> <ROCS_ShapeTanimoto>
0.350 

> <ROCS_ColorTanimoto>
0.172 

> <ROCS_RefTversky>
0.310 

> <ROCS_RefColorTversky>
0.191 

> <ROCS_RefTverskyCombo>
0.501 

> <ROCS_FitTversky>
1.576 

> <ROCS_FitColorTversky>
0.634 

> <ROCS_FitTverskyCombo>
2.210 

> <ROCS_ColorScore>
-5.835

> <ROCS_Overlap>
2155.397

> <ROCS_Rank>
173                 

$$$$
untitled-dbase-103364_257
  -OEChem-11132313473D

 46 48  0     1  0  0  0  0  0999 V2000
    6.2721   11.0884   27.7260 C   0  0  0  0  0  0  0  0  0  0  0  0
    5.8027   11.7690   28.8439 C   0  0  0  0  0  0  0  0  0  0  0  0
    4.3922   11.8927   26.5113 C   0  0  0  0  0  0  0  0  0  0  0  0
    5.5593   11.1463   26.5336 C   0  0  0  0  0  0  0  0  0  0  0  0
    4.6248   12.4877   28.7182 C   0  0  0  0  0  0  0  0  0  0  0  0
    6.0289   10.4383   25.3353 C   0  0  0  0  0  0  0  0  0  0  0  0
    9.9844   13.5441   23.4109 C   0  0  0  0  0  0  0  0  0  0  0  0
    9.9723   10.0835   24.1217 C   0  0  0  0  0  0  0  0  0  0  0  0
    8.7533    9.5669   23.3318 C   0  0  0  0  0  0  0  0  0  0  0  0
    8.4048   11.2885   25.6508 C   0  0  0  0  0  0  0  0  0  0  0  0
    8.1227   11.9382   22.8598 C   0  0  0  0  0  0  0  0  0  0  0  0
    9.6412   11.4509   24.7499 C   0  0  2  0  0  0  0  0  0  0  0  0
    7.6106   10.5976   23.4117 C   0  0  2  0  0  0  0  0  0  0  0  0
   12.1333   14.9201   22.1202 C   0  0  0  0  0  0  0  0  0  0  0  0
   10.5216   15.2807   20.2277 C   0  0  0  0  0  0  0  0  0  0  0  0
   10.0332   16.2572   22.4896 C   0  0  0  0  0  0  0  0  0  0  0  0
   10.6639   15.0872   21.7359 C   0  0  0  0  0  0  0  0  0  0  0  0
    3.9048   12.5673   27.5767 N   0  0  0  0  0  0  0  0  0  0  0  0
    7.2814   10.7873   24.8382 N   0  0  0  0  0  0  0  0  0  0  0  0
    9.2794   12.3708   23.6558 N   0  0  0  0  0  0  0  0  0  0  0  0
    5.2807    9.5841   24.8655 O   0  0  0  0  0  0  0  0  0  0  0  0
   10.5617   14.2017   24.2738 O   0  0  0  0  0  0  0  0  0  0  0  0
    9.9625   13.8887   22.0851 O   0  0  0  0  0  0  0  0  0  0  0  0
    4.1602   13.1500   29.7888 F   0  0  0  0  0  0  0  0  0  0  0  0
    7.1936   10.5166   27.7947 H   0  0  0  0  0  0  0  0  0  0  0  0
    6.3422   11.7381   29.7836 H   0  0  0  0  0  0  0  0  0  0  0  0
    3.7927   11.9756   25.6099 H   0  0  0  0  0  0  0  0  0  0  0  0
   10.2400    9.3621   24.9027 H   0  0  0  0  0  0  0  0  0  0  0  0
   10.8411   10.1685   23.4581 H   0  0  0  0  0  0  0  0  0  0  0  0
    9.0360    9.3935   22.2867 H   0  0  0  0  0  0  0  0  0  0  0  0
    8.4261    8.6010   23.7348 H   0  0  0  0  0  0  0  0  0  0  0  0
    8.5944   10.5737   26.4593 H   0  0  0  0  0  0  0  0  0  0  0  0
    8.1113   12.2439   26.1007 H   0  0  0  0  0  0  0  0  0  0  0  0
    8.4375   11.8472   21.8140 H   0  0  0  0  0  0  0  0  0  0  0  0
    7.3525   12.7161   22.9152 H   0  0  0  0  0  0  0  0  0  0  0  0
   10.4935   11.8346   25.3189 H   0  0  0  0  0  0  0  0  0  0  0  0
    6.7355   10.2526   22.8524 H   0  0  0  0  0  0  0  0  0  0  0  0
   12.2397   14.7810   23.2020 H   0  0  0  0  0  0  0  0  0  0  0  0
   12.5880   14.0629   21.6130 H   0  0  0  0  0  0  0  0  0  0  0  0
   12.7085   15.8178   21.8660 H   0  0  0  0  0  0  0  0  0  0  0  0
    9.4689   15.4010   19.9474 H   0  0  0  0  0  0  0  0  0  0  0  0
   10.8869   14.4012   19.6852 H   0  0  0  0  0  0  0  0  0  0  0  0
   11.0757   16.1581   19.8789 H   0  0  0  0  0  0  0  0  0  0  0  0
    8.9792   16.3773   22.2140 H   0  0  0  0  0  0  0  0  0  0  0  0
   10.0932   16.1178   23.5738 H   0  0  0  0  0  0  0  0  0  0  0  0
   10.5295   17.1998   22.2317 H   0  0  0  0  0  0  0  0  0  0  0  0
  1  2  1  0  0  0  0
  1  4  2  0  0  0  0
  2  5  2  0  0  0  0
  3  4  1  0  0  0  0
  3 18  2  0  0  0  0
  4  6  1  0  0  0  0
  5 18  1  0  0  0  0
  5 24  1  0  0  0  0
  6 19  1  0  0  0  0
  6 21  2  0  0  0  0
  7 20  1  0  0  0  0
  7 22  2  0  0  0  0
  7 23  1  0  0  0  0
  8  9  1  0  0  0  0
  8 12  1  0  0  0  0
  9 13  1  0  0  0  0
 10 12  1  0  0  0  0
 10 19  1  0  0  0  0
 11 13  1  0  0  0  0
 11 20  1  0  0  0  0
 12 20  1  0  0  0  0
 13 19  1  0  0  0  0
 14 17  1  0  0  0  0
 15 17  1  0  0  0  0
 16 17  1  0  0  0  0
 17 23  1  0  0  0  0
  1 25  1  0  0  0  0
  2 26  1  0  0  0  0
  3 27  1  0  0  0  0
  8 28  1  0  0  0  0
  8 29  1  0  0  0  0
  9 30  1  0  0  0  0
  9 31  1  0  0  0  0
 10 32  1  0  0  0  0
 10 33  1  0  0  0  0
 11 34  1  0  0  0  0
 11 35  1  0  0  0  0
 12 36  1  0  0  0  0
 13 37  1  0  0  0  0
 14 38  1  0  0  0  0
 14 39  1  0  0  0  0
 14 40  1  0  0  0  0
 15 41  1  0  0  0  0
 15 42  1  0  0  0  0
 15 43  1  0  0  0  0
 16 44  1  0  0  0  0
 16 45  1  0  0  0  0
 16 46  1  0  0  0  0
M  END
> <id>
EN300-6678567

> <smiles>
CC(C)(C)OC(=O)N1CC2CCC1CN2C(=O)C=3C=CC(F)=NC3

> <IUPAC Name>
tert-butyl 5-(6-fluoropyridine-3-carbonyl)-2,5-diazabicyclo[2.2.2]octane-2-carboxylate

> <CAS>
2094517-91-4

> <URL>
https://www.enaminestore.com/catalog/EN300-6678567

> <ROCS_ShapeQuery>
A71EV2A-x0451_0A_A71EV2A-x0310_0A_A71EV2A-x0416_0A_peptide

> <ROCS_TanimotoCombo>
0.522 

> <ROCS_ShapeTanimoto>
0.311 

> <ROCS_ColorTanimoto>
0.211 

> <ROCS_RefTversky>
0.285 

> <ROCS_RefColorTversky>
0.243 

> <ROCS_RefTverskyCombo>
0.528 

> <ROCS_FitTversky>
1.414 

> <ROCS_FitColorTversky>
0.615 

> <ROCS_FitTverskyCombo>
2.029 

> <ROCS_ColorScore>
-7.440

> <ROCS_Overlap>
1983.526

> <ROCS_Rank>
174                 

$$$$
untitled-dbase-177378_13
  -OEChem-11132313473D

 25 26  0     0  0  0  0  0  0999 V2000
    7.6802   10.9249   24.5685 C   0  0  0  0  0  0  0  0  0  0  0  0
    8.4279   12.0797   24.3982 C   0  0  0  0  0  0  0  0  0  0  0  0
    6.3983   12.3078   25.6720 C   0  0  0  0  0  0  0  0  0  0  0  0
    5.3147   12.7857   26.4619 C   0  0  0  0  0  0  0  0  0  0  0  0
   10.4652   13.2239   23.4899 C   0  0  0  0  0  0  0  0  0  0  0  0
    8.0554    9.6149   23.9713 C   0  0  0  0  0  0  0  0  0  0  0  0
    9.5326    9.6159   23.5668 C   0  0  0  0  0  0  0  0  0  0  0  0
    9.9269   10.9153   22.8494 C   0  0  0  0  0  0  0  0  0  0  0  0
   11.1245   13.4993   22.1628 C   0  0  0  0  0  0  0  0  0  0  0  0
    6.5257   11.0505   25.3124 N   0  0  0  0  0  0  0  0  0  0  0  0
    9.6087   12.1296   23.6431 N   0  0  0  0  0  0  0  0  0  0  0  0
    4.6781   12.1378   27.3255 O   0  0  0  0  0  0  0  0  0  0  0  0
   10.6696   14.0355   24.4035 O   0  0  0  0  0  0  0  0  0  0  0  0
    4.9815   14.0933   26.2073 O   0  0  0  0  0  0  0  0  0  0  0  0
   10.7577   12.5761   21.2592 F   0  0  0  0  0  0  0  0  0  0  0  0
   10.7670   14.7101   21.7047 F   0  0  0  0  0  0  0  0  0  0  0  0
   12.4615   13.4680   22.2860 F   0  0  0  0  0  0  0  0  0  0  0  0
    7.6242   13.3778   25.1343 S   0  0  0  0  0  0  0  0  0  0  0  0
    7.8640    8.7995   24.6814 H   0  0  0  0  0  0  0  0  0  0  0  0
    7.4272    9.4330   23.0882 H   0  0  0  0  0  0  0  0  0  0  0  0
   10.1559    9.5041   24.4622 H   0  0  0  0  0  0  0  0  0  0  0  0
    9.7403    8.7558   22.9226 H   0  0  0  0  0  0  0  0  0  0  0  0
   10.9941   10.8788   22.6316 H   0  0  0  0  0  0  0  0  0  0  0  0
    9.3866   11.0028   21.9032 H   0  0  0  0  0  0  0  0  0  0  0  0
    5.5311   14.5228   25.5175 H   0  0  0  0  0  0  0  0  0  0  0  0
  1  2  2  0  0  0  0
  1  6  1  0  0  0  0
  1 10  1  0  0  0  0
  2 11  1  0  0  0  0
  2 18  1  0  0  0  0
  3  4  1  0  0  0  0
  3 10  2  0  0  0  0
  3 18  1  0  0  0  0
  4 12  2  0  0  0  0
  4 14  1  0  0  0  0
  5  9  1  0  0  0  0
  5 11  1  0  0  0  0
  5 13  2  0  0  0  0
  6  7  1  0  0  0  0
  7  8  1  0  0  0  0
  8 11  1  0  0  0  0
  9 15  1  0  0  0  0
  9 16  1  0  0  0  0
  9 17  1  0  0  0  0
  6 19  1  0  0  0  0
  6 20  1  0  0  0  0
  7 21  1  0  0  0  0
  7 22  1  0  0  0  0
  8 23  1  0  0  0  0
  8 24  1  0  0  0  0
 14 25  1  0  0  0  0
M  END
> <id>
EN300-45377287

> <smiles>
OC(=O)C1=NC=2CCCN(C(=O)C(F)(F)F)C2S1

> <IUPAC Name>
4-(2,2,2-trifluoroacetyl)-4H,5H,6H,7H-[1,3]thiazolo[5,4-b]pyridine-2-carboxylic acid

> <URL>
https://www.enaminestore.com/catalog/EN300-45377287

> <ROCS_ShapeQuery>
A71EV2A-x0451_0A_A71EV2A-x0310_0A_A71EV2A-x0416_0A_peptide

> <ROCS_TanimotoCombo>
0.522 

> <ROCS_ShapeTanimoto>
0.332 

> <ROCS_ColorTanimoto>
0.190 

> <ROCS_RefTversky>
0.290 

> <ROCS_RefColorTversky>
0.203 

> <ROCS_RefTverskyCombo>
0.493 

> <ROCS_FitTversky>
1.768 

> <ROCS_FitColorTversky>
0.750 

> <ROCS_FitTverskyCombo>
2.518 

> <ROCS_ColorScore>
-6.192

> <ROCS_Overlap>
2010.149

> <ROCS_Rank>
175                 

$$$$
untitled-dbase-69570_47
  -OEChem-11132313473D

 37 39  0     1  0  0  0  0  0999 V2000
   10.3616   13.6320   23.2563 C   0  0  0  0  0  0  0  0  0  0  0  0
    6.6716   10.2766   25.7730 C   0  0  0  0  0  0  0  0  0  0  0  0
    7.0704   11.6778   26.2656 C   0  0  0  0  0  0  0  0  0  0  0  0
    9.4255   10.1484   22.9638 C   0  0  0  0  0  0  0  0  0  0  0  0
    9.4512   12.4546   23.1862 C   0  0  2  0  0  0  0  0  0  0  0  0
    7.2750   10.5934   24.4012 C   0  0  1  0  0  0  0  0  0  0  0  0
    7.4523   12.0548   24.8257 C   0  0  2  0  0  0  0  0  0  0  0  0
    8.8096   10.4303   24.3288 C   0  0  2  0  0  0  0  0  0  0  0  0
    8.9591   11.9495   24.5357 C   0  0  1  0  0  0  0  0  0  0  0  0
   13.1210   13.5507   22.5666 C   0  0  0  0  0  0  0  0  0  0  0  0
   12.4457   14.7760   20.4805 C   0  0  0  0  0  0  0  0  0  0  0  0
   12.0871   15.8398   22.7272 C   0  0  0  0  0  0  0  0  0  0  0  0
   12.1173   14.5243   21.9505 C   0  0  0  0  0  0  0  0  0  0  0  0
   10.2028   11.3400   22.5954 N   0  0  0  0  0  0  0  0  0  0  0  0
   10.6415   14.2209   24.2916 O   0  0  0  0  0  0  0  0  0  0  0  0
   10.8156   13.9323   22.0062 O   0  0  0  0  0  0  0  0  0  0  0  0
    7.1343    9.4476   26.3163 H   0  0  0  0  0  0  0  0  0  0  0  0
    5.5891   10.1143   25.7490 H   0  0  0  0  0  0  0  0  0  0  0  0
    6.2347   12.2569   26.6664 H   0  0  0  0  0  0  0  0  0  0  0  0
    7.8867   11.6931   26.9910 H   0  0  0  0  0  0  0  0  0  0  0  0
   10.0959    9.2845   23.0300 H   0  0  0  0  0  0  0  0  0  0  0  0
    8.6667    9.9284   22.2084 H   0  0  0  0  0  0  0  0  0  0  0  0
    8.6113   12.7223   22.5273 H   0  0  0  0  0  0  0  0  0  0  0  0
    6.6753   10.3995   23.5127 H   0  0  0  0  0  0  0  0  0  0  0  0
    6.8520   12.8021   24.3114 H   0  0  0  0  0  0  0  0  0  0  0  0
    9.2337    9.8071   25.1283 H   0  0  0  0  0  0  0  0  0  0  0  0
    9.5989   12.2424   25.3778 H   0  0  0  0  0  0  0  0  0  0  0  0
   12.8887   13.3674   23.6218 H   0  0  0  0  0  0  0  0  0  0  0  0
   13.1271   12.5907   22.0401 H   0  0  0  0  0  0  0  0  0  0  0  0
   14.1349   13.9660   22.5410 H   0  0  0  0  0  0  0  0  0  0  0  0
   11.7281   15.4740   20.0344 H   0  0  0  0  0  0  0  0  0  0  0  0
   12.3756   13.8486   19.9006 H   0  0  0  0  0  0  0  0  0  0  0  0
   13.4526   15.1874   20.3562 H   0  0  0  0  0  0  0  0  0  0  0  0
   11.3673   16.5383   22.2855 H   0  0  0  0  0  0  0  0  0  0  0  0
   11.8168   15.6825   23.7765 H   0  0  0  0  0  0  0  0  0  0  0  0
   13.0632   16.3369   22.6898 H   0  0  0  0  0  0  0  0  0  0  0  0
   11.1546   11.2859   22.9406 H   0  0  0  0  0  0  0  0  0  0  0  0
  1  5  1  0  0  0  0
  1 15  2  0  0  0  0
  1 16  1  0  0  0  0
  2  3  1  0  0  0  0
  2  6  1  0  0  0  0
  3  7  1  0  0  0  0
  4  8  1  0  0  0  0
  4 14  1  0  0  0  0
  5  9  1  0  0  0  0
  5 14  1  0  0  0  0
  6  7  1  0  0  0  0
  6  8  1  0  0  0  0
  7  9  1  0  0  0  0
  8  9  1  0  0  0  0
 10 13  1  0  0  0  0
 11 13  1  0  0  0  0
 12 13  1  0  0  0  0
 13 16  1  0  0  0  0
  2 17  1  0  0  0  0
  2 18  1  0  0  0  0
  3 19  1  0  0  0  0
  3 20  1  0  0  0  0
  4 21  1  0  0  0  0
  4 22  1  0  0  0  0
  5 23  1  0  0  0  0
  6 24  1  0  0  0  0
  7 25  1  0  0  0  0
  8 26  1  0  0  0  0
  9 27  1  0  0  0  0
 10 28  1  0  0  0  0
 10 29  1  0  0  0  0
 10 30  1  0  0  0  0
 11 31  1  0  0  0  0
 11 32  1  0  0  0  0
 11 33  1  0  0  0  0
 12 34  1  0  0  0  0
 12 35  1  0  0  0  0
 12 36  1  0  0  0  0
 14 37  1  0  0  0  0
M  END
> <id>
EN300-37419436

> <smiles>
CC(C)(C)OC(=O)C1NCC2C3CCC3C21

> <IUPAC Name>
tert-butyl 8-azatricyclo[4.3.0.0,2,5]nonane-7-carboxylate

> <URL>
https://www.enaminestore.com/catalog/EN300-37419436

> <ROCS_ShapeQuery>
A71EV2A-x0451_0A_A71EV2A-x0310_0A_A71EV2A-x0416_0A_peptide

> <ROCS_TanimotoCombo>
0.522 

> <ROCS_ShapeTanimoto>
0.301 

> <ROCS_ColorTanimoto>
0.221 

> <ROCS_RefTversky>
0.266 

> <ROCS_RefColorTversky>
0.271 

> <ROCS_RefTverskyCombo>
0.538 

> <ROCS_FitTversky>
1.766 

> <ROCS_FitColorTversky>
0.542 

> <ROCS_FitTverskyCombo>
2.308 

> <ROCS_ColorScore>
-8.372

> <ROCS_Overlap>
1846.096

> <ROCS_Rank>
176                 

$$$$
untitled-dbase-148463_19
  -OEChem-11132313473D

 34 35  0     0  0  0  0  0  0999 V2000
    9.9736    9.4388   23.1293 C   0  0  0  0  0  0  0  0  0  0  0  0
    9.7393    8.0741   23.2658 C   0  0  0  0  0  0  0  0  0  0  0  0
    7.7495    8.5645   24.5452 C   0  0  0  0  0  0  0  0  0  0  0  0
    9.0877   10.3653   23.7062 C   0  0  0  0  0  0  0  0  0  0  0  0
    7.9598    9.9360   24.4244 C   0  0  0  0  0  0  0  0  0  0  0  0
    8.6258    7.6369   23.9745 C   0  0  0  0  0  0  0  0  0  0  0  0
    9.2644   11.7425   23.6070 C   0  0  0  0  0  0  0  0  0  0  0  0
    7.3873   12.1216   24.8134 C   0  0  0  0  0  0  0  0  0  0  0  0
   11.0536   13.4384   23.1235 C   0  0  0  0  0  0  0  0  0  0  0  0
   12.0649   15.9490   22.1998 C   0  0  0  0  0  0  0  0  0  0  0  0
   13.2223   14.6159   20.4131 C   0  0  0  0  0  0  0  0  0  0  0  0
   10.7138   14.6272   20.5378 C   0  0  0  0  0  0  0  0  0  0  0  0
   12.0119   14.6858   21.3417 C   0  0  0  0  0  0  0  0  0  0  0  0
    7.1061   10.8134   24.9804 N   0  0  0  0  0  0  0  0  0  0  0  0
    8.4297   12.6482   24.1509 N   0  0  0  0  0  0  0  0  0  0  0  0
   10.3682   12.2527   22.9043 N   0  0  0  0  0  0  0  0  0  0  0  0
   10.8272   14.2816   23.9827 O   0  0  0  0  0  0  0  0  0  0  0  0
    6.5087   13.0136   25.3833 O   0  0  0  0  0  0  0  0  0  0  0  0
   12.0649   13.5450   22.2062 O   0  0  0  0  0  0  0  0  0  0  0  0
    8.2963    5.7853   24.1664 Br  0  0  0  0  0  0  0  0  0  0  0  0
   10.8505    9.7562   22.5707 H   0  0  0  0  0  0  0  0  0  0  0  0
   10.4314    7.3682   22.8150 H   0  0  0  0  0  0  0  0  0  0  0  0
    6.8798    8.2130   25.0991 H   0  0  0  0  0  0  0  0  0  0  0  0
   11.1978   16.0029   22.8678 H   0  0  0  0  0  0  0  0  0  0  0  0
   12.9748   15.9860   22.8075 H   0  0  0  0  0  0  0  0  0  0  0  0
   12.0296   16.8483   21.5743 H   0  0  0  0  0  0  0  0  0  0  0  0
   13.1884   13.7110   19.7955 H   0  0  0  0  0  0  0  0  0  0  0  0
   14.1534   14.5620   20.9888 H   0  0  0  0  0  0  0  0  0  0  0  0
   13.2741   15.4860   19.7507 H   0  0  0  0  0  0  0  0  0  0  0  0
   10.6756   13.7212   19.9223 H   0  0  0  0  0  0  0  0  0  0  0  0
    9.8346   14.6391   21.1901 H   0  0  0  0  0  0  0  0  0  0  0  0
   10.6455   15.4743   19.8458 H   0  0  0  0  0  0  0  0  0  0  0  0
   10.7100   11.6769   22.1333 H   0  0  0  0  0  0  0  0  0  0  0  0
    6.8037   13.9153   25.2036 H   0  0  0  0  0  0  0  0  0  0  0  0
  1  2  1  0  0  0  0
  1  4  2  0  0  0  0
  2  6  2  0  0  0  0
  3  5  2  0  0  0  0
  3  6  1  0  0  0  0
  4  5  1  0  0  0  0
  4  7  1  0  0  0  0
  5 14  1  0  0  0  0
  6 20  1  0  0  0  0
  7 15  2  0  0  0  0
  7 16  1  0  0  0  0
  8 14  2  0  0  0  0
  8 15  1  0  0  0  0
  8 18  1  0  0  0  0
  9 16  1  0  0  0  0
  9 17  2  0  0  0  0
  9 19  1  0  0  0  0
 10 13  1  0  0  0  0
 11 13  1  0  0  0  0
 12 13  1  0  0  0  0
 13 19  1  0  0  0  0
  1 21  1  0  0  0  0
  2 22  1  0  0  0  0
  3 23  1  0  0  0  0
 10 24  1  0  0  0  0
 10 25  1  0  0  0  0
 10 26  1  0  0  0  0
 11 27  1  0  0  0  0
 11 28  1  0  0  0  0
 11 29  1  0  0  0  0
 12 30  1  0  0  0  0
 12 31  1  0  0  0  0
 12 32  1  0  0  0  0
 16 33  1  0  0  0  0
 18 34  1  0  0  0  0
M  END
> <id>
EN300-27784114

> <smiles>
CC(C)(C)OC(=O)NC=1N=C(O)N=C2C=C(Br)C=CC12

> <IUPAC Name>
tert-butyl N-(7-bromo-2-hydroxyquinazolin-4-yl)carbamate

> <CAS>
2639439-52-2

> <URL>
https://www.enaminestore.com/catalog/EN300-27784114

> <ROCS_ShapeQuery>
A71EV2A-x0451_0A_A71EV2A-x0310_0A_A71EV2A-x0416_0A_peptide

> <ROCS_TanimotoCombo>
0.522 

> <ROCS_ShapeTanimoto>
0.359 

> <ROCS_ColorTanimoto>
0.163 

> <ROCS_RefTversky>
0.310 

> <ROCS_RefColorTversky>
0.191 

> <ROCS_RefTverskyCombo>
0.502 

> <ROCS_FitTversky>
1.765 

> <ROCS_FitColorTversky>
0.527 

> <ROCS_FitTverskyCombo>
2.292 

> <ROCS_ColorScore>
-5.857

> <ROCS_Overlap>
2153.903

> <ROCS_Rank>
177                 

$$$$
untitled-dbase-146567_622
  -OEChem-11132313473D

 38 39  0     1  0  0  0  0  0999 V2000
   10.5639   13.8528   23.0968 C   0  0  0  0  0  0  0  0  0  0  0  0
    9.7160   10.3411   22.5527 C   0  0  0  0  0  0  0  0  0  0  0  0
    8.2578   12.3618   24.3349 C   0  0  0  0  0  0  0  0  0  0  0  0
    8.9881   10.0702   23.9013 C   0  0  1  0  0  0  0  0  0  0  0  0
    9.4985   11.4598   24.3829 C   0  0  1  0  0  0  0  0  0  0  0  0
   10.5901   11.3699   23.2898 C   0  0  2  0  0  0  0  0  0  0  0  0
    7.1190   11.4052   24.6758 C   0  0  1  0  0  0  0  0  0  0  0  0
    7.4630   10.1416   23.8874 C   0  0  2  0  0  0  0  0  0  0  0  0
   13.0432   14.9301   22.1791 C   0  0  0  0  0  0  0  0  0  0  0  0
   11.6487   16.6876   21.0496 C   0  0  0  0  0  0  0  0  0  0  0  0
   11.6090   16.4769   23.5520 C   0  0  0  0  0  0  0  0  0  0  0  0
   11.7376   15.7223   22.2296 C   0  0  0  0  0  0  0  0  0  0  0  0
   10.6434   12.6064   22.5250 N   0  0  0  0  0  0  0  0  0  0  0  0
   10.4408   14.0919   24.2936 O   0  0  0  0  0  0  0  0  0  0  0  0
    7.0841   11.1666   26.0794 O   0  0  0  0  0  0  0  0  0  0  0  0
    6.9089    8.9775   24.4752 O   0  0  0  0  0  0  0  0  0  0  0  0
   10.6434   14.8049   22.1198 O   0  0  0  0  0  0  0  0  0  0  0  0
   10.2559    9.4838   22.1402 H   0  0  0  0  0  0  0  0  0  0  0  0
    9.0822   10.7646   21.7646 H   0  0  0  0  0  0  0  0  0  0  0  0
    8.3457   13.1844   25.0513 H   0  0  0  0  0  0  0  0  0  0  0  0
    8.1134   12.7767   23.3310 H   0  0  0  0  0  0  0  0  0  0  0  0
    9.4164    9.2365   24.4716 H   0  0  0  0  0  0  0  0  0  0  0  0
    9.9125   11.4334   25.3999 H   0  0  0  0  0  0  0  0  0  0  0  0
   11.5266   11.0311   23.6046 H   0  0  0  0  0  0  0  0  0  0  0  0
    6.1328   11.8143   24.3860 H   0  0  0  0  0  0  0  0  0  0  0  0
    7.0909   10.2218   22.8606 H   0  0  0  0  0  0  0  0  0  0  0  0
   13.1108   14.2359   23.0244 H   0  0  0  0  0  0  0  0  0  0  0  0
   13.1315   14.3567   21.2505 H   0  0  0  0  0  0  0  0  0  0  0  0
   13.9089   15.5976   22.2573 H   0  0  0  0  0  0  0  0  0  0  0  0
   10.7135   17.2582   21.0818 H   0  0  0  0  0  0  0  0  0  0  0  0
   11.6451   16.1425   20.0988 H   0  0  0  0  0  0  0  0  0  0  0  0
   12.4854   17.3936   21.0413 H   0  0  0  0  0  0  0  0  0  0  0  0
   10.6725   17.0452   23.5885 H   0  0  0  0  0  0  0  0  0  0  0  0
   11.6335   15.7959   24.4090 H   0  0  0  0  0  0  0  0  0  0  0  0
   12.4185   17.2072   23.6642 H   0  0  0  0  0  0  0  0  0  0  0  0
   10.7441   12.5451   21.5211 H   0  0  0  0  0  0  0  0  0  0  0  0
    6.3469   10.5566   26.2383 H   0  0  0  0  0  0  0  0  0  0  0  0
    7.2355    8.9375   25.3900 H   0  0  0  0  0  0  0  0  0  0  0  0
  1 13  1  0  0  0  0
  1 14  2  0  0  0  0
  1 17  1  0  0  0  0
  2  4  1  1  0  0  0
  2  6  1  0  0  0  0
  3  5  1  1  0  0  0
  3  7  1  0  0  0  0
  4  5  1  0  0  0  0
  4  8  1  0  0  0  0
  5  6  1  0  0  0  0
  6 13  1  1  0  0  0
  7  8  1  0  0  0  0
  7 15  1  6  0  0  0
  8 16  1  6  0  0  0
  9 12  1  0  0  0  0
 10 12  1  0  0  0  0
 11 12  1  0  0  0  0
 12 17  1  0  0  0  0
  2 18  1  0  0  0  0
  2 19  1  0  0  0  0
  3 20  1  0  0  0  0
  3 21  1  0  0  0  0
  4 22  1  0  0  0  0
  5 23  1  0  0  0  0
  6 24  1  0  0  0  0
  7 25  1  0  0  0  0
  8 26  1  0  0  0  0
  9 27  1  0  0  0  0
  9 28  1  0  0  0  0
  9 29  1  0  0  0  0
 10 30  1  0  0  0  0
 10 31  1  0  0  0  0
 10 32  1  0  0  0  0
 11 33  1  0  0  0  0
 11 34  1  0  0  0  0
 11 35  1  0  0  0  0
 13 36  1  0  0  0  0
 15 37  1  0  0  0  0
 16 38  1  0  0  0  0
M  END
> <id>
EN300-28228707

> <smiles>
CC(C)(C)OC(=O)N[C@@H]1C[C@H]2[C@@H]1C[C@H](O)[C@@H]2O |&1:8,10,11,13,15,r|

> <IUPAC Name>
rac-tert-butyl N-[(1R,2S,3R,5R,6S)-2,3-dihydroxybicyclo[3.2.0]heptan-6-yl]carbamate

> <CAS>
2639391-89-0

> <URL>
https://www.enaminestore.com/catalog/EN300-28228707

> <ROCS_ShapeQuery>
A71EV2A-x0451_0A_A71EV2A-x0310_0A_A71EV2A-x0416_0A_peptide

> <ROCS_TanimotoCombo>
0.522 

> <ROCS_ShapeTanimoto>
0.302 

> <ROCS_ColorTanimoto>
0.219 

> <ROCS_RefTversky>
0.268 

> <ROCS_RefColorTversky>
0.257 

> <ROCS_RefTverskyCombo>
0.525 

> <ROCS_FitTversky>
1.738 

> <ROCS_FitColorTversky>
0.599 

> <ROCS_FitTverskyCombo>
2.337 

> <ROCS_ColorScore>
-7.897

> <ROCS_Overlap>
1858.192

> <ROCS_Rank>
178                 

$$$$
untitled-dbase-153967_21
  -OEChem-11132313473D

 31 32  0     0  0  0  0  0  0999 V2000
    8.0347   12.7632   24.7268 C   0  0  0  0  0  0  0  0  0  0  0  0
    7.0623   10.2214   25.4395 C   0  0  0  0  0  0  0  0  0  0  0  0
    8.6380   11.6106   24.2142 C   0  0  0  0  0  0  0  0  0  0  0  0
    8.1406   10.3655   24.5801 C   0  0  0  0  0  0  0  0  0  0  0  0
    9.7117   11.3147   23.3472 C   0  0  0  0  0  0  0  0  0  0  0  0
    6.9599   12.5482   25.5814 C   0  0  0  0  0  0  0  0  0  0  0  0
   10.8612   13.5423   23.1818 C   0  0  0  0  0  0  0  0  0  0  0  0
   10.9846   16.3787   22.8370 C   0  0  0  0  0  0  0  0  0  0  0  0
   12.2367   15.8811   20.7171 C   0  0  0  0  0  0  0  0  0  0  0  0
    9.8675   15.0917   20.9849 C   0  0  0  0  0  0  0  0  0  0  0  0
   11.1862   15.3745   21.7030 C   0  0  0  0  0  0  0  0  0  0  0  0
    6.4739   11.3346   25.9390 N   0  0  0  0  0  0  0  0  0  0  0  0
    9.8896   10.0031   23.1709 N   0  0  0  0  0  0  0  0  0  0  0  0
    8.9250    9.4544   23.9288 N   0  0  0  0  0  0  0  0  0  0  0  0
   10.5268   12.2841   22.7197 N   0  0  0  0  0  0  0  0  0  0  0  0
   10.5170   14.0715   24.2315 O   0  0  0  0  0  0  0  0  0  0  0  0
   11.6722   14.1523   22.2594 O   0  0  0  0  0  0  0  0  0  0  0  0
    6.0884   14.0711   26.3180 Br  0  0  0  0  0  0  0  0  0  0  0  0
    8.3887   13.7549   24.4691 H   0  0  0  0  0  0  0  0  0  0  0  0
    6.6562    9.2649   25.7397 H   0  0  0  0  0  0  0  0  0  0  0  0
   10.2313   16.0187   23.5469 H   0  0  0  0  0  0  0  0  0  0  0  0
   11.9159   16.5637   23.3823 H   0  0  0  0  0  0  0  0  0  0  0  0
   10.6137   17.3351   22.4511 H   0  0  0  0  0  0  0  0  0  0  0  0
   12.3846   15.1637   19.9018 H   0  0  0  0  0  0  0  0  0  0  0  0
   13.2099   15.9952   21.2082 H   0  0  0  0  0  0  0  0  0  0  0  0
   11.9521   16.8451   20.2833 H   0  0  0  0  0  0  0  0  0  0  0  0
   10.0118   14.3715   20.1715 H   0  0  0  0  0  0  0  0  0  0  0  0
    9.1126   14.6925   21.6701 H   0  0  0  0  0  0  0  0  0  0  0  0
    9.4715   16.0038   20.5237 H   0  0  0  0  0  0  0  0  0  0  0  0
    8.8565    8.4447   23.9582 H   0  0  0  0  0  0  0  0  0  0  0  0
   10.9151   12.0231   21.8166 H   0  0  0  0  0  0  0  0  0  0  0  0
  1  3  2  0  0  0  0
  1  6  1  0  0  0  0
  2  4  2  0  0  0  0
  2 12  1  0  0  0  0
  3  4  1  0  0  0  0
  3  5  1  0  0  0  0
  4 14  1  0  0  0  0
  5 13  2  0  0  0  0
  5 15  1  0  0  0  0
  6 12  2  0  0  0  0
  6 18  1  0  0  0  0
  7 15  1  0  0  0  0
  7 16  2  0  0  0  0
  7 17  1  0  0  0  0
  8 11  1  0  0  0  0
  9 11  1  0  0  0  0
 10 11  1  0  0  0  0
 11 17  1  0  0  0  0
 13 14  1  0  0  0  0
  1 19  1  0  0  0  0
  2 20  1  0  0  0  0
  8 21  1  0  0  0  0
  8 22  1  0  0  0  0
  8 23  1  0  0  0  0
  9 24  1  0  0  0  0
  9 25  1  0  0  0  0
  9 26  1  0  0  0  0
 10 27  1  0  0  0  0
 10 28  1  0  0  0  0
 10 29  1  0  0  0  0
 14 30  1  0  0  0  0
 15 31  1  0  0  0  0
M  END
> <id>
EN300-28292532

> <smiles>
CC(C)(C)OC(=O)NC1=NNC=2C=NC(Br)=CC12

> <IUPAC Name>
tert-butyl N-{5-bromo-1H-pyrazolo[3,4-c]pyridin-3-yl}carbamate

> <CAS>
2680816-87-7

> <URL>
https://www.enaminestore.com/catalog/EN300-28292532

> <ROCS_ShapeQuery>
A71EV2A-x0451_0A_A71EV2A-x0310_0A_A71EV2A-x0416_0A_peptide

> <ROCS_TanimotoCombo>
0.522 

> <ROCS_ShapeTanimoto>
0.346 

> <ROCS_ColorTanimoto>
0.175 

> <ROCS_RefTversky>
0.299 

> <ROCS_RefColorTversky>
0.199 

> <ROCS_RefTverskyCombo>
0.498 

> <ROCS_FitTversky>
1.830 

> <ROCS_FitColorTversky>
0.598 

> <ROCS_FitTverskyCombo>
2.428 

> <ROCS_ColorScore>
-6.077

> <ROCS_Overlap>
2075.380

> <ROCS_Rank>
179                 

$$$$
untitled-dbase-37100_798
  -OEChem-11132313473D

 41 43  0     0  0  0  0  0  0999 V2000
    6.7552   12.8636   26.1207 C   0  0  0  0  0  0  0  0  0  0  0  0
    6.2561   11.5849   26.3410 C   0  0  0  0  0  0  0  0  0  0  0  0
    7.7931   13.0710   25.2047 C   0  0  0  0  0  0  0  0  0  0  0  0
    6.7868   10.5104   25.6370 C   0  0  0  0  0  0  0  0  0  0  0  0
    8.3647   11.9996   24.5021 C   0  0  0  0  0  0  0  0  0  0  0  0
    7.8286   10.7161   24.7255 C   0  0  0  0  0  0  0  0  0  0  0  0
    6.2271    9.1843   25.8686 C   0  0  0  0  0  0  0  0  0  0  0  0
   10.2556   13.2807   23.3880 C   0  0  0  0  0  0  0  0  0  0  0  0
   10.0773    8.5101   22.7448 C   0  0  0  0  0  0  0  0  0  0  0  0
   10.7251    9.1368   23.9467 C   0  0  0  0  0  0  0  0  0  0  0  0
    9.5816   11.0479   22.6003 C   0  0  0  0  0  0  0  0  0  0  0  0
    9.4914    9.7610   23.3459 C   0  0  0  0  0  0  0  0  0  0  0  0
   12.6991   14.5807   22.6463 C   0  0  0  0  0  0  0  0  0  0  0  0
   11.6535   14.8388   20.3771 C   0  0  0  0  0  0  0  0  0  0  0  0
   10.6014   15.9441   22.3720 C   0  0  0  0  0  0  0  0  0  0  0  0
   11.3874   14.7309   21.8770 C   0  0  0  0  0  0  0  0  0  0  0  0
    9.4139   12.1630   23.5351 N   0  0  0  0  0  0  0  0  0  0  0  0
    5.3073    8.9250   26.6481 O   0  0  0  0  0  0  0  0  0  0  0  0
   10.6049   13.9966   24.3272 O   0  0  0  0  0  0  0  0  0  0  0  0
    8.2657    9.5842   24.0760 O   0  0  0  0  0  0  0  0  0  0  0  0
    6.8355    8.2284   25.1165 O   0  0  0  0  0  0  0  0  0  0  0  0
   10.5960   13.5561   22.0916 O   0  0  0  0  0  0  0  0  0  0  0  0
    6.3453   13.7062   26.6701 H   0  0  0  0  0  0  0  0  0  0  0  0
    5.4587   11.4391   27.0655 H   0  0  0  0  0  0  0  0  0  0  0  0
    8.1356   14.0918   25.1001 H   0  0  0  0  0  0  0  0  0  0  0  0
   10.5956    8.5855   21.7961 H   0  0  0  0  0  0  0  0  0  0  0  0
    9.5474    7.5755   22.8880 H   0  0  0  0  0  0  0  0  0  0  0  0
   10.6289    8.6231   24.8954 H   0  0  0  0  0  0  0  0  0  0  0  0
   11.6780    9.6309   23.8032 H   0  0  0  0  0  0  0  0  0  0  0  0
   10.5628   11.1533   22.1320 H   0  0  0  0  0  0  0  0  0  0  0  0
    8.8270   11.0839   21.8142 H   0  0  0  0  0  0  0  0  0  0  0  0
   12.5124   14.5030   23.7234 H   0  0  0  0  0  0  0  0  0  0  0  0
   13.2560   13.6945   22.3251 H   0  0  0  0  0  0  0  0  0  0  0  0
   13.3376   15.4604   22.5060 H   0  0  0  0  0  0  0  0  0  0  0  0
   10.7151   14.9467   19.8212 H   0  0  0  0  0  0  0  0  0  0  0  0
   12.1331   13.9286   19.9993 H   0  0  0  0  0  0  0  0  0  0  0  0
   12.2964   15.6930   20.1412 H   0  0  0  0  0  0  0  0  0  0  0  0
    9.6605   16.0521   21.8203 H   0  0  0  0  0  0  0  0  0  0  0  0
   10.3693   15.8664   23.4391 H   0  0  0  0  0  0  0  0  0  0  0  0
   11.1657   16.8687   22.2047 H   0  0  0  0  0  0  0  0  0  0  0  0
    6.4652    7.3321   25.2640 H   0  0  0  0  0  0  0  0  0  0  0  0
  1  2  2  0  0  0  0
  1  3  1  0  0  0  0
  2  4  1  0  0  0  0
  3  5  2  0  0  0  0
  4  6  2  0  0  0  0
  4  7  1  0  0  0  0
  5  6  1  0  0  0  0
  5 17  1  0  0  0  0
  6 20  1  0  0  0  0
  7 18  2  0  0  0  0
  7 21  1  0  0  0  0
  8 17  1  0  0  0  0
  8 19  2  0  0  0  0
  8 22  1  0  0  0  0
  9 10  1  0  0  0  0
  9 12  1  0  0  0  0
 10 12  1  0  0  0  0
 11 12  1  0  0  0  0
 11 17  1  0  0  0  0
 12 20  1  0  0  0  0
 13 16  1  0  0  0  0
 14 16  1  0  0  0  0
 15 16  1  0  0  0  0
 16 22  1  0  0  0  0
  1 23  1  0  0  0  0
  2 24  1  0  0  0  0
  3 25  1  0  0  0  0
  9 26  1  0  0  0  0
  9 27  1  0  0  0  0
 10 28  1  0  0  0  0
 10 29  1  0  0  0  0
 11 30  1  0  0  0  0
 11 31  1  0  0  0  0
 13 32  1  0  0  0  0
 13 33  1  0  0  0  0
 13 34  1  0  0  0  0
 14 35  1  0  0  0  0
 14 36  1  0  0  0  0
 14 37  1  0  0  0  0
 15 38  1  0  0  0  0
 15 39  1  0  0  0  0
 15 40  1  0  0  0  0
 21 41  1  0  0  0  0
M  END
> <id>
EN300-1129128

> <smiles>
CC(C)(C)OC(=O)N1CC2(CC2)OC=3C(=CC=CC13)C(=O)O

> <IUPAC Name>
4-[(tert-butoxy)carbonyl]-3,4-dihydrospiro[1,4-benzoxazine-2,1'-cyclopropane]-8-carboxylic acid

> <CAS>
2138356-96-2

> <URL>
https://www.enaminestore.com/catalog/EN300-1129128

> <ROCS_ShapeQuery>
A71EV2A-x0451_0A_A71EV2A-x0310_0A_A71EV2A-x0416_0A_peptide

> <ROCS_TanimotoCombo>
0.521 

> <ROCS_ShapeTanimoto>
0.374 

> <ROCS_ColorTanimoto>
0.147 

> <ROCS_RefTversky>
0.324 

> <ROCS_RefColorTversky>
0.167 

> <ROCS_RefTverskyCombo>
0.491 

> <ROCS_FitTversky>
1.705 

> <ROCS_FitColorTversky>
0.553 

> <ROCS_FitTverskyCombo>
2.258 

> <ROCS_ColorScore>
-5.086

> <ROCS_Overlap>
2252.365

> <ROCS_Rank>
180                 

$$$$
untitled-dbase-152185_21
  -OEChem-11132313473D

 36 37  0     0  0  0  0  0  0999 V2000
    5.9059   11.9700   25.6588 C   0  0  0  0  0  0  0  0  0  0  0  0
    6.4648   10.7934   25.1765 C   0  0  0  0  0  0  0  0  0  0  0  0
    7.8382   13.1935   24.8618 C   0  0  0  0  0  0  0  0  0  0  0  0
    8.4273   12.0195   24.3681 C   0  0  0  0  0  0  0  0  0  0  0  0
    6.5937   13.1672   25.5038 C   0  0  0  0  0  0  0  0  0  0  0  0
    7.7173   10.8153   24.5502 C   0  0  0  0  0  0  0  0  0  0  0  0
   10.5098   13.1190   23.4699 C   0  0  0  0  0  0  0  0  0  0  0  0
   10.0335   10.6997   23.0634 C   0  0  0  0  0  0  0  0  0  0  0  0
    9.5777    9.5580   23.9449 C   0  0  0  0  0  0  0  0  0  0  0  0
   12.3853   15.1169   22.6163 C   0  0  0  0  0  0  0  0  0  0  0  0
   12.2347   14.0299   20.3569 C   0  0  0  0  0  0  0  0  0  0  0  0
   10.1922   15.0718   21.3821 C   0  0  0  0  0  0  0  0  0  0  0  0
   11.4953   14.3238   21.6604 C   0  0  0  0  0  0  0  0  0  0  0  0
    9.6806   11.9963   23.6597 N   0  0  0  0  0  0  0  0  0  0  0  0
    6.0215   14.3753   25.9853 N   0  3  0  0  0  0  0  0  0  0  0  0
    4.8992   14.3351   26.5443 O   0  5  0  0  0  0  0  0  0  0  0  0
   10.6590   14.0568   24.2480 O   0  0  0  0  0  0  0  0  0  0  0  0
    6.6545   15.4481   25.8376 O   0  0  0  0  0  0  0  0  0  0  0  0
    8.1664    9.5907   24.1203 O   0  0  0  0  0  0  0  0  0  0  0  0
   11.1784   13.0664   22.2699 O   0  0  0  0  0  0  0  0  0  0  0  0
    4.9364   11.9402   26.1490 H   0  0  0  0  0  0  0  0  0  0  0  0
    5.9269    9.8566   25.2976 H   0  0  0  0  0  0  0  0  0  0  0  0
    8.3054   14.1642   24.7435 H   0  0  0  0  0  0  0  0  0  0  0  0
   11.1138   10.6227   22.9074 H   0  0  0  0  0  0  0  0  0  0  0  0
    9.5427   10.6603   22.0833 H   0  0  0  0  0  0  0  0  0  0  0  0
    9.8274    8.6030   23.4707 H   0  0  0  0  0  0  0  0  0  0  0  0
   10.0746    9.5732   24.9235 H   0  0  0  0  0  0  0  0  0  0  0  0
   11.8582   15.3300   23.5532 H   0  0  0  0  0  0  0  0  0  0  0  0
   13.3075   14.5757   22.8515 H   0  0  0  0  0  0  0  0  0  0  0  0
   12.6542   16.0881   22.1852 H   0  0  0  0  0  0  0  0  0  0  0  0
   11.5998   13.4609   19.6680 H   0  0  0  0  0  0  0  0  0  0  0  0
   13.1208   13.4119   20.5416 H   0  0  0  0  0  0  0  0  0  0  0  0
   12.5520   14.9502   19.8560 H   0  0  0  0  0  0  0  0  0  0  0  0
    9.5537   14.5031   20.6965 H   0  0  0  0  0  0  0  0  0  0  0  0
    9.6301   15.2589   22.3028 H   0  0  0  0  0  0  0  0  0  0  0  0
   10.3911   16.0328   20.8941 H   0  0  0  0  0  0  0  0  0  0  0  0
  1  2  1  0  0  0  0
  1  5  2  0  0  0  0
  2  6  2  0  0  0  0
  3  4  2  0  0  0  0
  3  5  1  0  0  0  0
  4  6  1  0  0  0  0
  4 14  1  0  0  0  0
  5 15  1  0  0  0  0
  6 19  1  0  0  0  0
  7 14  1  0  0  0  0
  7 17  2  0  0  0  0
  7 20  1  0  0  0  0
  8  9  1  0  0  0  0
  8 14  1  0  0  0  0
  9 19  1  0  0  0  0
 10 13  1  0  0  0  0
 11 13  1  0  0  0  0
 12 13  1  0  0  0  0
 13 20  1  0  0  0  0
 15 16  1  0  0  0  0
 15 18  2  0  0  0  0
  1 21  1  0  0  0  0
  2 22  1  0  0  0  0
  3 23  1  0  0  0  0
  8 24  1  0  0  0  0
  8 25  1  0  0  0  0
  9 26  1  0  0  0  0
  9 27  1  0  0  0  0
 10 28  1  0  0  0  0
 10 29  1  0  0  0  0
 10 30  1  0  0  0  0
 11 31  1  0  0  0  0
 11 32  1  0  0  0  0
 11 33  1  0  0  0  0
 12 34  1  0  0  0  0
 12 35  1  0  0  0  0
 12 36  1  0  0  0  0
M  CHG  2  15   1  16  -1
M  END
> <id>
EN300-12447608

> <smiles>
CC(C)(C)OC(=O)N1CCOC=2C=CC(=CC12)[N+](=O)[O-]

> <MDLNUMBER>
MFCD21604082

> <IUPAC Name>
tert-butyl 6-nitro-3,4-dihydro-2H-1,4-benzoxazine-4-carboxylate

> <CAS>
928118-23-4

> <URL>
https://www.enaminestore.com/catalog/EN300-12447608

> <ROCS_ShapeQuery>
A71EV2A-x0451_0A_A71EV2A-x0310_0A_A71EV2A-x0416_0A_peptide

> <ROCS_TanimotoCombo>
0.521 

> <ROCS_ShapeTanimoto>
0.344 

> <ROCS_ColorTanimoto>
0.177 

> <ROCS_RefTversky>
0.301 

> <ROCS_RefColorTversky>
0.191 

> <ROCS_RefTverskyCombo>
0.493 

> <ROCS_FitTversky>
1.702 

> <ROCS_FitColorTversky>
0.706 

> <ROCS_FitTverskyCombo>
2.409 

> <ROCS_ColorScore>
-5.833

> <ROCS_Overlap>
2090.915

> <ROCS_Rank>
181                 

$$$$
untitled-dbase-39266_1746
  -OEChem-11132313473D

 61 63  0     1  0  0  0  0  0999 V2000
    7.0299   12.4510   25.6565 C   0  0  0  0  0  0  0  0  0  0  0  0
    6.8779    9.6943   25.3055 C   0  0  0  0  0  0  0  0  0  0  0  0
    6.1370   11.7019   26.4205 C   0  0  0  0  0  0  0  0  0  0  0  0
    7.7829   10.4370   24.5294 C   0  0  0  0  0  0  0  0  0  0  0  0
    7.8570   11.8225   24.7199 C   0  0  0  0  0  0  0  0  0  0  0  0
    6.0620   10.3231   26.2465 C   0  0  0  0  0  0  0  0  0  0  0  0
    5.2755   12.3662   27.3861 C   0  0  0  0  0  0  0  0  0  0  0  0
   11.6724   15.0919   22.4705 C   0  0  0  0  0  0  0  0  0  0  0  0
   10.9869   11.8697   24.1580 C   0  0  0  0  0  0  0  0  0  0  0  0
    9.2621   10.7637   22.5524 C   0  0  0  0  0  0  0  0  0  0  0  0
   11.5782   13.2733   24.2175 C   0  0  0  0  0  0  0  0  0  0  0  0
   10.2235   13.0735   22.2388 C   0  0  0  0  0  0  0  0  0  0  0  0
    8.6422    9.7379   23.5067 C   0  0  1  0  0  0  0  0  0  0  0  0
    9.7439   12.0314   23.2641 C   0  0  2  0  0  0  0  0  0  0  0  0
    4.3996   12.7122   30.1001 C   0  0  0  0  0  0  0  0  0  0  0  0
    6.2756   14.3714   30.2921 C   0  0  0  0  0  0  0  0  0  0  0  0
    4.3992   14.7867   28.6750 C   0  0  0  0  0  0  0  0  0  0  0  0
   14.0481   14.7327   21.4268 C   0  0  0  0  0  0  0  0  0  0  0  0
   12.9816   14.6008   19.1564 C   0  0  0  0  0  0  0  0  0  0  0  0
   13.1984   16.8217   20.3092 C   0  0  0  0  0  0  0  0  0  0  0  0
    5.2648   13.7229   29.3487 C   0  0  0  0  0  0  0  0  0  0  0  0
   12.9829   15.3214   20.5029 C   0  0  0  0  0  0  0  0  0  0  0  0
   11.1947   13.8867   22.9564 N   0  0  0  0  0  0  0  0  0  0  0  0
    9.6503    8.8863   24.1408 N   0  0  0  0  0  0  0  0  0  0  0  0
    4.0379   12.3383   27.3563 O   0  0  0  0  0  0  0  0  0  0  0  0
   12.0335   16.0280   23.1803 O   0  0  0  0  0  0  0  0  0  0  0  0
    8.6861   12.6530   24.0148 O   0  0  0  0  0  0  0  0  0  0  0  0
    6.0026   13.0282   28.3375 O   0  0  0  0  0  0  0  0  0  0  0  0
   11.6980   15.1189   21.1017 O   0  0  0  0  0  0  0  0  0  0  0  0
    5.2103    9.5901   26.9764 F   0  0  0  0  0  0  0  0  0  0  0  0
    7.0763   13.5316   25.7785 H   0  0  0  0  0  0  0  0  0  0  0  0
    6.8019    8.6173   25.1867 H   0  0  0  0  0  0  0  0  0  0  0  0
   11.7142   11.1873   23.6997 H   0  0  0  0  0  0  0  0  0  0  0  0
   10.7426   11.5042   25.1617 H   0  0  0  0  0  0  0  0  0  0  0  0
   10.1313   10.3080   22.0337 H   0  0  0  0  0  0  0  0  0  0  0  0
    8.5380   11.0173   21.7525 H   0  0  0  0  0  0  0  0  0  0  0  0
   11.1340   13.8655   25.0251 H   0  0  0  0  0  0  0  0  0  0  0  0
   12.6657   13.2764   24.3369 H   0  0  0  0  0  0  0  0  0  0  0  0
   10.7508   12.6107   21.3955 H   0  0  0  0  0  0  0  0  0  0  0  0
    9.4247   13.7167   21.8533 H   0  0  0  0  0  0  0  0  0  0  0  0
    7.9603    9.0740   22.9357 H   0  0  0  0  0  0  0  0  0  0  0  0
    3.6727   12.2445   29.4265 H   0  0  0  0  0  0  0  0  0  0  0  0
    5.0059   11.9242   30.5587 H   0  0  0  0  0  0  0  0  0  0  0  0
    3.8184   13.2045   30.8882 H   0  0  0  0  0  0  0  0  0  0  0  0
    6.8986   15.0973   29.7571 H   0  0  0  0  0  0  0  0  0  0  0  0
    6.9605   13.6220   30.7052 H   0  0  0  0  0  0  0  0  0  0  0  0
    5.7811   14.8847   31.1231 H   0  0  0  0  0  0  0  0  0  0  0  0
    5.0196   15.5118   28.1360 H   0  0  0  0  0  0  0  0  0  0  0  0
    3.6925   14.3424   27.9666 H   0  0  0  0  0  0  0  0  0  0  0  0
    3.8331   15.3575   29.4200 H   0  0  0  0  0  0  0  0  0  0  0  0
   14.0522   15.2473   22.3943 H   0  0  0  0  0  0  0  0  0  0  0  0
   13.8845   13.6644   21.6018 H   0  0  0  0  0  0  0  0  0  0  0  0
   15.0500   14.8645   21.0023 H   0  0  0  0  0  0  0  0  0  0  0  0
   12.2188   15.0200   18.4903 H   0  0  0  0  0  0  0  0  0  0  0  0
   12.7334   13.5406   19.2814 H   0  0  0  0  0  0  0  0  0  0  0  0
   13.9540   14.6730   18.6587 H   0  0  0  0  0  0  0  0  0  0  0  0
   12.4345   17.2442   19.6466 H   0  0  0  0  0  0  0  0  0  0  0  0
   13.1656   17.3601   21.2619 H   0  0  0  0  0  0  0  0  0  0  0  0
   14.1650   17.0180   19.8314 H   0  0  0  0  0  0  0  0  0  0  0  0
    9.1810    8.2520   24.7400 H   0  0  0  0  0  0  0  0  0  0  0  0
   10.1361    8.4040   23.4243 H   0  0  0  0  0  0  0  0  0  0  0  0
  1  3  1  0  0  0  0
  1  5  2  0  0  0  0
  2  4  2  0  0  0  0
  2  6  1  0  0  0  0
  3  6  2  0  0  0  0
  3  7  1  0  0  0  0
  4  5  1  0  0  0  0
  4 13  1  0  0  0  0
  5 27  1  0  0  0  0
  6 30  1  0  0  0  0
  7 25  2  0  0  0  0
  7 28  1  0  0  0  0
  8 23  1  0  0  0  0
  8 26  2  0  0  0  0
  8 29  1  0  0  0  0
  9 11  1  0  0  0  0
  9 14  1  0  0  0  0
 10 13  1  0  0  0  0
 10 14  1  0  0  0  0
 11 23  1  0  0  0  0
 12 14  1  0  0  0  0
 12 23  1  0  0  0  0
 13 24  1  0  0  0  0
 14 27  1  0  0  0  0
 15 21  1  0  0  0  0
 16 21  1  0  0  0  0
 17 21  1  0  0  0  0
 18 22  1  0  0  0  0
 19 22  1  0  0  0  0
 20 22  1  0  0  0  0
 21 28  1  0  0  0  0
 22 29  1  0  0  0  0
  1 31  1  0  0  0  0
  2 32  1  0  0  0  0
  9 33  1  0  0  0  0
  9 34  1  0  0  0  0
 10 35  1  0  0  0  0
 10 36  1  0  0  0  0
 11 37  1  0  0  0  0
 11 38  1  0  0  0  0
 12 39  1  0  0  0  0
 12 40  1  0  0  0  0
 13 41  1  0  0  0  0
 15 42  1  0  0  0  0
 15 43  1  0  0  0  0
 15 44  1  0  0  0  0
 16 45  1  0  0  0  0
 16 46  1  0  0  0  0
 16 47  1  0  0  0  0
 17 48  1  0  0  0  0
 17 49  1  0  0  0  0
 17 50  1  0  0  0  0
 18 51  1  0  0  0  0
 18 52  1  0  0  0  0
 18 53  1  0  0  0  0
 19 54  1  0  0  0  0
 19 55  1  0  0  0  0
 19 56  1  0  0  0  0
 20 57  1  0  0  0  0
 20 58  1  0  0  0  0
 20 59  1  0  0  0  0
 24 60  1  0  0  0  0
 24 61  1  0  0  0  0
M  END
> <id>
EN300-1129061

> <smiles>
CC(C)(C)OC(=O)N1CCC2(C1)CC(N)C=3C=C(F)C(=CC3O2)C(=O)OC(C)(C)C

> <IUPAC Name>
1',7-di-tert-butyl 4-amino-6-fluoro-3,4-dihydrospiro[1-benzopyran-2,3'-pyrrolidine]-1',7-dicarboxylate

> <CAS>
2137875-50-2

> <URL>
https://www.enaminestore.com/catalog/EN300-1129061

> <ROCS_ShapeQuery>
A71EV2A-x0451_0A_A71EV2A-x0310_0A_A71EV2A-x0416_0A_peptide

> <ROCS_TanimotoCombo>
0.521 

> <ROCS_ShapeTanimoto>
0.391 

> <ROCS_ColorTanimoto>
0.130 

> <ROCS_RefTversky>
0.348 

> <ROCS_RefColorTversky>
0.157 

> <ROCS_RefTverskyCombo>
0.505 

> <ROCS_FitTversky>
1.462 

> <ROCS_FitColorTversky>
0.434 

> <ROCS_FitTverskyCombo>
1.896 

> <ROCS_ColorScore>
-4.813

> <ROCS_Overlap>
2421.280

> <ROCS_Rank>
182                 

$$$$
untitled-dbase-148301_1024
  -OEChem-11132313473D

 40 41  0     0  0  0  0  0  0999 V2000
    7.0729   13.6893   26.0584 C   0  0  0  0  0  0  0  0  0  0  0  0
    8.2257   13.4190   25.3129 C   0  0  0  0  0  0  0  0  0  0  0  0
    6.1085   11.6486   25.2770 C   0  0  0  0  0  0  0  0  0  0  0  0
    6.0024   12.8151   26.0223 C   0  0  0  0  0  0  0  0  0  0  0  0
    7.2760   11.3456   24.5390 C   0  0  0  0  0  0  0  0  0  0  0  0
    8.3452   12.2801   24.4869 C   0  0  0  0  0  0  0  0  0  0  0  0
    4.7835   13.1137   26.7521 C   0  0  0  0  0  0  0  0  0  0  0  0
   10.5581   13.0672   23.5619 C   0  0  0  0  0  0  0  0  0  0  0  0
    7.3046    9.9771   23.9018 C   0  0  0  0  0  0  0  0  0  0  0  0
    9.5457   11.0022   22.6731 C   0  0  0  0  0  0  0  0  0  0  0  0
    9.5534    9.5919   23.2456 C   0  0  0  0  0  0  0  0  0  0  0  0
   12.6858   14.9195   22.9395 C   0  0  0  0  0  0  0  0  0  0  0  0
   12.7862   13.7613   20.7130 C   0  0  0  0  0  0  0  0  0  0  0  0
   10.6996   14.9816   21.3949 C   0  0  0  0  0  0  0  0  0  0  0  0
   11.8883   14.1553   21.8838 C   0  0  0  0  0  0  0  0  0  0  0  0
    9.5376   12.0851   23.6675 N   0  0  0  0  0  0  0  0  0  0  0  0
    4.0120   12.2759   27.2311 O   0  0  0  0  0  0  0  0  0  0  0  0
   10.7064   14.0381   24.3011 O   0  0  0  0  0  0  0  0  0  0  0  0
    8.5396    9.3465   24.2059 O   0  0  0  0  0  0  0  0  0  0  0  0
    4.5595   14.4517   26.8667 O   0  0  0  0  0  0  0  0  0  0  0  0
   11.3913   12.9443   22.4744 O   0  0  0  0  0  0  0  0  0  0  0  0
    7.0273   14.6025   26.6479 H   0  0  0  0  0  0  0  0  0  0  0  0
    9.0206   14.1676   25.3559 H   0  0  0  0  0  0  0  0  0  0  0  0
    5.2765   10.9433   25.2704 H   0  0  0  0  0  0  0  0  0  0  0  0
    6.5379    9.3541   24.3551 H   0  0  0  0  0  0  0  0  0  0  0  0
    7.1172   10.0272   22.8341 H   0  0  0  0  0  0  0  0  0  0  0  0
   10.4128   11.1138   21.9865 H   0  0  0  0  0  0  0  0  0  0  0  0
    8.6722   11.1564   21.9998 H   0  0  0  0  0  0  0  0  0  0  0  0
    9.4574    8.8534   22.4309 H   0  0  0  0  0  0  0  0  0  0  0  0
   10.5210    9.3880   23.7335 H   0  0  0  0  0  0  0  0  0  0  0  0
   12.0448   15.2041   23.7816 H   0  0  0  0  0  0  0  0  0  0  0  0
   13.5206   14.3243   23.3236 H   0  0  0  0  0  0  0  0  0  0  0  0
   13.0868   15.8525   22.5272 H   0  0  0  0  0  0  0  0  0  0  0  0
   12.2181   13.2127   19.9530 H   0  0  0  0  0  0  0  0  0  0  0  0
   13.5871   13.0903   21.0439 H   0  0  0  0  0  0  0  0  0  0  0  0
   13.2413   14.6376   20.2402 H   0  0  0  0  0  0  0  0  0  0  0  0
   10.1274   14.4336   20.6376 H   0  0  0  0  0  0  0  0  0  0  0  0
   10.0245   15.2422   22.2165 H   0  0  0  0  0  0  0  0  0  0  0  0
   11.0390   15.9072   20.9162 H   0  0  0  0  0  0  0  0  0  0  0  0
    3.7383   14.6640   27.3594 H   0  0  0  0  0  0  0  0  0  0  0  0
  1  2  1  0  0  0  0
  1  4  2  0  0  0  0
  2  6  2  0  0  0  0
  3  4  1  0  0  0  0
  3  5  2  0  0  0  0
  4  7  1  0  0  0  0
  5  6  1  0  0  0  0
  5  9  1  0  0  0  0
  6 16  1  0  0  0  0
  7 17  2  0  0  0  0
  7 20  1  0  0  0  0
  8 16  1  0  0  0  0
  8 18  2  0  0  0  0
  8 21  1  0  0  0  0
  9 19  1  0  0  0  0
 10 11  1  0  0  0  0
 10 16  1  0  0  0  0
 11 19  1  0  0  0  0
 12 15  1  0  0  0  0
 13 15  1  0  0  0  0
 14 15  1  0  0  0  0
 15 21  1  0  0  0  0
  1 22  1  0  0  0  0
  2 23  1  0  0  0  0
  3 24  1  0  0  0  0
  9 25  1  0  0  0  0
  9 26  1  0  0  0  0
 10 27  1  0  0  0  0
 10 28  1  0  0  0  0
 11 29  1  0  0  0  0
 11 30  1  0  0  0  0
 12 31  1  0  0  0  0
 12 32  1  0  0  0  0
 12 33  1  0  0  0  0
 13 34  1  0  0  0  0
 13 35  1  0  0  0  0
 13 36  1  0  0  0  0
 14 37  1  0  0  0  0
 14 38  1  0  0  0  0
 14 39  1  0  0  0  0
 20 40  1  0  0  0  0
M  END
> <id>
EN300-27782546

> <smiles>
CC(C)(C)OC(=O)N1CCOCC=2C=C(C=CC12)C(=O)O

> <IUPAC Name>
1-[(tert-butoxy)carbonyl]-1,2,3,5-tetrahydro-4,1-benzoxazepine-7-carboxylic acid

> <CAS>
2639460-61-8

> <URL>
https://www.enaminestore.com/catalog/EN300-27782546

> <ROCS_ShapeQuery>
A71EV2A-x0451_0A_A71EV2A-x0310_0A_A71EV2A-x0416_0A_peptide

> <ROCS_TanimotoCombo>
0.521 

> <ROCS_ShapeTanimoto>
0.348 

> <ROCS_ColorTanimoto>
0.173 

> <ROCS_RefTversky>
0.305 

> <ROCS_RefColorTversky>
0.192 

> <ROCS_RefTverskyCombo>
0.497 

> <ROCS_FitTversky>
1.681 

> <ROCS_FitColorTversky>
0.637 

> <ROCS_FitTverskyCombo>
2.319 

> <ROCS_ColorScore>
-5.863

> <ROCS_Overlap>
2116.824

> <ROCS_Rank>
183                 

$$$$
untitled-dbase-5868_3
  -OEChem-11132313473D

 42 45  0     0  0  0  0  0  0999 V2000
    8.0164   14.4417   25.6849 C   0  0  0  0  0  0  0  0  0  0  0  0
    8.0595   13.0756   25.2476 C   0  0  0  0  0  0  0  0  0  0  0  0
    9.0302   12.5848   24.3625 C   0  0  0  0  0  0  0  0  0  0  0  0
    8.9902   11.2277   23.9907 C   0  0  0  0  0  0  0  0  0  0  0  0
   10.0492   13.3622   23.8165 C   0  0  0  0  0  0  0  0  0  0  0  0
    7.0966   12.1964   25.7200 C   0  0  0  0  0  0  0  0  0  0  0  0
   10.9651   12.7822   22.9456 C   0  0  0  0  0  0  0  0  0  0  0  0
    7.9742   10.4364   24.5304 C   0  0  0  0  0  0  0  0  0  0  0  0
    9.9668   10.7444   23.1031 C   0  0  0  0  0  0  0  0  0  0  0  0
   11.6010   15.0043   23.1211 C   0  0  0  0  0  0  0  0  0  0  0  0
   10.3681   14.8119   24.0034 C   0  0  0  0  0  0  0  0  0  0  0  0
    4.8495   13.2183   26.1413 C   0  0  0  0  0  0  0  0  0  0  0  0
    6.1161   12.2434   28.0008 C   0  0  0  0  0  0  0  0  0  0  0  0
    3.7598   12.1788   26.3803 C   0  0  0  0  0  0  0  0  0  0  0  0
    4.9751   11.2421   28.1861 C   0  0  0  0  0  0  0  0  0  0  0  0
   12.9628   13.4785   21.6272 C   0  0  0  0  0  0  0  0  0  0  0  0
    7.9814   15.5465   26.0385 N   0  0  0  0  0  0  0  0  0  0  0  0
    7.0287   10.8893   25.3844 N   0  0  0  0  0  0  0  0  0  0  0  0
   10.9602   11.4930   22.5670 N   0  0  0  0  0  0  0  0  0  0  0  0
   11.8809   13.7643   22.5381 N   0  0  0  0  0  0  0  0  0  0  0  0
    6.1277   12.6674   26.5968 N   0  0  0  0  0  0  0  0  0  0  0  0
    7.8595    9.0648   24.2107 N   0  0  0  0  0  0  0  0  0  0  0  0
    9.9779    9.3908   22.6947 N   0  0  0  0  0  0  0  0  0  0  0  0
   12.1988   16.0606   22.9800 O   0  0  0  0  0  0  0  0  0  0  0  0
    3.7305   11.8115   27.7649 O   0  0  0  0  0  0  0  0  0  0  0  0
    9.5703   15.4591   23.6292 H   0  0  0  0  0  0  0  0  0  0  0  0
   10.6430   15.0411   25.0364 H   0  0  0  0  0  0  0  0  0  0  0  0
    4.8845   13.4769   25.0772 H   0  0  0  0  0  0  0  0  0  0  0  0
    4.6236   14.1278   26.7113 H   0  0  0  0  0  0  0  0  0  0  0  0
    5.9488   13.1150   28.6409 H   0  0  0  0  0  0  0  0  0  0  0  0
    7.0632   11.7775   28.2836 H   0  0  0  0  0  0  0  0  0  0  0  0
    2.7840   12.5996   26.1291 H   0  0  0  0  0  0  0  0  0  0  0  0
    3.9094   11.2876   25.7643 H   0  0  0  0  0  0  0  0  0  0  0  0
    5.1629   10.3130   27.6353 H   0  0  0  0  0  0  0  0  0  0  0  0
    4.8799   10.9840   29.2452 H   0  0  0  0  0  0  0  0  0  0  0  0
   12.6257   13.6440   20.5933 H   0  0  0  0  0  0  0  0  0  0  0  0
   13.8118   14.1425   21.8466 H   0  0  0  0  0  0  0  0  0  0  0  0
   13.2760   12.4309   21.7473 H   0  0  0  0  0  0  0  0  0  0  0  0
    8.4921    8.6663   23.5486 H   0  0  0  0  0  0  0  0  0  0  0  0
    7.0918    8.5433   24.5797 H   0  0  0  0  0  0  0  0  0  0  0  0
    9.3064    8.7623   23.0827 H   0  0  0  0  0  0  0  0  0  0  0  0
   10.7134    9.0704   22.1007 H   0  0  0  0  0  0  0  0  0  0  0  0
  1  2  1  0  0  0  0
  1 17  3  0  0  0  0
  2  3  2  0  0  0  0
  2  6  1  0  0  0  0
  3  4  1  0  0  0  0
  3  5  1  0  0  0  0
  4  8  2  0  0  0  0
  4  9  1  0  0  0  0
  5  7  2  0  0  0  0
  5 11  1  0  0  0  0
  6 18  2  0  0  0  0
  6 21  1  0  0  0  0
  7 19  1  0  0  0  0
  7 20  1  0  0  0  0
  8 18  1  0  0  0  0
  8 22  1  0  0  0  0
  9 19  2  0  0  0  0
  9 23  1  0  0  0  0
 10 11  1  0  0  0  0
 10 20  1  0  0  0  0
 10 24  2  0  0  0  0
 12 14  1  0  0  0  0
 12 21  1  0  0  0  0
 13 15  1  0  0  0  0
 13 21  1  0  0  0  0
 14 25  1  0  0  0  0
 15 25  1  0  0  0  0
 16 20  1  0  0  0  0
 11 26  1  0  0  0  0
 11 27  1  0  0  0  0
 12 28  1  0  0  0  0
 12 29  1  0  0  0  0
 13 30  1  0  0  0  0
 13 31  1  0  0  0  0
 14 32  1  0  0  0  0
 14 33  1  0  0  0  0
 15 34  1  0  0  0  0
 15 35  1  0  0  0  0
 16 36  1  0  0  0  0
 16 37  1  0  0  0  0
 16 38  1  0  0  0  0
 22 39  1  0  0  0  0
 22 40  1  0  0  0  0
 23 41  1  0  0  0  0
 23 42  1  0  0  0  0
M  END
> <id>
EN300-14035

> <smiles>
CN1C(=O)CC=2C1=NC(N)=C3C(N)=NC(N4CCOCC4)=C(C#N)C23

> <MDLNUMBER>
MFCD06660842

> <IUPAC Name>
5,6-diamino-3-methyl-8-(morpholin-4-yl)-2-oxo-1H,2H,3H-pyrrolo[2,3-c]2,7-naphthyridine-9-carbonitrile

> <CAS>
885524-48-1

> <URL>
https://www.enaminestore.com/catalog/EN300-14035

> <ROCS_ShapeQuery>
A71EV2A-x0451_0A_A71EV2A-x0310_0A_A71EV2A-x0416_0A_peptide

> <ROCS_TanimotoCombo>
0.521 

> <ROCS_ShapeTanimoto>
0.377 

> <ROCS_ColorTanimoto>
0.144 

> <ROCS_RefTversky>
0.332 

> <ROCS_RefColorTversky>
0.183 

> <ROCS_RefTverskyCombo>
0.515 

> <ROCS_FitTversky>
1.558 

> <ROCS_FitColorTversky>
0.403 

> <ROCS_FitTverskyCombo>
1.961 

> <ROCS_ColorScore>
-5.638

> <ROCS_Overlap>
2309.237

> <ROCS_Rank>
184                 

$$$$
untitled-dbase-22291_25
  -OEChem-11132313473D

 33 34  0     0  0  0  0  0  0999 V2000
    7.1897   12.7931   25.5433 C   0  0  0  0  0  0  0  0  0  0  0  0
    6.4970   11.6327   25.9066 C   0  0  0  0  0  0  0  0  0  0  0  0
    8.1978   12.3582   24.7129 C   0  0  0  0  0  0  0  0  0  0  0  0
    9.9269   10.8453   23.1799 C   0  0  0  0  0  0  0  0  0  0  0  0
    8.9444   10.2105   23.8381 C   0  0  0  0  0  0  0  0  0  0  0  0
   10.0172   12.3395   23.3233 C   0  0  0  0  0  0  0  0  0  0  0  0
   11.2827   14.2901   22.6381 C   0  0  0  0  0  0  0  0  0  0  0  0
   10.6614   15.8442   20.7488 C   0  0  0  0  0  0  0  0  0  0  0  0
   13.0323   16.6554   20.9221 C   0  0  0  0  0  0  0  0  0  0  0  0
   12.4863   14.6924   19.4536 C   0  0  0  0  0  0  0  0  0  0  0  0
   12.1333   15.4341   20.7420 C   0  0  0  0  0  0  0  0  0  0  0  0
    7.0095   10.5322   25.3596 N   0  0  0  0  0  0  0  0  0  0  0  0
    9.1810   13.0332   24.0594 N   0  0  0  0  0  0  0  0  0  0  0  0
    8.0644   10.9738   24.6174 N   0  0  0  0  0  0  0  0  0  0  0  0
    8.7449    8.8600   23.7969 N   0  0  0  0  0  0  0  0  0  0  0  0
   11.0352   12.9328   22.6336 N   0  0  0  0  0  0  0  0  0  0  0  0
   10.6401   15.1397   23.2473 O   0  0  0  0  0  0  0  0  0  0  0  0
   12.3676   14.5587   21.8509 O   0  0  0  0  0  0  0  0  0  0  0  0
    6.9905   13.8127   25.8398 H   0  0  0  0  0  0  0  0  0  0  0  0
    5.6347   11.5396   26.5507 H   0  0  0  0  0  0  0  0  0  0  0  0
   10.6474   10.3281   22.5571 H   0  0  0  0  0  0  0  0  0  0  0  0
   10.0128   14.9703   20.6198 H   0  0  0  0  0  0  0  0  0  0  0  0
   10.3868   16.3462   21.6823 H   0  0  0  0  0  0  0  0  0  0  0  0
   10.4397   16.5195   19.9145 H   0  0  0  0  0  0  0  0  0  0  0  0
   14.0893   16.3659   20.9178 H   0  0  0  0  0  0  0  0  0  0  0  0
   12.8480   17.1365   21.8894 H   0  0  0  0  0  0  0  0  0  0  0  0
   12.8722   17.3951   20.1309 H   0  0  0  0  0  0  0  0  0  0  0  0
   13.5421   14.3981   19.4484 H   0  0  0  0  0  0  0  0  0  0  0  0
   11.8761   13.7923   19.3262 H   0  0  0  0  0  0  0  0  0  0  0  0
   12.3410   15.3381   18.5799 H   0  0  0  0  0  0  0  0  0  0  0  0
    7.9887    8.4747   24.3182 H   0  0  0  0  0  0  0  0  0  0  0  0
    9.3620    8.3043   23.2468 H   0  0  0  0  0  0  0  0  0  0  0  0
   11.6475   12.3390   22.0838 H   0  0  0  0  0  0  0  0  0  0  0  0
  1  2  1  0  0  0  0
  1  3  2  0  0  0  0
  2 12  2  0  0  0  0
  3 13  1  0  0  0  0
  3 14  1  0  0  0  0
  4  5  2  0  0  0  0
  4  6  1  0  0  0  0
  5 14  1  0  0  0  0
  5 15  1  0  0  0  0
  6 13  2  0  0  0  0
  6 16  1  0  0  0  0
  7 16  1  0  0  0  0
  7 17  2  0  0  0  0
  7 18  1  0  0  0  0
  8 11  1  0  0  0  0
  9 11  1  0  0  0  0
 10 11  1  0  0  0  0
 11 18  1  0  0  0  0
 12 14  1  0  0  0  0
  1 19  1  0  0  0  0
  2 20  1  0  0  0  0
  4 21  1  0  0  0  0
  8 22  1  0  0  0  0
  8 23  1  0  0  0  0
  8 24  1  0  0  0  0
  9 25  1  0  0  0  0
  9 26  1  0  0  0  0
  9 27  1  0  0  0  0
 10 28  1  0  0  0  0
 10 29  1  0  0  0  0
 10 30  1  0  0  0  0
 15 31  1  0  0  0  0
 15 32  1  0  0  0  0
 16 33  1  0  0  0  0
M  END
> <id>
EN300-319109

> <smiles>
CC(C)(C)OC(=O)NC=1C=C(N)N2N=CC=C2N1

> <MDLNUMBER>
MFCD30476986

> <IUPAC Name>
tert-butyl N-{7-aminopyrazolo[1,5-a]pyrimidin-5-yl}carbamate

> <CAS>
2059927-70-5

> <URL>
https://www.enaminestore.com/catalog/EN300-319109

> <ROCS_ShapeQuery>
A71EV2A-x0451_0A_A71EV2A-x0310_0A_A71EV2A-x0416_0A_peptide

> <ROCS_TanimotoCombo>
0.521 

> <ROCS_ShapeTanimoto>
0.342 

> <ROCS_ColorTanimoto>
0.179 

> <ROCS_RefTversky>
0.297 

> <ROCS_RefColorTversky>
0.202 

> <ROCS_RefTverskyCombo>
0.499 

> <ROCS_FitTversky>
1.789 

> <ROCS_FitColorTversky>
0.609 

> <ROCS_FitTverskyCombo>
2.398 

> <ROCS_ColorScore>
-6.184

> <ROCS_Overlap>
2061.333

> <ROCS_Rank>
185                 

$$$$
untitled-dbase-173637_8
  -OEChem-11132313473D

 38 39  0     0  0  0  0  0  0999 V2000
   10.8527   13.5431   23.2348 C   0  0  0  0  0  0  0  0  0  0  0  0
    6.8591   11.8562   24.5647 C   0  0  0  0  0  0  0  0  0  0  0  0
    7.2648   10.4480   25.0356 C   0  0  0  0  0  0  0  0  0  0  0  0
    8.0515   12.7021   24.0833 C   0  0  0  0  0  0  0  0  0  0  0  0
    8.5955   10.4900   22.7646 C   0  0  0  0  0  0  0  0  0  0  0  0
    9.7617   10.8141   24.4966 C   0  0  0  0  0  0  0  0  0  0  0  0
    8.4725    9.9794   24.2363 C   0  0  0  0  0  0  0  0  0  0  0  0
    9.1036   11.7867   23.4732 C   0  0  0  0  0  0  0  0  0  0  0  0
   11.7960   16.2370   23.2856 C   0  0  0  0  0  0  0  0  0  0  0  0
   12.4585   15.8543   20.8931 C   0  0  0  0  0  0  0  0  0  0  0  0
   10.0408   15.7150   21.5589 C   0  0  0  0  0  0  0  0  0  0  0  0
   11.4822   15.4690   22.0024 C   0  0  0  0  0  0  0  0  0  0  0  0
    8.7715    8.5586   24.3174 N   0  0  0  0  0  0  0  0  0  0  0  0
   10.0696   12.5543   22.6960 N   0  0  0  0  0  0  0  0  0  0  0  0
   10.8529   13.9101   24.4053 O   0  0  0  0  0  0  0  0  0  0  0  0
   11.6485   14.0696   22.2567 O   0  0  0  0  0  0  0  0  0  0  0  0
    6.1675   11.7405   23.7193 H   0  0  0  0  0  0  0  0  0  0  0  0
    6.2958   12.3816   25.3437 H   0  0  0  0  0  0  0  0  0  0  0  0
    7.5025   10.4676   26.1060 H   0  0  0  0  0  0  0  0  0  0  0  0
    6.4121    9.7711   24.9060 H   0  0  0  0  0  0  0  0  0  0  0  0
    7.6900   13.4401   23.3571 H   0  0  0  0  0  0  0  0  0  0  0  0
    8.4765   13.2595   24.9267 H   0  0  0  0  0  0  0  0  0  0  0  0
    9.3407    9.9857   22.1352 H   0  0  0  0  0  0  0  0  0  0  0  0
    7.6647   10.5737   22.1963 H   0  0  0  0  0  0  0  0  0  0  0  0
    9.8970   11.1951   25.5136 H   0  0  0  0  0  0  0  0  0  0  0  0
   10.7080   10.3657   24.1657 H   0  0  0  0  0  0  0  0  0  0  0  0
   11.0974   15.9632   24.0843 H   0  0  0  0  0  0  0  0  0  0  0  0
   12.8157   16.0417   23.6334 H   0  0  0  0  0  0  0  0  0  0  0  0
   11.6833   17.3164   23.1328 H   0  0  0  0  0  0  0  0  0  0  0  0
   12.2371   15.3057   19.9705 H   0  0  0  0  0  0  0  0  0  0  0  0
   13.4862   15.5918   21.1692 H   0  0  0  0  0  0  0  0  0  0  0  0
   12.4209   16.9267   20.6763 H   0  0  0  0  0  0  0  0  0  0  0  0
    9.8155   15.1643   20.6385 H   0  0  0  0  0  0  0  0  0  0  0  0
    9.3244   15.4098   22.3285 H   0  0  0  0  0  0  0  0  0  0  0  0
    9.8783   16.7750   21.3327 H   0  0  0  0  0  0  0  0  0  0  0  0
    8.9483    8.3257   25.2679 H   0  0  0  0  0  0  0  0  0  0  0  0
    7.9875    8.0505   23.9766 H   0  0  0  0  0  0  0  0  0  0  0  0
   10.1667   12.3479   21.7131 H   0  0  0  0  0  0  0  0  0  0  0  0
  1 14  1  0  0  0  0
  1 15  2  0  0  0  0
  1 16  1  0  0  0  0
  2  3  1  0  0  0  0
  2  4  1  0  0  0  0
  3  7  1  0  0  0  0
  4  8  1  0  0  0  0
  5  7  1  0  0  0  0
  5  8  1  0  0  0  0
  6  7  1  0  0  0  0
  6  8  1  0  0  0  0
  7 13  1  1  0  0  0
  8 14  1  1  0  0  0
  9 12  1  0  0  0  0
 10 12  1  0  0  0  0
 11 12  1  0  0  0  0
 12 16  1  0  0  0  0
  2 17  1  0  0  0  0
  2 18  1  0  0  0  0
  3 19  1  0  0  0  0
  3 20  1  0  0  0  0
  4 21  1  0  0  0  0
  4 22  1  0  0  0  0
  5 23  1  0  0  0  0
  5 24  1  0  0  0  0
  6 25  1  0  0  0  0
  6 26  1  0  0  0  0
  9 27  1  0  0  0  0
  9 28  1  0  0  0  0
  9 29  1  0  0  0  0
 10 30  1  0  0  0  0
 10 31  1  0  0  0  0
 10 32  1  0  0  0  0
 11 33  1  0  0  0  0
 11 34  1  0  0  0  0
 11 35  1  0  0  0  0
 13 36  1  0  0  0  0
 13 37  1  0  0  0  0
 14 38  1  0  0  0  0
M  END
> <id>
EN300-37375119

> <smiles>
Cl.CC(C)(C)OC(=O)N[C@]1(C[C@@]2(N)C1)CCC2

> <IUPAC Name>
tert-butyl N-{5-aminobicyclo[3.1.1]heptan-1-yl}carbamate hydrochloride

> <CAS>
1461706-82-0

> <URL>
https://www.enaminestore.com/catalog/EN300-37375119

> <ROCS_ShapeQuery>
A71EV2A-x0451_0A_A71EV2A-x0310_0A_A71EV2A-x0416_0A_peptide

> <ROCS_TanimotoCombo>
0.521 

> <ROCS_ShapeTanimoto>
0.296 

> <ROCS_ColorTanimoto>
0.225 

> <ROCS_RefTversky>
0.262 

> <ROCS_RefColorTversky>
0.256 

> <ROCS_RefTverskyCombo>
0.518 

> <ROCS_FitTversky>
1.765 

> <ROCS_FitColorTversky>
0.650 

> <ROCS_FitTverskyCombo>
2.415 

> <ROCS_ColorScore>
-7.865

> <ROCS_Overlap>
1816.574

> <ROCS_Rank>
186                 

$$$$
untitled-dbase-172496_8
  -OEChem-11132313473D

 38 39  0     0  0  0  0  0  0999 V2000
   10.8527   13.5431   23.2348 C   0  0  0  0  0  0  0  0  0  0  0  0
    6.8591   11.8562   24.5647 C   0  0  0  0  0  0  0  0  0  0  0  0
    7.2648   10.4480   25.0356 C   0  0  0  0  0  0  0  0  0  0  0  0
    8.0515   12.7021   24.0833 C   0  0  0  0  0  0  0  0  0  0  0  0
    8.5955   10.4900   22.7646 C   0  0  0  0  0  0  0  0  0  0  0  0
    9.7617   10.8141   24.4966 C   0  0  0  0  0  0  0  0  0  0  0  0
    8.4725    9.9794   24.2363 C   0  0  0  0  0  0  0  0  0  0  0  0
    9.1036   11.7867   23.4732 C   0  0  0  0  0  0  0  0  0  0  0  0
   11.7960   16.2370   23.2856 C   0  0  0  0  0  0  0  0  0  0  0  0
   12.4585   15.8543   20.8931 C   0  0  0  0  0  0  0  0  0  0  0  0
   10.0408   15.7150   21.5589 C   0  0  0  0  0  0  0  0  0  0  0  0
   11.4822   15.4690   22.0024 C   0  0  0  0  0  0  0  0  0  0  0  0
    8.7715    8.5586   24.3174 N   0  0  0  0  0  0  0  0  0  0  0  0
   10.0696   12.5543   22.6960 N   0  0  0  0  0  0  0  0  0  0  0  0
   10.8529   13.9101   24.4053 O   0  0  0  0  0  0  0  0  0  0  0  0
   11.6485   14.0696   22.2567 O   0  0  0  0  0  0  0  0  0  0  0  0
    6.1675   11.7405   23.7193 H   0  0  0  0  0  0  0  0  0  0  0  0
    6.2958   12.3816   25.3437 H   0  0  0  0  0  0  0  0  0  0  0  0
    7.5025   10.4676   26.1060 H   0  0  0  0  0  0  0  0  0  0  0  0
    6.4121    9.7711   24.9060 H   0  0  0  0  0  0  0  0  0  0  0  0
    7.6900   13.4401   23.3571 H   0  0  0  0  0  0  0  0  0  0  0  0
    8.4765   13.2595   24.9267 H   0  0  0  0  0  0  0  0  0  0  0  0
    9.3407    9.9857   22.1352 H   0  0  0  0  0  0  0  0  0  0  0  0
    7.6647   10.5737   22.1963 H   0  0  0  0  0  0  0  0  0  0  0  0
    9.8970   11.1951   25.5136 H   0  0  0  0  0  0  0  0  0  0  0  0
   10.7080   10.3657   24.1657 H   0  0  0  0  0  0  0  0  0  0  0  0
   11.0974   15.9632   24.0843 H   0  0  0  0  0  0  0  0  0  0  0  0
   12.8157   16.0417   23.6334 H   0  0  0  0  0  0  0  0  0  0  0  0
   11.6833   17.3164   23.1328 H   0  0  0  0  0  0  0  0  0  0  0  0
   12.2371   15.3057   19.9705 H   0  0  0  0  0  0  0  0  0  0  0  0
   13.4862   15.5918   21.1692 H   0  0  0  0  0  0  0  0  0  0  0  0
   12.4209   16.9267   20.6763 H   0  0  0  0  0  0  0  0  0  0  0  0
    9.8155   15.1643   20.6385 H   0  0  0  0  0  0  0  0  0  0  0  0
    9.3244   15.4098   22.3285 H   0  0  0  0  0  0  0  0  0  0  0  0
    9.8783   16.7750   21.3327 H   0  0  0  0  0  0  0  0  0  0  0  0
    8.9483    8.3257   25.2679 H   0  0  0  0  0  0  0  0  0  0  0  0
    7.9875    8.0505   23.9766 H   0  0  0  0  0  0  0  0  0  0  0  0
   10.1667   12.3479   21.7131 H   0  0  0  0  0  0  0  0  0  0  0  0
  1 14  1  0  0  0  0
  1 15  2  0  0  0  0
  1 16  1  0  0  0  0
  2  3  1  0  0  0  0
  2  4  1  0  0  0  0
  3  7  1  0  0  0  0
  4  8  1  0  0  0  0
  5  7  1  0  0  0  0
  5  8  1  0  0  0  0
  6  7  1  0  0  0  0
  6  8  1  0  0  0  0
  7 13  1  1  0  0  0
  8 14  1  1  0  0  0
  9 12  1  0  0  0  0
 10 12  1  0  0  0  0
 11 12  1  0  0  0  0
 12 16  1  0  0  0  0
  2 17  1  0  0  0  0
  2 18  1  0  0  0  0
  3 19  1  0  0  0  0
  3 20  1  0  0  0  0
  4 21  1  0  0  0  0
  4 22  1  0  0  0  0
  5 23  1  0  0  0  0
  5 24  1  0  0  0  0
  6 25  1  0  0  0  0
  6 26  1  0  0  0  0
  9 27  1  0  0  0  0
  9 28  1  0  0  0  0
  9 29  1  0  0  0  0
 10 30  1  0  0  0  0
 10 31  1  0  0  0  0
 10 32  1  0  0  0  0
 11 33  1  0  0  0  0
 11 34  1  0  0  0  0
 11 35  1  0  0  0  0
 13 36  1  0  0  0  0
 13 37  1  0  0  0  0
 14 38  1  0  0  0  0
M  END
> <id>
EN300-10826189

> <smiles>
CC(C)(C)OC(=O)N[C@]1(C[C@@]2(N)C1)CCC2

> <MDLNUMBER>
MFCD09971766

> <IUPAC Name>
tert-butyl N-[(1r,5r)-5-aminobicyclo[3.1.1]heptan-1-yl]carbamate

> <CAS>
1049607-15-9

> <URL>
https://www.enaminestore.com/catalog/EN300-10826189

> <ROCS_ShapeQuery>
A71EV2A-x0451_0A_A71EV2A-x0310_0A_A71EV2A-x0416_0A_peptide

> <ROCS_TanimotoCombo>
0.521 

> <ROCS_ShapeTanimoto>
0.296 

> <ROCS_ColorTanimoto>
0.225 

> <ROCS_RefTversky>
0.262 

> <ROCS_RefColorTversky>
0.256 

> <ROCS_RefTverskyCombo>
0.518 

> <ROCS_FitTversky>
1.765 

> <ROCS_FitColorTversky>
0.650 

> <ROCS_FitTverskyCombo>
2.415 

> <ROCS_ColorScore>
-7.865

> <ROCS_Overlap>
1816.574

> <ROCS_Rank>
187                 

$$$$
untitled-dbase-116613_8
  -OEChem-11132313473D

 38 39  0     0  0  0  0  0  0999 V2000
   10.8526   13.5431   23.2348 C   0  0  0  0  0  0  0  0  0  0  0  0
    6.8588   11.8563   24.5644 C   0  0  0  0  0  0  0  0  0  0  0  0
    7.2641   10.4479   25.0350 C   0  0  0  0  0  0  0  0  0  0  0  0
    8.0516   12.7022   24.0835 C   0  0  0  0  0  0  0  0  0  0  0  0
    8.5956   10.4900   22.7649 C   0  0  0  0  0  0  0  0  0  0  0  0
    9.7614   10.8142   24.4972 C   0  0  0  0  0  0  0  0  0  0  0  0
    8.4723    9.9793   24.2364 C   0  0  0  0  0  0  0  0  0  0  0  0
    9.1037   11.7867   23.4735 C   0  0  0  0  0  0  0  0  0  0  0  0
   11.7959   16.2371   23.2852 C   0  0  0  0  0  0  0  0  0  0  0  0
   12.4582   15.8542   20.8927 C   0  0  0  0  0  0  0  0  0  0  0  0
   10.0406   15.7149   21.5588 C   0  0  0  0  0  0  0  0  0  0  0  0
   11.4820   15.4690   22.0021 C   0  0  0  0  0  0  0  0  0  0  0  0
    8.7715    8.5587   24.3173 N   0  0  0  0  0  0  0  0  0  0  0  0
   10.0696   12.5543   22.6961 N   0  0  0  0  0  0  0  0  0  0  0  0
   10.8529   13.9103   24.4052 O   0  0  0  0  0  0  0  0  0  0  0  0
   11.6484   14.0696   22.2565 O   0  0  0  0  0  0  0  0  0  0  0  0
    6.1670   11.7411   23.7191 H   0  0  0  0  0  0  0  0  0  0  0  0
    6.2957   12.3817   25.3435 H   0  0  0  0  0  0  0  0  0  0  0  0
    7.5009   10.4670   26.1056 H   0  0  0  0  0  0  0  0  0  0  0  0
    6.4115    9.7709   24.9044 H   0  0  0  0  0  0  0  0  0  0  0  0
    7.6902   13.4401   23.3572 H   0  0  0  0  0  0  0  0  0  0  0  0
    8.4763   13.2595   24.9272 H   0  0  0  0  0  0  0  0  0  0  0  0
    9.3409    9.9855   22.1357 H   0  0  0  0  0  0  0  0  0  0  0  0
    7.6649   10.5738   22.1964 H   0  0  0  0  0  0  0  0  0  0  0  0
    9.8961   11.1949   25.5144 H   0  0  0  0  0  0  0  0  0  0  0  0
   10.7077   10.3655   24.1667 H   0  0  0  0  0  0  0  0  0  0  0  0
   11.0974   15.9634   24.0840 H   0  0  0  0  0  0  0  0  0  0  0  0
   12.8156   16.0419   23.6330 H   0  0  0  0  0  0  0  0  0  0  0  0
   11.6831   17.3165   23.1323 H   0  0  0  0  0  0  0  0  0  0  0  0
   12.2367   15.3055   19.9702 H   0  0  0  0  0  0  0  0  0  0  0  0
   13.4860   15.5918   21.1687 H   0  0  0  0  0  0  0  0  0  0  0  0
   12.4206   16.9267   20.6758 H   0  0  0  0  0  0  0  0  0  0  0  0
    9.8151   15.1641   20.6384 H   0  0  0  0  0  0  0  0  0  0  0  0
    9.3242   15.4097   22.3284 H   0  0  0  0  0  0  0  0  0  0  0  0
    9.8780   16.7749   21.3324 H   0  0  0  0  0  0  0  0  0  0  0  0
    8.9478    8.3255   25.2679 H   0  0  0  0  0  0  0  0  0  0  0  0
    7.9878    8.0504   23.9759 H   0  0  0  0  0  0  0  0  0  0  0  0
   10.1666   12.3478   21.7132 H   0  0  0  0  0  0  0  0  0  0  0  0
  1 14  1  0  0  0  0
  1 15  2  0  0  0  0
  1 16  1  0  0  0  0
  2  3  1  0  0  0  0
  2  4  1  0  0  0  0
  3  7  1  0  0  0  0
  4  8  1  0  0  0  0
  5  7  1  0  0  0  0
  5  8  1  0  0  0  0
  6  7  1  0  0  0  0
  6  8  1  0  0  0  0
  7 13  1  0  0  0  0
  8 14  1  0  0  0  0
  9 12  1  0  0  0  0
 10 12  1  0  0  0  0
 11 12  1  0  0  0  0
 12 16  1  0  0  0  0
  2 17  1  0  0  0  0
  2 18  1  0  0  0  0
  3 19  1  0  0  0  0
  3 20  1  0  0  0  0
  4 21  1  0  0  0  0
  4 22  1  0  0  0  0
  5 23  1  0  0  0  0
  5 24  1  0  0  0  0
  6 25  1  0  0  0  0
  6 26  1  0  0  0  0
  9 27  1  0  0  0  0
  9 28  1  0  0  0  0
  9 29  1  0  0  0  0
 10 30  1  0  0  0  0
 10 31  1  0  0  0  0
 10 32  1  0  0  0  0
 11 33  1  0  0  0  0
 11 34  1  0  0  0  0
 11 35  1  0  0  0  0
 13 36  1  0  0  0  0
 13 37  1  0  0  0  0
 14 38  1  0  0  0  0
M  END
> <id>
EN300-61215

> <smiles>
Cl.CC(C)(C)OC(=O)NC1(CC2(N)C1)CCC2

> <MDLNUMBER>
MFCD26408075

> <IUPAC Name>
tert-butyl N-{5-aminobicyclo[3.1.1]heptan-1-yl}carbamate hydrochloride

> <CAS>
1461706-82-0

> <Purity>
95

> <URL>
https://www.enaminestore.com/catalog/EN300-61215

> <Saltdate>
Cl

> <ROCS_ShapeQuery>
A71EV2A-x0451_0A_A71EV2A-x0310_0A_A71EV2A-x0416_0A_peptide

> <ROCS_TanimotoCombo>
0.521 

> <ROCS_ShapeTanimoto>
0.296 

> <ROCS_ColorTanimoto>
0.225 

> <ROCS_RefTversky>
0.262 

> <ROCS_RefColorTversky>
0.256 

> <ROCS_RefTverskyCombo>
0.518 

> <ROCS_FitTversky>
1.765 

> <ROCS_FitColorTversky>
0.650 

> <ROCS_FitTverskyCombo>
2.415 

> <ROCS_ColorScore>
-7.865

> <ROCS_Overlap>
1816.553

> <ROCS_Rank>
188                 

$$$$
untitled-dbase-2610_8
  -OEChem-11132313473D

 38 39  0     0  0  0  0  0  0999 V2000
   10.8526   13.5431   23.2348 C   0  0  0  0  0  0  0  0  0  0  0  0
    6.8588   11.8563   24.5644 C   0  0  0  0  0  0  0  0  0  0  0  0
    7.2641   10.4479   25.0350 C   0  0  0  0  0  0  0  0  0  0  0  0
    8.0516   12.7022   24.0835 C   0  0  0  0  0  0  0  0  0  0  0  0
    8.5956   10.4900   22.7649 C   0  0  0  0  0  0  0  0  0  0  0  0
    9.7614   10.8142   24.4972 C   0  0  0  0  0  0  0  0  0  0  0  0
    8.4723    9.9793   24.2364 C   0  0  0  0  0  0  0  0  0  0  0  0
    9.1037   11.7867   23.4735 C   0  0  0  0  0  0  0  0  0  0  0  0
   11.7959   16.2371   23.2852 C   0  0  0  0  0  0  0  0  0  0  0  0
   12.4582   15.8542   20.8927 C   0  0  0  0  0  0  0  0  0  0  0  0
   10.0406   15.7149   21.5588 C   0  0  0  0  0  0  0  0  0  0  0  0
   11.4820   15.4690   22.0021 C   0  0  0  0  0  0  0  0  0  0  0  0
    8.7715    8.5587   24.3173 N   0  0  0  0  0  0  0  0  0  0  0  0
   10.0696   12.5543   22.6961 N   0  0  0  0  0  0  0  0  0  0  0  0
   10.8529   13.9103   24.4052 O   0  0  0  0  0  0  0  0  0  0  0  0
   11.6484   14.0696   22.2565 O   0  0  0  0  0  0  0  0  0  0  0  0
    6.1670   11.7411   23.7191 H   0  0  0  0  0  0  0  0  0  0  0  0
    6.2957   12.3817   25.3435 H   0  0  0  0  0  0  0  0  0  0  0  0
    7.5009   10.4670   26.1056 H   0  0  0  0  0  0  0  0  0  0  0  0
    6.4115    9.7709   24.9044 H   0  0  0  0  0  0  0  0  0  0  0  0
    7.6902   13.4401   23.3572 H   0  0  0  0  0  0  0  0  0  0  0  0
    8.4763   13.2595   24.9272 H   0  0  0  0  0  0  0  0  0  0  0  0
    9.3409    9.9855   22.1357 H   0  0  0  0  0  0  0  0  0  0  0  0
    7.6649   10.5738   22.1964 H   0  0  0  0  0  0  0  0  0  0  0  0
    9.8961   11.1949   25.5144 H   0  0  0  0  0  0  0  0  0  0  0  0
   10.7077   10.3655   24.1667 H   0  0  0  0  0  0  0  0  0  0  0  0
   11.0974   15.9634   24.0840 H   0  0  0  0  0  0  0  0  0  0  0  0
   12.8156   16.0419   23.6330 H   0  0  0  0  0  0  0  0  0  0  0  0
   11.6831   17.3165   23.1323 H   0  0  0  0  0  0  0  0  0  0  0  0
   12.2367   15.3055   19.9702 H   0  0  0  0  0  0  0  0  0  0  0  0
   13.4860   15.5918   21.1687 H   0  0  0  0  0  0  0  0  0  0  0  0
   12.4206   16.9267   20.6758 H   0  0  0  0  0  0  0  0  0  0  0  0
    9.8151   15.1641   20.6384 H   0  0  0  0  0  0  0  0  0  0  0  0
    9.3242   15.4097   22.3284 H   0  0  0  0  0  0  0  0  0  0  0  0
    9.8780   16.7749   21.3324 H   0  0  0  0  0  0  0  0  0  0  0  0
    8.9478    8.3255   25.2679 H   0  0  0  0  0  0  0  0  0  0  0  0
    7.9878    8.0504   23.9759 H   0  0  0  0  0  0  0  0  0  0  0  0
   10.1666   12.3478   21.7132 H   0  0  0  0  0  0  0  0  0  0  0  0
  1 14  1  0  0  0  0
  1 15  2  0  0  0  0
  1 16  1  0  0  0  0
  2  3  1  0  0  0  0
  2  4  1  0  0  0  0
  3  7  1  0  0  0  0
  4  8  1  0  0  0  0
  5  7  1  0  0  0  0
  5  8  1  0  0  0  0
  6  7  1  0  0  0  0
  6  8  1  0  0  0  0
  7 13  1  0  0  0  0
  8 14  1  0  0  0  0
  9 12  1  0  0  0  0
 10 12  1  0  0  0  0
 11 12  1  0  0  0  0
 12 16  1  0  0  0  0
  2 17  1  0  0  0  0
  2 18  1  0  0  0  0
  3 19  1  0  0  0  0
  3 20  1  0  0  0  0
  4 21  1  0  0  0  0
  4 22  1  0  0  0  0
  5 23  1  0  0  0  0
  5 24  1  0  0  0  0
  6 25  1  0  0  0  0
  6 26  1  0  0  0  0
  9 27  1  0  0  0  0
  9 28  1  0  0  0  0
  9 29  1  0  0  0  0
 10 30  1  0  0  0  0
 10 31  1  0  0  0  0
 10 32  1  0  0  0  0
 11 33  1  0  0  0  0
 11 34  1  0  0  0  0
 11 35  1  0  0  0  0
 13 36  1  0  0  0  0
 13 37  1  0  0  0  0
 14 38  1  0  0  0  0
M  END
> <id>
EN300-61211

> <smiles>
CC(C)(C)OC(=O)NC1(CC2(N)C1)CCC2

> <MDLNUMBER>
MFCD13806410

> <IUPAC Name>
tert-butyl N-{5-aminobicyclo[3.1.1]heptan-1-yl}carbamate

> <CAS>
1049607-15-9

> <Purity>
95

> <URL>
https://www.enaminestore.com/catalog/EN300-61211

> <ROCS_ShapeQuery>
A71EV2A-x0451_0A_A71EV2A-x0310_0A_A71EV2A-x0416_0A_peptide

> <ROCS_TanimotoCombo>
0.521 

> <ROCS_ShapeTanimoto>
0.296 

> <ROCS_ColorTanimoto>
0.225 

> <ROCS_RefTversky>
0.262 

> <ROCS_RefColorTversky>
0.256 

> <ROCS_RefTverskyCombo>
0.518 

> <ROCS_FitTversky>
1.765 

> <ROCS_FitColorTversky>
0.650 

> <ROCS_FitTverskyCombo>
2.415 

> <ROCS_ColorScore>
-7.865

> <ROCS_Overlap>
1816.553

> <ROCS_Rank>
189                 

$$$$
untitled-dbase-92176_193
  -OEChem-11132313473D

 46 48  0     1  0  0  0  0  0999 V2000
    6.5314   11.5017   26.9739 C   0  0  0  0  0  0  0  0  0  0  0  0
    5.5085   12.0685   27.7171 C   0  0  0  0  0  0  0  0  0  0  0  0
    3.9853   11.7550   26.0260 C   0  0  0  0  0  0  0  0  0  0  0  0
    6.2318   11.0482   25.6941 C   0  0  0  0  0  0  0  0  0  0  0  0
    4.9368   11.1737   25.2035 C   0  0  0  0  0  0  0  0  0  0  0  0
   10.6098   13.1430   23.7757 C   0  0  0  0  0  0  0  0  0  0  0  0
    9.9412   10.0858   24.7927 C   0  0  0  0  0  0  0  0  0  0  0  0
    8.7022   10.4049   25.6529 C   0  0  0  0  0  0  0  0  0  0  0  0
    8.6581   10.2801   22.6726 C   0  0  0  0  0  0  0  0  0  0  0  0
    8.1893   12.4505   23.4893 C   0  0  0  0  0  0  0  0  0  0  0  0
    7.5632   11.0420   23.4401 C   0  0  2  0  0  0  0  0  0  0  0  0
    9.8961   10.7635   23.4171 C   0  0  1  0  0  0  0  0  0  0  0  0
    7.3562   10.4191   24.8624 C   0  0  2  0  0  0  0  0  0  0  0  0
   12.5177   15.0619   22.8572 C   0  0  0  0  0  0  0  0  0  0  0  0
   13.6049   13.1367   21.6651 C   0  0  0  0  0  0  0  0  0  0  0  0
   11.2610   13.8140   21.0689 C   0  0  0  0  0  0  0  0  0  0  0  0
   12.2894   13.7045   22.1937 C   0  0  0  0  0  0  0  0  0  0  0  0
    4.2387   12.2073   27.2746 N   0  0  0  0  0  0  0  0  0  0  0  0
    9.6268   12.1929   23.5679 N   0  0  0  0  0  0  0  0  0  0  0  0
   10.4466   14.1775   24.4185 O   0  0  0  0  0  0  0  0  0  0  0  0
    6.9217    9.0607   24.6707 O   0  0  0  0  0  0  0  0  0  0  0  0
   11.7915   12.7934   23.1796 O   0  0  0  0  0  0  0  0  0  0  0  0
    4.4432   10.5849   23.4775 Br  0  0  0  0  0  0  0  0  0  0  0  0
    7.5311   11.4190   27.3866 H   0  0  0  0  0  0  0  0  0  0  0  0
    5.6904   12.4377   28.7210 H   0  0  0  0  0  0  0  0  0  0  0  0
    2.9558   11.8830   25.7050 H   0  0  0  0  0  0  0  0  0  0  0  0
   10.8435   10.3895   25.3367 H   0  0  0  0  0  0  0  0  0  0  0  0
   10.0100    8.9994   24.6556 H   0  0  0  0  0  0  0  0  0  0  0  0
    8.6495    9.6814   26.4766 H   0  0  0  0  0  0  0  0  0  0  0  0
    8.8625   11.3871   26.1185 H   0  0  0  0  0  0  0  0  0  0  0  0
    8.5354    9.1938   22.6865 H   0  0  0  0  0  0  0  0  0  0  0  0
    8.6871   10.6010   21.6236 H   0  0  0  0  0  0  0  0  0  0  0  0
    8.0057   12.9990   22.5583 H   0  0  0  0  0  0  0  0  0  0  0  0
    7.8600   13.0685   24.3293 H   0  0  0  0  0  0  0  0  0  0  0  0
    6.6232   11.0342   22.8766 H   0  0  0  0  0  0  0  0  0  0  0  0
   10.8241   10.5929   22.8630 H   0  0  0  0  0  0  0  0  0  0  0  0
   11.5758   15.4728   23.2380 H   0  0  0  0  0  0  0  0  0  0  0  0
   13.2270   14.9904   23.6882 H   0  0  0  0  0  0  0  0  0  0  0  0
   12.9032   15.7904   22.1348 H   0  0  0  0  0  0  0  0  0  0  0  0
   13.4458   12.1628   21.1882 H   0  0  0  0  0  0  0  0  0  0  0  0
   14.3138   12.9674   22.4837 H   0  0  0  0  0  0  0  0  0  0  0  0
   14.0707   13.8078   20.9363 H   0  0  0  0  0  0  0  0  0  0  0  0
   11.0971   12.8405   20.5928 H   0  0  0  0  0  0  0  0  0  0  0  0
   10.2989   14.1851   21.4368 H   0  0  0  0  0  0  0  0  0  0  0  0
   11.6158   14.4879   20.2807 H   0  0  0  0  0  0  0  0  0  0  0  0
    6.8324    8.6734   25.5548 H   0  0  0  0  0  0  0  0  0  0  0  0
  1  2  1  0  0  0  0
  1  4  2  0  0  0  0
  2 18  2  0  0  0  0
  3  5  2  0  0  0  0
  3 18  1  0  0  0  0
  4  5  1  0  0  0  0
  4 13  1  0  0  0  0
  5 23  1  0  0  0  0
  6 19  1  0  0  0  0
  6 20  2  0  0  0  0
  6 22  1  0  0  0  0
  7  8  1  0  0  0  0
  7 12  1  0  0  0  0
  8 13  1  0  0  0  0
  9 11  1  0  0  0  0
  9 12  1  0  0  0  0
 10 11  1  0  0  0  0
 10 19  1  0  0  0  0
 11 13  1  0  0  0  0
 12 19  1  0  0  0  0
 13 21  1  0  0  0  0
 14 17  1  0  0  0  0
 15 17  1  0  0  0  0
 16 17  1  0  0  0  0
 17 22  1  0  0  0  0
  1 24  1  0  0  0  0
  2 25  1  0  0  0  0
  3 26  1  0  0  0  0
  7 27  1  0  0  0  0
  7 28  1  0  0  0  0
  8 29  1  0  0  0  0
  8 30  1  0  0  0  0
  9 31  1  0  0  0  0
  9 32  1  0  0  0  0
 10 33  1  0  0  0  0
 10 34  1  0  0  0  0
 11 35  1  0  0  0  0
 12 36  1  0  0  0  0
 14 37  1  0  0  0  0
 14 38  1  0  0  0  0
 14 39  1  0  0  0  0
 15 40  1  0  0  0  0
 15 41  1  0  0  0  0
 15 42  1  0  0  0  0
 16 43  1  0  0  0  0
 16 44  1  0  0  0  0
 16 45  1  0  0  0  0
 21 46  1  0  0  0  0
M  END
> <id>
EN300-7428888

> <smiles>
CC(C)(C)OC(=O)N1CC2CC1CCC2(O)C=3C=CN=CC3Br

> <IUPAC Name>
tert-butyl 2-(3-bromopyridin-4-yl)-2-hydroxy-6-azabicyclo[3.2.1]octane-6-carboxylate

> <CAS>
2309465-13-0

> <URL>
https://www.enaminestore.com/catalog/EN300-7428888

> <ROCS_ShapeQuery>
A71EV2A-x0451_0A_A71EV2A-x0310_0A_A71EV2A-x0416_0A_peptide

> <ROCS_TanimotoCombo>
0.521 

> <ROCS_ShapeTanimoto>
0.316 

> <ROCS_ColorTanimoto>
0.205 

> <ROCS_RefTversky>
0.287 

> <ROCS_RefColorTversky>
0.246 

> <ROCS_RefTverskyCombo>
0.533 

> <ROCS_FitTversky>
1.483 

> <ROCS_FitColorTversky>
0.549 

> <ROCS_FitTverskyCombo>
2.033 

> <ROCS_ColorScore>
-7.569

> <ROCS_Overlap>
1991.729

> <ROCS_Rank>
190                 

$$$$
untitled-dbase-152820_23
  -OEChem-11132313473D

 33 34  0     0  0  0  0  0  0999 V2000
    8.1498   12.8754   24.8631 C   0  0  0  0  0  0  0  0  0  0  0  0
    8.6397   11.7645   24.1514 C   0  0  0  0  0  0  0  0  0  0  0  0
    7.9059   10.6974   24.6391 C   0  0  0  0  0  0  0  0  0  0  0  0
    9.5862   11.4856   23.1713 C   0  0  0  0  0  0  0  0  0  0  0  0
    8.9533    9.2632   23.3169 C   0  0  0  0  0  0  0  0  0  0  0  0
   10.7967   13.6861   23.2294 C   0  0  0  0  0  0  0  0  0  0  0  0
   10.9919   16.5387   23.2943 C   0  0  0  0  0  0  0  0  0  0  0  0
   12.0355   16.3346   21.0186 C   0  0  0  0  0  0  0  0  0  0  0  0
    9.6717   15.5683   21.3838 C   0  0  0  0  0  0  0  0  0  0  0  0
    6.0898   10.4958   26.3615 C   0  0  0  0  0  0  0  0  0  0  0  0
   11.0574   15.7107   22.0117 C   0  0  0  0  0  0  0  0  0  0  0  0
    7.1862   12.5485   25.7312 N   0  0  0  0  0  0  0  0  0  0  0  0
    8.0066    9.4110   24.2686 N   0  0  0  0  0  0  0  0  0  0  0  0
    9.7415   10.2075   22.7501 N   0  0  0  0  0  0  0  0  0  0  0  0
    7.0595   11.2180   25.5724 N   0  0  0  0  0  0  0  0  0  0  0  0
   10.3780   12.5190   22.6206 N   0  0  0  0  0  0  0  0  0  0  0  0
   10.5647   14.0606   24.3725 O   0  0  0  0  0  0  0  0  0  0  0  0
   11.5456   14.4084   22.3360 O   0  0  0  0  0  0  0  0  0  0  0  0
    9.1900    7.6642   22.7483 Cl  0  0  0  0  0  0  0  0  0  0  0  0
    8.4509   13.9109   24.7894 H   0  0  0  0  0  0  0  0  0  0  0  0
   10.2909   16.0941   24.0097 H   0  0  0  0  0  0  0  0  0  0  0  0
   11.9733   16.6190   23.7731 H   0  0  0  0  0  0  0  0  0  0  0  0
   10.6235   17.5502   23.0883 H   0  0  0  0  0  0  0  0  0  0  0  0
   12.0856   15.7437   20.0969 H   0  0  0  0  0  0  0  0  0  0  0  0
   13.0513   16.3519   21.4298 H   0  0  0  0  0  0  0  0  0  0  0  0
   11.7491   17.3588   20.7587 H   0  0  0  0  0  0  0  0  0  0  0  0
    9.7183   14.9744   20.4638 H   0  0  0  0  0  0  0  0  0  0  0  0
    8.9656   15.0886   22.0694 H   0  0  0  0  0  0  0  0  0  0  0  0
    9.2702   16.5477   21.0995 H   0  0  0  0  0  0  0  0  0  0  0  0
    6.5798   10.1704   27.2830 H   0  0  0  0  0  0  0  0  0  0  0  0
    5.2445   11.1512   26.5889 H   0  0  0  0  0  0  0  0  0  0  0  0
    5.7313    9.6332   25.7928 H   0  0  0  0  0  0  0  0  0  0  0  0
   10.6764   12.3868   21.6572 H   0  0  0  0  0  0  0  0  0  0  0  0
  1  2  1  0  0  0  0
  1 12  2  0  0  0  0
  2  3  1  0  0  0  0
  2  4  2  0  0  0  0
  3 13  2  0  0  0  0
  3 15  1  0  0  0  0
  4 14  1  0  0  0  0
  4 16  1  0  0  0  0
  5 13  1  0  0  0  0
  5 14  2  0  0  0  0
  5 19  1  0  0  0  0
  6 16  1  0  0  0  0
  6 17  2  0  0  0  0
  6 18  1  0  0  0  0
  7 11  1  0  0  0  0
  8 11  1  0  0  0  0
  9 11  1  0  0  0  0
 10 15  1  0  0  0  0
 11 18  1  0  0  0  0
 12 15  1  0  0  0  0
  1 20  1  0  0  0  0
  7 21  1  0  0  0  0
  7 22  1  0  0  0  0
  7 23  1  0  0  0  0
  8 24  1  0  0  0  0
  8 25  1  0  0  0  0
  8 26  1  0  0  0  0
  9 27  1  0  0  0  0
  9 28  1  0  0  0  0
  9 29  1  0  0  0  0
 10 30  1  0  0  0  0
 10 31  1  0  0  0  0
 10 32  1  0  0  0  0
 16 33  1  0  0  0  0
M  END
> <id>
EN300-28286767

> <smiles>
CN1N=CC=2C(NC(=O)OC(C)(C)C)=NC(Cl)=NC12

> <IUPAC Name>
tert-butyl N-{6-chloro-1-methyl-1H-pyrazolo[3,4-d]pyrimidin-4-yl}carbamate

> <CAS>
2680766-51-0

> <URL>
https://www.enaminestore.com/catalog/EN300-28286767

> <ROCS_ShapeQuery>
A71EV2A-x0451_0A_A71EV2A-x0310_0A_A71EV2A-x0416_0A_peptide

> <ROCS_TanimotoCombo>
0.521 

> <ROCS_ShapeTanimoto>
0.351 

> <ROCS_ColorTanimoto>
0.170 

> <ROCS_RefTversky>
0.304 

> <ROCS_RefColorTversky>
0.189 

> <ROCS_RefTverskyCombo>
0.493 

> <ROCS_FitTversky>
1.778 

> <ROCS_FitColorTversky>
0.627 

> <ROCS_FitTverskyCombo>
2.405 

> <ROCS_ColorScore>
-5.774

> <ROCS_Overlap>
2110.861

> <ROCS_Rank>
191                 

$$$$
untitled-dbase-154027_406
  -OEChem-11132313473D

 43 44  0     0  0  0  0  0  0999 V2000
    6.8900   12.7860   24.9268 C   0  0  0  0  0  0  0  0  0  0  0  0
    6.1613   11.0776   26.4752 C   0  0  0  0  0  0  0  0  0  0  0  0
    6.1355   12.4000   26.0368 C   0  0  0  0  0  0  0  0  0  0  0  0
    7.6885   11.8556   24.2472 C   0  0  0  0  0  0  0  0  0  0  0  0
    7.7232   10.5327   24.7169 C   0  0  0  0  0  0  0  0  0  0  0  0
    6.9488   10.1397   25.8111 C   0  0  0  0  0  0  0  0  0  0  0  0
    5.3110   13.3785   26.7283 C   0  0  0  0  0  0  0  0  0  0  0  0
   10.7859   13.0513   23.5956 C   0  0  0  0  0  0  0  0  0  0  0  0
    8.4565   12.2757   23.0206 C   0  0  0  0  0  0  0  0  0  0  0  0
   10.3602   10.6718   23.0328 C   0  0  0  0  0  0  0  0  0  0  0  0
    9.8667    9.8046   24.1855 C   0  0  0  0  0  0  0  0  0  0  0  0
   12.5637   15.2373   23.0937 C   0  0  0  0  0  0  0  0  0  0  0  0
   13.9277   13.5857   21.7818 C   0  0  0  0  0  0  0  0  0  0  0  0
   11.5838   14.1262   21.0590 C   0  0  0  0  0  0  0  0  0  0  0  0
    3.7980   13.6848   28.5472 C   0  0  0  0  0  0  0  0  0  0  0  0
   12.5245   13.9626   22.2520 C   0  0  0  0  0  0  0  0  0  0  0  0
    9.8965   12.0526   23.1792 N   0  0  0  0  0  0  0  0  0  0  0  0
    5.2177   14.5697   26.4040 O   0  0  0  0  0  0  0  0  0  0  0  0
   10.4850   13.9805   24.3427 O   0  0  0  0  0  0  0  0  0  0  0  0
    8.4581    9.5575   24.0905 O   0  0  0  0  0  0  0  0  0  0  0  0
    4.6465   12.8192   27.7854 O   0  0  0  0  0  0  0  0  0  0  0  0
   12.0412   12.8910   23.0701 O   0  0  0  0  0  0  0  0  0  0  0  0
    6.9440    8.3503   26.4439 Br  0  0  0  0  0  0  0  0  0  0  0  0
    6.8501   13.8178   24.5835 H   0  0  0  0  0  0  0  0  0  0  0  0
    5.5621   10.7856   27.3350 H   0  0  0  0  0  0  0  0  0  0  0  0
    8.1047   11.7081   22.1506 H   0  0  0  0  0  0  0  0  0  0  0  0
    8.2695   13.3306   22.7932 H   0  0  0  0  0  0  0  0  0  0  0  0
   11.4543   10.6512   23.0059 H   0  0  0  0  0  0  0  0  0  0  0  0
    9.9893   10.2964   22.0726 H   0  0  0  0  0  0  0  0  0  0  0  0
   10.3529    8.8249   24.1158 H   0  0  0  0  0  0  0  0  0  0  0  0
   10.1447   10.2195   25.1642 H   0  0  0  0  0  0  0  0  0  0  0  0
   11.5584   15.5112   23.4332 H   0  0  0  0  0  0  0  0  0  0  0  0
   13.2076   15.1213   23.9717 H   0  0  0  0  0  0  0  0  0  0  0  0
   12.9322   16.0842   22.5038 H   0  0  0  0  0  0  0  0  0  0  0  0
   13.9042   12.6716   21.1775 H   0  0  0  0  0  0  0  0  0  0  0  0
   14.5818   13.3746   22.6355 H   0  0  0  0  0  0  0  0  0  0  0  0
   14.3820   14.3837   21.1858 H   0  0  0  0  0  0  0  0  0  0  0  0
   11.5555   13.2121   20.4551 H   0  0  0  0  0  0  0  0  0  0  0  0
   10.5635   14.3607   21.3792 H   0  0  0  0  0  0  0  0  0  0  0  0
   11.9326   14.9251   20.3946 H   0  0  0  0  0  0  0  0  0  0  0  0
    3.3301   13.1182   29.3560 H   0  0  0  0  0  0  0  0  0  0  0  0
    3.0311   14.1109   27.8954 H   0  0  0  0  0  0  0  0  0  0  0  0
    4.4014   14.4907   28.9717 H   0  0  0  0  0  0  0  0  0  0  0  0
  1  3  1  0  0  0  0
  1  4  2  0  0  0  0
  2  3  2  0  0  0  0
  2  6  1  0  0  0  0
  3  7  1  0  0  0  0
  4  5  1  0  0  0  0
  4  9  1  0  0  0  0
  5  6  2  0  0  0  0
  5 20  1  0  0  0  0
  6 23  1  0  0  0  0
  7 18  2  0  0  0  0
  7 21  1  0  0  0  0
  8 17  1  0  0  0  0
  8 19  2  0  0  0  0
  8 22  1  0  0  0  0
  9 17  1  0  0  0  0
 10 11  1  0  0  0  0
 10 17  1  0  0  0  0
 11 20  1  0  0  0  0
 12 16  1  0  0  0  0
 13 16  1  0  0  0  0
 14 16  1  0  0  0  0
 15 21  1  0  0  0  0
 16 22  1  0  0  0  0
  1 24  1  0  0  0  0
  2 25  1  0  0  0  0
  9 26  1  0  0  0  0
  9 27  1  0  0  0  0
 10 28  1  0  0  0  0
 10 29  1  0  0  0  0
 11 30  1  0  0  0  0
 11 31  1  0  0  0  0
 12 32  1  0  0  0  0
 12 33  1  0  0  0  0
 12 34  1  0  0  0  0
 13 35  1  0  0  0  0
 13 36  1  0  0  0  0
 13 37  1  0  0  0  0
 14 38  1  0  0  0  0
 14 39  1  0  0  0  0
 14 40  1  0  0  0  0
 15 41  1  0  0  0  0
 15 42  1  0  0  0  0
 15 43  1  0  0  0  0
M  END
> <id>
EN300-28302289

> <smiles>
COC(=O)C=1C=C(Br)C=2OCCN(CC2C1)C(=O)OC(C)(C)C

> <IUPAC Name>
4-tert-butyl 7-methyl 9-bromo-2,3,4,5-tetrahydro-1,4-benzoxazepine-4,7-dicarboxylate

> <CAS>
2680835-94-1

> <URL>
https://www.enaminestore.com/catalog/EN300-28302289

> <ROCS_ShapeQuery>
A71EV2A-x0451_0A_A71EV2A-x0310_0A_A71EV2A-x0416_0A_peptide

> <ROCS_TanimotoCombo>
0.521 

> <ROCS_ShapeTanimoto>
0.345 

> <ROCS_ColorTanimoto>
0.176 

> <ROCS_RefTversky>
0.306 

> <ROCS_RefColorTversky>
0.190 

> <ROCS_RefTverskyCombo>
0.496 

> <ROCS_FitTversky>
1.596 

> <ROCS_FitColorTversky>
0.703 

> <ROCS_FitTverskyCombo>
2.298 

> <ROCS_ColorScore>
-5.788

> <ROCS_Overlap>
2123.447

> <ROCS_Rank>
192                 

$$$$
untitled-dbase-148089_3
  -OEChem-11132313473D

 30 33  0     0  0  0  0  0  0999 V2000
    6.9996   12.9996   26.1107 C   0  0  0  0  0  0  0  0  0  0  0  0
    6.3112   11.8028   26.2661 C   0  0  0  0  0  0  0  0  0  0  0  0
   12.6805   16.9932   23.1772 C   0  0  0  0  0  0  0  0  0  0  0  0
   12.9373   16.5315   21.8842 C   0  0  0  0  0  0  0  0  0  0  0  0
    8.0895   13.0581   25.2471 C   0  0  0  0  0  0  0  0  0  0  0  0
    6.7140   10.6679   25.5579 C   0  0  0  0  0  0  0  0  0  0  0  0
   11.8946   16.2491   24.0661 C   0  0  0  0  0  0  0  0  0  0  0  0
   12.4201   15.3128   21.4325 C   0  0  0  0  0  0  0  0  0  0  0  0
    9.9629   10.8027   22.9701 C   0  0  0  0  0  0  0  0  0  0  0  0
    9.2228    9.6577   23.1846 C   0  0  0  0  0  0  0  0  0  0  0  0
    8.4945   11.9164   24.5349 C   0  0  0  0  0  0  0  0  0  0  0  0
    9.5880   11.9472   23.6590 C   0  0  0  0  0  0  0  0  0  0  0  0
    7.8001   10.6980   24.6876 C   0  0  0  0  0  0  0  0  0  0  0  0
   11.3667   15.0225   23.6290 C   0  0  0  0  0  0  0  0  0  0  0  0
   11.6402   14.5888   22.3348 C   0  0  0  0  0  0  0  0  0  0  0  0
   10.3699   13.1448   23.4285 C   0  0  0  0  0  0  0  0  0  0  0  0
    8.1616    9.5857   24.0204 N   0  0  0  0  0  0  0  0  0  0  0  0
   10.5765   14.1126   24.2932 N   0  0  0  0  0  0  0  0  0  0  0  0
   10.9901   13.3855   22.2341 N   0  0  0  0  0  0  0  0  0  0  0  0
    6.6893   13.8835   26.6595 H   0  0  0  0  0  0  0  0  0  0  0  0
    5.4595   11.7481   26.9380 H   0  0  0  0  0  0  0  0  0  0  0  0
   13.0965   17.9440   23.4996 H   0  0  0  0  0  0  0  0  0  0  0  0
   13.5500   17.1305   21.2149 H   0  0  0  0  0  0  0  0  0  0  0  0
    8.6061   14.0097   25.1485 H   0  0  0  0  0  0  0  0  0  0  0  0
    6.1579    9.7426   25.6974 H   0  0  0  0  0  0  0  0  0  0  0  0
   11.7005   16.6169   25.0687 H   0  0  0  0  0  0  0  0  0  0  0  0
   12.6184   14.9533   20.4293 H   0  0  0  0  0  0  0  0  0  0  0  0
   10.8037   10.7893   22.2842 H   0  0  0  0  0  0  0  0  0  0  0  0
    9.4690    8.7325   22.6738 H   0  0  0  0  0  0  0  0  0  0  0  0
   10.9743   12.7871   21.4185 H   0  0  0  0  0  0  0  0  0  0  0  0
  1  2  2  0  0  0  0
  1  5  1  0  0  0  0
  2  6  1  0  0  0  0
  3  4  2  0  0  0  0
  3  7  1  0  0  0  0
  4  8  1  0  0  0  0
  5 11  2  0  0  0  0
  6 13  2  0  0  0  0
  7 14  2  0  0  0  0
  8 15  2  0  0  0  0
  9 10  1  0  0  0  0
  9 12  2  0  0  0  0
 10 17  2  0  0  0  0
 11 12  1  0  0  0  0
 11 13  1  0  0  0  0
 12 16  1  0  0  0  0
 13 17  1  0  0  0  0
 14 15  1  0  0  0  0
 14 18  1  0  0  0  0
 15 19  1  0  0  0  0
 16 18  2  0  0  0  0
 16 19  1  0  0  0  0
  1 20  1  0  0  0  0
  2 21  1  0  0  0  0
  3 22  1  0  0  0  0
  4 23  1  0  0  0  0
  5 24  1  0  0  0  0
  6 25  1  0  0  0  0
  7 26  1  0  0  0  0
  8 27  1  0  0  0  0
  9 28  1  0  0  0  0
 10 29  1  0  0  0  0
 19 30  1  0  0  0  0
M  END
> <id>
EN300-17422744

> <smiles>
C=1C=CC=2NC(=NC2C1)C=3C=CN=C4C=CC=CC34

> <MDLNUMBER>
MFCD00806415

> <IUPAC Name>
4-(1H-1,3-benzodiazol-2-yl)quinoline

> <CAS>
31704-11-7

> <URL>
https://www.enaminestore.com/catalog/EN300-17422744

> <ROCS_ShapeQuery>
A71EV2A-x0451_0A_A71EV2A-x0310_0A_A71EV2A-x0416_0A_peptide

> <ROCS_TanimotoCombo>
0.521 

> <ROCS_ShapeTanimoto>
0.342 

> <ROCS_ColorTanimoto>
0.179 

> <ROCS_RefTversky>
0.300 

> <ROCS_RefColorTversky>
0.197 

> <ROCS_RefTverskyCombo>
0.497 

> <ROCS_FitTversky>
1.692 

> <ROCS_FitColorTversky>
0.654 

> <ROCS_FitTverskyCombo>
2.347 

> <ROCS_ColorScore>
-6.027

> <ROCS_Overlap>
2082.646

> <ROCS_Rank>
193                 

$$$$
untitled-dbase-148521_13
  -OEChem-11132313473D

 31 32  0     0  0  0  0  0  0999 V2000
   10.0973   10.8363   22.9342 C   0  0  0  0  0  0  0  0  0  0  0  0
    9.8420   12.0593   23.5179 C   0  0  0  0  0  0  0  0  0  0  0  0
    8.3589   10.5415   24.1142 C   0  0  0  0  0  0  0  0  0  0  0  0
    7.9772   12.6832   25.0875 C   0  0  0  0  0  0  0  0  0  0  0  0
    7.1903   10.0193   24.8016 C   0  0  0  0  0  0  0  0  0  0  0  0
    6.9035   12.1528   25.7031 C   0  0  0  0  0  0  0  0  0  0  0  0
   10.5619   13.2854   23.3867 C   0  0  0  0  0  0  0  0  0  0  0  0
   12.2116   15.5329   22.6049 C   0  0  0  0  0  0  0  0  0  0  0  0
   12.0602   14.5894   20.2819 C   0  0  0  0  0  0  0  0  0  0  0  0
    9.9797   15.3691   21.4532 C   0  0  0  0  0  0  0  0  0  0  0  0
   11.3550   14.7270   21.6295 C   0  0  0  0  0  0  0  0  0  0  0  0
    9.1690    9.8933   23.3099 N   0  0  0  0  0  0  0  0  0  0  0  0
    6.4959   10.8324   25.5741 N   0  0  0  0  0  0  0  0  0  0  0  0
    8.7221   11.8548   24.2731 N   0  0  0  0  0  0  0  0  0  0  0  0
    6.8076    8.7063   24.6563 N   0  0  0  0  0  0  0  0  0  0  0  0
   10.6489   14.1746   24.2656 O   0  0  0  0  0  0  0  0  0  0  0  0
   11.1780   13.4091   22.1602 O   0  0  0  0  0  0  0  0  0  0  0  0
    5.9364   13.1496   26.7365 Cl  0  0  0  0  0  0  0  0  0  0  0  0
   10.9041   10.5835   22.2607 H   0  0  0  0  0  0  0  0  0  0  0  0
    8.2901   13.7149   25.1926 H   0  0  0  0  0  0  0  0  0  0  0  0
   11.7089   15.6339   23.5734 H   0  0  0  0  0  0  0  0  0  0  0  0
   13.1877   15.0641   22.7669 H   0  0  0  0  0  0  0  0  0  0  0  0
   12.3742   16.5511   22.2333 H   0  0  0  0  0  0  0  0  0  0  0  0
   11.4491   14.0118   19.5789 H   0  0  0  0  0  0  0  0  0  0  0  0
   13.0050   14.0444   20.3896 H   0  0  0  0  0  0  0  0  0  0  0  0
   12.2724   15.5662   19.8354 H   0  0  0  0  0  0  0  0  0  0  0  0
    9.3651   14.7912   20.7536 H   0  0  0  0  0  0  0  0  0  0  0  0
    9.4438   15.4423   22.4050 H   0  0  0  0  0  0  0  0  0  0  0  0
   10.0710   16.3747   21.0268 H   0  0  0  0  0  0  0  0  0  0  0  0
    6.0027    8.3984   25.1466 H   0  0  0  0  0  0  0  0  0  0  0  0
    7.3530    8.1241   24.0676 H   0  0  0  0  0  0  0  0  0  0  0  0
  1  2  2  0  0  0  0
  1 12  1  0  0  0  0
  2  7  1  0  0  0  0
  2 14  1  0  0  0  0
  3  5  1  0  0  0  0
  3 12  2  0  0  0  0
  3 14  1  0  0  0  0
  4  6  2  0  0  0  0
  4 14  1  0  0  0  0
  5 13  2  0  0  0  0
  5 15  1  0  0  0  0
  6 13  1  0  0  0  0
  6 18  1  0  0  0  0
  7 16  2  0  0  0  0
  7 17  1  0  0  0  0
  8 11  1  0  0  0  0
  9 11  1  0  0  0  0
 10 11  1  0  0  0  0
 11 17  1  0  0  0  0
  1 19  1  0  0  0  0
  4 20  1  0  0  0  0
  8 21  1  0  0  0  0
  8 22  1  0  0  0  0
  8 23  1  0  0  0  0
  9 24  1  0  0  0  0
  9 25  1  0  0  0  0
  9 26  1  0  0  0  0
 10 27  1  0  0  0  0
 10 28  1  0  0  0  0
 10 29  1  0  0  0  0
 15 30  1  0  0  0  0
 15 31  1  0  0  0  0
M  END
> <id>
EN300-27727136

> <smiles>
CC(C)(C)OC(=O)C1=CN=C2C(N)=NC(Cl)=CN12

> <IUPAC Name>
tert-butyl 8-amino-6-chloroimidazo[1,2-a]pyrazine-3-carboxylate

> <CAS>
2639458-57-2

> <URL>
https://www.enaminestore.com/catalog/EN300-27727136

> <ROCS_ShapeQuery>
A71EV2A-x0451_0A_A71EV2A-x0310_0A_A71EV2A-x0416_0A_peptide

> <ROCS_TanimotoCombo>
0.520 

> <ROCS_ShapeTanimoto>
0.349 

> <ROCS_ColorTanimoto>
0.171 

> <ROCS_RefTversky>
0.302 

> <ROCS_RefColorTversky>
0.195 

> <ROCS_RefTverskyCombo>
0.496 

> <ROCS_FitTversky>
1.830 

> <ROCS_FitColorTversky>
0.586 

> <ROCS_FitTverskyCombo>
2.416 

> <ROCS_ColorScore>
-5.956

> <ROCS_Overlap>
2091.532

> <ROCS_Rank>
194                 

$$$$
untitled-dbase-39263_314
  -OEChem-11132313473D

 61 63  0     1  0  0  0  0  0999 V2000
    5.9642   10.4928   26.1093 C   0  0  0  0  0  0  0  0  0  0  0  0
    6.8184    9.8190   25.2360 C   0  0  0  0  0  0  0  0  0  0  0  0
    6.9883   12.5854   25.4886 C   0  0  0  0  0  0  0  0  0  0  0  0
    6.0483   11.8764   26.2341 C   0  0  0  0  0  0  0  0  0  0  0  0
    7.7711   10.5208   24.4793 C   0  0  0  0  0  0  0  0  0  0  0  0
    7.8535   11.9118   24.6202 C   0  0  0  0  0  0  0  0  0  0  0  0
    5.1461   12.5833   27.1296 C   0  0  0  0  0  0  0  0  0  0  0  0
   11.8202   15.0489   22.4452 C   0  0  0  0  0  0  0  0  0  0  0  0
   11.0082   11.9025   24.2175 C   0  0  0  0  0  0  0  0  0  0  0  0
    9.3526   10.7540   22.5694 C   0  0  0  0  0  0  0  0  0  0  0  0
   11.6140   13.3008   24.2534 C   0  0  0  0  0  0  0  0  0  0  0  0
   10.3587   13.0392   22.2171 C   0  0  0  0  0  0  0  0  0  0  0  0
    8.6719    9.7731   23.5294 C   0  0  1  0  0  0  0  0  0  0  0  0
    9.8143   12.0431   23.2558 C   0  0  2  0  0  0  0  0  0  0  0  0
    4.5634   13.6329   29.7397 C   0  0  0  0  0  0  0  0  0  0  0  0
    5.7803   15.6922   28.9732 C   0  0  0  0  0  0  0  0  0  0  0  0
    3.6812   14.9699   27.7983 C   0  0  0  0  0  0  0  0  0  0  0  0
   13.8562   16.4382   20.9986 C   0  0  0  0  0  0  0  0  0  0  0  0
   12.4719   15.9638   18.9571 C   0  0  0  0  0  0  0  0  0  0  0  0
   11.5299   17.3793   20.8056 C   0  0  0  0  0  0  0  0  0  0  0  0
    4.9335   14.4988   28.5364 C   0  0  0  0  0  0  0  0  0  0  0  0
   12.4438   16.2030   20.4651 C   0  0  0  0  0  0  0  0  0  0  0  0
   11.3029   13.8688   22.9518 N   0  0  0  0  0  0  0  0  0  0  0  0
    9.6355    8.9357   24.2462 N   0  0  0  0  0  0  0  0  0  0  0  0
    3.9970   12.2115   27.4034 O   0  0  0  0  0  0  0  0  0  0  0  0
   12.1571   16.0078   23.1361 O   0  0  0  0  0  0  0  0  0  0  0  0
    8.7281   12.7051   23.9271 O   0  0  0  0  0  0  0  0  0  0  0  0
    5.7247   13.7146   27.6370 O   0  0  0  0  0  0  0  0  0  0  0  0
   11.9154   15.0224   21.0794 O   0  0  0  0  0  0  0  0  0  0  0  0
    5.2375    9.9278   26.6862 H   0  0  0  0  0  0  0  0  0  0  0  0
    6.7343    8.7390   25.1544 H   0  0  0  0  0  0  0  0  0  0  0  0
    7.0424   13.6693   25.5714 H   0  0  0  0  0  0  0  0  0  0  0  0
   11.7488   11.1942   23.8243 H   0  0  0  0  0  0  0  0  0  0  0  0
   10.7087   11.5790   25.2206 H   0  0  0  0  0  0  0  0  0  0  0  0
   10.2405   10.2689   22.1128 H   0  0  0  0  0  0  0  0  0  0  0  0
    8.6729   10.9844   21.7248 H   0  0  0  0  0  0  0  0  0  0  0  0
   11.1376   13.9288   25.0141 H   0  0  0  0  0  0  0  0  0  0  0  0
   12.6939   13.2966   24.4282 H   0  0  0  0  0  0  0  0  0  0  0  0
   10.9220   12.5384   21.4204 H   0  0  0  0  0  0  0  0  0  0  0  0
    9.5887   13.6756   21.7671 H   0  0  0  0  0  0  0  0  0  0  0  0
    8.0108    9.0953   22.9499 H   0  0  0  0  0  0  0  0  0  0  0  0
    3.9555   12.7751   29.4303 H   0  0  0  0  0  0  0  0  0  0  0  0
    5.4533   13.2598   30.2572 H   0  0  0  0  0  0  0  0  0  0  0  0
    3.9576   14.1984   30.4569 H   0  0  0  0  0  0  0  0  0  0  0  0
    6.0482   16.3162   28.1129 H   0  0  0  0  0  0  0  0  0  0  0  0
    6.7246   15.3586   29.4185 H   0  0  0  0  0  0  0  0  0  0  0  0
    5.2539   16.3155   29.7032 H   0  0  0  0  0  0  0  0  0  0  0  0
    3.9464   15.5910   26.9352 H   0  0  0  0  0  0  0  0  0  0  0  0
    3.0798   14.1259   27.4451 H   0  0  0  0  0  0  0  0  0  0  0  0
    3.0575   15.5940   28.4484 H   0  0  0  0  0  0  0  0  0  0  0  0
   13.8403   16.6104   22.0808 H   0  0  0  0  0  0  0  0  0  0  0  0
   14.5126   15.5867   20.7916 H   0  0  0  0  0  0  0  0  0  0  0  0
   14.2996   17.3343   20.5496 H   0  0  0  0  0  0  0  0  0  0  0  0
   11.4606   15.7946   18.5700 H   0  0  0  0  0  0  0  0  0  0  0  0
   13.0494   15.0642   18.7153 H   0  0  0  0  0  0  0  0  0  0  0  0
   12.9107   16.8119   18.4216 H   0  0  0  0  0  0  0  0  0  0  0  0
   10.5167   17.2109   20.4230 H   0  0  0  0  0  0  0  0  0  0  0  0
   11.4684   17.5426   21.8865 H   0  0  0  0  0  0  0  0  0  0  0  0
   11.8892   18.3011   20.3340 H   0  0  0  0  0  0  0  0  0  0  0  0
    9.1282    8.3304   24.8446 H   0  0  0  0  0  0  0  0  0  0  0  0
   10.1504    8.4205   23.5744 H   0  0  0  0  0  0  0  0  0  0  0  0
  1  2  1  0  0  0  0
  1  4  2  0  0  0  0
  2  5  2  0  0  0  0
  3  4  1  0  0  0  0
  3  6  2  0  0  0  0
  4  7  1  0  0  0  0
  5  6  1  0  0  0  0
  5 13  1  0  0  0  0
  6 27  1  0  0  0  0
  7 25  2  0  0  0  0
  7 28  1  0  0  0  0
  8 23  1  0  0  0  0
  8 26  2  0  0  0  0
  8 29  1  0  0  0  0
  9 11  1  0  0  0  0
  9 14  1  0  0  0  0
 10 13  1  0  0  0  0
 10 14  1  0  0  0  0
 11 23  1  0  0  0  0
 12 14  1  0  0  0  0
 12 23  1  0  0  0  0
 13 24  1  0  0  0  0
 14 27  1  0  0  0  0
 15 21  1  0  0  0  0
 16 21  1  0  0  0  0
 17 21  1  0  0  0  0
 18 22  1  0  0  0  0
 19 22  1  0  0  0  0
 20 22  1  0  0  0  0
 21 28  1  0  0  0  0
 22 29  1  0  0  0  0
  1 30  1  0  0  0  0
  2 31  1  0  0  0  0
  3 32  1  0  0  0  0
  9 33  1  0  0  0  0
  9 34  1  0  0  0  0
 10 35  1  0  0  0  0
 10 36  1  0  0  0  0
 11 37  1  0  0  0  0
 11 38  1  0  0  0  0
 12 39  1  0  0  0  0
 12 40  1  0  0  0  0
 13 41  1  0  0  0  0
 15 42  1  0  0  0  0
 15 43  1  0  0  0  0
 15 44  1  0  0  0  0
 16 45  1  0  0  0  0
 16 46  1  0  0  0  0
 16 47  1  0  0  0  0
 17 48  1  0  0  0  0
 17 49  1  0  0  0  0
 17 50  1  0  0  0  0
 18 51  1  0  0  0  0
 18 52  1  0  0  0  0
 18 53  1  0  0  0  0
 19 54  1  0  0  0  0
 19 55  1  0  0  0  0
 19 56  1  0  0  0  0
 20 57  1  0  0  0  0
 20 58  1  0  0  0  0
 20 59  1  0  0  0  0
 24 60  1  0  0  0  0
 24 61  1  0  0  0  0
M  END
> <id>
EN300-1129057

> <smiles>
CC(C)(C)OC(=O)N1CCC2(C1)CC(N)C=3C=CC(=CC3O2)C(=O)OC(C)(C)C

> <IUPAC Name>
1',7-di-tert-butyl 4-amino-3,4-dihydrospiro[1-benzopyran-2,3'-pyrrolidine]-1',7-dicarboxylate

> <CAS>
2138000-19-6

> <URL>
https://www.enaminestore.com/catalog/EN300-1129057

> <ROCS_ShapeQuery>
A71EV2A-x0451_0A_A71EV2A-x0310_0A_A71EV2A-x0416_0A_peptide

> <ROCS_TanimotoCombo>
0.520 

> <ROCS_ShapeTanimoto>
0.388 

> <ROCS_ColorTanimoto>
0.133 

> <ROCS_RefTversky>
0.344 

> <ROCS_RefColorTversky>
0.160 

> <ROCS_RefTverskyCombo>
0.504 

> <ROCS_FitTversky>
1.489 

> <ROCS_FitColorTversky>
0.440 

> <ROCS_FitTverskyCombo>
1.929 

> <ROCS_ColorScore>
-4.885

> <ROCS_Overlap>
2394.971

> <ROCS_Rank>
195                 

$$$$
untitled-dbase-156335_100
  -OEChem-11132313473D

 28 29  0     0  0  0  0  0  0999 V2000
    7.8669   10.8074   24.7811 C   0  0  0  0  0  0  0  0  0  0  0  0
    8.5926   11.9546   24.4691 C   0  0  0  0  0  0  0  0  0  0  0  0
    6.5068   12.2990   25.6609 C   0  0  0  0  0  0  0  0  0  0  0  0
    5.3816   12.8406   26.3439 C   0  0  0  0  0  0  0  0  0  0  0  0
   10.4547   13.3119   23.5986 C   0  0  0  0  0  0  0  0  0  0  0  0
    8.2223    9.3969   24.4568 C   0  0  0  0  0  0  0  0  0  0  0  0
    8.4427    9.1623   22.9658 C   0  0  0  0  0  0  0  0  0  0  0  0
    9.5138   10.0295   22.2932 C   0  0  0  0  0  0  0  0  0  0  0  0
   10.4321   10.8122   23.2319 C   0  0  0  0  0  0  0  0  0  0  0  0
   11.3350   13.4686   22.3777 C   0  0  0  0  0  0  0  0  0  0  0  0
    6.6832   11.0144   25.4748 N   0  0  0  0  0  0  0  0  0  0  0  0
    9.8130   12.0592   23.7530 N   0  0  0  0  0  0  0  0  0  0  0  0
    4.4321   12.1960   26.8478 O   0  0  0  0  0  0  0  0  0  0  0  0
   10.3734   14.2835   24.3543 O   0  0  0  0  0  0  0  0  0  0  0  0
    5.3956   14.2113   26.4272 O   0  0  0  0  0  0  0  0  0  0  0  0
   11.3329   12.3388   21.6508 F   0  0  0  0  0  0  0  0  0  0  0  0
   10.8905   14.4729   21.6037 F   0  0  0  0  0  0  0  0  0  0  0  0
   12.6004   13.7392   22.7393 F   0  0  0  0  0  0  0  0  0  0  0  0
    7.7174   13.3180   25.0292 S   0  0  0  0  0  0  0  0  0  0  0  0
    9.1040    9.0879   25.0371 H   0  0  0  0  0  0  0  0  0  0  0  0
    7.3967    8.7473   24.7862 H   0  0  0  0  0  0  0  0  0  0  0  0
    8.7165    8.1033   22.8042 H   0  0  0  0  0  0  0  0  0  0  0  0
    7.4864    9.2936   22.4238 H   0  0  0  0  0  0  0  0  0  0  0  0
   10.1485    9.3768   21.6800 H   0  0  0  0  0  0  0  0  0  0  0  0
    9.0238   10.7174   21.5935 H   0  0  0  0  0  0  0  0  0  0  0  0
   10.7153   10.1997   24.0939 H   0  0  0  0  0  0  0  0  0  0  0  0
   11.3663   11.0231   22.7136 H   0  0  0  0  0  0  0  0  0  0  0  0
    6.1750   14.6332   26.0065 H   0  0  0  0  0  0  0  0  0  0  0  0
  1  2  2  0  0  0  0
  1  6  1  0  0  0  0
  1 11  1  0  0  0  0
  2 12  1  0  0  0  0
  2 19  1  0  0  0  0
  3  4  1  0  0  0  0
  3 11  2  0  0  0  0
  3 19  1  0  0  0  0
  4 13  2  0  0  0  0
  4 15  1  0  0  0  0
  5 10  1  0  0  0  0
  5 12  1  0  0  0  0
  5 14  2  0  0  0  0
  6  7  1  0  0  0  0
  7  8  1  0  0  0  0
  8  9  1  0  0  0  0
  9 12  1  0  0  0  0
 10 16  1  0  0  0  0
 10 17  1  0  0  0  0
 10 18  1  0  0  0  0
  6 20  1  0  0  0  0
  6 21  1  0  0  0  0
  7 22  1  0  0  0  0
  7 23  1  0  0  0  0
  8 24  1  0  0  0  0
  8 25  1  0  0  0  0
  9 26  1  0  0  0  0
  9 27  1  0  0  0  0
 15 28  1  0  0  0  0
M  END
> <id>
EN300-28289072

> <smiles>
OC(=O)C1=NC=2CCCCN(C(=O)C(F)(F)F)C2S1

> <IUPAC Name>
4-(2,2,2-trifluoroacetyl)-4H,5H,6H,7H,8H-[1,3]thiazolo[5,4-b]azepine-2-carboxylic acid

> <CAS>
2680882-19-1

> <URL>
https://www.enaminestore.com/catalog/EN300-28289072

> <ROCS_ShapeQuery>
A71EV2A-x0451_0A_A71EV2A-x0310_0A_A71EV2A-x0416_0A_peptide

> <ROCS_TanimotoCombo>
0.520 

> <ROCS_ShapeTanimoto>
0.342 

> <ROCS_ColorTanimoto>
0.178 

> <ROCS_RefTversky>
0.298 

> <ROCS_RefColorTversky>
0.192 

> <ROCS_RefTverskyCombo>
0.490 

> <ROCS_FitTversky>
1.763 

> <ROCS_FitColorTversky>
0.709 

> <ROCS_FitTverskyCombo>
2.472 

> <ROCS_ColorScore>
-5.854

> <ROCS_Overlap>
2068.949

> <ROCS_Rank>
196                 

$$$$
untitled-dbase-161083_22
  -OEChem-11132313473D

 40 42  0     1  0  0  0  0  0999 V2000
   11.0771   13.5542   23.3293 C   0  0  0  0  0  0  0  0  0  0  0  0
    9.4256    9.6863   23.0077 C   0  0  0  0  0  0  0  0  0  0  0  0
    9.6939    9.5757   24.5116 C   0  0  0  0  0  0  0  0  0  0  0  0
    7.1181   10.5280   23.3856 C   0  0  0  0  0  0  0  0  0  0  0  0
    7.4726   12.1845   25.3100 C   0  0  0  0  0  0  0  0  0  0  0  0
    8.4594   10.8450   22.6867 C   0  0  1  0  0  0  0  0  0  0  0  0
    8.8600   10.5856   25.2861 C   0  0  2  0  0  0  0  0  0  0  0  0
    7.3409   10.6915   24.8971 C   0  0  2  0  0  0  0  0  0  0  0  0
    8.9379   12.0777   24.7915 C   0  0  1  0  0  0  0  0  0  0  0  0
    8.9988   12.1845   23.2556 C   0  0  1  0  0  0  0  0  0  0  0  0
   12.6048   15.9133   22.8290 C   0  0  0  0  0  0  0  0  0  0  0  0
   14.1462   14.4159   21.5287 C   0  0  0  0  0  0  0  0  0  0  0  0
   11.7601   14.6941   20.7957 C   0  0  0  0  0  0  0  0  0  0  0  0
   12.7084   14.6389   21.9926 C   0  0  0  0  0  0  0  0  0  0  0  0
   10.3647   12.4522   22.8935 N   0  0  0  0  0  0  0  0  0  0  0  0
   10.6475   14.4335   24.0687 O   0  0  0  0  0  0  0  0  0  0  0  0
   12.3422   13.5240   22.8134 O   0  0  0  0  0  0  0  0  0  0  0  0
   10.3734    9.8100   22.4705 H   0  0  0  0  0  0  0  0  0  0  0  0
    9.0048    8.7406   22.6428 H   0  0  0  0  0  0  0  0  0  0  0  0
    9.4661    8.5595   24.8532 H   0  0  0  0  0  0  0  0  0  0  0  0
   10.7590    9.7417   24.7107 H   0  0  0  0  0  0  0  0  0  0  0  0
    6.3271   11.2024   23.0380 H   0  0  0  0  0  0  0  0  0  0  0  0
    6.7981    9.5051   23.1561 H   0  0  0  0  0  0  0  0  0  0  0  0
    6.8198   12.8972   24.7978 H   0  0  0  0  0  0  0  0  0  0  0  0
    7.3900   12.3605   26.3898 H   0  0  0  0  0  0  0  0  0  0  0  0
    8.3183   10.9119   21.6022 H   0  0  0  0  0  0  0  0  0  0  0  0
    9.0215   10.4841   26.3687 H   0  0  0  0  0  0  0  0  0  0  0  0
    6.6424   10.1099   25.5053 H   0  0  0  0  0  0  0  0  0  0  0  0
    9.6368   12.7280   25.3282 H   0  0  0  0  0  0  0  0  0  0  0  0
    8.4016   13.0319   22.9011 H   0  0  0  0  0  0  0  0  0  0  0  0
   11.5742   16.0769   23.1639 H   0  0  0  0  0  0  0  0  0  0  0  0
   13.2541   15.8718   23.7096 H   0  0  0  0  0  0  0  0  0  0  0  0
   12.8807   16.7933   22.2368 H   0  0  0  0  0  0  0  0  0  0  0  0
   14.2253   13.5025   20.9281 H   0  0  0  0  0  0  0  0  0  0  0  0
   14.8163   14.2809   22.3855 H   0  0  0  0  0  0  0  0  0  0  0  0
   14.5129   15.2567   20.9309 H   0  0  0  0  0  0  0  0  0  0  0  0
   11.8343   13.7800   20.1955 H   0  0  0  0  0  0  0  0  0  0  0  0
   10.7190   14.8167   21.1113 H   0  0  0  0  0  0  0  0  0  0  0  0
   12.0220   15.5237   20.1291 H   0  0  0  0  0  0  0  0  0  0  0  0
   10.8354   11.7903   22.2792 H   0  0  0  0  0  0  0  0  0  0  0  0
  1 15  1  0  0  0  0
  1 16  2  0  0  0  0
  1 17  1  0  0  0  0
  2  3  1  0  0  0  0
  2  6  1  0  0  0  0
  3  7  1  0  0  0  0
  4  6  1  0  0  0  0
  4  8  1  0  0  0  0
  5  8  1  0  0  0  0
  5  9  1  0  0  0  0
  6 10  1  0  0  0  0
  7  8  1  0  0  0  0
  7  9  1  0  0  0  0
  9 10  1  0  0  0  0
 10 15  1  0  0  0  0
 11 14  1  0  0  0  0
 12 14  1  0  0  0  0
 13 14  1  0  0  0  0
 14 17  1  0  0  0  0
  2 18  1  0  0  0  0
  2 19  1  0  0  0  0
  3 20  1  0  0  0  0
  3 21  1  0  0  0  0
  4 22  1  0  0  0  0
  4 23  1  0  0  0  0
  5 24  1  0  0  0  0
  5 25  1  0  0  0  0
  6 26  1  0  0  0  0
  7 27  1  0  0  0  0
  8 28  1  0  0  0  0
  9 29  1  0  0  0  0
 10 30  1  0  0  0  0
 11 31  1  0  0  0  0
 11 32  1  0  0  0  0
 11 33  1  0  0  0  0
 12 34  1  0  0  0  0
 12 35  1  0  0  0  0
 12 36  1  0  0  0  0
 13 37  1  0  0  0  0
 13 38  1  0  0  0  0
 13 39  1  0  0  0  0
 15 40  1  0  0  0  0
M  END
> <id>
EN300-33050441

> <smiles>
CC(C)(C)OC(=O)NC1C2CC3CC1CCC32

> <IUPAC Name>
tert-butyl N-{tricyclo[3.3.1.0,2,7]nonan-6-yl}carbamate

> <CAS>
2694732-84-6

> <URL>
https://www.enaminestore.com/catalog/EN300-33050441

> <ROCS_ShapeQuery>
A71EV2A-x0451_0A_A71EV2A-x0310_0A_A71EV2A-x0416_0A_peptide

> <ROCS_TanimotoCombo>
0.520 

> <ROCS_ShapeTanimoto>
0.294 

> <ROCS_ColorTanimoto>
0.227 

> <ROCS_RefTversky>
0.263 

> <ROCS_RefColorTversky>
0.282 

> <ROCS_RefTverskyCombo>
0.545 

> <ROCS_FitTversky>
1.681 

> <ROCS_FitColorTversky>
0.535 

> <ROCS_FitTverskyCombo>
2.216 

> <ROCS_ColorScore>
-8.718

> <ROCS_Overlap>
1820.501

> <ROCS_Rank>
197                 

$$$$
untitled-dbase-157364_8
  -OEChem-11132313473D

 32 32  0     0  0  0  0  0  0999 V2000
   10.0156    9.3961   22.7330 C   0  0  0  0  0  0  0  0  0  0  0  0
    8.3570   12.3195   24.3078 C   0  0  0  0  0  0  0  0  0  0  0  0
    7.3028   10.2659   24.8803 C   0  0  0  0  0  0  0  0  0  0  0  0
    9.1326   10.2246   23.4916 C   0  0  0  0  0  0  0  0  0  0  0  0
    7.3526   11.6459   24.9938 C   0  0  0  0  0  0  0  0  0  0  0  0
    9.2680   11.6027   23.5400 C   0  0  0  0  0  0  0  0  0  0  0  0
   10.9106   13.4704   23.1870 C   0  0  0  0  0  0  0  0  0  0  0  0
   11.7006   16.1488   22.5696 C   0  0  0  0  0  0  0  0  0  0  0  0
   12.8048   15.1594   20.5420 C   0  0  0  0  0  0  0  0  0  0  0  0
   10.3156   14.9790   20.8238 C   0  0  0  0  0  0  0  0  0  0  0  0
    6.3628   12.3836   25.8235 C   0  0  0  0  0  0  0  0  0  0  0  0
   11.6622   15.0159   21.5450 C   0  0  0  0  0  0  0  0  0  0  0  0
   10.7328    8.7232   22.1168 N   0  0  0  0  0  0  0  0  0  0  0  0
    8.1700    9.5353   24.1442 N   0  0  0  0  0  0  0  0  0  0  0  0
   10.2899   12.2856   22.8417 N   0  0  0  0  0  0  0  0  0  0  0  0
   10.6986   14.1692   24.1705 O   0  0  0  0  0  0  0  0  0  0  0  0
   11.8447   13.7766   22.2308 O   0  0  0  0  0  0  0  0  0  0  0  0
    6.5497   13.7384   25.8306 F   0  0  0  0  0  0  0  0  0  0  0  0
    5.0676   12.2087   25.4211 F   0  0  0  0  0  0  0  0  0  0  0  0
    6.3883   12.0075   27.1369 F   0  0  0  0  0  0  0  0  0  0  0  0
    8.4270   13.4029   24.3736 H   0  0  0  0  0  0  0  0  0  0  0  0
    6.5412    9.6863   25.3929 H   0  0  0  0  0  0  0  0  0  0  0  0
   10.8820   16.0494   23.2913 H   0  0  0  0  0  0  0  0  0  0  0  0
   12.6480   16.1645   23.1182 H   0  0  0  0  0  0  0  0  0  0  0  0
   11.5667   17.1214   22.0823 H   0  0  0  0  0  0  0  0  0  0  0  0
   12.7811   14.3486   19.8050 H   0  0  0  0  0  0  0  0  0  0  0  0
   13.7763   15.0912   21.0447 H   0  0  0  0  0  0  0  0  0  0  0  0
   12.7567   16.1143   20.0086 H   0  0  0  0  0  0  0  0  0  0  0  0
   10.2877   14.1665   20.0888 H   0  0  0  0  0  0  0  0  0  0  0  0
    9.4863   14.8394   21.5248 H   0  0  0  0  0  0  0  0  0  0  0  0
   10.1471   15.9069   20.2654 H   0  0  0  0  0  0  0  0  0  0  0  0
   10.6072   11.8510   21.9786 H   0  0  0  0  0  0  0  0  0  0  0  0
  1  4  1  0  0  0  0
  1 13  3  0  0  0  0
  2  5  1  0  0  0  0
  2  6  2  0  0  0  0
  3  5  2  0  0  0  0
  3 14  1  0  0  0  0
  4  6  1  0  0  0  0
  4 14  2  0  0  0  0
  5 11  1  0  0  0  0
  6 15  1  0  0  0  0
  7 15  1  0  0  0  0
  7 16  2  0  0  0  0
  7 17  1  0  0  0  0
  8 12  1  0  0  0  0
  9 12  1  0  0  0  0
 10 12  1  0  0  0  0
 11 18  1  0  0  0  0
 11 19  1  0  0  0  0
 11 20  1  0  0  0  0
 12 17  1  0  0  0  0
  2 21  1  0  0  0  0
  3 22  1  0  0  0  0
  8 23  1  0  0  0  0
  8 24  1  0  0  0  0
  8 25  1  0  0  0  0
  9 26  1  0  0  0  0
  9 27  1  0  0  0  0
  9 28  1  0  0  0  0
 10 29  1  0  0  0  0
 10 30  1  0  0  0  0
 10 31  1  0  0  0  0
 15 32  1  0  0  0  0
M  END
> <id>
EN300-28287449

> <smiles>
CC(C)(C)OC(=O)NC=1C=C(C=NC1C#N)C(F)(F)F

> <IUPAC Name>
tert-butyl N-[2-cyano-5-(trifluoromethyl)pyridin-3-yl]carbamate

> <CAS>
2244683-81-4

> <URL>
https://www.enaminestore.com/catalog/EN300-28287449

> <ROCS_ShapeQuery>
A71EV2A-x0451_0A_A71EV2A-x0310_0A_A71EV2A-x0416_0A_peptide

> <ROCS_TanimotoCombo>
0.520 

> <ROCS_ShapeTanimoto>
0.360 

> <ROCS_ColorTanimoto>
0.161 

> <ROCS_RefTversky>
0.311 

> <ROCS_RefColorTversky>
0.171 

> <ROCS_RefTverskyCombo>
0.482 

> <ROCS_FitTversky>
1.776 

> <ROCS_FitColorTversky>
0.716 

> <ROCS_FitTverskyCombo>
2.492 

> <ROCS_ColorScore>
-5.216

> <ROCS_Overlap>
2156.781

> <ROCS_Rank>
198                 

$$$$
untitled-dbase-150658_29
  -OEChem-11132313473D

 30 31  0     0  0  0  0  0  0999 V2000
    7.7417   10.6570   24.7717 C   0  0  0  0  0  0  0  0  0  0  0  0
    9.3235   11.3307   23.4296 C   0  0  0  0  0  0  0  0  0  0  0  0
    6.7352   10.8341   25.7433 C   0  0  0  0  0  0  0  0  0  0  0  0
    6.4886   12.0636   26.2122 C   0  0  0  0  0  0  0  0  0  0  0  0
    7.3103   13.1805   25.6634 C   0  0  0  0  0  0  0  0  0  0  0  0
   10.7694   13.3757   23.2344 C   0  0  0  0  0  0  0  0  0  0  0  0
   11.2783   16.1769   22.9632 C   0  0  0  0  0  0  0  0  0  0  0  0
   12.2759   15.5920   20.7334 C   0  0  0  0  0  0  0  0  0  0  0  0
    9.8448   15.1396   21.1732 C   0  0  0  0  0  0  0  0  0  0  0  0
   11.2425   15.2013   21.7877 C   0  0  0  0  0  0  0  0  0  0  0  0
    8.2051    9.6025   24.1346 N   0  0  0  0  0  0  0  0  0  0  0  0
    9.2061   10.0300   23.2856 N   0  0  0  0  0  0  0  0  0  0  0  0
    8.2450   13.0575   24.7692 N   0  0  0  0  0  0  0  0  0  0  0  0
    8.4246   11.7773   24.3536 N   0  0  0  0  0  0  0  0  0  0  0  0
   10.2202   12.1982   22.7653 N   0  0  0  0  0  0  0  0  0  0  0  0
   10.5887   13.9056   24.3239 O   0  0  0  0  0  0  0  0  0  0  0  0
   11.5866   13.9005   22.2662 O   0  0  0  0  0  0  0  0  0  0  0  0
    7.0289   14.7875   26.2369 Cl  0  0  0  0  0  0  0  0  0  0  0  0
    6.1739    9.9781   26.0999 H   0  0  0  0  0  0  0  0  0  0  0  0
    5.7300   12.2643   26.9572 H   0  0  0  0  0  0  0  0  0  0  0  0
   10.5379   15.8999   23.7222 H   0  0  0  0  0  0  0  0  0  0  0  0
   12.2660   16.2044   23.4347 H   0  0  0  0  0  0  0  0  0  0  0  0
   11.0220   17.1915   22.6372 H   0  0  0  0  0  0  0  0  0  0  0  0
   12.2537   14.8947   19.8881 H   0  0  0  0  0  0  0  0  0  0  0  0
   13.2905   15.5455   21.1453 H   0  0  0  0  0  0  0  0  0  0  0  0
   12.1022   16.6037   20.3528 H   0  0  0  0  0  0  0  0  0  0  0  0
    9.8189   14.4398   20.3301 H   0  0  0  0  0  0  0  0  0  0  0  0
    9.0953   14.8249   21.9066 H   0  0  0  0  0  0  0  0  0  0  0  0
    9.5516   16.1169   20.7731 H   0  0  0  0  0  0  0  0  0  0  0  0
   10.4949   11.9213   21.8259 H   0  0  0  0  0  0  0  0  0  0  0  0
  1  3  1  0  0  0  0
  1 11  2  0  0  0  0
  1 14  1  0  0  0  0
  2 12  2  0  0  0  0
  2 14  1  0  0  0  0
  2 15  1  0  0  0  0
  3  4  2  0  0  0  0
  4  5  1  0  0  0  0
  5 13  2  0  0  0  0
  5 18  1  0  0  0  0
  6 15  1  0  0  0  0
  6 16  2  0  0  0  0
  6 17  1  0  0  0  0
  7 10  1  0  0  0  0
  8 10  1  0  0  0  0
  9 10  1  0  0  0  0
 10 17  1  0  0  0  0
 11 12  1  0  0  0  0
 13 14  1  0  0  0  0
  3 19  1  0  0  0  0
  4 20  1  0  0  0  0
  7 21  1  0  0  0  0
  7 22  1  0  0  0  0
  7 23  1  0  0  0  0
  8 24  1  0  0  0  0
  8 25  1  0  0  0  0
  8 26  1  0  0  0  0
  9 27  1  0  0  0  0
  9 28  1  0  0  0  0
  9 29  1  0  0  0  0
 15 30  1  0  0  0  0
M  END
> <id>
EN300-28283256

> <smiles>
CC(C)(C)OC(=O)NC1=NN=C2C=CC(Cl)=NN12

> <IUPAC Name>
tert-butyl N-{6-chloro-[1,2,4]triazolo[4,3-b]pyridazin-3-yl}carbamate

> <CAS>
2680748-84-7

> <URL>
https://www.enaminestore.com/catalog/EN300-28283256

> <ROCS_ShapeQuery>
A71EV2A-x0451_0A_A71EV2A-x0310_0A_A71EV2A-x0416_0A_peptide

> <ROCS_TanimotoCombo>
0.520 

> <ROCS_ShapeTanimoto>
0.338 

> <ROCS_ColorTanimoto>
0.182 

> <ROCS_RefTversky>
0.294 

> <ROCS_RefColorTversky>
0.202 

> <ROCS_RefTverskyCombo>
0.496 

> <ROCS_FitTversky>
1.786 

> <ROCS_FitColorTversky>
0.649 

> <ROCS_FitTverskyCombo>
2.435 

> <ROCS_ColorScore>
-6.165

> <ROCS_Overlap>
2040.809

> <ROCS_Rank>
199                 

$$$$
untitled-dbase-34639_157
  -OEChem-11132313473D

 42 44  0     0  0  0  0  0  0999 V2000
    5.9281   12.8585   28.5110 C   0  0  0  0  0  0  0  0  0  0  0  0
    6.7234   12.1909   27.5862 C   0  0  0  0  0  0  0  0  0  0  0  0
    4.5528   12.7634   28.3719 C   0  0  0  0  0  0  0  0  0  0  0  0
    4.7434   11.4266   26.5132 C   0  0  0  0  0  0  0  0  0  0  0  0
    6.1276   11.4591   26.5651 C   0  0  0  0  0  0  0  0  0  0  0  0
    7.8594   11.2001   24.6884 C   0  0  0  0  0  0  0  0  0  0  0  0
    6.9248   10.7567   25.5917 C   0  0  0  0  0  0  0  0  0  0  0  0
    8.2833   10.0288   24.0199 C   0  0  0  0  0  0  0  0  0  0  0  0
   10.6246   13.3557   23.5699 C   0  0  0  0  0  0  0  0  0  0  0  0
    8.3676   12.5603   24.3917 C   0  0  0  0  0  0  0  0  0  0  0  0
    9.3132   10.0364   22.9534 C   0  0  0  0  0  0  0  0  0  0  0  0
    9.4952   11.4641   22.4114 C   0  0  0  0  0  0  0  0  0  0  0  0
   12.3678   15.3475   22.4817 C   0  0  0  0  0  0  0  0  0  0  0  0
   13.0074   13.6008   20.7938 C   0  0  0  0  0  0  0  0  0  0  0  0
   10.6364   14.4214   20.9072 C   0  0  0  0  0  0  0  0  0  0  0  0
   11.8994   14.1144   21.7106 C   0  0  0  0  0  0  0  0  0  0  0  0
    3.9378   12.0622   27.3934 N   0  0  0  0  0  0  0  0  0  0  0  0
    7.6751    8.9268   24.4627 N   0  0  0  0  0  0  0  0  0  0  0  0
    6.8531    9.4029   25.4174 N   0  0  0  0  0  0  0  0  0  0  0  0
    9.5451   12.4666   23.4963 N   0  0  0  0  0  0  0  0  0  0  0  0
   10.7038   14.2866   24.3694 O   0  0  0  0  0  0  0  0  0  0  0  0
   11.6007   13.0756   22.6503 O   0  0  0  0  0  0  0  0  0  0  0  0
    6.3706   13.4350   29.3152 H   0  0  0  0  0  0  0  0  0  0  0  0
    7.8054   12.2503   27.6741 H   0  0  0  0  0  0  0  0  0  0  0  0
    3.8884   13.2657   29.0673 H   0  0  0  0  0  0  0  0  0  0  0  0
    4.2167   10.8732   25.7409 H   0  0  0  0  0  0  0  0  0  0  0  0
    7.5842   13.1712   23.9344 H   0  0  0  0  0  0  0  0  0  0  0  0
    8.7012   13.0537   25.3112 H   0  0  0  0  0  0  0  0  0  0  0  0
   10.2701    9.6627   23.3342 H   0  0  0  0  0  0  0  0  0  0  0  0
    8.9948    9.3734   22.1402 H   0  0  0  0  0  0  0  0  0  0  0  0
   10.4454   11.5449   21.8686 H   0  0  0  0  0  0  0  0  0  0  0  0
    8.6950   11.6954   21.7012 H   0  0  0  0  0  0  0  0  0  0  0  0
   11.5753   15.7192   23.1410 H   0  0  0  0  0  0  0  0  0  0  0  0
   13.2526   15.1313   23.0893 H   0  0  0  0  0  0  0  0  0  0  0  0
   12.6104   16.1681   21.7969 H   0  0  0  0  0  0  0  0  0  0  0  0
   12.6757   12.7160   20.2385 H   0  0  0  0  0  0  0  0  0  0  0  0
   13.8827   13.2898   21.3756 H   0  0  0  0  0  0  0  0  0  0  0  0
   13.3225   14.3636   20.0744 H   0  0  0  0  0  0  0  0  0  0  0  0
   10.3001   13.5370   20.3540 H   0  0  0  0  0  0  0  0  0  0  0  0
    9.8187   14.7563   21.5536 H   0  0  0  0  0  0  0  0  0  0  0  0
   10.8298   15.1989   20.1593 H   0  0  0  0  0  0  0  0  0  0  0  0
    6.2667    8.7422   25.9125 H   0  0  0  0  0  0  0  0  0  0  0  0
  1  2  1  0  0  0  0
  1  3  2  0  0  0  0
  2  5  2  0  0  0  0
  3 17  1  0  0  0  0
  4  5  1  0  0  0  0
  4 17  2  0  0  0  0
  5  7  1  0  0  0  0
  6  7  2  0  0  0  0
  6  8  1  0  0  0  0
  6 10  1  0  0  0  0
  7 19  1  0  0  0  0
  8 11  1  0  0  0  0
  8 18  2  0  0  0  0
  9 20  1  0  0  0  0
  9 21  2  0  0  0  0
  9 22  1  0  0  0  0
 10 20  1  0  0  0  0
 11 12  1  0  0  0  0
 12 20  1  0  0  0  0
 13 16  1  0  0  0  0
 14 16  1  0  0  0  0
 15 16  1  0  0  0  0
 16 22  1  0  0  0  0
 18 19  1  0  0  0  0
  1 23  1  0  0  0  0
  2 24  1  0  0  0  0
  3 25  1  0  0  0  0
  4 26  1  0  0  0  0
 10 27  1  0  0  0  0
 10 28  1  0  0  0  0
 11 29  1  0  0  0  0
 11 30  1  0  0  0  0
 12 31  1  0  0  0  0
 12 32  1  0  0  0  0
 13 33  1  0  0  0  0
 13 34  1  0  0  0  0
 13 35  1  0  0  0  0
 14 36  1  0  0  0  0
 14 37  1  0  0  0  0
 14 38  1  0  0  0  0
 15 39  1  0  0  0  0
 15 40  1  0  0  0  0
 15 41  1  0  0  0  0
 19 42  1  0  0  0  0
M  END
> <id>
EN300-784378

> <smiles>
CC(C)(C)OC(=O)N1CCC2=NNC(=C2C1)C=3C=CC=NC3

> <IUPAC Name>
tert-butyl 3-(pyridin-3-yl)-2H,4H,5H,6H,7H-pyrazolo[4,3-c]pyridine-5-carboxylate

> <CAS>
1801323-89-6

> <URL>
https://www.enaminestore.com/catalog/EN300-784378

> <ROCS_ShapeQuery>
A71EV2A-x0451_0A_A71EV2A-x0310_0A_A71EV2A-x0416_0A_peptide

> <ROCS_TanimotoCombo>
0.520 

> <ROCS_ShapeTanimoto>
0.348 

> <ROCS_ColorTanimoto>
0.172 

> <ROCS_RefTversky>
0.307 

> <ROCS_RefColorTversky>
0.191 

> <ROCS_RefTverskyCombo>
0.498 

> <ROCS_FitTversky>
1.614 

> <ROCS_FitColorTversky>
0.634 

> <ROCS_FitTverskyCombo>
2.248 

> <ROCS_ColorScore>
-5.835

> <ROCS_Overlap>
2133.645

> <ROCS_Rank>
200                 

$$$$
untitled-dbase-148671_46
  -OEChem-11132313473D

 32 33  0     0  0  0  0  0  0999 V2000
    8.6529   10.5373   23.9041 C   0  0  0  0  0  0  0  0  0  0  0  0
    7.4231   12.0140   24.9412 C   0  0  0  0  0  0  0  0  0  0  0  0
    9.7440   10.1217   23.0963 C   0  0  0  0  0  0  0  0  0  0  0  0
   10.6024   11.0441   22.6183 C   0  0  0  0  0  0  0  0  0  0  0  0
    9.4119   12.8530   23.6708 C   0  0  0  0  0  0  0  0  0  0  0  0
   10.4551   12.4779   22.9013 C   0  0  0  0  0  0  0  0  0  0  0  0
   11.3092   14.7255   22.5933 C   0  0  0  0  0  0  0  0  0  0  0  0
   10.4761   16.3828   20.8816 C   0  0  0  0  0  0  0  0  0  0  0  0
   12.6045   17.6262   21.3648 C   0  0  0  0  0  0  0  0  0  0  0  0
   12.5752   15.8331   19.6063 C   0  0  0  0  0  0  0  0  0  0  0  0
   11.9998   16.2876   20.9469 C   0  0  0  0  0  0  0  0  0  0  0  0
    7.6724    9.8950   24.5020 N   0  0  0  0  0  0  0  0  0  0  0  0
    6.8956   10.8296   25.1572 N   0  0  0  0  0  0  0  0  0  0  0  0
    8.5346   11.8924   24.1568 N   0  0  0  0  0  0  0  0  0  0  0  0
   11.3565   13.3598   22.3881 N   0  0  0  0  0  0  0  0  0  0  0  0
   10.4663   15.3259   23.2527 O   0  0  0  0  0  0  0  0  0  0  0  0
    6.9583   13.1615   25.4048 O   0  0  0  0  0  0  0  0  0  0  0  0
   12.3537   15.3238   21.9452 O   0  0  0  0  0  0  0  0  0  0  0  0
    9.8751    9.0690   22.8730 H   0  0  0  0  0  0  0  0  0  0  0  0
   11.4394   10.7320   22.0005 H   0  0  0  0  0  0  0  0  0  0  0  0
    9.2177   13.8869   23.9340 H   0  0  0  0  0  0  0  0  0  0  0  0
   10.0383   15.4239   20.5819 H   0  0  0  0  0  0  0  0  0  0  0  0
   10.0485   16.6740   21.8465 H   0  0  0  0  0  0  0  0  0  0  0  0
   10.1620   17.1148   20.1288 H   0  0  0  0  0  0  0  0  0  0  0  0
   13.6976   17.5624   21.4130 H   0  0  0  0  0  0  0  0  0  0  0  0
   12.2674   17.9105   22.3682 H   0  0  0  0  0  0  0  0  0  0  0  0
   12.3342   18.4266   20.6685 H   0  0  0  0  0  0  0  0  0  0  0  0
   13.6681   15.7647   19.6529 H   0  0  0  0  0  0  0  0  0  0  0  0
   12.1803   14.8565   19.3081 H   0  0  0  0  0  0  0  0  0  0  0  0
   12.3441   16.5579   18.8173 H   0  0  0  0  0  0  0  0  0  0  0  0
   12.1124   12.9900   21.8178 H   0  0  0  0  0  0  0  0  0  0  0  0
    6.1466   13.0449   25.9500 H   0  0  0  0  0  0  0  0  0  0  0  0
  1  3  1  0  0  0  0
  1 12  2  0  0  0  0
  1 14  1  0  0  0  0
  2 13  2  0  0  0  0
  2 14  1  0  0  0  0
  2 17  1  0  0  0  0
  3  4  2  0  0  0  0
  4  6  1  0  0  0  0
  5  6  2  0  0  0  0
  5 14  1  0  0  0  0
  6 15  1  0  0  0  0
  7 15  1  0  0  0  0
  7 16  2  0  0  0  0
  7 18  1  0  0  0  0
  8 11  1  0  0  0  0
  9 11  1  0  0  0  0
 10 11  1  0  0  0  0
 11 18  1  0  0  0  0
 12 13  1  0  0  0  0
  3 19  1  0  0  0  0
  4 20  1  0  0  0  0
  5 21  1  0  0  0  0
  8 22  1  0  0  0  0
  8 23  1  0  0  0  0
  8 24  1  0  0  0  0
  9 25  1  0  0  0  0
  9 26  1  0  0  0  0
  9 27  1  0  0  0  0
 10 28  1  0  0  0  0
 10 29  1  0  0  0  0
 10 30  1  0  0  0  0
 15 31  1  0  0  0  0
 17 32  1  0  0  0  0
M  END
> <id>
EN300-27783952

> <smiles>
CC(C)(C)OC(=O)NC=1C=CC2=NN=C(O)N2C1

> <IUPAC Name>
tert-butyl N-{3-hydroxy-[1,2,4]triazolo[4,3-a]pyridin-6-yl}carbamate

> <CAS>
2639417-10-8

> <URL>
https://www.enaminestore.com/catalog/EN300-27783952

> <ROCS_ShapeQuery>
A71EV2A-x0451_0A_A71EV2A-x0310_0A_A71EV2A-x0416_0A_peptide

> <ROCS_TanimotoCombo>
0.520 

> <ROCS_ShapeTanimoto>
0.323 

> <ROCS_ColorTanimoto>
0.197 

> <ROCS_RefTversky>
0.285 

> <ROCS_RefColorTversky>
0.221 

> <ROCS_RefTverskyCombo>
0.505 

> <ROCS_FitTversky>
1.713 

> <ROCS_FitColorTversky>
0.646 

> <ROCS_FitTverskyCombo>
2.359 

> <ROCS_ColorScore>
-6.747

> <ROCS_Overlap>
1975.946

> <ROCS_Rank>
201                 

$$$$
untitled-dbase-145418_51
  -OEChem-11132313473D

 38 39  0     1  0  0  0  0  0999 V2000
   10.9425   13.5766   23.1930 C   0  0  0  0  0  0  0  0  0  0  0  0
    7.3206   11.8586   24.7944 C   0  0  0  0  0  0  0  0  0  0  0  0
    8.0257   12.5921   23.6440 C   0  0  0  0  0  0  0  0  0  0  0  0
    9.6318   11.2803   24.8227 C   0  0  0  0  0  0  0  0  0  0  0  0
    8.2479   10.6629   25.0610 C   0  0  2  0  0  0  0  0  0  0  0  0
    8.1173    9.6724   23.8848 C   0  0  1  0  0  0  0  0  0  0  0  0
    8.8609   10.3932   22.7377 C   0  0  1  0  0  0  0  0  0  0  0  0
    9.2845   11.7302   23.3992 C   0  0  1  0  0  0  0  0  0  0  0  0
   11.7003   16.3166   22.9319 C   0  0  0  0  0  0  0  0  0  0  0  0
   12.8761   15.5987   20.8316 C   0  0  0  0  0  0  0  0  0  0  0  0
   10.3839   15.3487   21.0175 C   0  0  0  0  0  0  0  0  0  0  0  0
   11.7098   15.3169   21.7763 C   0  0  0  0  0  0  0  0  0  0  0  0
   10.3264   12.4274   22.7159 N   0  0  0  0  0  0  0  0  0  0  0  0
   10.6735   14.1346   24.2518 O   0  0  0  0  0  0  0  0  0  0  0  0
    8.7229    8.4378   24.2354 O   0  0  0  0  0  0  0  0  0  0  0  0
    9.9902    9.6410   22.3173 O   0  0  0  0  0  0  0  0  0  0  0  0
   11.8969   14.0023   22.3125 O   0  0  0  0  0  0  0  0  0  0  0  0
    7.2626   12.5085   25.6749 H   0  0  0  0  0  0  0  0  0  0  0  0
    6.3033   11.5550   24.5282 H   0  0  0  0  0  0  0  0  0  0  0  0
    7.3893   12.6662   22.7559 H   0  0  0  0  0  0  0  0  0  0  0  0
    8.2886   13.6083   23.9616 H   0  0  0  0  0  0  0  0  0  0  0  0
    9.8485   12.1114   25.5032 H   0  0  0  0  0  0  0  0  0  0  0  0
   10.4442   10.5473   24.8693 H   0  0  0  0  0  0  0  0  0  0  0  0
    8.1212   10.2076   26.0458 H   0  0  0  0  0  0  0  0  0  0  0  0
    7.0671    9.4852   23.6363 H   0  0  0  0  0  0  0  0  0  0  0  0
    8.2046   10.5540   21.8754 H   0  0  0  0  0  0  0  0  0  0  0  0
   10.8646   16.1177   23.6123 H   0  0  0  0  0  0  0  0  0  0  0  0
   12.6322   16.2790   23.5055 H   0  0  0  0  0  0  0  0  0  0  0  0
   11.5619   17.3394   22.5631 H   0  0  0  0  0  0  0  0  0  0  0  0
   12.8869   14.8838   20.0009 H   0  0  0  0  0  0  0  0  0  0  0  0
   13.8349   15.4839   21.3500 H   0  0  0  0  0  0  0  0  0  0  0  0
   12.8251   16.6108   20.4173 H   0  0  0  0  0  0  0  0  0  0  0  0
   10.3905   14.6317   20.1885 H   0  0  0  0  0  0  0  0  0  0  0  0
    9.5388   15.1123   21.6721 H   0  0  0  0  0  0  0  0  0  0  0  0
   10.2137   16.3353   20.5716 H   0  0  0  0  0  0  0  0  0  0  0  0
   10.6397   12.0557   21.8153 H   0  0  0  0  0  0  0  0  0  0  0  0
    8.6194    7.8458   23.4721 H   0  0  0  0  0  0  0  0  0  0  0  0
   10.5720    9.5524   23.0898 H   0  0  0  0  0  0  0  0  0  0  0  0
  1 13  1  0  0  0  0
  1 14  2  0  0  0  0
  1 17  1  0  0  0  0
  2  3  1  0  0  0  0
  2  5  1  0  0  0  0
  3  8  1  0  0  0  0
  4  5  1  0  0  0  0
  4  8  1  0  0  0  0
  5  6  1  0  0  0  0
  6  7  1  0  0  0  0
  6 15  1  1  0  0  0
  7  8  1  0  0  0  0
  7 16  1  1  0  0  0
  8 13  1  0  0  0  0
  9 12  1  0  0  0  0
 10 12  1  0  0  0  0
 11 12  1  0  0  0  0
 12 17  1  0  0  0  0
  2 18  1  0  0  0  0
  2 19  1  0  0  0  0
  3 20  1  0  0  0  0
  3 21  1  0  0  0  0
  4 22  1  0  0  0  0
  4 23  1  0  0  0  0
  5 24  1  0  0  0  0
  6 25  1  0  0  0  0
  7 26  1  0  0  0  0
  9 27  1  0  0  0  0
  9 28  1  0  0  0  0
  9 29  1  0  0  0  0
 10 30  1  0  0  0  0
 10 31  1  0  0  0  0
 10 32  1  0  0  0  0
 11 33  1  0  0  0  0
 11 34  1  0  0  0  0
 11 35  1  0  0  0  0
 13 36  1  0  0  0  0
 15 37  1  0  0  0  0
 16 38  1  0  0  0  0
M  END
> <id>
EN300-28228706

> <smiles>
CC(C)(C)OC(=O)NC1(CCC2C1)[C@@H](O)[C@H]2O |&1:13,15,r|

> <IUPAC Name>
rac-tert-butyl N-[(2R,3S)-2,3-dihydroxybicyclo[2.2.1]heptan-1-yl]carbamate

> <CAS>
2731011-45-1

> <URL>
https://www.enaminestore.com/catalog/EN300-28228706

> <ROCS_ShapeQuery>
A71EV2A-x0451_0A_A71EV2A-x0310_0A_A71EV2A-x0416_0A_peptide

> <ROCS_TanimotoCombo>
0.520 

> <ROCS_ShapeTanimoto>
0.313 

> <ROCS_ColorTanimoto>
0.207 

> <ROCS_RefTversky>
0.276 

> <ROCS_RefColorTversky>
0.250 

> <ROCS_RefTverskyCombo>
0.526 

> <ROCS_FitTversky>
1.767 

> <ROCS_FitColorTversky>
0.542 

> <ROCS_FitTverskyCombo>
2.309 

> <ROCS_ColorScore>
-7.711

> <ROCS_Overlap>
1911.545

> <ROCS_Rank>
202                 

$$$$
untitled-dbase-90771_2206
  -OEChem-11132313473D

 50 52  0     0  0  0  0  0  0999 V2000
    3.8656   12.9593   29.5002 C   0  0  0  0  0  0  0  0  0  0  0  0
    3.1419   12.4230   28.4558 C   0  0  0  0  0  0  0  0  0  0  0  0
    5.1293   12.3950   27.5287 C   0  0  0  0  0  0  0  0  0  0  0  0
   10.4791   13.3808   23.1812 C   0  0  0  0  0  0  0  0  0  0  0  0
    7.3145   11.2159   27.0765 C   0  0  0  0  0  0  0  0  0  0  0  0
    5.7787   11.7068   25.1126 C   0  0  0  0  0  0  0  0  0  0  0  0
    7.8523   10.2117   26.0537 C   0  0  0  0  0  0  0  0  0  0  0  0
    6.9412   11.5819   24.1171 C   0  0  0  0  0  0  0  0  0  0  0  0
    9.7242   11.1698   22.3781 C   0  0  0  0  0  0  0  0  0  0  0  0
    9.4110   11.7356   24.7729 C   0  0  0  0  0  0  0  0  0  0  0  0
    9.5368    9.7764   22.9491 C   0  0  0  0  0  0  0  0  0  0  0  0
    6.2442   12.1791   26.5051 C   0  0  0  0  0  0  0  0  0  0  0  0
    8.1695   10.8194   24.6764 C   0  0  0  0  0  0  0  0  0  0  0  0
   12.7326   14.9289   22.3395 C   0  0  0  0  0  0  0  0  0  0  0  0
   11.7953   14.6921   20.0211 C   0  0  0  0  0  0  0  0  0  0  0  0
   10.4711   15.8870   21.7895 C   0  0  0  0  0  0  0  0  0  0  0  0
   11.4610   14.7571   21.5098 C   0  0  0  0  0  0  0  0  0  0  0  0
    3.8649   12.0992   27.3243 N   0  0  0  0  0  0  0  0  0  0  0  0
    9.8850   12.1460   23.4482 N   0  0  0  0  0  0  0  0  0  0  0  0
   10.6525   14.2589   24.0244 O   0  0  0  0  0  0  0  0  0  0  0  0
    8.4031    9.6900   23.8080 O   0  0  0  0  0  0  0  0  0  0  0  0
    6.8793   13.4558   26.3037 O   0  0  0  0  0  0  0  0  0  0  0  0
   10.8472   13.5140   21.8688 O   0  0  0  0  0  0  0  0  0  0  0  0
    5.5196   13.0652   29.0595 S   0  0  0  0  0  0  0  0  0  0  0  0
    1.2706   12.1361   28.5268 Br  0  0  0  0  0  0  0  0  0  0  0  0
    3.5212   13.2854   30.4714 H   0  0  0  0  0  0  0  0  0  0  0  0
    6.8975   10.6640   27.9333 H   0  0  0  0  0  0  0  0  0  0  0  0
    8.1645   11.7967   27.4672 H   0  0  0  0  0  0  0  0  0  0  0  0
    5.0496   12.4115   24.7008 H   0  0  0  0  0  0  0  0  0  0  0  0
    5.2787   10.7365   25.1952 H   0  0  0  0  0  0  0  0  0  0  0  0
    8.7623    9.7316   26.4638 H   0  0  0  0  0  0  0  0  0  0  0  0
    7.1173    9.3900   25.9685 H   0  0  0  0  0  0  0  0  0  0  0  0
    6.5618   11.0628   23.2209 H   0  0  0  0  0  0  0  0  0  0  0  0
    7.2469   12.5874   23.7834 H   0  0  0  0  0  0  0  0  0  0  0  0
   10.5683   11.1837   21.6789 H   0  0  0  0  0  0  0  0  0  0  0  0
    8.8278   11.4700   21.8173 H   0  0  0  0  0  0  0  0  0  0  0  0
    9.1567   12.6669   25.2983 H   0  0  0  0  0  0  0  0  0  0  0  0
   10.2151   11.2518   25.3414 H   0  0  0  0  0  0  0  0  0  0  0  0
    9.3761    9.0631   22.1282 H   0  0  0  0  0  0  0  0  0  0  0  0
   10.4373    9.4343   23.4791 H   0  0  0  0  0  0  0  0  0  0  0  0
   12.4968   14.9759   23.4087 H   0  0  0  0  0  0  0  0  0  0  0  0
   13.4361   14.1064   22.1744 H   0  0  0  0  0  0  0  0  0  0  0  0
   13.2365   15.8703   22.0923 H   0  0  0  0  0  0  0  0  0  0  0  0
   10.8858   14.5688   19.4221 H   0  0  0  0  0  0  0  0  0  0  0  0
   12.4296   13.8259   19.8010 H   0  0  0  0  0  0  0  0  0  0  0  0
   12.3130   15.5957   19.6835 H   0  0  0  0  0  0  0  0  0  0  0  0
    9.5589   15.7640   21.1945 H   0  0  0  0  0  0  0  0  0  0  0  0
   10.1912   15.9255   22.8472 H   0  0  0  0  0  0  0  0  0  0  0  0
   10.8965   16.8566   21.5063 H   0  0  0  0  0  0  0  0  0  0  0  0
    6.1932   14.0569   25.9742 H   0  0  0  0  0  0  0  0  0  0  0  0
  1  2  2  0  0  0  0
  1 24  1  0  0  0  0
  2 18  1  0  0  0  0
  2 25  1  0  0  0  0
  3 12  1  0  0  0  0
  3 18  2  0  0  0  0
  3 24  1  0  0  0  0
  4 19  1  0  0  0  0
  4 20  2  0  0  0  0
  4 23  1  0  0  0  0
  5  7  1  0  0  0  0
  5 12  1  0  0  0  0
  6  8  1  0  0  0  0
  6 12  1  0  0  0  0
  7 13  1  0  0  0  0
  8 13  1  0  0  0  0
  9 11  1  0  0  0  0
  9 19  1  0  0  0  0
 10 13  1  0  0  0  0
 10 19  1  0  0  0  0
 11 21  1  0  0  0  0
 12 22  1  0  0  0  0
 13 21  1  0  0  0  0
 14 17  1  0  0  0  0
 15 17  1  0  0  0  0
 16 17  1  0  0  0  0
 17 23  1  0  0  0  0
  1 26  1  0  0  0  0
  5 27  1  0  0  0  0
  5 28  1  0  0  0  0
  6 29  1  0  0  0  0
  6 30  1  0  0  0  0
  7 31  1  0  0  0  0
  7 32  1  0  0  0  0
  8 33  1  0  0  0  0
  8 34  1  0  0  0  0
  9 35  1  0  0  0  0
  9 36  1  0  0  0  0
 10 37  1  0  0  0  0
 10 38  1  0  0  0  0
 11 39  1  0  0  0  0
 11 40  1  0  0  0  0
 14 41  1  0  0  0  0
 14 42  1  0  0  0  0
 14 43  1  0  0  0  0
 15 44  1  0  0  0  0
 15 45  1  0  0  0  0
 15 46  1  0  0  0  0
 16 47  1  0  0  0  0
 16 48  1  0  0  0  0
 16 49  1  0  0  0  0
 22 50  1  0  0  0  0
M  END
> <id>
EN300-7429096

> <smiles>
CC(C)(C)OC(=O)N1CCOC2(CCC(O)(CC2)C3=NC(Br)=CS3)C1

> <IUPAC Name>
tert-butyl 9-(4-bromo-1,3-thiazol-2-yl)-9-hydroxy-1-oxa-4-azaspiro[5.5]undecane-4-carboxylate

> <CAS>
2309468-50-4

> <URL>
https://www.enaminestore.com/catalog/EN300-7429096

> <ROCS_ShapeQuery>
A71EV2A-x0451_0A_A71EV2A-x0310_0A_A71EV2A-x0416_0A_peptide

> <ROCS_TanimotoCombo>
0.520 

> <ROCS_ShapeTanimoto>
0.345 

> <ROCS_ColorTanimoto>
0.175 

> <ROCS_RefTversky>
0.308 

> <ROCS_RefColorTversky>
0.203 

> <ROCS_RefTverskyCombo>
0.511 

> <ROCS_FitTversky>
1.531 

> <ROCS_FitColorTversky>
0.559 

> <ROCS_FitTverskyCombo>
2.091 

> <ROCS_ColorScore>
-6.202

> <ROCS_Overlap>
2142.381

> <ROCS_Rank>
203                 

$$$$
untitled-dbase-148261_19
  -OEChem-11132313473D

 34 35  0     0  0  0  0  0  0999 V2000
    7.0197   13.1811   25.8935 C   0  0  0  0  0  0  0  0  0  0  0  0
    8.1510   13.2391   25.0924 C   0  0  0  0  0  0  0  0  0  0  0  0
   10.1679   10.9644   22.9531 C   0  0  0  0  0  0  0  0  0  0  0  0
    9.4550    9.7829   23.1150 C   0  0  0  0  0  0  0  0  0  0  0  0
    6.3731   11.9663   25.9977 C   0  0  0  0  0  0  0  0  0  0  0  0
    8.6009   12.0925   24.4240 C   0  0  0  0  0  0  0  0  0  0  0  0
    9.7430   12.1181   23.6056 C   0  0  0  0  0  0  0  0  0  0  0  0
    7.8723   10.8964   24.5931 C   0  0  0  0  0  0  0  0  0  0  0  0
    8.3196    9.7577   23.9286 C   0  0  0  0  0  0  0  0  0  0  0  0
   10.5319   13.3286   23.3971 C   0  0  0  0  0  0  0  0  0  0  0  0
   12.2540   15.4290   22.4765 C   0  0  0  0  0  0  0  0  0  0  0  0
   12.0116   14.3740   20.2099 C   0  0  0  0  0  0  0  0  0  0  0  0
    9.9923   15.3029   21.3795 C   0  0  0  0  0  0  0  0  0  0  0  0
   11.3427   14.6116   21.5621 C   0  0  0  0  0  0  0  0  0  0  0  0
    6.7741   10.8372   25.3697 N   0  0  0  0  0  0  0  0  0  0  0  0
    7.6216    8.5314   24.0665 N   0  0  0  0  0  0  0  0  0  0  0  0
   10.6505   14.2326   24.2302 O   0  0  0  0  0  0  0  0  0  0  0  0
   11.1219   13.3319   22.1649 O   0  0  0  0  0  0  0  0  0  0  0  0
    6.6577   14.0578   26.4176 H   0  0  0  0  0  0  0  0  0  0  0  0
    8.6676   14.1914   25.0036 H   0  0  0  0  0  0  0  0  0  0  0  0
   11.0498   10.9735   22.3180 H   0  0  0  0  0  0  0  0  0  0  0  0
    9.7896    8.8837   22.6039 H   0  0  0  0  0  0  0  0  0  0  0  0
    5.4834   11.8606   26.6096 H   0  0  0  0  0  0  0  0  0  0  0  0
   11.7775   15.6018   23.4481 H   0  0  0  0  0  0  0  0  0  0  0  0
   13.2127   14.9273   22.6437 H   0  0  0  0  0  0  0  0  0  0  0  0
   12.4513   16.4186   22.0487 H   0  0  0  0  0  0  0  0  0  0  0  0
   11.3612   13.7878   19.5506 H   0  0  0  0  0  0  0  0  0  0  0  0
   12.9346   13.7948   20.3275 H   0  0  0  0  0  0  0  0  0  0  0  0
   12.2550   15.3162   19.7085 H   0  0  0  0  0  0  0  0  0  0  0  0
    9.3384   14.7167   20.7236 H   0  0  0  0  0  0  0  0  0  0  0  0
    9.4810   15.4484   22.3366 H   0  0  0  0  0  0  0  0  0  0  0  0
   10.1166   16.2801   20.8989 H   0  0  0  0  0  0  0  0  0  0  0  0
    7.9316    7.7408   23.5452 H   0  0  0  0  0  0  0  0  0  0  0  0
    6.7842    8.5134   24.6062 H   0  0  0  0  0  0  0  0  0  0  0  0
  1  2  1  0  0  0  0
  1  5  2  0  0  0  0
  2  6  2  0  0  0  0
  3  4  1  0  0  0  0
  3  7  2  0  0  0  0
  4  9  2  0  0  0  0
  5 15  1  0  0  0  0
  6  7  1  0  0  0  0
  6  8  1  0  0  0  0
  7 10  1  0  0  0  0
  8  9  1  0  0  0  0
  8 15  2  0  0  0  0
  9 16  1  0  0  0  0
 10 17  2  0  0  0  0
 10 18  1  0  0  0  0
 11 14  1  0  0  0  0
 12 14  1  0  0  0  0
 13 14  1  0  0  0  0
 14 18  1  0  0  0  0
  1 19  1  0  0  0  0
  2 20  1  0  0  0  0
  3 21  1  0  0  0  0
  4 22  1  0  0  0  0
  5 23  1  0  0  0  0
 11 24  1  0  0  0  0
 11 25  1  0  0  0  0
 11 26  1  0  0  0  0
 12 27  1  0  0  0  0
 12 28  1  0  0  0  0
 12 29  1  0  0  0  0
 13 30  1  0  0  0  0
 13 31  1  0  0  0  0
 13 32  1  0  0  0  0
 16 33  1  0  0  0  0
 16 34  1  0  0  0  0
M  END
> <id>
EN300-27725418

> <smiles>
CC(C)(C)OC(=O)C=1C=CC(N)=C2N=CC=CC12

> <IUPAC Name>
tert-butyl 8-aminoquinoline-5-carboxylate

> <CAS>
2639456-24-7

> <URL>
https://www.enaminestore.com/catalog/EN300-27725418

> <ROCS_ShapeQuery>
A71EV2A-x0451_0A_A71EV2A-x0310_0A_A71EV2A-x0416_0A_peptide

> <ROCS_TanimotoCombo>
0.520 

> <ROCS_ShapeTanimoto>
0.352 

> <ROCS_ColorTanimoto>
0.167 

> <ROCS_RefTversky>
0.303 

> <ROCS_RefColorTversky>
0.182 

> <ROCS_RefTverskyCombo>
0.486 

> <ROCS_FitTversky>
1.844 

> <ROCS_FitColorTversky>
0.674 

> <ROCS_FitTverskyCombo>
2.518 

> <ROCS_ColorScore>
-5.553

> <ROCS_Overlap>
2104.652

> <ROCS_Rank>
204                 

$$$$
untitled-dbase-130720_18
  -OEChem-11132313473D

 38 40  0     1  0  0  0  0  0999 V2000
   10.4820   14.1855   22.8618 C   0  0  0  0  0  0  0  0  0  0  0  0
    9.0199    9.5832   25.0278 C   0  0  0  0  0  0  0  0  0  0  0  0
    9.3364   10.9425   25.6878 C   0  0  0  0  0  0  0  0  0  0  0  0
    9.7406   10.4640   22.8000 C   0  0  0  0  0  0  0  0  0  0  0  0
    8.5745    9.7899   23.5633 C   0  0  2  0  0  0  0  0  0  0  0  0
    9.1446   12.0867   24.6637 C   0  0  1  0  0  0  0  0  0  0  0  0
   10.1187   11.8027   23.4872 C   0  0  2  0  0  0  0  0  0  0  0  0
    7.3976   10.7430   23.4912 C   0  0  2  0  0  0  0  0  0  0  0  0
    7.7258   12.0657   24.1220 C   0  0  1  0  0  0  0  0  0  0  0  0
   12.7980   14.7416   21.7789 C   0  0  0  0  0  0  0  0  0  0  0  0
   11.5890   15.7849   19.8400 C   0  0  0  0  0  0  0  0  0  0  0  0
   11.6901   16.9860   22.0435 C   0  0  0  0  0  0  0  0  0  0  0  0
   11.6221   15.6220   21.3581 C   0  0  0  0  0  0  0  0  0  0  0  0
   10.1399   12.8896   22.5363 N   0  0  0  0  0  0  0  0  0  0  0  0
   10.8071   14.5820   23.9762 O   0  0  0  0  0  0  0  0  0  0  0  0
    6.7898   11.1601   24.7168 O   0  0  0  0  0  0  0  0  0  0  0  0
   10.4058   14.9753   21.7492 O   0  0  0  0  0  0  0  0  0  0  0  0
    9.9040    8.9358   25.0676 H   0  0  0  0  0  0  0  0  0  0  0  0
    8.2315    9.0750   25.5963 H   0  0  0  0  0  0  0  0  0  0  0  0
    8.6808   11.0935   26.5541 H   0  0  0  0  0  0  0  0  0  0  0  0
   10.3642   10.9399   26.0699 H   0  0  0  0  0  0  0  0  0  0  0  0
   10.6145    9.8017   22.7799 H   0  0  0  0  0  0  0  0  0  0  0  0
    9.4455   10.6274   21.7553 H   0  0  0  0  0  0  0  0  0  0  0  0
    8.3152    8.8309   23.1035 H   0  0  0  0  0  0  0  0  0  0  0  0
    9.3606   13.0501   25.1378 H   0  0  0  0  0  0  0  0  0  0  0  0
   11.1440   11.7324   23.8703 H   0  0  0  0  0  0  0  0  0  0  0  0
    6.8228   10.7196   22.5785 H   0  0  0  0  0  0  0  0  0  0  0  0
    7.3780   12.9771   23.6608 H   0  0  0  0  0  0  0  0  0  0  0  0
   12.8252   14.6222   22.8679 H   0  0  0  0  0  0  0  0  0  0  0  0
   12.7422   13.7484   21.3215 H   0  0  0  0  0  0  0  0  0  0  0  0
   13.7516   15.2007   21.4943 H   0  0  0  0  0  0  0  0  0  0  0  0
   10.7469   16.4159   19.5336 H   0  0  0  0  0  0  0  0  0  0  0  0
   11.4449   14.8169   19.3467 H   0  0  0  0  0  0  0  0  0  0  0  0
   12.5135   16.2328   19.4615 H   0  0  0  0  0  0  0  0  0  0  0  0
   10.8467   17.6177   21.7419 H   0  0  0  0  0  0  0  0  0  0  0  0
   11.6775   16.8904   23.1341 H   0  0  0  0  0  0  0  0  0  0  0  0
   12.5993   17.5239   21.7516 H   0  0  0  0  0  0  0  0  0  0  0  0
    9.8885   12.6882   21.5732 H   0  0  0  0  0  0  0  0  0  0  0  0
  1 14  1  0  0  0  0
  1 15  2  0  0  0  0
  1 17  1  0  0  0  0
  2  3  1  0  0  0  0
  2  5  1  0  0  0  0
  3  6  1  0  0  0  0
  4  5  1  0  0  0  0
  4  7  1  0  0  0  0
  5  8  1  0  0  0  0
  6  7  1  0  0  0  0
  6  9  1  0  0  0  0
  7 14  1  0  0  0  0
  8  9  1  0  0  0  0
  8 16  1  0  0  0  0
  9 16  1  0  0  0  0
 10 13  1  0  0  0  0
 11 13  1  0  0  0  0
 12 13  1  0  0  0  0
 13 17  1  0  0  0  0
  2 18  1  0  0  0  0
  2 19  1  0  0  0  0
  3 20  1  0  0  0  0
  3 21  1  0  0  0  0
  4 22  1  0  0  0  0
  4 23  1  0  0  0  0
  5 24  1  0  0  0  0
  6 25  1  0  0  0  0
  7 26  1  0  0  0  0
  8 27  1  0  0  0  0
  9 28  1  0  0  0  0
 10 29  1  0  0  0  0
 10 30  1  0  0  0  0
 10 31  1  0  0  0  0
 11 32  1  0  0  0  0
 11 33  1  0  0  0  0
 11 34  1  0  0  0  0
 12 35  1  0  0  0  0
 12 36  1  0  0  0  0
 12 37  1  0  0  0  0
 14 38  1  0  0  0  0
M  END
> <id>
EN300-1708415

> <smiles>
CC(C)(C)OC(=O)NC1CC2CCC1C3OC32

> <IUPAC Name>
tert-butyl N-{3-oxatricyclo[3.2.2.0,2,4]nonan-6-yl}carbamate

> <CAS>
2219374-88-4

> <URL>
https://www.enaminestore.com/catalog/EN300-1708415

> <ROCS_ShapeQuery>
A71EV2A-x0451_0A_A71EV2A-x0310_0A_A71EV2A-x0416_0A_peptide

> <ROCS_TanimotoCombo>
0.520 

> <ROCS_ShapeTanimoto>
0.283 

> <ROCS_ColorTanimoto>
0.237 

> <ROCS_RefTversky>
0.255 

> <ROCS_RefColorTversky>
0.320 

> <ROCS_RefTverskyCombo>
0.575 

> <ROCS_FitTversky>
1.631 

> <ROCS_FitColorTversky>
0.476 

> <ROCS_FitTverskyCombo>
2.107 

> <ROCS_ColorScore>
-9.969

> <ROCS_Overlap>
1768.595

> <ROCS_Rank>
205                 

$$$$
untitled-dbase-147836_102
  -OEChem-11132313473D

 36 37  0     0  0  0  0  0  0999 V2000
    6.6562   10.5082   25.3357 C   0  0  0  0  0  0  0  0  0  0  0  0
    6.1494   11.6144   26.0005 C   0  0  0  0  0  0  0  0  0  0  0  0
    7.8248   10.6280   24.5838 C   0  0  0  0  0  0  0  0  0  0  0  0
    6.8376   12.8050   25.8761 C   0  0  0  0  0  0  0  0  0  0  0  0
    8.4506   11.8732   24.4844 C   0  0  0  0  0  0  0  0  0  0  0  0
    6.3620   14.0009   26.5499 C   0  0  0  0  0  0  0  0  0  0  0  0
   10.2615   13.2365   23.4827 C   0  0  0  0  0  0  0  0  0  0  0  0
   10.0007   10.8083   22.8973 C   0  0  0  0  0  0  0  0  0  0  0  0
    9.6610    9.5482   23.6661 C   0  0  0  0  0  0  0  0  0  0  0  0
   12.6330   14.7340   22.8958 C   0  0  0  0  0  0  0  0  0  0  0  0
   11.9153   14.5782   20.4937 C   0  0  0  0  0  0  0  0  0  0  0  0
   10.4641   15.7759   22.1574 C   0  0  0  0  0  0  0  0  0  0  0  0
   11.4421   14.6212   21.9451 C   0  0  0  0  0  0  0  0  0  0  0  0
    7.9622   12.9564   25.1398 N   0  0  0  0  0  0  0  0  0  0  0  0
    9.6068   12.0049   23.6468 N   0  0  0  0  0  0  0  0  0  0  0  0
    5.2611   14.5349   26.3724 O   0  0  0  0  0  0  0  0  0  0  0  0
   10.3880   14.0998   24.3487 O   0  0  0  0  0  0  0  0  0  0  0  0
    8.2681    9.4916   23.9634 O   0  0  0  0  0  0  0  0  0  0  0  0
    7.2724   14.5010   27.4307 O   0  0  0  0  0  0  0  0  0  0  0  0
   10.7598   13.3906   22.2132 O   0  0  0  0  0  0  0  0  0  0  0  0
    6.1446    9.5526   25.4123 H   0  0  0  0  0  0  0  0  0  0  0  0
    5.2460   11.5351   26.5953 H   0  0  0  0  0  0  0  0  0  0  0  0
   11.0727   10.8294   22.6777 H   0  0  0  0  0  0  0  0  0  0  0  0
    9.4573   10.8431   21.9454 H   0  0  0  0  0  0  0  0  0  0  0  0
    9.9030    8.6691   23.0595 H   0  0  0  0  0  0  0  0  0  0  0  0
   10.2404    9.4697   24.5951 H   0  0  0  0  0  0  0  0  0  0  0  0
   12.2975   14.7652   23.9386 H   0  0  0  0  0  0  0  0  0  0  0  0
   13.3243   13.8932   22.7779 H   0  0  0  0  0  0  0  0  0  0  0  0
   13.1861   15.6640   22.7211 H   0  0  0  0  0  0  0  0  0  0  0  0
   11.0641   14.4973   19.8081 H   0  0  0  0  0  0  0  0  0  0  0  0
   12.5417   13.6971   20.3134 H   0  0  0  0  0  0  0  0  0  0  0  0
   12.4896   15.4720   20.2294 H   0  0  0  0  0  0  0  0  0  0  0  0
    9.6098   15.6952   21.4756 H   0  0  0  0  0  0  0  0  0  0  0  0
   10.0855   15.8001   23.1844 H   0  0  0  0  0  0  0  0  0  0  0  0
   10.9434   16.7374   21.9402 H   0  0  0  0  0  0  0  0  0  0  0  0
    8.1008   13.9768   27.4689 H   0  0  0  0  0  0  0  0  0  0  0  0
  1  2  1  0  0  0  0
  1  3  2  0  0  0  0
  2  4  2  0  0  0  0
  3  5  1  0  0  0  0
  3 18  1  0  0  0  0
  4  6  1  0  0  0  0
  4 14  1  0  0  0  0
  5 14  2  0  0  0  0
  5 15  1  0  0  0  0
  6 16  2  0  0  0  0
  6 19  1  0  0  0  0
  7 15  1  0  0  0  0
  7 17  2  0  0  0  0
  7 20  1  0  0  0  0
  8  9  1  0  0  0  0
  8 15  1  0  0  0  0
  9 18  1  0  0  0  0
 10 13  1  0  0  0  0
 11 13  1  0  0  0  0
 12 13  1  0  0  0  0
 13 20  1  0  0  0  0
  1 21  1  0  0  0  0
  2 22  1  0  0  0  0
  8 23  1  0  0  0  0
  8 24  1  0  0  0  0
  9 25  1  0  0  0  0
  9 26  1  0  0  0  0
 10 27  1  0  0  0  0
 10 28  1  0  0  0  0
 10 29  1  0  0  0  0
 11 30  1  0  0  0  0
 11 31  1  0  0  0  0
 11 32  1  0  0  0  0
 12 33  1  0  0  0  0
 12 34  1  0  0  0  0
 12 35  1  0  0  0  0
 19 36  1  0  0  0  0
M  END
> <id>
EN300-21683010

> <smiles>
CC(C)(C)OC(=O)N1CCOC=2C=CC(=NC12)C(=O)O

> <MDLNUMBER>
MFCD29764862

> <IUPAC Name>
4-[(tert-butoxy)carbonyl]-2H,3H,4H-pyrido[3,2-b][1,4]oxazine-6-carboxylic acid

> <CAS>
2092850-98-9

> <URL>
https://www.enaminestore.com/catalog/EN300-21683010

> <ROCS_ShapeQuery>
A71EV2A-x0451_0A_A71EV2A-x0310_0A_A71EV2A-x0416_0A_peptide

> <ROCS_TanimotoCombo>
0.520 

> <ROCS_ShapeTanimoto>
0.352 

> <ROCS_ColorTanimoto>
0.168 

> <ROCS_RefTversky>
0.306 

> <ROCS_RefColorTversky>
0.192 

> <ROCS_RefTverskyCombo>
0.498 

> <ROCS_FitTversky>
1.726 

> <ROCS_FitColorTversky>
0.577 

> <ROCS_FitTverskyCombo>
2.303 

> <ROCS_ColorScore>
-5.858

> <ROCS_Overlap>
2126.759

> <ROCS_Rank>
206                 

$$$$
untitled-dbase-145888_104
  -OEChem-11132313473D

 35 36  0     0  0  0  0  0  0999 V2000
    7.6444   12.7888   25.0853 C   0  0  0  0  0  0  0  0  0  0  0  0
    6.1729   10.9397   25.4985 C   0  0  0  0  0  0  0  0  0  0  0  0
    6.4696   12.2931   25.6490 C   0  0  0  0  0  0  0  0  0  0  0  0
    8.4569   11.9034   24.4032 C   0  0  0  0  0  0  0  0  0  0  0  0
    8.0753   10.5733   24.3082 C   0  0  0  0  0  0  0  0  0  0  0  0
    5.5701   13.1697   26.3793 C   0  0  0  0  0  0  0  0  0  0  0  0
   10.3612   13.3114   23.6318 C   0  0  0  0  0  0  0  0  0  0  0  0
    9.0769    9.7668   23.5337 C   0  0  0  0  0  0  0  0  0  0  0  0
   10.1291   10.8236   23.1770 C   0  0  0  0  0  0  0  0  0  0  0  0
   12.0139   15.5372   22.9184 C   0  0  0  0  0  0  0  0  0  0  0  0
   12.1064   14.5007   20.6323 C   0  0  0  0  0  0  0  0  0  0  0  0
    9.9045   15.2575   21.5741 C   0  0  0  0  0  0  0  0  0  0  0  0
   11.2751   14.6672   21.9025 C   0  0  0  0  0  0  0  0  0  0  0  0
    6.9528   10.0541   24.8353 N   0  0  0  0  0  0  0  0  0  0  0  0
    9.6783   12.1099   23.7432 N   0  0  0  0  0  0  0  0  0  0  0  0
    5.4125   14.3767   26.1638 O   0  0  0  0  0  0  0  0  0  0  0  0
   10.3400   14.2275   24.4489 O   0  0  0  0  0  0  0  0  0  0  0  0
    4.8880   12.5170   27.3608 O   0  0  0  0  0  0  0  0  0  0  0  0
   11.0871   13.3652   22.4688 O   0  0  0  0  0  0  0  0  0  0  0  0
    7.8937   13.8381   25.1898 H   0  0  0  0  0  0  0  0  0  0  0  0
    5.2676   10.5143   25.9223 H   0  0  0  0  0  0  0  0  0  0  0  0
    9.4996    8.9747   24.1584 H   0  0  0  0  0  0  0  0  0  0  0  0
    8.6175    9.3386   22.6383 H   0  0  0  0  0  0  0  0  0  0  0  0
   11.1112   10.5766   23.5964 H   0  0  0  0  0  0  0  0  0  0  0  0
   10.2436   10.9335   22.0924 H   0  0  0  0  0  0  0  0  0  0  0  0
   11.4204   15.6591   23.8316 H   0  0  0  0  0  0  0  0  0  0  0  0
   12.9835   15.1066   23.1888 H   0  0  0  0  0  0  0  0  0  0  0  0
   12.1812   16.5451   22.5217 H   0  0  0  0  0  0  0  0  0  0  0  0
   11.5802   13.8771   19.9006 H   0  0  0  0  0  0  0  0  0  0  0  0
   13.0522   13.9910   20.8488 H   0  0  0  0  0  0  0  0  0  0  0  0
   12.3314   15.4660   20.1673 H   0  0  0  0  0  0  0  0  0  0  0  0
    9.3744   14.6336   20.8454 H   0  0  0  0  0  0  0  0  0  0  0  0
    9.2803   15.3499   22.4688 H   0  0  0  0  0  0  0  0  0  0  0  0
   10.0064   16.2483   21.1168 H   0  0  0  0  0  0  0  0  0  0  0  0
    4.2769   13.1003   27.8595 H   0  0  0  0  0  0  0  0  0  0  0  0
  1  3  1  0  0  0  0
  1  4  2  0  0  0  0
  2  3  2  0  0  0  0
  2 14  1  0  0  0  0
  3  6  1  0  0  0  0
  4  5  1  0  0  0  0
  4 15  1  0  0  0  0
  5  8  1  0  0  0  0
  5 14  2  0  0  0  0
  6 16  2  0  0  0  0
  6 18  1  0  0  0  0
  7 15  1  0  0  0  0
  7 17  2  0  0  0  0
  7 19  1  0  0  0  0
  8  9  1  0  0  0  0
  9 15  1  0  0  0  0
 10 13  1  0  0  0  0
 11 13  1  0  0  0  0
 12 13  1  0  0  0  0
 13 19  1  0  0  0  0
  1 20  1  0  0  0  0
  2 21  1  0  0  0  0
  8 22  1  0  0  0  0
  8 23  1  0  0  0  0
  9 24  1  0  0  0  0
  9 25  1  0  0  0  0
 10 26  1  0  0  0  0
 10 27  1  0  0  0  0
 10 28  1  0  0  0  0
 11 29  1  0  0  0  0
 11 30  1  0  0  0  0
 11 31  1  0  0  0  0
 12 32  1  0  0  0  0
 12 33  1  0  0  0  0
 12 34  1  0  0  0  0
 18 35  1  0  0  0  0
M  END
> <id>
EN300-1719686

> <smiles>
CC(C)(C)OC(=O)N1CCC=2N=CC(=CC12)C(=O)O

> <IUPAC Name>
1-[(tert-butoxy)carbonyl]-1H,2H,3H-pyrrolo[3,2-b]pyridine-6-carboxylic acid

> <CAS>
2386428-73-3

> <Purity>
95

> <URL>
https://www.enaminestore.com/catalog/EN300-1719686

> <ROCS_ShapeQuery>
A71EV2A-x0451_0A_A71EV2A-x0310_0A_A71EV2A-x0416_0A_peptide

> <ROCS_TanimotoCombo>
0.520 

> <ROCS_ShapeTanimoto>
0.348 

> <ROCS_ColorTanimoto>
0.172 

> <ROCS_RefTversky>
0.302 

> <ROCS_RefColorTversky>
0.191 

> <ROCS_RefTverskyCombo>
0.493 

> <ROCS_FitTversky>
1.770 

> <ROCS_FitColorTversky>
0.633 

> <ROCS_FitTverskyCombo>
2.403 

> <ROCS_ColorScore>
-5.834

> <ROCS_Overlap>
2095.176

> <ROCS_Rank>
207                 

$$$$
untitled-dbase-104362_881
  -OEChem-11132313473D

 38 39  0     0  0  0  0  0  0999 V2000
    6.8277   12.8839   26.0375 C   0  0  0  0  0  0  0  0  0  0  0  0
    6.3540   11.5998   26.2779 C   0  0  0  0  0  0  0  0  0  0  0  0
    7.8849   13.0968   25.1428 C   0  0  0  0  0  0  0  0  0  0  0  0
    6.9157   10.5271   25.5983 C   0  0  0  0  0  0  0  0  0  0  0  0
    8.5012   12.0280   24.4764 C   0  0  0  0  0  0  0  0  0  0  0  0
    7.9553   10.7451   24.6867 C   0  0  0  0  0  0  0  0  0  0  0  0
   10.4668   13.2919   23.4358 C   0  0  0  0  0  0  0  0  0  0  0  0
   10.0292   10.9584   22.8654 C   0  0  0  0  0  0  0  0  0  0  0  0
    8.9050    9.9557   22.7416 C   0  0  0  0  0  0  0  0  0  0  0  0
   12.9996   14.5704   23.0232 C   0  0  0  0  0  0  0  0  0  0  0  0
   12.4375   14.4686   20.5773 C   0  0  0  0  0  0  0  0  0  0  0  0
   10.9905   15.8015   22.1386 C   0  0  0  0  0  0  0  0  0  0  0  0
    6.3976    9.1524   25.8696 C   0  0  0  0  0  0  0  0  0  0  0  0
   11.8716   14.5616   21.9926 C   0  0  0  0  0  0  0  0  0  0  0  0
    9.6282   12.1667   23.5922 N   0  0  0  0  0  0  0  0  0  0  0  0
   10.6135   14.1480   24.3103 O   0  0  0  0  0  0  0  0  0  0  0  0
    8.4040    9.6230   24.0321 O   0  0  0  0  0  0  0  0  0  0  0  0
    6.5384    8.3591   24.6991 O   0  0  0  0  0  0  0  0  0  0  0  0
   11.0630   13.3990   22.2116 O   0  0  0  0  0  0  0  0  0  0  0  0
    6.3683   13.7322   26.5383 H   0  0  0  0  0  0  0  0  0  0  0  0
    5.5493   11.4483   26.9915 H   0  0  0  0  0  0  0  0  0  0  0  0
    8.1704   14.1301   24.9865 H   0  0  0  0  0  0  0  0  0  0  0  0
   10.8874   10.4732   23.3582 H   0  0  0  0  0  0  0  0  0  0  0  0
   10.3716   11.2900   21.8694 H   0  0  0  0  0  0  0  0  0  0  0  0
    8.0808   10.3927   22.1729 H   0  0  0  0  0  0  0  0  0  0  0  0
    9.2206    9.0468   22.2196 H   0  0  0  0  0  0  0  0  0  0  0  0
   12.5976   14.6371   24.0405 H   0  0  0  0  0  0  0  0  0  0  0  0
   13.6180   13.6697   22.9521 H   0  0  0  0  0  0  0  0  0  0  0  0
   13.6458   15.4453   22.8883 H   0  0  0  0  0  0  0  0  0  0  0  0
   11.6315   14.4620   19.8345 H   0  0  0  0  0  0  0  0  0  0  0  0
   12.9920   13.5333   20.4393 H   0  0  0  0  0  0  0  0  0  0  0  0
   13.1076   15.3051   20.3543 H   0  0  0  0  0  0  0  0  0  0  0  0
   10.1813   15.7954   21.3995 H   0  0  0  0  0  0  0  0  0  0  0  0
   10.5461   15.8651   23.1371 H   0  0  0  0  0  0  0  0  0  0  0  0
   11.5691   16.7143   21.9562 H   0  0  0  0  0  0  0  0  0  0  0  0
    6.9492    8.6746   26.6890 H   0  0  0  0  0  0  0  0  0  0  0  0
    5.3384    9.1807   26.1546 H   0  0  0  0  0  0  0  0  0  0  0  0
    7.4859    8.3367   24.4879 H   0  0  0  0  0  0  0  0  0  0  0  0
  1  2  2  0  0  0  0
  1  3  1  0  0  0  0
  2  4  1  0  0  0  0
  3  5  2  0  0  0  0
  4  6  2  0  0  0  0
  4 13  1  0  0  0  0
  5  6  1  0  0  0  0
  5 15  1  0  0  0  0
  6 17  1  0  0  0  0
  7 15  1  0  0  0  0
  7 16  2  0  0  0  0
  7 19  1  0  0  0  0
  8  9  1  0  0  0  0
  8 15  1  0  0  0  0
  9 17  1  0  0  0  0
 10 14  1  0  0  0  0
 11 14  1  0  0  0  0
 12 14  1  0  0  0  0
 13 18  1  0  0  0  0
 14 19  1  0  0  0  0
  1 20  1  0  0  0  0
  2 21  1  0  0  0  0
  3 22  1  0  0  0  0
  8 23  1  0  0  0  0
  8 24  1  0  0  0  0
  9 25  1  0  0  0  0
  9 26  1  0  0  0  0
 10 27  1  0  0  0  0
 10 28  1  0  0  0  0
 10 29  1  0  0  0  0
 11 30  1  0  0  0  0
 11 31  1  0  0  0  0
 11 32  1  0  0  0  0
 12 33  1  0  0  0  0
 12 34  1  0  0  0  0
 12 35  1  0  0  0  0
 13 36  1  0  0  0  0
 13 37  1  0  0  0  0
 18 38  1  0  0  0  0
M  END
> <id>
EN300-3905135

> <smiles>
CC(C)(C)OC(=O)N1CCOC=2C(CO)=CC=CC12

> <IUPAC Name>
tert-butyl 8-(hydroxymethyl)-3,4-dihydro-2H-1,4-benzoxazine-4-carboxylate

> <CAS>
926004-44-6

> <URL>
https://www.enaminestore.com/catalog/EN300-3905135

> <ROCS_ShapeQuery>
A71EV2A-x0451_0A_A71EV2A-x0310_0A_A71EV2A-x0416_0A_peptide

> <ROCS_TanimotoCombo>
0.520 

> <ROCS_ShapeTanimoto>
0.343 

> <ROCS_ColorTanimoto>
0.177 

> <ROCS_RefTversky>
0.298 

> <ROCS_RefColorTversky>
0.191 

> <ROCS_RefTverskyCombo>
0.489 

> <ROCS_FitTversky>
1.765 

> <ROCS_FitColorTversky>
0.706 

> <ROCS_FitTverskyCombo>
2.471 

> <ROCS_ColorScore>
-5.818

> <ROCS_Overlap>
2070.809

> <ROCS_Rank>
208                 

$$$$
untitled-dbase-153267_3
  -OEChem-11132313473D

 28 29  0     1  0  0  0  0  0999 V2000
    6.7619   12.2935   25.4750 C   0  0  0  0  0  0  0  0  0  0  0  0
    8.5644   11.9497   24.4479 C   0  0  0  0  0  0  0  0  0  0  0  0
    5.7186   12.9849   26.1699 C   0  0  0  0  0  0  0  0  0  0  0  0
   10.4178   13.1997   23.6179 C   0  0  0  0  0  0  0  0  0  0  0  0
    9.2775    9.6451   22.9738 C   0  0  0  0  0  0  0  0  0  0  0  0
    8.2360    9.4932   24.0797 C   0  0  0  0  0  0  0  0  0  0  0  0
   10.3833   10.6533   23.3492 C   0  0  2  0  0  0  0  0  0  0  0  0
   11.2999   10.0886   24.4417 C   0  0  0  0  0  0  0  0  0  0  0  0
   11.3060   13.3468   22.4045 C   0  0  0  0  0  0  0  0  0  0  0  0
    7.8749   12.9287   24.9987 N   0  0  0  0  0  0  0  0  0  0  0  0
    6.7022   10.9794   25.2502 N   0  0  0  0  0  0  0  0  0  0  0  0
    7.8515   10.7893   24.5883 N   0  0  0  0  0  0  0  0  0  0  0  0
    9.7971   11.9535   23.7843 N   0  0  0  0  0  0  0  0  0  0  0  0
    5.6843   14.2069   26.4246 O   0  0  0  0  0  0  0  0  0  0  0  0
   10.2741   14.1737   24.3624 O   0  0  0  0  0  0  0  0  0  0  0  0
    4.6923   12.1665   26.5626 O   0  0  0  0  0  0  0  0  0  0  0  0
   11.3252   12.2051   21.6959 F   0  0  0  0  0  0  0  0  0  0  0  0
   10.8570   14.3325   21.6088 F   0  0  0  0  0  0  0  0  0  0  0  0
   12.5652   13.6393   22.7721 F   0  0  0  0  0  0  0  0  0  0  0  0
    9.7088    8.6669   22.7313 H   0  0  0  0  0  0  0  0  0  0  0  0
    8.7802   10.0023   22.0618 H   0  0  0  0  0  0  0  0  0  0  0  0
    7.3404    8.9926   23.6974 H   0  0  0  0  0  0  0  0  0  0  0  0
    8.6266    8.9187   24.9258 H   0  0  0  0  0  0  0  0  0  0  0  0
   10.9911   10.8196   22.4545 H   0  0  0  0  0  0  0  0  0  0  0  0
   10.7218    9.9129   25.3449 H   0  0  0  0  0  0  0  0  0  0  0  0
   12.0933   10.8002   24.6528 H   0  0  0  0  0  0  0  0  0  0  0  0
   11.7343    9.1522   24.1023 H   0  0  0  0  0  0  0  0  0  0  0  0
    4.8154   11.2253   26.3146 H   0  0  0  0  0  0  0  0  0  0  0  0
  1  3  1  0  0  0  0
  1 10  1  0  0  0  0
  1 11  2  0  0  0  0
  2 10  2  0  0  0  0
  2 12  1  0  0  0  0
  2 13  1  0  0  0  0
  3 14  2  0  0  0  0
  3 16  1  0  0  0  0
  4  9  1  0  0  0  0
  4 13  1  0  0  0  0
  4 15  2  0  0  0  0
  5  6  1  0  0  0  0
  5  7  1  0  0  0  0
  6 12  1  0  0  0  0
  7  8  1  0  0  0  0
  7 13  1  0  0  0  0
  9 17  1  0  0  0  0
  9 18  1  0  0  0  0
  9 19  1  0  0  0  0
 11 12  1  0  0  0  0
  5 20  1  0  0  0  0
  5 21  1  0  0  0  0
  6 22  1  0  0  0  0
  6 23  1  0  0  0  0
  7 24  1  0  0  0  0
  8 25  1  0  0  0  0
  8 26  1  0  0  0  0
  8 27  1  0  0  0  0
 16 28  1  0  0  0  0
M  END
> <id>
EN300-28285284

> <smiles>
CC1CCN2N=C(N=C2N1C(=O)C(F)(F)F)C(=O)O

> <IUPAC Name>
5-methyl-4-(2,2,2-trifluoroacetyl)-4H,5H,6H,7H-[1,2,4]triazolo[1,5-a]pyrimidine-2-carboxylic acid

> <CAS>
2680814-99-5

> <URL>
https://www.enaminestore.com/catalog/EN300-28285284

> <ROCS_ShapeQuery>
A71EV2A-x0451_0A_A71EV2A-x0310_0A_A71EV2A-x0416_0A_peptide

> <ROCS_TanimotoCombo>
0.520 

> <ROCS_ShapeTanimoto>
0.352 

> <ROCS_ColorTanimoto>
0.168 

> <ROCS_RefTversky>
0.306 

> <ROCS_RefColorTversky>
0.187 

> <ROCS_RefTverskyCombo>
0.493 

> <ROCS_FitTversky>
1.750 

> <ROCS_FitColorTversky>
0.619 

> <ROCS_FitTverskyCombo>
2.368 

> <ROCS_ColorScore>
-5.710

> <ROCS_Overlap>
2122.440

> <ROCS_Rank>
209                 

$$$$
untitled-dbase-149716_8
  -OEChem-11132313473D

 40 41  0     1  0  0  0  0  0999 V2000
   10.5177   13.1681   23.4672 C   0  0  0  0  0  0  0  0  0  0  0  0
    7.2495   12.2404   24.2638 C   0  0  0  0  0  0  0  0  0  0  0  0
    6.8541   10.7701   24.0984 C   0  0  0  0  0  0  0  0  0  0  0  0
    8.6471   10.8576   25.5683 C   0  0  0  0  0  0  0  0  0  0  0  0
    9.5151   10.9543   22.7991 C   0  0  0  0  0  0  0  0  0  0  0  0
    8.6735   12.1773   24.8147 C   0  0  1  0  0  0  0  0  0  0  0  0
    8.9990    9.6890   23.5133 C   0  0  2  0  0  0  0  0  0  0  0  0
   12.4582   15.0591   22.5480 C   0  0  0  0  0  0  0  0  0  0  0  0
   12.3335   13.8422   20.3542 C   0  0  0  0  0  0  0  0  0  0  0  0
   10.2940   14.9906   21.2649 C   0  0  0  0  0  0  0  0  0  0  0  0
    8.4854    8.6546   22.5080 C   0  0  0  0  0  0  0  0  0  0  0  0
   11.5715   14.2308   21.6192 C   0  0  0  0  0  0  0  0  0  0  0  0
    9.6484   12.1007   23.7123 N   0  0  0  0  0  0  0  0  0  0  0  0
    8.0028    9.9665   24.5797 N   0  0  2  0  0  0  0  0  0  0  0  0
    8.0240    7.5014   23.2020 N   0  0  0  0  0  0  0  0  0  0  0  0
   10.6514   14.1388   24.2098 O   0  0  0  0  0  0  0  0  0  0  0  0
   11.2099   13.0205   22.2941 O   0  0  0  0  0  0  0  0  0  0  0  0
    7.1832   12.8036   23.3270 H   0  0  0  0  0  0  0  0  0  0  0  0
    6.5867   12.7236   24.9917 H   0  0  0  0  0  0  0  0  0  0  0  0
    5.9848   10.5546   24.7316 H   0  0  0  0  0  0  0  0  0  0  0  0
    6.5518   10.5412   23.0723 H   0  0  0  0  0  0  0  0  0  0  0  0
    9.6385   10.5140   25.8858 H   0  0  0  0  0  0  0  0  0  0  0  0
    8.0245   10.9260   26.4697 H   0  0  0  0  0  0  0  0  0  0  0  0
   10.4778   10.7441   22.3207 H   0  0  0  0  0  0  0  0  0  0  0  0
    8.8248   11.2688   22.0064 H   0  0  0  0  0  0  0  0  0  0  0  0
    8.8934   13.0270   25.4673 H   0  0  0  0  0  0  0  0  0  0  0  0
    9.8612    9.2150   24.0042 H   0  0  0  0  0  0  0  0  0  0  0  0
   11.9148   15.3400   23.4573 H   0  0  0  0  0  0  0  0  0  0  0  0
   13.3612   14.5118   22.8376 H   0  0  0  0  0  0  0  0  0  0  0  0
   12.7608   15.9961   22.0668 H   0  0  0  0  0  0  0  0  0  0  0  0
   11.7011   13.2478   19.6848 H   0  0  0  0  0  0  0  0  0  0  0  0
   13.1998   13.2162   20.5971 H   0  0  0  0  0  0  0  0  0  0  0  0
   12.6849   14.7232   19.8074 H   0  0  0  0  0  0  0  0  0  0  0  0
    9.6578   14.3967   20.5988 H   0  0  0  0  0  0  0  0  0  0  0  0
    9.7154   15.2456   22.1587 H   0  0  0  0  0  0  0  0  0  0  0  0
   10.5277   15.9157   20.7257 H   0  0  0  0  0  0  0  0  0  0  0  0
    7.6744    9.1229   21.9551 H   0  0  0  0  0  0  0  0  0  0  0  0
    9.3178    8.4048   21.8543 H   0  0  0  0  0  0  0  0  0  0  0  0
    7.3002    7.7527   23.8523 H   0  0  0  0  0  0  0  0  0  0  0  0
    7.6542    6.8297   22.5526 H   0  0  0  0  0  0  0  0  0  0  0  0
  1 13  1  0  0  0  0
  1 16  2  0  0  0  0
  1 17  1  0  0  0  0
  2  3  1  0  0  0  0
  2  6  1  0  0  0  0
  3 14  1  0  0  0  0
  4  6  1  0  0  0  0
  4 14  1  0  0  0  0
  5  7  1  0  0  0  0
  5 13  1  0  0  0  0
  6 13  1  0  0  0  0
  7 11  1  0  0  0  0
  7 14  1  0  0  0  0
  8 12  1  0  0  0  0
  9 12  1  0  0  0  0
 10 12  1  0  0  0  0
 11 15  1  0  0  0  0
 12 17  1  0  0  0  0
  2 18  1  0  0  0  0
  2 19  1  0  0  0  0
  3 20  1  0  0  0  0
  3 21  1  0  0  0  0
  4 22  1  0  0  0  0
  4 23  1  0  0  0  0
  5 24  1  0  0  0  0
  5 25  1  0  0  0  0
  6 26  1  0  0  0  0
  7 27  1  0  0  0  0
  8 28  1  0  0  0  0
  8 29  1  0  0  0  0
  8 30  1  0  0  0  0
  9 31  1  0  0  0  0
  9 32  1  0  0  0  0
  9 33  1  0  0  0  0
 10 34  1  0  0  0  0
 10 35  1  0  0  0  0
 10 36  1  0  0  0  0
 11 37  1  0  0  0  0
 11 38  1  0  0  0  0
 15 39  1  0  0  0  0
 15 40  1  0  0  0  0
M  END
> <id>
EN300-27750920

> <smiles>
Cl.CC(C)(C)OC(=O)N1CC(CN)N2CCC1C2

> <MDLNUMBER>
MFCD33550599

> <IUPAC Name>
tert-butyl 2-(aminomethyl)-1,4-diazabicyclo[3.2.1]octane-4-carboxylate hydrochloride

> <CAS>
2624130-19-2

> <Purity>
95

> <URL>
https://www.enaminestore.com/catalog/EN300-27750920

> <ROCS_ShapeQuery>
A71EV2A-x0451_0A_A71EV2A-x0310_0A_A71EV2A-x0416_0A_peptide

> <ROCS_TanimotoCombo>
0.520 

> <ROCS_ShapeTanimoto>
0.308 

> <ROCS_ColorTanimoto>
0.212 

> <ROCS_RefTversky>
0.272 

> <ROCS_RefColorTversky>
0.243 

> <ROCS_RefTverskyCombo>
0.515 

> <ROCS_FitTversky>
1.753 

> <ROCS_FitColorTversky>
0.623 

> <ROCS_FitTverskyCombo>
2.377 

> <ROCS_ColorScore>
-7.440

> <ROCS_Overlap>
1886.086

> <ROCS_Rank>
210                 

$$$$
untitled-dbase-149990_8
  -OEChem-11132313473D

 40 41  0     1  0  0  0  0  0999 V2000
   10.5177   13.1681   23.4672 C   0  0  0  0  0  0  0  0  0  0  0  0
    7.2495   12.2404   24.2638 C   0  0  0  0  0  0  0  0  0  0  0  0
    6.8541   10.7701   24.0984 C   0  0  0  0  0  0  0  0  0  0  0  0
    8.6471   10.8576   25.5683 C   0  0  0  0  0  0  0  0  0  0  0  0
    9.5151   10.9543   22.7991 C   0  0  0  0  0  0  0  0  0  0  0  0
    8.6735   12.1773   24.8147 C   0  0  1  0  0  0  0  0  0  0  0  0
    8.9990    9.6890   23.5133 C   0  0  2  0  0  0  0  0  0  0  0  0
   12.4582   15.0591   22.5480 C   0  0  0  0  0  0  0  0  0  0  0  0
   12.3335   13.8422   20.3542 C   0  0  0  0  0  0  0  0  0  0  0  0
   10.2940   14.9906   21.2649 C   0  0  0  0  0  0  0  0  0  0  0  0
    8.4854    8.6546   22.5080 C   0  0  0  0  0  0  0  0  0  0  0  0
   11.5715   14.2308   21.6192 C   0  0  0  0  0  0  0  0  0  0  0  0
    9.6484   12.1007   23.7123 N   0  0  0  0  0  0  0  0  0  0  0  0
    8.0028    9.9665   24.5797 N   0  0  2  0  0  0  0  0  0  0  0  0
    8.0240    7.5014   23.2020 N   0  0  0  0  0  0  0  0  0  0  0  0
   10.6514   14.1388   24.2098 O   0  0  0  0  0  0  0  0  0  0  0  0
   11.2099   13.0205   22.2941 O   0  0  0  0  0  0  0  0  0  0  0  0
    7.1832   12.8036   23.3270 H   0  0  0  0  0  0  0  0  0  0  0  0
    6.5867   12.7236   24.9917 H   0  0  0  0  0  0  0  0  0  0  0  0
    5.9848   10.5546   24.7316 H   0  0  0  0  0  0  0  0  0  0  0  0
    6.5518   10.5412   23.0723 H   0  0  0  0  0  0  0  0  0  0  0  0
    9.6385   10.5140   25.8858 H   0  0  0  0  0  0  0  0  0  0  0  0
    8.0245   10.9260   26.4697 H   0  0  0  0  0  0  0  0  0  0  0  0
   10.4778   10.7441   22.3207 H   0  0  0  0  0  0  0  0  0  0  0  0
    8.8248   11.2688   22.0064 H   0  0  0  0  0  0  0  0  0  0  0  0
    8.8934   13.0270   25.4673 H   0  0  0  0  0  0  0  0  0  0  0  0
    9.8612    9.2150   24.0042 H   0  0  0  0  0  0  0  0  0  0  0  0
   11.9148   15.3400   23.4573 H   0  0  0  0  0  0  0  0  0  0  0  0
   13.3612   14.5118   22.8376 H   0  0  0  0  0  0  0  0  0  0  0  0
   12.7608   15.9961   22.0668 H   0  0  0  0  0  0  0  0  0  0  0  0
   11.7011   13.2478   19.6848 H   0  0  0  0  0  0  0  0  0  0  0  0
   13.1998   13.2162   20.5971 H   0  0  0  0  0  0  0  0  0  0  0  0
   12.6849   14.7232   19.8074 H   0  0  0  0  0  0  0  0  0  0  0  0
    9.6578   14.3967   20.5988 H   0  0  0  0  0  0  0  0  0  0  0  0
    9.7154   15.2456   22.1587 H   0  0  0  0  0  0  0  0  0  0  0  0
   10.5277   15.9157   20.7257 H   0  0  0  0  0  0  0  0  0  0  0  0
    7.6744    9.1229   21.9551 H   0  0  0  0  0  0  0  0  0  0  0  0
    9.3178    8.4048   21.8543 H   0  0  0  0  0  0  0  0  0  0  0  0
    7.3002    7.7527   23.8523 H   0  0  0  0  0  0  0  0  0  0  0  0
    7.6542    6.8297   22.5526 H   0  0  0  0  0  0  0  0  0  0  0  0
  1 13  1  0  0  0  0
  1 16  2  0  0  0  0
  1 17  1  0  0  0  0
  2  3  1  0  0  0  0
  2  6  1  0  0  0  0
  3 14  1  0  0  0  0
  4  6  1  0  0  0  0
  4 14  1  0  0  0  0
  5  7  1  0  0  0  0
  5 13  1  0  0  0  0
  6 13  1  0  0  0  0
  7 11  1  0  0  0  0
  7 14  1  0  0  0  0
  8 12  1  0  0  0  0
  9 12  1  0  0  0  0
 10 12  1  0  0  0  0
 11 15  1  0  0  0  0
 12 17  1  0  0  0  0
  2 18  1  0  0  0  0
  2 19  1  0  0  0  0
  3 20  1  0  0  0  0
  3 21  1  0  0  0  0
  4 22  1  0  0  0  0
  4 23  1  0  0  0  0
  5 24  1  0  0  0  0
  5 25  1  0  0  0  0
  6 26  1  0  0  0  0
  7 27  1  0  0  0  0
  8 28  1  0  0  0  0
  8 29  1  0  0  0  0
  8 30  1  0  0  0  0
  9 31  1  0  0  0  0
  9 32  1  0  0  0  0
  9 33  1  0  0  0  0
 10 34  1  0  0  0  0
 10 35  1  0  0  0  0
 10 36  1  0  0  0  0
 11 37  1  0  0  0  0
 11 38  1  0  0  0  0
 15 39  1  0  0  0  0
 15 40  1  0  0  0  0
M  END
> <id>
EN300-27147385

> <smiles>
CC(C)(C)OC(=O)N1CC(CN)N2CCC1C2

> <MDLNUMBER>
MFCD33550773

> <IUPAC Name>
tert-butyl 2-(aminomethyl)-1,4-diazabicyclo[3.2.1]octane-4-carboxylate

> <CAS>
2624130-18-1

> <URL>
https://www.enaminestore.com/catalog/EN300-27147385

> <ROCS_ShapeQuery>
A71EV2A-x0451_0A_A71EV2A-x0310_0A_A71EV2A-x0416_0A_peptide

> <ROCS_TanimotoCombo>
0.520 

> <ROCS_ShapeTanimoto>
0.308 

> <ROCS_ColorTanimoto>
0.212 

> <ROCS_RefTversky>
0.272 

> <ROCS_RefColorTversky>
0.243 

> <ROCS_RefTverskyCombo>
0.515 

> <ROCS_FitTversky>
1.753 

> <ROCS_FitColorTversky>
0.623 

> <ROCS_FitTverskyCombo>
2.377 

> <ROCS_ColorScore>
-7.440

> <ROCS_Overlap>
1886.086

> <ROCS_Rank>
211                 

$$$$
untitled-dbase-75857_39
  -OEChem-11132313473D

 44 46  0     1  0  0  0  0  0999 V2000
   11.0125   13.6847   23.0448 C   0  0  0  0  0  0  0  0  0  0  0  0
    7.4663   11.7674   25.6463 C   0  0  0  0  0  0  0  0  0  0  0  0
    8.2178   12.5250   23.3765 C   0  0  0  0  0  0  0  0  0  0  0  0
    9.8963   11.6654   25.0344 C   0  0  0  0  0  0  0  0  0  0  0  0
    6.8956   10.4094   23.6182 C   0  0  0  0  0  0  0  0  0  0  0  0
    8.5738    9.5501   25.2727 C   0  0  0  0  0  0  0  0  0  0  0  0
    9.3286   10.3046   23.0027 C   0  0  0  0  0  0  0  0  0  0  0  0
    7.0849   11.8360   24.1576 C   0  0  1  0  0  0  0  0  0  0  0  0
    8.7711   10.9717   25.8220 C   0  0  2  0  0  0  0  0  0  0  0  0
    9.5385   11.7379   23.5330 C   0  0  0  0  0  0  0  0  0  0  0  0
    8.1991    9.6084   23.7823 C   0  0  0  0  0  0  0  0  0  0  0  0
   11.5147   16.3626   22.1926 C   0  0  0  0  0  0  0  0  0  0  0  0
   13.0181   15.3335   20.4635 C   0  0  0  0  0  0  0  0  0  0  0  0
   10.5612   14.8121   20.4544 C   0  0  0  0  0  0  0  0  0  0  0  0
   11.7747   15.1309   21.3266 C   0  0  0  0  0  0  0  0  0  0  0  0
   10.5967   12.3941   22.7976 N   0  0  0  0  0  0  0  0  0  0  0  0
   10.5540   14.4344   23.9005 O   0  0  0  0  0  0  0  0  0  0  0  0
    8.0007    8.2945   23.2803 O   0  0  0  0  0  0  0  0  0  0  0  0
   12.0240   14.0135   22.1868 O   0  0  0  0  0  0  0  0  0  0  0  0
    7.5886   12.7805   26.0486 H   0  0  0  0  0  0  0  0  0  0  0  0
    6.6590   11.2932   26.2178 H   0  0  0  0  0  0  0  0  0  0  0  0
    7.9405   12.5957   22.3166 H   0  0  0  0  0  0  0  0  0  0  0  0
    8.3418   13.5525   23.7429 H   0  0  0  0  0  0  0  0  0  0  0  0
   10.0556   12.6740   25.4378 H   0  0  0  0  0  0  0  0  0  0  0  0
   10.8350   11.1137   25.1750 H   0  0  0  0  0  0  0  0  0  0  0  0
    6.0744    9.9061   24.1449 H   0  0  0  0  0  0  0  0  0  0  0  0
    6.5984   10.4350   22.5618 H   0  0  0  0  0  0  0  0  0  0  0  0
    9.4872    8.9571   25.4109 H   0  0  0  0  0  0  0  0  0  0  0  0
    7.7925    9.0255   25.8378 H   0  0  0  0  0  0  0  0  0  0  0  0
    9.0826   10.3164   21.9321 H   0  0  0  0  0  0  0  0  0  0  0  0
   10.2545    9.7193   23.0879 H   0  0  0  0  0  0  0  0  0  0  0  0
    6.1550   12.4034   24.0395 H   0  0  0  0  0  0  0  0  0  0  0  0
    9.0363   10.9253   26.8840 H   0  0  0  0  0  0  0  0  0  0  0  0
   10.6229   16.2211   22.8137 H   0  0  0  0  0  0  0  0  0  0  0  0
   12.3638   16.5813   22.8482 H   0  0  0  0  0  0  0  0  0  0  0  0
   11.3215   17.2442   21.5707 H   0  0  0  0  0  0  0  0  0  0  0  0
   13.2084   14.4522   19.8404 H   0  0  0  0  0  0  0  0  0  0  0  0
   13.9088   15.4684   21.0878 H   0  0  0  0  0  0  0  0  0  0  0  0
   12.9180   16.2056   19.8092 H   0  0  0  0  0  0  0  0  0  0  0  0
   10.7475   13.9286   19.8331 H   0  0  0  0  0  0  0  0  0  0  0  0
    9.6674   14.6272   21.0589 H   0  0  0  0  0  0  0  0  0  0  0  0
   10.3502   15.6367   19.7639 H   0  0  0  0  0  0  0  0  0  0  0  0
   11.0589   11.8753   22.0581 H   0  0  0  0  0  0  0  0  0  0  0  0
    7.2821    7.9002   23.8011 H   0  0  0  0  0  0  0  0  0  0  0  0
  1 16  1  0  0  0  0
  1 17  2  0  0  0  0
  1 19  1  0  0  0  0
  2  8  1  0  0  0  0
  2  9  1  0  0  0  0
  3  8  1  0  0  0  0
  3 10  1  0  0  0  0
  4  9  1  0  0  0  0
  4 10  1  0  0  0  0
  5  8  1  0  0  0  0
  5 11  1  0  0  0  0
  6  9  1  0  0  0  0
  6 11  1  0  0  0  0
  7 10  1  0  0  0  0
  7 11  1  0  0  0  0
 10 16  1  0  0  0  0
 11 18  1  0  0  0  0
 12 15  1  0  0  0  0
 13 15  1  0  0  0  0
 14 15  1  0  0  0  0
 15 19  1  0  0  0  0
  2 20  1  0  0  0  0
  2 21  1  0  0  0  0
  3 22  1  0  0  0  0
  3 23  1  0  0  0  0
  4 24  1  0  0  0  0
  4 25  1  0  0  0  0
  5 26  1  0  0  0  0
  5 27  1  0  0  0  0
  6 28  1  0  0  0  0
  6 29  1  0  0  0  0
  7 30  1  0  0  0  0
  7 31  1  0  0  0  0
  8 32  1  0  0  0  0
  9 33  1  0  0  0  0
 12 34  1  0  0  0  0
 12 35  1  0  0  0  0
 12 36  1  0  0  0  0
 13 37  1  0  0  0  0
 13 38  1  0  0  0  0
 13 39  1  0  0  0  0
 14 40  1  0  0  0  0
 14 41  1  0  0  0  0
 14 42  1  0  0  0  0
 16 43  1  0  0  0  0
 18 44  1  0  0  0  0
M  END
> <id>
EN300-1590186

> <smiles>
CC(C)(C)OC(=O)NC1(CC2CC3CC(O)(C2)C1)C3

> <IUPAC Name>
tert-butyl N-(3-hydroxyadamantan-1-yl)carbamate

> <CAS>
847795-89-5

> <URL>
https://www.enaminestore.com/catalog/EN300-1590186

> <ROCS_ShapeQuery>
A71EV2A-x0451_0A_A71EV2A-x0310_0A_A71EV2A-x0416_0A_peptide

> <ROCS_TanimotoCombo>
0.520 

> <ROCS_ShapeTanimoto>
0.322 

> <ROCS_ColorTanimoto>
0.197 

> <ROCS_RefTversky>
0.285 

> <ROCS_RefColorTversky>
0.232 

> <ROCS_RefTverskyCombo>
0.517 

> <ROCS_FitTversky>
1.683 

> <ROCS_FitColorTversky>
0.570 

> <ROCS_FitTverskyCombo>
2.252 

> <ROCS_ColorScore>
-7.111

> <ROCS_Overlap>
1978.304

> <ROCS_Rank>
212                 

$$$$
untitled-dbase-171486_35
  -OEChem-11132313473D

 36 37  0     0  0  0  0  0  0999 V2000
    6.9300   10.4456   25.5960 C   0  0  0  0  0  0  0  0  0  0  0  0
    7.1050   12.7556   26.0634 C   0  0  0  0  0  0  0  0  0  0  0  0
    6.4610   11.5554   26.2814 C   0  0  0  0  0  0  0  0  0  0  0  0
    8.0157   10.5739   24.7253 C   0  0  0  0  0  0  0  0  0  0  0  0
    8.6148   11.8181   24.5564 C   0  0  0  0  0  0  0  0  0  0  0  0
    9.5172    9.4458   23.1735 C   0  0  0  0  0  0  0  0  0  0  0  0
    5.3362   11.4582   27.1945 C   0  0  0  0  0  0  0  0  0  0  0  0
   10.3573   13.1951   23.4693 C   0  0  0  0  0  0  0  0  0  0  0  0
   10.2069   10.7703   22.9520 C   0  0  0  0  0  0  0  0  0  0  0  0
   12.7155   14.7171   22.8893 C   0  0  0  0  0  0  0  0  0  0  0  0
   12.0740   14.4482   20.4757 C   0  0  0  0  0  0  0  0  0  0  0  0
   10.5496   15.6818   22.0450 C   0  0  0  0  0  0  0  0  0  0  0  0
   11.5564   14.5404   21.9095 C   0  0  0  0  0  0  0  0  0  0  0  0
    8.1569   12.9069   25.2270 N   0  0  0  0  0  0  0  0  0  0  0  0
    8.4658    9.4384   24.0484 N   0  0  0  0  0  0  0  0  0  0  0  0
    9.7255   11.9494   23.6655 N   0  0  0  0  0  0  0  0  0  0  0  0
    9.8998    8.4334   22.5846 O   0  0  0  0  0  0  0  0  0  0  0  0
    4.2700   12.0760   27.0892 O   0  0  0  0  0  0  0  0  0  0  0  0
   10.4416   14.0966   24.3005 O   0  0  0  0  0  0  0  0  0  0  0  0
    5.5676   10.5903   28.2186 O   0  0  0  0  0  0  0  0  0  0  0  0
   10.8910   13.3075   22.2082 O   0  0  0  0  0  0  0  0  0  0  0  0
    6.4524    9.4785   25.7378 H   0  0  0  0  0  0  0  0  0  0  0  0
    6.7925   13.6658   26.5659 H   0  0  0  0  0  0  0  0  0  0  0  0
   11.2639   10.6360   23.2133 H   0  0  0  0  0  0  0  0  0  0  0  0
   10.1540   10.9906   21.8785 H   0  0  0  0  0  0  0  0  0  0  0  0
   12.3482   14.7837   23.9196 H   0  0  0  0  0  0  0  0  0  0  0  0
   13.4268   13.8870   22.8267 H   0  0  0  0  0  0  0  0  0  0  0  0
   13.2550   15.6506   22.6925 H   0  0  0  0  0  0  0  0  0  0  0  0
   11.2456   14.3214   19.7693 H   0  0  0  0  0  0  0  0  0  0  0  0
   12.7230   13.5740   20.3505 H   0  0  0  0  0  0  0  0  0  0  0  0
   12.6381   15.3424   20.1916 H   0  0  0  0  0  0  0  0  0  0  0  0
    9.7181   15.5553   21.3424 H   0  0  0  0  0  0  0  0  0  0  0  0
   10.1398   15.7399   23.0586 H   0  0  0  0  0  0  0  0  0  0  0  0
   11.0159   16.6435   21.8023 H   0  0  0  0  0  0  0  0  0  0  0  0
    7.9858    8.5584   24.2149 H   0  0  0  0  0  0  0  0  0  0  0  0
    4.8129   10.5168   28.8409 H   0  0  0  0  0  0  0  0  0  0  0  0
  1  3  1  0  0  0  0
  1  4  2  0  0  0  0
  2  3  2  0  0  0  0
  2 14  1  0  0  0  0
  3  7  1  0  0  0  0
  4  5  1  0  0  0  0
  4 15  1  0  0  0  0
  5 14  2  0  0  0  0
  5 16  1  0  0  0  0
  6  9  1  0  0  0  0
  6 15  1  0  0  0  0
  6 17  2  0  0  0  0
  7 18  2  0  0  0  0
  7 20  1  0  0  0  0
  8 16  1  0  0  0  0
  8 19  2  0  0  0  0
  8 21  1  0  0  0  0
  9 16  1  0  0  0  0
 10 13  1  0  0  0  0
 11 13  1  0  0  0  0
 12 13  1  0  0  0  0
 13 21  1  0  0  0  0
  1 22  1  0  0  0  0
  2 23  1  0  0  0  0
  9 24  1  0  0  0  0
  9 25  1  0  0  0  0
 10 26  1  0  0  0  0
 10 27  1  0  0  0  0
 10 28  1  0  0  0  0
 11 29  1  0  0  0  0
 11 30  1  0  0  0  0
 11 31  1  0  0  0  0
 12 32  1  0  0  0  0
 12 33  1  0  0  0  0
 12 34  1  0  0  0  0
 15 35  1  0  0  0  0
 20 36  1  0  0  0  0
M  END
> <id>
EN300-37397543

> <smiles>
CC(C)(C)OC(=O)N1CC(=O)NC=2C=C(C=NC12)C(=O)O

> <IUPAC Name>
4-[(tert-butoxy)carbonyl]-2-oxo-1H,2H,3H,4H-pyrido[2,3-b]pyrazine-7-carboxylic acid

> <CAS>
2770554-31-7

> <URL>
https://www.enaminestore.com/catalog/EN300-37397543

> <ROCS_ShapeQuery>
A71EV2A-x0451_0A_A71EV2A-x0310_0A_A71EV2A-x0416_0A_peptide

> <ROCS_TanimotoCombo>
0.519 

> <ROCS_ShapeTanimoto>
0.370 

> <ROCS_ColorTanimoto>
0.149 

> <ROCS_RefTversky>
0.320 

> <ROCS_RefColorTversky>
0.177 

> <ROCS_RefTverskyCombo>
0.497 

> <ROCS_FitTversky>
1.741 

> <ROCS_FitColorTversky>
0.487 

> <ROCS_FitTverskyCombo>
2.228 

> <ROCS_ColorScore>
-5.412

> <ROCS_Overlap>
2222.018

> <ROCS_Rank>
213                 

$$$$
untitled-dbase-180722_4
  -OEChem-11132313473D

 34 37  0     0  0  0  0  0  0999 V2000
   13.2244   16.6413   20.8400 C   0  0  0  0  0  0  0  0  0  0  0  0
   12.5609   14.3225   19.4222 C   0  0  0  0  0  0  0  0  0  0  0  0
    6.6607   11.0189   25.7393 C   0  0  0  0  0  0  0  0  0  0  0  0
   12.3867   15.6796   21.4115 C   0  0  0  0  0  0  0  0  0  0  0  0
   12.0497   14.5166   20.7084 C   0  0  0  0  0  0  0  0  0  0  0  0
   13.7283   16.4369   19.5557 C   0  0  0  0  0  0  0  0  0  0  0  0
   13.3979   15.2807   18.8483 C   0  0  0  0  0  0  0  0  0  0  0  0
    8.2313   10.8604   24.3270 C   0  0  0  0  0  0  0  0  0  0  0  0
    8.1279   12.1944   24.6287 C   0  0  0  0  0  0  0  0  0  0  0  0
    8.9109   13.2314   24.1002 C   0  0  0  0  0  0  0  0  0  0  0  0
   11.8285   15.8591   22.7793 C   0  0  0  0  0  0  0  0  0  0  0  0
    9.2274   10.4158   23.3766 C   0  0  0  0  0  0  0  0  0  0  0  0
    9.8376   12.8117   23.2154 C   0  0  0  0  0  0  0  0  0  0  0  0
   10.7299   13.8154   22.5850 C   0  0  0  0  0  0  0  0  0  0  0  0
    6.6125   13.4906   26.1707 C   0  0  0  0  0  0  0  0  0  0  0  0
    7.3150   10.1242   25.0203 N   0  0  0  0  0  0  0  0  0  0  0  0
   11.0035   14.8776   23.2985 N   0  0  0  0  0  0  0  0  0  0  0  0
    7.1218   12.2997   25.5340 N   0  0  0  0  0  0  0  0  0  0  0  0
   11.2096   13.5802   21.3143 N   0  0  0  0  0  0  0  0  0  0  0  0
   10.0000   11.4731   22.8609 N   0  0  0  0  0  0  0  0  0  0  0  0
   12.1202   16.8755   23.4020 O   0  0  0  0  0  0  0  0  0  0  0  0
    9.3702    9.2388   23.0643 O   0  0  0  0  0  0  0  0  0  0  0  0
   14.5455   17.3686   18.9917 O   0  0  0  0  0  0  0  0  0  0  0  0
   13.8825   15.0837   17.6144 F   0  0  0  0  0  0  0  0  0  0  0  0
   13.4900   17.5463   21.3797 H   0  0  0  0  0  0  0  0  0  0  0  0
   12.3122   13.4268   18.8589 H   0  0  0  0  0  0  0  0  0  0  0  0
    5.8495   10.8051   26.4220 H   0  0  0  0  0  0  0  0  0  0  0  0
    8.7742   14.2674   24.3849 H   0  0  0  0  0  0  0  0  0  0  0  0
    7.1767   13.6471   27.0938 H   0  0  0  0  0  0  0  0  0  0  0  0
    6.7355   14.3441   25.4981 H   0  0  0  0  0  0  0  0  0  0  0  0
    5.5493   13.3571   26.3890 H   0  0  0  0  0  0  0  0  0  0  0  0
   10.9709   12.7416   20.7979 H   0  0  0  0  0  0  0  0  0  0  0  0
   10.7242   11.2458   22.1854 H   0  0  0  0  0  0  0  0  0  0  0  0
   14.8126   17.0869   18.1024 H   0  0  0  0  0  0  0  0  0  0  0  0
  1  4  2  0  0  0  0
  1  6  1  0  0  0  0
  2  5  2  0  0  0  0
  2  7  1  0  0  0  0
  3 16  2  0  0  0  0
  3 18  1  0  0  0  0
  4  5  1  0  0  0  0
  4 11  1  0  0  0  0
  5 19  1  0  0  0  0
  6  7  2  0  0  0  0
  6 23  1  0  0  0  0
  7 24  1  0  0  0  0
  8  9  2  0  0  0  0
  8 12  1  0  0  0  0
  8 16  1  0  0  0  0
  9 10  1  0  0  0  0
  9 18  1  0  0  0  0
 10 13  2  0  0  0  0
 11 17  1  0  0  0  0
 11 21  2  0  0  0  0
 12 20  1  0  0  0  0
 12 22  2  0  0  0  0
 13 14  1  0  0  0  0
 13 20  1  0  0  0  0
 14 17  2  0  0  0  0
 14 19  1  0  0  0  0
 15 18  1  0  0  0  0
  1 25  1  0  0  0  0
  2 26  1  0  0  0  0
  3 27  1  0  0  0  0
 10 28  1  0  0  0  0
 15 29  1  0  0  0  0
 15 30  1  0  0  0  0
 15 31  1  0  0  0  0
 19 32  1  0  0  0  0
 20 33  1  0  0  0  0
 23 34  1  0  0  0  0
M  END
> <id>
EN300-37471518

> <smiles>
CN1C=NC=2C(=O)NC(=CC12)C3=NC(=O)C=4C=C(O)C(F)=CC4N3

> <IUPAC Name>
7-fluoro-6-hydroxy-2-{1-methyl-4-oxo-1H,4H,5H-imidazo[4,5-c]pyridin-6-yl}-1,4-dihydroquinazolin-4-one

> <Purity>
95

> <URL>
https://www.enaminestore.com/catalog/EN300-37471518

> <ROCS_ShapeQuery>
A71EV2A-x0451_0A_A71EV2A-x0310_0A_A71EV2A-x0416_0A_peptide

> <ROCS_TanimotoCombo>
0.519 

> <ROCS_ShapeTanimoto>
0.365 

> <ROCS_ColorTanimoto>
0.155 

> <ROCS_RefTversky>
0.323 

> <ROCS_RefColorTversky>
0.199 

> <ROCS_RefTverskyCombo>
0.522 

> <ROCS_FitTversky>
1.541 

> <ROCS_FitColorTversky>
0.410 

> <ROCS_FitTverskyCombo>
1.951 

> <ROCS_ColorScore>
-6.128

> <ROCS_Overlap>
2247.465

> <ROCS_Rank>
214                 

$$$$
untitled-dbase-173130_1
  -OEChem-11132313473D

 31 32  0     0  0  0  0  0  0999 V2000
    6.3751   10.7499   26.4453 C   0  0  0  0  0  0  0  0  0  0  0  0
    7.3153    9.9328   25.8169 C   0  0  0  0  0  0  0  0  0  0  0  0
    6.8984   12.5091   24.8947 C   0  0  0  0  0  0  0  0  0  0  0  0
    6.1627   12.0389   25.9796 C   0  0  0  0  0  0  0  0  0  0  0  0
    7.8602   11.6991   24.2583 C   0  0  0  0  0  0  0  0  0  0  0  0
    8.0666   10.3773   24.7092 C   0  0  0  0  0  0  0  0  0  0  0  0
    5.1812   12.8968   26.6238 C   0  0  0  0  0  0  0  0  0  0  0  0
   10.8796   13.1328   23.7112 C   0  0  0  0  0  0  0  0  0  0  0  0
    8.6329   12.3019   23.1074 C   0  0  0  0  0  0  0  0  0  0  0  0
    9.5919    9.6421   22.8476 C   0  0  0  0  0  0  0  0  0  0  0  0
   10.6062   10.7801   22.8400 C   0  0  0  0  0  0  0  0  0  0  0  0
   12.3035   13.1602   23.2110 C   0  0  0  0  0  0  0  0  0  0  0  0
    8.9594    9.4801   24.1400 N   0  0  0  0  0  0  0  0  0  0  0  0
   10.0757   12.0880   23.2410 N   0  0  0  0  0  0  0  0  0  0  0  0
    4.4806   12.5825   27.5918 O   0  0  0  0  0  0  0  0  0  0  0  0
   10.4965   14.0038   24.4961 O   0  0  0  0  0  0  0  0  0  0  0  0
    5.1018   14.1252   26.0424 O   0  0  0  0  0  0  0  0  0  0  0  0
   12.5290   12.1310   22.3761 F   0  0  0  0  0  0  0  0  0  0  0  0
   12.5496   14.3041   22.5488 F   0  0  0  0  0  0  0  0  0  0  0  0
   13.1688   13.0708   24.2362 F   0  0  0  0  0  0  0  0  0  0  0  0
    5.8145   10.3644   27.2927 H   0  0  0  0  0  0  0  0  0  0  0  0
    7.4557    8.9219   26.1976 H   0  0  0  0  0  0  0  0  0  0  0  0
    6.7304   13.5250   24.5410 H   0  0  0  0  0  0  0  0  0  0  0  0
    8.2848   11.8972   22.1507 H   0  0  0  0  0  0  0  0  0  0  0  0
    8.4462   13.3813   23.0585 H   0  0  0  0  0  0  0  0  0  0  0  0
    8.8384    9.7597   22.0604 H   0  0  0  0  0  0  0  0  0  0  0  0
   10.1219    8.7123   22.6080 H   0  0  0  0  0  0  0  0  0  0  0  0
   11.4475   10.5157   23.4891 H   0  0  0  0  0  0  0  0  0  0  0  0
   11.0077   10.9001   21.8268 H   0  0  0  0  0  0  0  0  0  0  0  0
    9.0608    8.5766   24.5907 H   0  0  0  0  0  0  0  0  0  0  0  0
    4.4427   14.7122   26.4706 H   0  0  0  0  0  0  0  0  0  0  0  0
  1  2  1  0  0  0  0
  1  4  2  0  0  0  0
  2  6  2  0  0  0  0
  3  4  1  0  0  0  0
  3  5  2  0  0  0  0
  4  7  1  0  0  0  0
  5  6  1  0  0  0  0
  5  9  1  0  0  0  0
  6 13  1  0  0  0  0
  7 15  2  0  0  0  0
  7 17  1  0  0  0  0
  8 12  1  0  0  0  0
  8 14  1  0  0  0  0
  8 16  2  0  0  0  0
  9 14  1  0  0  0  0
 10 11  1  0  0  0  0
 10 13  1  0  0  0  0
 11 14  1  0  0  0  0
 12 18  1  0  0  0  0
 12 19  1  0  0  0  0
 12 20  1  0  0  0  0
  1 21  1  0  0  0  0
  2 22  1  0  0  0  0
  3 23  1  0  0  0  0
  9 24  1  0  0  0  0
  9 25  1  0  0  0  0
 10 26  1  0  0  0  0
 10 27  1  0  0  0  0
 11 28  1  0  0  0  0
 11 29  1  0  0  0  0
 13 30  1  0  0  0  0
 17 31  1  0  0  0  0
M  END
> <id>
EN300-37343849

> <smiles>
OC(=O)C=1C=CC=2NCCN(CC2C1)C(=O)C(F)(F)F

> <IUPAC Name>
4-(2,2,2-trifluoroacetyl)-2,3,4,5-tetrahydro-1H-1,4-benzodiazepine-7-carboxylic acid

> <CAS>
2763975-91-1

> <URL>
https://www.enaminestore.com/catalog/EN300-37343849

> <ROCS_ShapeQuery>
A71EV2A-x0451_0A_A71EV2A-x0310_0A_A71EV2A-x0416_0A_peptide

> <ROCS_TanimotoCombo>
0.519 

> <ROCS_ShapeTanimoto>
0.333 

> <ROCS_ColorTanimoto>
0.187 

> <ROCS_RefTversky>
0.294 

> <ROCS_RefColorTversky>
0.200 

> <ROCS_RefTverskyCombo>
0.494 

> <ROCS_FitTversky>
1.656 

> <ROCS_FitColorTversky>
0.738 

> <ROCS_FitTverskyCombo>
2.395 

> <ROCS_ColorScore>
-6.090

> <ROCS_Overlap>
2039.513

> <ROCS_Rank>
215                 

$$$$
untitled-dbase-148139_58
  -OEChem-11132313473D

 35 36  0     1  0  0  0  0  0999 V2000
    9.2101   10.0295   23.3715 C   0  0  0  0  0  0  0  0  0  0  0  0
    9.3507   11.4298   23.4594 C   0  0  0  0  0  0  0  0  0  0  0  0
    8.3688   11.8241   24.3386 C   0  0  0  0  0  0  0  0  0  0  0  0
   10.8142   13.4601   23.2420 C   0  0  0  0  0  0  0  0  0  0  0  0
    6.5771   10.6182   25.5778 C   0  0  0  0  0  0  0  0  0  0  0  0
    7.1272   13.0284   25.9159 C   0  0  0  0  0  0  0  0  0  0  0  0
    5.9922   12.0135   25.7651 C   0  0  2  0  0  0  0  0  0  0  0  0
   13.1374   15.0054   23.8695 C   0  0  0  0  0  0  0  0  0  0  0  0
   13.2319   15.5204   21.4128 C   0  0  0  0  0  0  0  0  0  0  0  0
   11.2489   16.2532   22.7689 C   0  0  0  0  0  0  0  0  0  0  0  0
   12.3207   15.1789   22.5898 C   0  0  0  0  0  0  0  0  0  0  0  0
    8.2099    9.5610   24.1242 N   0  0  0  0  0  0  0  0  0  0  0  0
    7.7122   10.6745   24.6858 N   0  0  0  0  0  0  0  0  0  0  0  0
   10.2540   12.2416   22.8182 N   0  0  0  0  0  0  0  0  0  0  0  0
   10.5873   14.0370   24.2984 O   0  0  0  0  0  0  0  0  0  0  0  0
    8.0136   13.0295   24.7899 O   0  0  0  0  0  0  0  0  0  0  0  0
    5.1651   12.0237   26.9180 O   0  0  0  0  0  0  0  0  0  0  0  0
   11.6750   13.9362   22.2892 O   0  0  0  0  0  0  0  0  0  0  0  0
    9.7956    9.3289   22.7929 H   0  0  0  0  0  0  0  0  0  0  0  0
    6.9158   10.1900   26.5262 H   0  0  0  0  0  0  0  0  0  0  0  0
    5.8487    9.9512   25.1054 H   0  0  0  0  0  0  0  0  0  0  0  0
    6.7285   14.0403   26.0446 H   0  0  0  0  0  0  0  0  0  0  0  0
    7.7337   12.7883   26.7937 H   0  0  0  0  0  0  0  0  0  0  0  0
    5.3622   12.2662   24.9033 H   0  0  0  0  0  0  0  0  0  0  0  0
   12.4869   14.7602   24.7167 H   0  0  0  0  0  0  0  0  0  0  0  0
   13.8865   14.2137   23.7657 H   0  0  0  0  0  0  0  0  0  0  0  0
   13.6520   15.9362   24.1342 H   0  0  0  0  0  0  0  0  0  0  0  0
   12.6501   15.6458   20.4925 H   0  0  0  0  0  0  0  0  0  0  0  0
   13.9423   14.7081   21.2207 H   0  0  0  0  0  0  0  0  0  0  0  0
   13.7976   16.4402   21.5934 H   0  0  0  0  0  0  0  0  0  0  0  0
   10.6630   16.3779   21.8511 H   0  0  0  0  0  0  0  0  0  0  0  0
   10.5631   16.0065   23.5858 H   0  0  0  0  0  0  0  0  0  0  0  0
   11.7050   17.2274   22.9792 H   0  0  0  0  0  0  0  0  0  0  0  0
   10.5677   11.9088   21.8893 H   0  0  0  0  0  0  0  0  0  0  0  0
    4.8167   12.9246   26.9980 H   0  0  0  0  0  0  0  0  0  0  0  0
  1  2  1  0  0  0  0
  1 12  2  0  0  0  0
  2  3  2  0  0  0  0
  2 14  1  0  0  0  0
  3 13  1  0  0  0  0
  3 16  1  0  0  0  0
  4 14  1  0  0  0  0
  4 15  2  0  0  0  0
  4 18  1  0  0  0  0
  5  7  1  0  0  0  0
  5 13  1  0  0  0  0
  6  7  1  0  0  0  0
  6 16  1  0  0  0  0
  7 17  1  0  0  0  0
  8 11  1  0  0  0  0
  9 11  1  0  0  0  0
 10 11  1  0  0  0  0
 11 18  1  0  0  0  0
 12 13  1  0  0  0  0
  1 19  1  0  0  0  0
  5 20  1  0  0  0  0
  5 21  1  0  0  0  0
  6 22  1  0  0  0  0
  6 23  1  0  0  0  0
  7 24  1  0  0  0  0
  8 25  1  0  0  0  0
  8 26  1  0  0  0  0
  8 27  1  0  0  0  0
  9 28  1  0  0  0  0
  9 29  1  0  0  0  0
  9 30  1  0  0  0  0
 10 31  1  0  0  0  0
 10 32  1  0  0  0  0
 10 33  1  0  0  0  0
 14 34  1  0  0  0  0
 17 35  1  0  0  0  0
M  END
> <id>
EN300-27784033

> <smiles>
CC(C)(C)OC(=O)NC=1C=NN2CC(O)COC12

> <IUPAC Name>
tert-butyl N-{6-hydroxy-5H,6H,7H-pyrazolo[3,2-b][1,3]oxazin-3-yl}carbamate

> <CAS>
2639412-44-3

> <URL>
https://www.enaminestore.com/catalog/EN300-27784033

> <ROCS_ShapeQuery>
A71EV2A-x0451_0A_A71EV2A-x0310_0A_A71EV2A-x0416_0A_peptide

> <ROCS_TanimotoCombo>
0.519 

> <ROCS_ShapeTanimoto>
0.337 

> <ROCS_ColorTanimoto>
0.182 

> <ROCS_RefTversky>
0.293 

> <ROCS_RefColorTversky>
0.205 

> <ROCS_RefTverskyCombo>
0.499 

> <ROCS_FitTversky>
1.786 

> <ROCS_FitColorTversky>
0.618 

> <ROCS_FitTverskyCombo>
2.404 

> <ROCS_ColorScore>
-6.280

> <ROCS_Overlap>
2035.017

> <ROCS_Rank>
216                 

$$$$
untitled-dbase-152441_16
  -OEChem-11132313473D

 33 34  0     0  0  0  0  0  0999 V2000
    8.0176   12.8063   24.8320 C   0  0  0  0  0  0  0  0  0  0  0  0
    6.9573   12.6944   25.7387 C   0  0  0  0  0  0  0  0  0  0  0  0
    7.0150   10.2698   25.5892 C   0  0  0  0  0  0  0  0  0  0  0  0
    9.7499   10.0155   23.2286 C   0  0  0  0  0  0  0  0  0  0  0  0
    8.5879   11.6357   24.2936 C   0  0  0  0  0  0  0  0  0  0  0  0
    8.0745   10.3970   24.6838 C   0  0  0  0  0  0  0  0  0  0  0  0
    9.6442   11.3794   23.3752 C   0  0  0  0  0  0  0  0  0  0  0  0
    6.4653   11.4447   26.1101 C   0  0  0  0  0  0  0  0  0  0  0  0
   10.8375   13.5792   23.1572 C   0  0  0  0  0  0  0  0  0  0  0  0
   11.0107   16.4102   22.7899 C   0  0  0  0  0  0  0  0  0  0  0  0
   12.1709   15.8729   20.6278 C   0  0  0  0  0  0  0  0  0  0  0  0
    9.7965   15.1383   20.9892 C   0  0  0  0  0  0  0  0  0  0  0  0
   11.1472   15.3955   21.6556 C   0  0  0  0  0  0  0  0  0  0  0  0
    8.7988    9.4315   24.0216 N   0  0  0  0  0  0  0  0  0  0  0  0
   10.4370   12.3022   22.7313 N   0  0  0  0  0  0  0  0  0  0  0  0
   10.5426   14.1212   24.2154 O   0  0  0  0  0  0  0  0  0  0  0  0
   11.6280   14.1622   22.2028 O   0  0  0  0  0  0  0  0  0  0  0  0
    5.0303   11.3325   27.3389 Br  0  0  0  0  0  0  0  0  0  0  0  0
    8.3901   13.7877   24.5523 H   0  0  0  0  0  0  0  0  0  0  0  0
    6.5246   13.6043   26.1482 H   0  0  0  0  0  0  0  0  0  0  0  0
    6.6410    9.2904   25.8700 H   0  0  0  0  0  0  0  0  0  0  0  0
   10.4148    9.4059   22.6324 H   0  0  0  0  0  0  0  0  0  0  0  0
   10.2768   16.0712   23.5298 H   0  0  0  0  0  0  0  0  0  0  0  0
   11.9657   16.5773   23.2987 H   0  0  0  0  0  0  0  0  0  0  0  0
   10.6468   17.3725   22.4120 H   0  0  0  0  0  0  0  0  0  0  0  0
   12.2721   15.1479   19.8122 H   0  0  0  0  0  0  0  0  0  0  0  0
   13.1642   15.9679   21.0813 H   0  0  0  0  0  0  0  0  0  0  0  0
   11.8917   16.8406   20.1989 H   0  0  0  0  0  0  0  0  0  0  0  0
    9.8941   14.4105   20.1756 H   0  0  0  0  0  0  0  0  0  0  0  0
    9.0593   14.7599   21.7047 H   0  0  0  0  0  0  0  0  0  0  0  0
    9.4038   16.0564   20.5374 H   0  0  0  0  0  0  0  0  0  0  0  0
    8.6496    8.4358   24.1092 H   0  0  0  0  0  0  0  0  0  0  0  0
   10.7875   12.0144   21.8021 H   0  0  0  0  0  0  0  0  0  0  0  0
  1  2  1  0  0  0  0
  1  5  2  0  0  0  0
  2  8  2  0  0  0  0
  3  6  2  0  0  0  0
  3  8  1  0  0  0  0
  4  7  2  0  0  0  0
  4 14  1  0  0  0  0
  5  6  1  0  0  0  0
  5  7  1  0  0  0  0
  6 14  1  0  0  0  0
  7 15  1  0  0  0  0
  8 18  1  0  0  0  0
  9 15  1  0  0  0  0
  9 16  2  0  0  0  0
  9 17  1  0  0  0  0
 10 13  1  0  0  0  0
 11 13  1  0  0  0  0
 12 13  1  0  0  0  0
 13 17  1  0  0  0  0
  1 19  1  0  0  0  0
  2 20  1  0  0  0  0
  3 21  1  0  0  0  0
  4 22  1  0  0  0  0
 10 23  1  0  0  0  0
 10 24  1  0  0  0  0
 10 25  1  0  0  0  0
 11 26  1  0  0  0  0
 11 27  1  0  0  0  0
 11 28  1  0  0  0  0
 12 29  1  0  0  0  0
 12 30  1  0  0  0  0
 12 31  1  0  0  0  0
 14 32  1  0  0  0  0
 15 33  1  0  0  0  0
M  END
> <id>
EN300-27737098

> <smiles>
CC(C)(C)OC(=O)NC1=CNC=2C=C(Br)C=CC12

> <IUPAC Name>
tert-butyl N-(6-bromo-1H-indol-3-yl)carbamate

> <CAS>
2253867-74-0

> <URL>
https://www.enaminestore.com/catalog/EN300-27737098

> <ROCS_ShapeQuery>
A71EV2A-x0451_0A_A71EV2A-x0310_0A_A71EV2A-x0416_0A_peptide

> <ROCS_TanimotoCombo>
0.519 

> <ROCS_ShapeTanimoto>
0.341 

> <ROCS_ColorTanimoto>
0.178 

> <ROCS_RefTversky>
0.295 

> <ROCS_RefColorTversky>
0.192 

> <ROCS_RefTverskyCombo>
0.488 

> <ROCS_FitTversky>
1.820 

> <ROCS_FitColorTversky>
0.710 

> <ROCS_FitTverskyCombo>
2.531 

> <ROCS_ColorScore>
-5.863

> <ROCS_Overlap>
2048.645

> <ROCS_Rank>
217                 

$$$$
untitled-dbase-126287_69
  -OEChem-11132313473D

 43 45  0     1  0  0  0  0  0999 V2000
   10.2918   13.3506   23.5116 C   0  0  0  0  0  0  0  0  0  0  0  0
   11.0253   15.0523   19.2092 C   0  0  0  0  0  0  0  0  0  0  0  0
   11.3744   13.5686   19.2908 C   0  0  0  0  0  0  0  0  0  0  0  0
   10.5796   15.6077   20.5593 C   0  0  0  0  0  0  0  0  0  0  0  0
   12.4050   13.2924   20.3864 C   0  0  0  0  0  0  0  0  0  0  0  0
   11.6123   15.3270   21.6518 C   0  0  0  0  0  0  0  0  0  0  0  0
    7.2982   11.2763   23.4338 C   0  0  0  0  0  0  0  0  0  0  0  0
    8.2712   10.0522   25.4341 C   0  0  0  0  0  0  0  0  0  0  0  0
    9.5682   10.1784   23.2021 C   0  0  0  0  0  0  0  0  0  0  0  0
    8.4290   12.5511   25.0705 C   0  0  0  0  0  0  0  0  0  0  0  0
    7.5239   11.3148   24.9475 C   0  0  1  0  0  0  0  0  0  0  0  0
    8.7383   11.4539   22.9571 C   0  0  2  0  0  0  0  0  0  0  0  0
   11.9805   13.8409   21.7553 C   0  0  0  0  0  0  0  0  0  0  0  0
    9.0315    9.2774   24.3351 C   0  0  2  0  0  0  0  0  0  0  0  0
    9.2261   12.5185   23.8458 N   0  0  0  0  0  0  0  0  0  0  0  0
    8.1491    8.2492   23.7642 N   0  0  0  0  0  0  0  0  0  0  0  0
   10.8641   13.0839   22.2730 N   0  0  0  0  0  0  0  0  0  0  0  0
   10.6946   14.2494   24.2550 O   0  0  0  0  0  0  0  0  0  0  0  0
   11.8940   15.6159   18.8475 H   0  0  0  0  0  0  0  0  0  0  0  0
   10.2236   15.1976   18.4732 H   0  0  0  0  0  0  0  0  0  0  0  0
   10.4670   12.9864   19.4845 H   0  0  0  0  0  0  0  0  0  0  0  0
   11.7712   13.2330   18.3252 H   0  0  0  0  0  0  0  0  0  0  0  0
   10.4235   16.6899   20.4756 H   0  0  0  0  0  0  0  0  0  0  0  0
    9.6175   15.1658   20.8404 H   0  0  0  0  0  0  0  0  0  0  0  0
   12.5709   12.2033   20.4551 H   0  0  0  0  0  0  0  0  0  0  0  0
   13.3708   13.7334   20.0883 H   0  0  0  0  0  0  0  0  0  0  0  0
   12.5169   15.9251   21.4511 H   0  0  0  0  0  0  0  0  0  0  0  0
   11.2155   15.6821   22.6187 H   0  0  0  0  0  0  0  0  0  0  0  0
    6.8372   10.3474   23.0900 H   0  0  0  0  0  0  0  0  0  0  0  0
    6.6748   12.1168   23.1116 H   0  0  0  0  0  0  0  0  0  0  0  0
    8.9805   10.3331   26.2362 H   0  0  0  0  0  0  0  0  0  0  0  0
    7.5336    9.3827   25.9188 H   0  0  0  0  0  0  0  0  0  0  0  0
    9.6114    9.6036   22.2541 H   0  0  0  0  0  0  0  0  0  0  0  0
   10.6203   10.4524   23.4202 H   0  0  0  0  0  0  0  0  0  0  0  0
    7.8414   13.4752   25.0624 H   0  0  0  0  0  0  0  0  0  0  0  0
    9.0681   12.5372   25.9578 H   0  0  0  0  0  0  0  0  0  0  0  0
    6.5930   11.4477   25.5080 H   0  0  0  0  0  0  0  0  0  0  0  0
    8.8092   11.7708   21.9075 H   0  0  0  0  0  0  0  0  0  0  0  0
   12.7896   13.7119   22.4696 H   0  0  0  0  0  0  0  0  0  0  0  0
    9.8687    8.7557   24.7925 H   0  0  0  0  0  0  0  0  0  0  0  0
    8.6666    7.7357   23.0911 H   0  0  0  0  0  0  0  0  0  0  0  0
    7.8466    7.6574   24.5010 H   0  0  0  0  0  0  0  0  0  0  0  0
   10.5270   12.2938   21.7264 H   0  0  0  0  0  0  0  0  0  0  0  0
  1 15  1  0  0  0  0
  1 17  1  0  0  0  0
  1 18  2  0  0  0  0
  2  3  1  0  0  0  0
  2  4  1  0  0  0  0
  3  5  1  0  0  0  0
  4  6  1  0  0  0  0
  5 13  1  0  0  0  0
  6 13  1  0  0  0  0
  7 11  1  0  0  0  0
  7 12  1  0  0  0  0
  8 11  1  0  0  0  0
  8 14  1  0  0  0  0
  9 12  1  0  0  0  0
  9 14  1  0  0  0  0
 10 11  1  0  0  0  0
 10 15  1  0  0  0  0
 12 15  1  0  0  0  0
 13 17  1  0  0  0  0
 14 16  1  0  0  0  0
  2 19  1  0  0  0  0
  2 20  1  0  0  0  0
  3 21  1  0  0  0  0
  3 22  1  0  0  0  0
  4 23  1  0  0  0  0
  4 24  1  0  0  0  0
  5 25  1  0  0  0  0
  5 26  1  0  0  0  0
  6 27  1  0  0  0  0
  6 28  1  0  0  0  0
  7 29  1  0  0  0  0
  7 30  1  0  0  0  0
  8 31  1  0  0  0  0
  8 32  1  0  0  0  0
  9 33  1  0  0  0  0
  9 34  1  0  0  0  0
 10 35  1  0  0  0  0
 10 36  1  0  0  0  0
 11 37  1  0  0  0  0
 12 38  1  0  0  0  0
 13 39  1  0  0  0  0
 14 40  1  0  0  0  0
 16 41  1  0  0  0  0
 16 42  1  0  0  0  0
 17 43  1  0  0  0  0
M  END
> <id>
EN300-784572

> <smiles>
NC1CC2CC(C1)N(C2)C(=O)NC3CCCCC3

> <IUPAC Name>
3-amino-N-cyclohexyl-6-azabicyclo[3.2.1]octane-6-carboxamide

> <CAS>
2138243-32-8

> <URL>
https://www.enaminestore.com/catalog/EN300-784572

> <ROCS_ShapeQuery>
A71EV2A-x0451_0A_A71EV2A-x0310_0A_A71EV2A-x0416_0A_peptide

> <ROCS_TanimotoCombo>
0.519 

> <ROCS_ShapeTanimoto>
0.293 

> <ROCS_ColorTanimoto>
0.226 

> <ROCS_RefTversky>
0.263 

> <ROCS_RefColorTversky>
0.256 

> <ROCS_RefTverskyCombo>
0.519 

> <ROCS_FitTversky>
1.642 

> <ROCS_FitColorTversky>
0.659 

> <ROCS_FitTverskyCombo>
2.301 

> <ROCS_ColorScore>
-7.836

> <ROCS_Overlap>
1824.794

> <ROCS_Rank>
218                 

$$$$
untitled-dbase-156077_16
  -OEChem-11132313473D

 31 32  0     0  0  0  0  0  0999 V2000
   11.2163   10.1028   22.0084 C   0  0  0  0  0  0  0  0  0  0  0  0
    6.9077   12.4273   25.0936 C   0  0  0  0  0  0  0  0  0  0  0  0
    7.9056   10.6667   24.5371 C   0  0  0  0  0  0  0  0  0  0  0  0
    9.3924    9.2918   23.5464 C   0  0  0  0  0  0  0  0  0  0  0  0
   10.1058   10.3952   22.8431 C   0  0  0  0  0  0  0  0  0  0  0  0
    9.6206   11.6326   23.0636 C   0  0  0  0  0  0  0  0  0  0  0  0
   10.6630   13.8149   23.2273 C   0  0  0  0  0  0  0  0  0  0  0  0
   13.2612   13.8589   22.9185 C   0  0  0  0  0  0  0  0  0  0  0  0
   12.9683   15.5448   21.0797 C   0  0  0  0  0  0  0  0  0  0  0  0
   12.6696   16.2413   23.4742 C   0  0  0  0  0  0  0  0  0  0  0  0
   12.5021   15.1055   22.4660 C   0  0  0  0  0  0  0  0  0  0  0  0
   12.1239    9.8638   21.3265 N   0  0  0  0  0  0  0  0  0  0  0  0
    6.8972   11.0829   25.2761 N   0  0  0  0  0  0  0  0  0  0  0  0
    7.8551   12.8968   24.2879 N   0  0  0  0  0  0  0  0  0  0  0  0
    8.3698    9.4024   24.3361 N   0  0  0  0  0  0  0  0  0  0  0  0
    8.5121   11.7654   23.9177 N   0  0  0  0  0  0  0  0  0  0  0  0
   10.1497   12.7616   22.5015 N   0  0  0  0  0  0  0  0  0  0  0  0
   10.7185   13.8921   24.4508 O   0  0  0  0  0  0  0  0  0  0  0  0
   11.1104   14.7819   22.3707 O   0  0  0  0  0  0  0  0  0  0  0  0
    6.1995   13.0927   25.5641 H   0  0  0  0  0  0  0  0  0  0  0  0
    9.7929    8.2802   23.3622 H   0  0  0  0  0  0  0  0  0  0  0  0
   12.9295   13.5403   23.9132 H   0  0  0  0  0  0  0  0  0  0  0  0
   13.1208   13.0260   22.2218 H   0  0  0  0  0  0  0  0  0  0  0  0
   14.3348   14.0635   23.0015 H   0  0  0  0  0  0  0  0  0  0  0  0
   12.4263   16.4389   20.7510 H   0  0  0  0  0  0  0  0  0  0  0  0
   12.7628   14.7679   20.3344 H   0  0  0  0  0  0  0  0  0  0  0  0
   14.0407   15.7645   21.0648 H   0  0  0  0  0  0  0  0  0  0  0  0
   12.1253   17.1356   23.1499 H   0  0  0  0  0  0  0  0  0  0  0  0
   12.3060   15.9564   24.4668 H   0  0  0  0  0  0  0  0  0  0  0  0
   13.7223   16.5343   23.5599 H   0  0  0  0  0  0  0  0  0  0  0  0
   10.1654   12.8276   21.4901 H   0  0  0  0  0  0  0  0  0  0  0  0
  1  5  1  0  0  0  0
  1 12  3  0  0  0  0
  2 13  1  0  0  0  0
  2 14  2  0  0  0  0
  3 13  2  0  0  0  0
  3 15  1  0  0  0  0
  3 16  1  0  0  0  0
  4  5  1  0  0  0  0
  4 15  2  0  0  0  0
  5  6  2  0  0  0  0
  6 16  1  0  0  0  0
  6 17  1  0  0  0  0
  7 17  1  0  0  0  0
  7 18  2  0  0  0  0
  7 19  1  0  0  0  0
  8 11  1  0  0  0  0
  9 11  1  0  0  0  0
 10 11  1  0  0  0  0
 11 19  1  0  0  0  0
 14 16  1  0  0  0  0
  2 20  1  0  0  0  0
  4 21  1  0  0  0  0
  8 22  1  0  0  0  0
  8 23  1  0  0  0  0
  8 24  1  0  0  0  0
  9 25  1  0  0  0  0
  9 26  1  0  0  0  0
  9 27  1  0  0  0  0
 10 28  1  0  0  0  0
 10 29  1  0  0  0  0
 10 30  1  0  0  0  0
 17 31  1  0  0  0  0
M  END
> <id>
EN300-28280754

> <smiles>
CC(C)(C)OC(=O)NC1=C(C#N)C=NC2=NC=NN12

> <IUPAC Name>
tert-butyl N-{6-cyano-[1,2,4]triazolo[1,5-a]pyrimidin-7-yl}carbamate

> <CAS>
2680820-30-6

> <URL>
https://www.enaminestore.com/catalog/EN300-28280754

> <ROCS_ShapeQuery>
A71EV2A-x0451_0A_A71EV2A-x0310_0A_A71EV2A-x0416_0A_peptide

> <ROCS_TanimotoCombo>
0.519 

> <ROCS_ShapeTanimoto>
0.335 

> <ROCS_ColorTanimoto>
0.184 

> <ROCS_RefTversky>
0.294 

> <ROCS_RefColorTversky>
0.207 

> <ROCS_RefTverskyCombo>
0.501 

> <ROCS_FitTversky>
1.704 

> <ROCS_FitColorTversky>
0.622 

> <ROCS_FitTverskyCombo>
2.326 

> <ROCS_ColorScore>
-6.327

> <ROCS_Overlap>
2042.868

> <ROCS_Rank>
219                 

$$$$
untitled-dbase-155185_23
  -OEChem-11132313473D

 35 36  0     0  0  0  0  0  0999 V2000
    8.0323   12.8312   24.8372 C   0  0  0  0  0  0  0  0  0  0  0  0
    6.4727   11.4791   26.1265 C   0  0  0  0  0  0  0  0  0  0  0  0
    8.5788   11.6515   24.3049 C   0  0  0  0  0  0  0  0  0  0  0  0
    6.9755   12.7262   25.7503 C   0  0  0  0  0  0  0  0  0  0  0  0
    8.0592   10.4228   24.6966 C   0  0  0  0  0  0  0  0  0  0  0  0
    7.0064   10.2959   25.6055 C   0  0  0  0  0  0  0  0  0  0  0  0
    9.6071   11.3226   23.3955 C   0  0  0  0  0  0  0  0  0  0  0  0
   10.8138   13.5151   23.1776 C   0  0  0  0  0  0  0  0  0  0  0  0
    6.3802   13.9674   26.3286 C   0  0  0  0  0  0  0  0  0  0  0  0
   11.0031   16.3461   22.8178 C   0  0  0  0  0  0  0  0  0  0  0  0
   12.1474   15.8079   20.6475 C   0  0  0  0  0  0  0  0  0  0  0  0
    9.7704   15.0874   21.0203 C   0  0  0  0  0  0  0  0  0  0  0  0
   11.1265   15.3340   21.6797 C   0  0  0  0  0  0  0  0  0  0  0  0
    9.7392   10.0064   23.2165 N   0  0  0  0  0  0  0  0  0  0  0  0
    8.7911    9.4882   24.0150 N   0  0  0  0  0  0  0  0  0  0  0  0
   10.4060   12.2459   22.7475 N   0  0  0  0  0  0  0  0  0  0  0  0
   10.5284   14.0558   24.2391 O   0  0  0  0  0  0  0  0  0  0  0  0
   11.6025   14.0959   22.2204 O   0  0  0  0  0  0  0  0  0  0  0  0
    6.3178    8.6192   26.1220 Br  0  0  0  0  0  0  0  0  0  0  0  0
    8.4202   13.8036   24.5474 H   0  0  0  0  0  0  0  0  0  0  0  0
    5.6505   11.4326   26.8389 H   0  0  0  0  0  0  0  0  0  0  0  0
    5.5546   14.3216   25.7003 H   0  0  0  0  0  0  0  0  0  0  0  0
    5.9970   13.7891   27.3411 H   0  0  0  0  0  0  0  0  0  0  0  0
    7.1278   14.7667   26.4067 H   0  0  0  0  0  0  0  0  0  0  0  0
   10.2712   16.0095   23.5608 H   0  0  0  0  0  0  0  0  0  0  0  0
   11.9620   16.5055   23.3216 H   0  0  0  0  0  0  0  0  0  0  0  0
   10.6432   17.3118   22.4449 H   0  0  0  0  0  0  0  0  0  0  0  0
   12.2392   15.0847   19.8291 H   0  0  0  0  0  0  0  0  0  0  0  0
   13.1438   15.8951   21.0956 H   0  0  0  0  0  0  0  0  0  0  0  0
   11.8719   16.7787   20.2230 H   0  0  0  0  0  0  0  0  0  0  0  0
    9.8587   14.3615   20.2039 H   0  0  0  0  0  0  0  0  0  0  0  0
    9.0349   14.7116   21.7389 H   0  0  0  0  0  0  0  0  0  0  0  0
    9.3810   16.0094   20.5735 H   0  0  0  0  0  0  0  0  0  0  0  0
    8.6938    8.4812   24.0498 H   0  0  0  0  0  0  0  0  0  0  0  0
   10.7496   11.9606   21.8180 H   0  0  0  0  0  0  0  0  0  0  0  0
  1  3  2  0  0  0  0
  1  4  1  0  0  0  0
  2  4  2  0  0  0  0
  2  6  1  0  0  0  0
  3  5  1  0  0  0  0
  3  7  1  0  0  0  0
  4  9  1  0  0  0  0
  5  6  2  0  0  0  0
  5 15  1  0  0  0  0
  6 19  1  0  0  0  0
  7 14  2  0  0  0  0
  7 16  1  0  0  0  0
  8 16  1  0  0  0  0
  8 17  2  0  0  0  0
  8 18  1  0  0  0  0
 10 13  1  0  0  0  0
 11 13  1  0  0  0  0
 12 13  1  0  0  0  0
 13 18  1  0  0  0  0
 14 15  1  0  0  0  0
  1 20  1  0  0  0  0
  2 21  1  0  0  0  0
  9 22  1  0  0  0  0
  9 23  1  0  0  0  0
  9 24  1  0  0  0  0
 10 25  1  0  0  0  0
 10 26  1  0  0  0  0
 10 27  1  0  0  0  0
 11 28  1  0  0  0  0
 11 29  1  0  0  0  0
 11 30  1  0  0  0  0
 12 31  1  0  0  0  0
 12 32  1  0  0  0  0
 12 33  1  0  0  0  0
 15 34  1  0  0  0  0
 16 35  1  0  0  0  0
M  END
> <id>
EN300-28294761

> <smiles>
CC=1C=C(Br)C=2NN=C(NC(=O)OC(C)(C)C)C2C1

> <IUPAC Name>
tert-butyl N-(7-bromo-5-methyl-1H-indazol-3-yl)carbamate

> <CAS>
2680736-81-4

> <URL>
https://www.enaminestore.com/catalog/EN300-28294761

> <ROCS_ShapeQuery>
A71EV2A-x0451_0A_A71EV2A-x0310_0A_A71EV2A-x0416_0A_peptide

> <ROCS_TanimotoCombo>
0.519 

> <ROCS_ShapeTanimoto>
0.345 

> <ROCS_ColorTanimoto>
0.173 

> <ROCS_RefTversky>
0.300 

> <ROCS_RefColorTversky>
0.192 

> <ROCS_RefTverskyCombo>
0.492 

> <ROCS_FitTversky>
1.779 

> <ROCS_FitColorTversky>
0.638 

> <ROCS_FitTverskyCombo>
2.417 

> <ROCS_ColorScore>
-5.873

> <ROCS_Overlap>
2081.795

> <ROCS_Rank>
220                 

$$$$
untitled-dbase-102870_60
  -OEChem-11132313473D

 41 44  0     1  0  0  0  0  0999 V2000
    5.4568   13.7765   27.5686 C   0  0  0  0  0  0  0  0  0  0  0  0
    4.8940   12.5180   27.7180 C   0  0  0  0  0  0  0  0  0  0  0  0
    6.5051   13.9553   26.6680 C   0  0  0  0  0  0  0  0  0  0  0  0
    5.3886   11.4532   26.9672 C   0  0  0  0  0  0  0  0  0  0  0  0
    9.7003   14.1659   21.0055 C   0  0  0  0  0  0  0  0  0  0  0  0
   11.7021   14.9995   22.0459 C   0  0  0  0  0  0  0  0  0  0  0  0
   10.0803   14.8417   19.8571 C   0  0  0  0  0  0  0  0  0  0  0  0
   10.5322   14.2514   22.1163 C   0  0  0  0  0  0  0  0  0  0  0  0
    6.9998   12.8925   25.9143 C   0  0  0  0  0  0  0  0  0  0  0  0
    6.4385   11.6284   26.0675 C   0  0  0  0  0  0  0  0  0  0  0  0
    8.4605   12.0439   24.2940 C   0  0  0  0  0  0  0  0  0  0  0  0
    7.9557   10.7540   24.4980 C   0  0  0  0  0  0  0  0  0  0  0  0
   11.9926   15.6379   20.8509 C   0  0  0  0  0  0  0  0  0  0  0  0
   10.1759   13.5544   23.3589 C   0  0  0  0  0  0  0  0  0  0  0  0
   10.2948   10.2030   22.3588 C   0  0  0  0  0  0  0  0  0  0  0  0
    9.4904   11.4675   22.0936 C   0  0  0  0  0  0  0  0  0  0  0  0
    9.9414    9.5554   23.6882 C   0  0  0  0  0  0  0  0  0  0  0  0
    7.7763    8.3519   24.0273 C   0  0  0  0  0  0  0  0  0  0  0  0
   11.2090   15.5781   19.7508 N   0  0  0  0  0  0  0  0  0  0  0  0
    7.9951   13.0802   25.0390 N   0  0  0  0  0  0  0  0  0  0  0  0
    6.9176   10.5929   25.3643 N   0  0  0  0  0  0  0  0  0  0  0  0
    9.4288   12.3640   23.2612 N   0  0  0  0  0  0  0  0  0  0  0  0
    8.5015    9.6086   23.9153 N   0  0  1  0  0  0  0  0  0  0  0  0
   10.5995   14.0806   24.3874 O   0  0  0  0  0  0  0  0  0  0  0  0
   13.4140   16.5819   20.6720 Cl  0  0  0  0  0  0  0  0  0  0  0  0
    5.0870   14.6155   28.1499 H   0  0  0  0  0  0  0  0  0  0  0  0
    4.0749   12.3624   28.4130 H   0  0  0  0  0  0  0  0  0  0  0  0
    6.9421   14.9463   26.5605 H   0  0  0  0  0  0  0  0  0  0  0  0
    4.9389   10.4700   27.0899 H   0  0  0  0  0  0  0  0  0  0  0  0
    8.7806   13.5908   21.0267 H   0  0  0  0  0  0  0  0  0  0  0  0
   12.3655   15.0787   22.9020 H   0  0  0  0  0  0  0  0  0  0  0  0
    9.4662   14.8068   18.9633 H   0  0  0  0  0  0  0  0  0  0  0  0
   10.1280    9.4781   21.5531 H   0  0  0  0  0  0  0  0  0  0  0  0
   11.3621   10.4547   22.3398 H   0  0  0  0  0  0  0  0  0  0  0  0
    9.8985   12.0309   21.2404 H   0  0  0  0  0  0  0  0  0  0  0  0
    8.4730   11.1827   21.7905 H   0  0  0  0  0  0  0  0  0  0  0  0
   10.2979    8.5182   23.7243 H   0  0  0  0  0  0  0  0  0  0  0  0
   10.4829   10.0769   24.4863 H   0  0  0  0  0  0  0  0  0  0  0  0
    8.3397    7.5562   23.5179 H   0  0  0  0  0  0  0  0  0  0  0  0
    7.6544    8.0924   25.0893 H   0  0  0  0  0  0  0  0  0  0  0  0
    6.7863    8.4570   23.5595 H   0  0  0  0  0  0  0  0  0  0  0  0
  1  2  2  0  0  0  0
  1  3  1  0  0  0  0
  2  4  1  0  0  0  0
  3  9  2  0  0  0  0
  4 10  2  0  0  0  0
  5  7  1  0  0  0  0
  5  8  2  0  0  0  0
  6  8  1  0  0  0  0
  6 13  2  0  0  0  0
  7 19  2  0  0  0  0
  8 14  1  0  0  0  0
  9 10  1  0  0  0  0
  9 20  1  0  0  0  0
 10 21  1  0  0  0  0
 11 12  1  0  0  0  0
 11 20  2  0  0  0  0
 11 22  1  0  0  0  0
 12 21  2  0  0  0  0
 12 23  1  0  0  0  0
 13 19  1  0  0  0  0
 13 25  1  0  0  0  0
 14 22  1  0  0  0  0
 14 24  2  0  0  0  0
 15 16  1  0  0  0  0
 15 17  1  0  0  0  0
 16 22  1  0  0  0  0
 17 23  1  0  0  0  0
 18 23  1  0  0  0  0
  1 26  1  0  0  0  0
  2 27  1  0  0  0  0
  3 28  1  0  0  0  0
  4 29  1  0  0  0  0
  5 30  1  0  0  0  0
  6 31  1  0  0  0  0
  7 32  1  0  0  0  0
 15 33  1  0  0  0  0
 15 34  1  0  0  0  0
 16 35  1  0  0  0  0
 16 36  1  0  0  0  0
 17 37  1  0  0  0  0
 17 38  1  0  0  0  0
 18 39  1  0  0  0  0
 18 40  1  0  0  0  0
 18 41  1  0  0  0  0
M  END
> <id>
EN300-26611487

> <smiles>
CN1CCCN(C(=O)C=2C=CN=C(Cl)C2)C=3N=C4C=CC=CC4=NC13

> <IUPAC Name>
2-chloro-4-{5-methyl-1H,2H,3H,4H,5H-[1,4]diazepino[2,3-b]quinoxaline-1-carbonyl}pyridine

> <CAS>
1043376-57-3

> <URL>
https://www.enaminestore.com/catalog/EN300-26611487

> <ROCS_ShapeQuery>
A71EV2A-x0451_0A_A71EV2A-x0310_0A_A71EV2A-x0416_0A_peptide

> <ROCS_TanimotoCombo>
0.519 

> <ROCS_ShapeTanimoto>
0.387 

> <ROCS_ColorTanimoto>
0.132 

> <ROCS_RefTversky>
0.338 

> <ROCS_RefColorTversky>
0.152 

> <ROCS_RefTverskyCombo>
0.490 

> <ROCS_FitTversky>
1.596 

> <ROCS_FitColorTversky>
0.503 

> <ROCS_FitTverskyCombo>
2.098 

> <ROCS_ColorScore>
-4.625

> <ROCS_Overlap>
2351.594

> <ROCS_Rank>
221                 

$$$$
untitled-dbase-153819_84
  -OEChem-11132313473D

 30 31  0     0  0  0  0  0  0999 V2000
    6.7980   12.6825   24.8414 C   0  0  0  0  0  0  0  0  0  0  0  0
    6.0125   10.8982   26.2708 C   0  0  0  0  0  0  0  0  0  0  0  0
    5.9830   12.2361   25.8838 C   0  0  0  0  0  0  0  0  0  0  0  0
    7.6636   11.7995   24.1799 C   0  0  0  0  0  0  0  0  0  0  0  0
    7.6967   10.4593   24.5969 C   0  0  0  0  0  0  0  0  0  0  0  0
    6.8627   10.0057   25.6223 C   0  0  0  0  0  0  0  0  0  0  0  0
    5.0919   13.1677   26.5573 C   0  0  0  0  0  0  0  0  0  0  0  0
   10.8111   13.0634   23.7131 C   0  0  0  0  0  0  0  0  0  0  0  0
    8.4946   12.2888   23.0205 C   0  0  0  0  0  0  0  0  0  0  0  0
   10.4137   10.7117   23.0649 C   0  0  0  0  0  0  0  0  0  0  0  0
    9.8812    9.7953   24.1598 C   0  0  0  0  0  0  0  0  0  0  0  0
   12.2449   12.9618   23.2552 C   0  0  0  0  0  0  0  0  0  0  0  0
    9.9310   12.0840   23.2437 N   0  0  0  0  0  0  0  0  0  0  0  0
    4.9765   14.3682   26.2900 O   0  0  0  0  0  0  0  0  0  0  0  0
   10.4843   13.9830   24.4680 O   0  0  0  0  0  0  0  0  0  0  0  0
    8.4866    9.5226   23.9799 O   0  0  0  0  0  0  0  0  0  0  0  0
    4.3685   12.5737   27.5456 O   0  0  0  0  0  0  0  0  0  0  0  0
   12.4075   11.8998   22.4466 F   0  0  0  0  0  0  0  0  0  0  0  0
   12.6051   14.0669   22.5789 F   0  0  0  0  0  0  0  0  0  0  0  0
   13.0714   12.8225   24.3069 F   0  0  0  0  0  0  0  0  0  0  0  0
    6.8579    8.1915   26.1812 Br  0  0  0  0  0  0  0  0  0  0  0  0
    6.7529   13.7261   24.5359 H   0  0  0  0  0  0  0  0  0  0  0  0
    5.3664   10.5582   27.0775 H   0  0  0  0  0  0  0  0  0  0  0  0
    8.2023   11.7529   22.1089 H   0  0  0  0  0  0  0  0  0  0  0  0
    8.2912   13.3449   22.8243 H   0  0  0  0  0  0  0  0  0  0  0  0
   11.5080   10.6974   23.0823 H   0  0  0  0  0  0  0  0  0  0  0  0
   10.0885   10.3707   22.0754 H   0  0  0  0  0  0  0  0  0  0  0  0
   10.3926    8.8291   24.0829 H   0  0  0  0  0  0  0  0  0  0  0  0
   10.0979   10.1810   25.1655 H   0  0  0  0  0  0  0  0  0  0  0  0
    3.7634   13.1938   28.0056 H   0  0  0  0  0  0  0  0  0  0  0  0
  1  3  1  0  0  0  0
  1  4  2  0  0  0  0
  2  3  2  0  0  0  0
  2  6  1  0  0  0  0
  3  7  1  0  0  0  0
  4  5  1  0  0  0  0
  4  9  1  0  0  0  0
  5  6  2  0  0  0  0
  5 16  1  0  0  0  0
  6 21  1  0  0  0  0
  7 14  2  0  0  0  0
  7 17  1  0  0  0  0
  8 12  1  0  0  0  0
  8 13  1  0  0  0  0
  8 15  2  0  0  0  0
  9 13  1  0  0  0  0
 10 11  1  0  0  0  0
 10 13  1  0  0  0  0
 11 16  1  0  0  0  0
 12 18  1  0  0  0  0
 12 19  1  0  0  0  0
 12 20  1  0  0  0  0
  1 22  1  0  0  0  0
  2 23  1  0  0  0  0
  9 24  1  0  0  0  0
  9 25  1  0  0  0  0
 10 26  1  0  0  0  0
 10 27  1  0  0  0  0
 11 28  1  0  0  0  0
 11 29  1  0  0  0  0
 17 30  1  0  0  0  0
M  END
> <id>
EN300-28300625

> <smiles>
OC(=O)C=1C=C(Br)C=2OCCN(CC2C1)C(=O)C(F)(F)F

> <IUPAC Name>
9-bromo-4-(2,2,2-trifluoroacetyl)-2,3,4,5-tetrahydro-1,4-benzoxazepine-7-carboxylic acid

> <CAS>
2680717-92-2

> <URL>
https://www.enaminestore.com/catalog/EN300-28300625

> <ROCS_ShapeQuery>
A71EV2A-x0451_0A_A71EV2A-x0310_0A_A71EV2A-x0416_0A_peptide

> <ROCS_TanimotoCombo>
0.519 

> <ROCS_ShapeTanimoto>
0.329 

> <ROCS_ColorTanimoto>
0.190 

> <ROCS_RefTversky>
0.292 

> <ROCS_RefColorTversky>
0.208 

> <ROCS_RefTverskyCombo>
0.500 

> <ROCS_FitTversky>
1.604 

> <ROCS_FitColorTversky>
0.690 

> <ROCS_FitTverskyCombo>
2.294 

> <ROCS_ColorScore>
-6.346

> <ROCS_Overlap>
2030.642

> <ROCS_Rank>
222                 

$$$$
untitled-dbase-146483_1
  -OEChem-11132313473D

 44 46  0     0  0  0  0  0  0999 V2000
   10.1812   13.0362   23.5031 C   0  0  0  0  0  0  0  0  0  0  0  0
    6.9697   13.0828   23.8468 C   0  0  0  0  0  0  0  0  0  0  0  0
    8.1850   12.7613   26.0277 C   0  0  0  0  0  0  0  0  0  0  0  0
    8.8323   10.8451   22.7327 C   0  0  0  0  0  0  0  0  0  0  0  0
    9.8353   10.5802   24.5330 C   0  0  0  0  0  0  0  0  0  0  0  0
    5.7077   13.3899   24.6558 C   0  0  0  0  0  0  0  0  0  0  0  0
    6.8730   13.0841   26.7460 C   0  0  0  0  0  0  0  0  0  0  0  0
    9.2506   11.8835   23.8517 C   0  0  0  0  0  0  0  0  0  0  0  0
    7.9352   12.1853   24.6291 C   0  0  0  0  0  0  0  0  0  0  0  0
    8.4313   10.0612   24.0398 C   0  0  0  0  0  0  0  0  0  0  0  0
    8.1177    8.5962   23.9995 C   0  0  0  0  0  0  0  0  0  0  0  0
   12.6967   13.9252   22.5140 C   0  0  0  0  0  0  0  0  0  0  0  0
   11.6561   13.7445   20.2350 C   0  0  0  0  0  0  0  0  0  0  0  0
   10.7078   15.3483   21.9192 C   0  0  0  0  0  0  0  0  0  0  0  0
   11.3944   13.9981   21.7180 C   0  0  0  0  0  0  0  0  0  0  0  0
    6.0341   13.9802   25.9526 N   0  0  0  0  0  0  0  0  0  0  0  0
   10.5542   13.8821   24.3046 O   0  0  0  0  0  0  0  0  0  0  0  0
    7.4099   10.8453   24.7242 O   0  0  0  0  0  0  0  0  0  0  0  0
   10.5178   12.9672   22.1836 O   0  0  0  0  0  0  0  0  0  0  0  0
    6.6549   12.6094   22.9109 H   0  0  0  0  0  0  0  0  0  0  0  0
    7.4646   14.0238   23.5773 H   0  0  0  0  0  0  0  0  0  0  0  0
    8.7916   13.6726   25.9566 H   0  0  0  0  0  0  0  0  0  0  0  0
    8.7404   12.0568   26.6556 H   0  0  0  0  0  0  0  0  0  0  0  0
    8.0089   11.1202   22.0698 H   0  0  0  0  0  0  0  0  0  0  0  0
    9.6393   10.4208   22.1232 H   0  0  0  0  0  0  0  0  0  0  0  0
   10.7237   10.1344   24.0697 H   0  0  0  0  0  0  0  0  0  0  0  0
    9.9841   10.5983   25.6150 H   0  0  0  0  0  0  0  0  0  0  0  0
    5.0792   14.0912   24.0956 H   0  0  0  0  0  0  0  0  0  0  0  0
    5.1103   12.4814   24.7973 H   0  0  0  0  0  0  0  0  0  0  0  0
    6.3237   12.1630   26.9761 H   0  0  0  0  0  0  0  0  0  0  0  0
    7.0934   13.5631   27.7065 H   0  0  0  0  0  0  0  0  0  0  0  0
    7.8595    8.2170   24.9980 H   0  0  0  0  0  0  0  0  0  0  0  0
    8.9761    8.0156   23.6342 H   0  0  0  0  0  0  0  0  0  0  0  0
    7.2678    8.3895   23.3343 H   0  0  0  0  0  0  0  0  0  0  0  0
   12.5131   14.1067   23.5790 H   0  0  0  0  0  0  0  0  0  0  0  0
   13.1813   12.9494   22.4061 H   0  0  0  0  0  0  0  0  0  0  0  0
   13.3998   14.6990   22.1852 H   0  0  0  0  0  0  0  0  0  0  0  0
   10.7244   13.7959   19.6600 H   0  0  0  0  0  0  0  0  0  0  0  0
   12.0614   12.7385   20.0767 H   0  0  0  0  0  0  0  0  0  0  0  0
   12.3608   14.4717   19.8189 H   0  0  0  0  0  0  0  0  0  0  0  0
    9.7736   15.4008   21.3484 H   0  0  0  0  0  0  0  0  0  0  0  0
   10.4789   15.5311   22.9741 H   0  0  0  0  0  0  0  0  0  0  0  0
   11.3401   16.1654   21.5534 H   0  0  0  0  0  0  0  0  0  0  0  0
    6.5354   14.8558   25.8013 H   0  0  0  0  0  0  0  0  0  0  0  0
  1  8  1  0  0  0  0
  1 17  2  0  0  0  0
  1 19  1  0  0  0  0
  2  6  1  0  0  0  0
  2  9  1  0  0  0  0
  3  7  1  0  0  0  0
  3  9  1  0  0  0  0
  4  8  1  0  0  0  0
  4 10  1  0  0  0  0
  5  8  1  0  0  0  0
  5 10  1  0  0  0  0
  6 16  1  0  0  0  0
  7 16  1  0  0  0  0
  8  9  1  0  0  0  0
  9 18  1  0  0  0  0
 10 11  1  0  0  0  0
 10 18  1  0  0  0  0
 12 15  1  0  0  0  0
 13 15  1  0  0  0  0
 14 15  1  0  0  0  0
 15 19  1  0  0  0  0
  2 20  1  0  0  0  0
  2 21  1  0  0  0  0
  3 22  1  0  0  0  0
  3 23  1  0  0  0  0
  4 24  1  0  0  0  0
  4 25  1  0  0  0  0
  5 26  1  0  0  0  0
  5 27  1  0  0  0  0
  6 28  1  0  0  0  0
  6 29  1  0  0  0  0
  7 30  1  0  0  0  0
  7 31  1  0  0  0  0
 11 32  1  0  0  0  0
 11 33  1  0  0  0  0
 11 34  1  0  0  0  0
 12 35  1  0  0  0  0
 12 36  1  0  0  0  0
 12 37  1  0  0  0  0
 13 38  1  0  0  0  0
 13 39  1  0  0  0  0
 13 40  1  0  0  0  0
 14 41  1  0  0  0  0
 14 42  1  0  0  0  0
 14 43  1  0  0  0  0
 16 44  1  0  0  0  0
M  END
> <id>
EN300-27727335

> <smiles>
CC(C)(C)OC(=O)C1(CC2(C)C1)C3(CCNCC3)O2

> <IUPAC Name>
tert-butyl 4-methyl-3-oxaspiro[bicyclo[2.1.1]hexane-2,4'-piperidine]-1-carboxylate

> <CAS>
2639449-19-5

> <URL>
https://www.enaminestore.com/catalog/EN300-27727335

> <ROCS_ShapeQuery>
A71EV2A-x0451_0A_A71EV2A-x0310_0A_A71EV2A-x0416_0A_peptide

> <ROCS_TanimotoCombo>
0.519 

> <ROCS_ShapeTanimoto>
0.318 

> <ROCS_ColorTanimoto>
0.200 

> <ROCS_RefTversky>
0.282 

> <ROCS_RefColorTversky>
0.241 

> <ROCS_RefTverskyCombo>
0.523 

> <ROCS_FitTversky>
1.674 

> <ROCS_FitColorTversky>
0.541 

> <ROCS_FitTverskyCombo>
2.215 

> <ROCS_ColorScore>
-7.417

> <ROCS_Overlap>
1958.548

> <ROCS_Rank>
223                 

$$$$
untitled-dbase-104512_38
  -OEChem-11132313473D

 37 38  0     0  0  0  0  0  0999 V2000
    9.8808   10.1286   22.9932 C   0  0  0  0  0  0  0  0  0  0  0  0
   10.7333   11.1303   22.5199 C   0  0  0  0  0  0  0  0  0  0  0  0
    9.4056   12.7857   23.6489 C   0  0  0  0  0  0  0  0  0  0  0  0
    8.5529   11.7726   24.1209 C   0  0  0  0  0  0  0  0  0  0  0  0
    8.7825   10.4256   23.7964 C   0  0  0  0  0  0  0  0  0  0  0  0
   10.4959   12.4604   22.8481 C   0  0  0  0  0  0  0  0  0  0  0  0
    7.4463   12.0301   24.9252 C   0  0  0  0  0  0  0  0  0  0  0  0
    6.9345    9.8272   25.0142 C   0  0  0  0  0  0  0  0  0  0  0  0
   11.2718   14.8363   22.5950 C   0  0  0  0  0  0  0  0  0  0  0  0
    6.0405    8.7387   25.5037 C   0  0  0  0  0  0  0  0  0  0  0  0
   10.4173   16.4951   20.8876 C   0  0  0  0  0  0  0  0  0  0  0  0
   12.5312   17.7611   21.3754 C   0  0  0  0  0  0  0  0  0  0  0  0
   12.5220   15.9759   19.6087 C   0  0  0  0  0  0  0  0  0  0  0  0
   11.9420   16.4174   20.9517 C   0  0  0  0  0  0  0  0  0  0  0  0
    7.9736    9.4487   24.2425 N   0  0  0  0  0  0  0  0  0  0  0  0
    6.6163   11.0768   25.3886 N   0  0  0  0  0  0  0  0  0  0  0  0
   11.3442   13.4624   22.3769 N   0  0  0  0  0  0  0  0  0  0  0  0
   10.4324   15.4373   23.2543 O   0  0  0  0  0  0  0  0  0  0  0  0
    7.1402   13.3137   25.2965 O   0  0  0  0  0  0  0  0  0  0  0  0
   12.3079   15.4531   21.9456 O   0  0  0  0  0  0  0  0  0  0  0  0
   10.0893    9.0955   22.7221 H   0  0  0  0  0  0  0  0  0  0  0  0
   11.5797   10.8557   21.8954 H   0  0  0  0  0  0  0  0  0  0  0  0
    9.2223   13.8278   23.9028 H   0  0  0  0  0  0  0  0  0  0  0  0
    6.3968    8.3563   26.4681 H   0  0  0  0  0  0  0  0  0  0  0  0
    5.0102    9.0958   25.6304 H   0  0  0  0  0  0  0  0  0  0  0  0
    6.0018    7.9041   24.7914 H   0  0  0  0  0  0  0  0  0  0  0  0
    9.9905   15.5325   20.5838 H   0  0  0  0  0  0  0  0  0  0  0  0
    9.9868   16.7769   21.8540 H   0  0  0  0  0  0  0  0  0  0  0  0
   10.0942   17.2268   20.1383 H   0  0  0  0  0  0  0  0  0  0  0  0
   13.6250   17.7099   21.4227 H   0  0  0  0  0  0  0  0  0  0  0  0
   12.1914   18.0368   22.3802 H   0  0  0  0  0  0  0  0  0  0  0  0
   12.2512   18.5614   20.6829 H   0  0  0  0  0  0  0  0  0  0  0  0
   13.6156   15.9201   19.6544 H   0  0  0  0  0  0  0  0  0  0  0  0
   12.1383   14.9961   19.3063 H   0  0  0  0  0  0  0  0  0  0  0  0
   12.2820   16.7015   18.8232 H   0  0  0  0  0  0  0  0  0  0  0  0
   12.1249   13.1456   21.7924 H   0  0  0  0  0  0  0  0  0  0  0  0
    6.3472   13.3132   25.8502 H   0  0  0  0  0  0  0  0  0  0  0  0
  1  2  2  0  0  0  0
  1  5  1  0  0  0  0
  2  6  1  0  0  0  0
  3  4  1  0  0  0  0
  3  6  2  0  0  0  0
  4  5  1  0  0  0  0
  4  7  2  0  0  0  0
  5 15  2  0  0  0  0
  6 17  1  0  0  0  0
  7 16  1  0  0  0  0
  7 19  1  0  0  0  0
  8 10  1  0  0  0  0
  8 15  1  0  0  0  0
  8 16  2  0  0  0  0
  9 17  1  0  0  0  0
  9 18  2  0  0  0  0
  9 20  1  0  0  0  0
 11 14  1  0  0  0  0
 12 14  1  0  0  0  0
 13 14  1  0  0  0  0
 14 20  1  0  0  0  0
  1 21  1  0  0  0  0
  2 22  1  0  0  0  0
  3 23  1  0  0  0  0
 10 24  1  0  0  0  0
 10 25  1  0  0  0  0
 10 26  1  0  0  0  0
 11 27  1  0  0  0  0
 11 28  1  0  0  0  0
 11 29  1  0  0  0  0
 12 30  1  0  0  0  0
 12 31  1  0  0  0  0
 12 32  1  0  0  0  0
 13 33  1  0  0  0  0
 13 34  1  0  0  0  0
 13 35  1  0  0  0  0
 17 36  1  0  0  0  0
 19 37  1  0  0  0  0
M  END
> <id>
EN300-26664834

> <smiles>
CC=1N=C(O)C=2C=C(NC(=O)OC(C)(C)C)C=CC2N1

> <IUPAC Name>
tert-butyl N-(4-hydroxy-2-methylquinazolin-6-yl)carbamate

> <CAS>
2413875-12-2

> <URL>
https://www.enaminestore.com/catalog/EN300-26664834

> <ROCS_ShapeQuery>
A71EV2A-x0451_0A_A71EV2A-x0310_0A_A71EV2A-x0416_0A_peptide

> <ROCS_TanimotoCombo>
0.518 

> <ROCS_ShapeTanimoto>
0.338 

> <ROCS_ColorTanimoto>
0.181 

> <ROCS_RefTversky>
0.297 

> <ROCS_RefColorTversky>
0.204 

> <ROCS_RefTverskyCombo>
0.501 

> <ROCS_FitTversky>
1.678 

> <ROCS_FitColorTversky>
0.613 

> <ROCS_FitTverskyCombo>
2.291 

> <ROCS_ColorScore>
-6.230

> <ROCS_Overlap>
2062.917

> <ROCS_Rank>
224                 

$$$$
untitled-dbase-96160_70
  -OEChem-11132313473D

 63 67  0     0  0  0  0  0  0999 V2000
    7.6032    7.7114   23.4473 C   0  0  0  0  0  0  0  0  0  0  0  0
    8.6636    8.0730   22.6289 C   0  0  0  0  0  0  0  0  0  0  0  0
   12.6197   17.1458   22.2077 C   0  0  0  0  0  0  0  0  0  0  0  0
    7.0792    8.6305   24.3576 C   0  0  0  0  0  0  0  0  0  0  0  0
    9.2044    9.3548   22.7164 C   0  0  0  0  0  0  0  0  0  0  0  0
   13.0733   17.3917   20.9119 C   0  0  0  0  0  0  0  0  0  0  0  0
   12.0235   15.9235   22.5178 C   0  0  0  0  0  0  0  0  0  0  0  0
   12.3345   15.1929   20.2360 C   0  0  0  0  0  0  0  0  0  0  0  0
    7.6054    9.9314   24.4679 C   0  0  0  0  0  0  0  0  0  0  0  0
    8.6865   10.2902   23.6277 C   0  0  0  0  0  0  0  0  0  0  0  0
   12.9307   16.4153   19.9260 C   0  0  0  0  0  0  0  0  0  0  0  0
   11.8809   14.9471   21.5320 C   0  0  0  0  0  0  0  0  0  0  0  0
    7.6778   12.2605   25.4788 C   0  0  0  0  0  0  0  0  0  0  0  0
    8.6969   12.6120   24.6922 C   0  0  0  0  0  0  0  0  0  0  0  0
    3.7547   12.5017   29.2371 C   0  0  0  0  0  0  0  0  0  0  0  0
    3.5872   11.2402   28.8081 C   0  0  0  0  0  0  0  0  0  0  0  0
    7.0748   10.9405   25.4285 C   0  0  0  0  0  0  0  0  0  0  0  0
    9.2782   11.6628   23.7099 C   0  0  0  0  0  0  0  0  0  0  0  0
    6.0567   10.6907   26.2595 C   0  0  0  0  0  0  0  0  0  0  0  0
    5.4192   11.5601   27.2549 C   0  0  0  0  0  0  0  0  0  0  0  0
    5.6114   12.8459   27.6722 C   0  0  0  0  0  0  0  0  0  0  0  0
    4.4766    9.5318   27.1915 C   0  0  0  0  0  0  0  0  0  0  0  0
   10.7685   13.2787   23.0657 C   0  0  0  0  0  0  0  0  0  0  0  0
    3.9279    7.1870   26.6156 C   0  0  0  0  0  0  0  0  0  0  0  0
    2.1055    8.7918   27.2471 C   0  0  0  0  0  0  0  0  0  0  0  0
    3.7203    7.9872   28.9845 C   0  0  0  0  0  0  0  0  0  0  0  0
   13.4159   16.6787   18.5407 C   0  0  0  0  0  0  0  0  0  0  0  0
    3.5680    8.3881   27.5063 C   0  0  0  0  0  0  0  0  0  0  0  0
    5.4182    9.4451   26.2762 N   0  0  0  0  0  0  0  0  0  0  0  0
   10.2664   12.0004   22.9434 N   0  0  0  0  0  0  0  0  0  0  0  0
    4.7414   13.2902   28.6864 N   0  0  0  0  0  0  0  0  0  0  0  0
    4.4145   10.7543   27.8151 N   0  0  0  0  0  0  0  0  0  0  0  0
    6.5616   13.7009   27.1863 N   0  0  0  0  0  0  0  0  0  0  0  0
   11.2771   13.7076   21.8468 N   0  0  0  0  0  0  0  0  0  0  0  0
   10.7656   13.9381   24.1019 O   0  0  0  0  0  0  0  0  0  0  0  0
   13.9767   17.9143   18.3825 F   0  0  0  0  0  0  0  0  0  0  0  0
   14.3710   15.7979   18.1190 F   0  0  0  0  0  0  0  0  0  0  0  0
   12.4178   16.6084   17.6123 F   0  0  0  0  0  0  0  0  0  0  0  0
    7.1804    6.7132   23.3806 H   0  0  0  0  0  0  0  0  0  0  0  0
    9.0726    7.3588   21.9203 H   0  0  0  0  0  0  0  0  0  0  0  0
   12.7311   17.9059   22.9755 H   0  0  0  0  0  0  0  0  0  0  0  0
    6.2504    8.2931   24.9729 H   0  0  0  0  0  0  0  0  0  0  0  0
   10.0346    9.6081   22.0618 H   0  0  0  0  0  0  0  0  0  0  0  0
   13.5357   18.3471   20.6798 H   0  0  0  0  0  0  0  0  0  0  0  0
   11.6735   15.7428   23.5311 H   0  0  0  0  0  0  0  0  0  0  0  0
   12.2238   14.4333   19.4653 H   0  0  0  0  0  0  0  0  0  0  0  0
    7.2857   12.9902   26.1823 H   0  0  0  0  0  0  0  0  0  0  0  0
    9.1249   13.6067   24.7544 H   0  0  0  0  0  0  0  0  0  0  0  0
    3.1584   12.9701   30.0079 H   0  0  0  0  0  0  0  0  0  0  0  0
    2.8355   10.5650   29.1935 H   0  0  0  0  0  0  0  0  0  0  0  0
    3.2768    6.3297   26.8237 H   0  0  0  0  0  0  0  0  0  0  0  0
    3.8249    7.4305   25.5519 H   0  0  0  0  0  0  0  0  0  0  0  0
    4.9624    6.8649   26.7831 H   0  0  0  0  0  0  0  0  0  0  0  0
    1.4194    7.9665   27.4717 H   0  0  0  0  0  0  0  0  0  0  0  0
    1.9525    9.0735   26.1985 H   0  0  0  0  0  0  0  0  0  0  0  0
    1.8086    9.6457   27.8668 H   0  0  0  0  0  0  0  0  0  0  0  0
    3.0612    7.1482   29.2371 H   0  0  0  0  0  0  0  0  0  0  0  0
    3.4658    8.8201   29.6506 H   0  0  0  0  0  0  0  0  0  0  0  0
    4.7479    7.6829   29.2144 H   0  0  0  0  0  0  0  0  0  0  0  0
    4.8529   14.2388   29.0221 H   0  0  0  0  0  0  0  0  0  0  0  0
    6.6112   14.6195   27.5658 H   0  0  0  0  0  0  0  0  0  0  0  0
    7.1708   13.3751   26.4699 H   0  0  0  0  0  0  0  0  0  0  0  0
   11.2059   13.0431   21.0798 H   0  0  0  0  0  0  0  0  0  0  0  0
  1  2  2  0  0  0  0
  1  4  1  0  0  0  0
  2  5  1  0  0  0  0
  3  6  2  0  0  0  0
  3  7  1  0  0  0  0
  4  9  2  0  0  0  0
  5 10  2  0  0  0  0
  6 11  1  0  0  0  0
  7 12  2  0  0  0  0
  8 11  2  0  0  0  0
  8 12  1  0  0  0  0
  9 10  1  0  0  0  0
  9 17  1  0  0  0  0
 10 18  1  0  0  0  0
 11 27  1  0  0  0  0
 12 34  1  0  0  0  0
 13 14  2  0  0  0  0
 13 17  1  0  0  0  0
 14 18  1  0  0  0  0
 15 16  2  0  0  0  0
 15 31  1  0  0  0  0
 16 32  1  0  0  0  0
 17 19  2  3  0  0  0
 18 30  2  3  0  0  0
 19 20  1  0  0  0  0
 19 29  1  4  0  0  0
 20 21  2  0  0  0  0
 20 32  1  0  0  0  0
 21 31  1  0  0  0  0
 21 33  1  0  0  0  0
 22 28  1  0  0  0  0
 22 29  2  0  0  0  0
 22 32  1  0  0  0  0
 23 30  1  0  0  0  0
 23 34  1  0  0  0  0
 23 35  2  0  0  0  0
 24 28  1  0  0  0  0
 25 28  1  0  0  0  0
 26 28  1  0  0  0  0
 27 36  1  0  0  0  0
 27 37  1  0  0  0  0
 27 38  1  0  0  0  0
  1 39  1  0  0  0  0
  2 40  1  0  0  0  0
  3 41  1  0  0  0  0
  4 42  1  0  0  0  0
  5 43  1  0  0  0  0
  6 44  1  0  0  0  0
  7 45  1  0  0  0  0
  8 46  1  0  0  0  0
 13 47  1  0  0  0  0
 14 48  1  0  0  0  0
 15 49  1  0  0  0  0
 16 50  1  0  0  0  0
 24 51  1  0  0  0  0
 24 52  1  0  0  0  0
 24 53  1  0  0  0  0
 25 54  1  0  0  0  0
 25 55  1  0  0  0  0
 25 56  1  0  0  0  0
 26 57  1  0  0  0  0
 26 58  1  0  0  0  0
 26 59  1  0  0  0  0
 31 60  1  0  0  0  0
 33 61  1  0  0  0  0
 33 62  1  0  0  0  0
 34 63  1  0  0  0  0
M  END
> <id>
EN300-195606

> <smiles>
CC(C)(C)C1=NC(=C2C=CC(=NC(=O)NC=3C=CC=C(C3)C(F)(F)F)C=4C=CC=CC24)C5=C(N)NC=CN15

> <MDLNUMBER>
MFCD31628975

> <IUPAC Name>
3-(4-{8-amino-3-tert-butyl-1H,7H-imidazo[1,5-a]pyrazin-1-ylidene}-1,4-dihydronaphthalen-1-ylidene)-1-[3-(trifluoromethyl)phenyl]urea

> <CAS>
1589527-65-0

> <Purity>
95

> <URL>
https://www.enaminestore.com/catalog/EN300-195606

> <ROCS_ShapeQuery>
A71EV2A-x0451_0A_A71EV2A-x0310_0A_A71EV2A-x0416_0A_peptide

> <ROCS_TanimotoCombo>
0.518 

> <ROCS_ShapeTanimoto>
0.383 

> <ROCS_ColorTanimoto>
0.136 

> <ROCS_RefTversky>
0.358 

> <ROCS_RefColorTversky>
0.185 

> <ROCS_RefTverskyCombo>
0.543 

> <ROCS_FitTversky>
1.215 

> <ROCS_FitColorTversky>
0.339 

> <ROCS_FitTverskyCombo>
1.554 

> <ROCS_ColorScore>
-5.709

> <ROCS_Overlap>
2502.906

> <ROCS_Rank>
225                 

$$$$
untitled-dbase-154316_18
  -OEChem-11132313473D

 38 39  0     0  0  0  0  0  0999 V2000
   10.9960   10.1468   22.0183 C   0  0  0  0  0  0  0  0  0  0  0  0
    7.8239   13.0745   24.3829 C   0  0  0  0  0  0  0  0  0  0  0  0
    6.7528   13.2063   25.2620 C   0  0  0  0  0  0  0  0  0  0  0  0
    9.2841    9.3024   23.5227 C   0  0  0  0  0  0  0  0  0  0  0  0
    9.9006   10.3736   22.9086 C   0  0  0  0  0  0  0  0  0  0  0  0
    8.3383   11.8037   24.0744 C   0  0  0  0  0  0  0  0  0  0  0  0
    6.1925   12.0716   25.8354 C   0  0  0  0  0  0  0  0  0  0  0  0
    7.7743   10.6472   24.6528 C   0  0  0  0  0  0  0  0  0  0  0  0
    9.4156   11.6421   23.1929 C   0  0  0  0  0  0  0  0  0  0  0  0
    6.7042   10.8083   25.5286 C   0  0  0  0  0  0  0  0  0  0  0  0
   10.6421   13.8345   23.1929 C   0  0  0  0  0  0  0  0  0  0  0  0
    5.0439   12.2618   26.7738 C   0  0  0  0  0  0  0  0  0  0  0  0
   13.2172   13.6874   22.7218 C   0  0  0  0  0  0  0  0  0  0  0  0
   12.8995   15.2210   20.7580 C   0  0  0  0  0  0  0  0  0  0  0  0
   12.8026   16.1420   23.0927 C   0  0  0  0  0  0  0  0  0  0  0  0
   12.5027   14.9351   22.2048 C   0  0  0  0  0  0  0  0  0  0  0  0
   11.8852    9.9626   21.2956 N   0  0  0  0  0  0  0  0  0  0  0  0
    8.2428    9.4150   24.3789 N   0  0  0  0  0  0  0  0  0  0  0  0
   10.0181   12.7546   22.5850 N   0  0  0  0  0  0  0  0  0  0  0  0
   10.7899   14.0298   24.3931 O   0  0  0  0  0  0  0  0  0  0  0  0
   11.0910   14.6934   22.2253 O   0  0  0  0  0  0  0  0  0  0  0  0
    5.9093    9.2674   26.3380 Br  0  0  0  0  0  0  0  0  0  0  0  0
    8.2417   13.9802   23.9504 H   0  0  0  0  0  0  0  0  0  0  0  0
    6.3668   14.1960   25.4915 H   0  0  0  0  0  0  0  0  0  0  0  0
    9.6098    8.2807   23.3483 H   0  0  0  0  0  0  0  0  0  0  0  0
    4.0974   12.2355   26.2229 H   0  0  0  0  0  0  0  0  0  0  0  0
    5.0263   11.4776   27.5397 H   0  0  0  0  0  0  0  0  0  0  0  0
    5.1183   13.2214   27.2989 H   0  0  0  0  0  0  0  0  0  0  0  0
   12.9350   13.4788   23.7600 H   0  0  0  0  0  0  0  0  0  0  0  0
   12.9826   12.8073   22.1141 H   0  0  0  0  0  0  0  0  0  0  0  0
   14.3039   13.8299   22.7195 H   0  0  0  0  0  0  0  0  0  0  0  0
   12.3891   16.1155   20.3830 H   0  0  0  0  0  0  0  0  0  0  0  0
   12.6001   14.3965   20.1010 H   0  0  0  0  0  0  0  0  0  0  0  0
   13.9794   15.3701   20.6572 H   0  0  0  0  0  0  0  0  0  0  0  0
   12.2901   17.0371   22.7221 H   0  0  0  0  0  0  0  0  0  0  0  0
   12.4904   15.9687   24.1277 H   0  0  0  0  0  0  0  0  0  0  0  0
   13.8737   16.3739   23.0862 H   0  0  0  0  0  0  0  0  0  0  0  0
    9.9941   12.7713   21.5639 H   0  0  0  0  0  0  0  0  0  0  0  0
  1  5  1  0  0  0  0
  1 17  3  0  0  0  0
  2  3  1  0  0  0  0
  2  6  2  0  0  0  0
  3  7  2  0  0  0  0
  4  5  1  0  0  0  0
  4 18  2  0  0  0  0
  5  9  2  0  0  0  0
  6  8  1  0  0  0  0
  6  9  1  0  0  0  0
  7 10  1  0  0  0  0
  7 12  1  0  0  0  0
  8 10  2  0  0  0  0
  8 18  1  0  0  0  0
  9 19  1  0  0  0  0
 10 22  1  0  0  0  0
 11 19  1  0  0  0  0
 11 20  2  0  0  0  0
 11 21  1  0  0  0  0
 13 16  1  0  0  0  0
 14 16  1  0  0  0  0
 15 16  1  0  0  0  0
 16 21  1  0  0  0  0
  2 23  1  0  0  0  0
  3 24  1  0  0  0  0
  4 25  1  0  0  0  0
 12 26  1  0  0  0  0
 12 27  1  0  0  0  0
 12 28  1  0  0  0  0
 13 29  1  0  0  0  0
 13 30  1  0  0  0  0
 13 31  1  0  0  0  0
 14 32  1  0  0  0  0
 14 33  1  0  0  0  0
 14 34  1  0  0  0  0
 15 35  1  0  0  0  0
 15 36  1  0  0  0  0
 15 37  1  0  0  0  0
 19 38  1  0  0  0  0
M  END
> <id>
EN300-28300007

> <smiles>
CC=1C=CC=2C(NC(=O)OC(C)(C)C)=C(C#N)C=NC2C1Br

> <IUPAC Name>
tert-butyl N-(8-bromo-3-cyano-7-methylquinolin-4-yl)carbamate

> <CAS>
2680682-48-6

> <URL>
https://www.enaminestore.com/catalog/EN300-28300007

> <ROCS_ShapeQuery>
A71EV2A-x0451_0A_A71EV2A-x0310_0A_A71EV2A-x0416_0A_peptide

> <ROCS_TanimotoCombo>
0.518 

> <ROCS_ShapeTanimoto>
0.364 

> <ROCS_ColorTanimoto>
0.154 

> <ROCS_RefTversky>
0.317 

> <ROCS_RefColorTversky>
0.174 

> <ROCS_RefTverskyCombo>
0.491 

> <ROCS_FitTversky>
1.695 

> <ROCS_FitColorTversky>
0.576 

> <ROCS_FitTverskyCombo>
2.271 

> <ROCS_ColorScore>
-5.299

> <ROCS_Overlap>
2201.427

> <ROCS_Rank>
226                 

$$$$
untitled-dbase-39177_165
  -OEChem-11132313473D

 39 40  0     0  0  0  0  0  0999 V2000
    6.8856   12.7891   24.9338 C   0  0  0  0  0  0  0  0  0  0  0  0
    6.1594   11.0807   26.4832 C   0  0  0  0  0  0  0  0  0  0  0  0
    6.1331   12.4032   26.0452 C   0  0  0  0  0  0  0  0  0  0  0  0
    7.6825   11.8587   24.2526 C   0  0  0  0  0  0  0  0  0  0  0  0
    7.7177   10.5357   24.7218 C   0  0  0  0  0  0  0  0  0  0  0  0
    6.9453   10.1427   25.8175 C   0  0  0  0  0  0  0  0  0  0  0  0
    5.3096   13.3806   26.7390 C   0  0  0  0  0  0  0  0  0  0  0  0
   10.7790   13.0537   23.5952 C   0  0  0  0  0  0  0  0  0  0  0  0
    8.4483   12.2788   23.0246 C   0  0  0  0  0  0  0  0  0  0  0  0
   10.3515   10.6744   23.0328 C   0  0  0  0  0  0  0  0  0  0  0  0
    9.8600    9.8070   24.1862 C   0  0  0  0  0  0  0  0  0  0  0  0
   12.5565   15.2392   23.0905 C   0  0  0  0  0  0  0  0  0  0  0  0
   13.9175   13.5875   21.7756 C   0  0  0  0  0  0  0  0  0  0  0  0
   11.5724   14.1289   21.0574 C   0  0  0  0  0  0  0  0  0  0  0  0
   12.5153   13.9647   22.2486 C   0  0  0  0  0  0  0  0  0  0  0  0
    9.8886   12.0553   23.1804 N   0  0  0  0  0  0  0  0  0  0  0  0
    5.2340   14.5635   26.3953 O   0  0  0  0  0  0  0  0  0  0  0  0
   10.4798   13.9827   24.3432 O   0  0  0  0  0  0  0  0  0  0  0  0
    8.4512    9.5604   24.0939 O   0  0  0  0  0  0  0  0  0  0  0  0
   12.0333   12.8931   23.0673 O   0  0  0  0  0  0  0  0  0  0  0  0
    6.9637    8.8710   26.2393 F   0  0  0  0  0  0  0  0  0  0  0  0
    6.8452   13.8210   24.5907 H   0  0  0  0  0  0  0  0  0  0  0  0
    5.5689   10.7689   27.3409 H   0  0  0  0  0  0  0  0  0  0  0  0
    4.7280   13.0275   27.6183 H   0  0  0  0  0  0  0  0  0  0  0  0
    8.0948   11.7116   22.1548 H   0  0  0  0  0  0  0  0  0  0  0  0
    8.2616   13.3337   22.7977 H   0  0  0  0  0  0  0  0  0  0  0  0
   11.4456   10.6536   23.0036 H   0  0  0  0  0  0  0  0  0  0  0  0
    9.9785   10.2991   22.0734 H   0  0  0  0  0  0  0  0  0  0  0  0
   10.3459    8.8273   24.1153 H   0  0  0  0  0  0  0  0  0  0  0  0
   10.1400   10.2218   25.1643 H   0  0  0  0  0  0  0  0  0  0  0  0
   11.5519   15.5134   23.4319 H   0  0  0  0  0  0  0  0  0  0  0  0
   13.2020   15.1228   23.9671 H   0  0  0  0  0  0  0  0  0  0  0  0
   12.9241   16.0862   22.5000 H   0  0  0  0  0  0  0  0  0  0  0  0
   13.8926   12.6736   21.1712 H   0  0  0  0  0  0  0  0  0  0  0  0
   14.5732   13.3761   22.6280 H   0  0  0  0  0  0  0  0  0  0  0  0
   14.3709   14.3856   21.1790 H   0  0  0  0  0  0  0  0  0  0  0  0
   11.5427   13.2148   20.4534 H   0  0  0  0  0  0  0  0  0  0  0  0
   10.5527   14.3636   21.3795 H   0  0  0  0  0  0  0  0  0  0  0  0
   11.9201   14.9278   20.3925 H   0  0  0  0  0  0  0  0  0  0  0  0
  1  3  1  0  0  0  0
  1  4  2  0  0  0  0
  2  3  2  0  0  0  0
  2  6  1  0  0  0  0
  3  7  1  0  0  0  0
  4  5  1  0  0  0  0
  4  9  1  0  0  0  0
  5  6  2  0  0  0  0
  5 19  1  0  0  0  0
  6 21  1  0  0  0  0
  7 17  2  0  0  0  0
  8 16  1  0  0  0  0
  8 18  2  0  0  0  0
  8 20  1  0  0  0  0
  9 16  1  0  0  0  0
 10 11  1  0  0  0  0
 10 16  1  0  0  0  0
 11 19  1  0  0  0  0
 12 15  1  0  0  0  0
 13 15  1  0  0  0  0
 14 15  1  0  0  0  0
 15 20  1  0  0  0  0
  1 22  1  0  0  0  0
  2 23  1  0  0  0  0
  7 24  1  0  0  0  0
  9 25  1  0  0  0  0
  9 26  1  0  0  0  0
 10 27  1  0  0  0  0
 10 28  1  0  0  0  0
 11 29  1  0  0  0  0
 11 30  1  0  0  0  0
 12 31  1  0  0  0  0
 12 32  1  0  0  0  0
 12 33  1  0  0  0  0
 13 34  1  0  0  0  0
 13 35  1  0  0  0  0
 13 36  1  0  0  0  0
 14 37  1  0  0  0  0
 14 38  1  0  0  0  0
 14 39  1  0  0  0  0
M  END
> <id>
EN300-1128963

> <smiles>
CC(C)(C)OC(=O)N1CCOC=2C(F)=CC(C=O)=CC2C1

> <MDLNUMBER>
MFCD31597202

> <IUPAC Name>
tert-butyl 9-fluoro-7-formyl-2,3,4,5-tetrahydro-1,4-benzoxazepine-4-carboxylate

> <CAS>
2137796-83-7

> <URL>
https://www.enaminestore.com/catalog/EN300-1128963

> <ROCS_ShapeQuery>
A71EV2A-x0451_0A_A71EV2A-x0310_0A_A71EV2A-x0416_0A_peptide

> <ROCS_TanimotoCombo>
0.518 

> <ROCS_ShapeTanimoto>
0.337 

> <ROCS_ColorTanimoto>
0.181 

> <ROCS_RefTversky>
0.298 

> <ROCS_RefColorTversky>
0.190 

> <ROCS_RefTverskyCombo>
0.488 

> <ROCS_FitTversky>
1.641 

> <ROCS_FitColorTversky>
0.794 

> <ROCS_FitTverskyCombo>
2.435 

> <ROCS_ColorScore>
-5.786

> <ROCS_Overlap>
2066.385

> <ROCS_Rank>
227                 

$$$$
untitled-dbase-148785_109
  -OEChem-11132313473D

 38 39  0     1  0  0  0  0  0999 V2000
   11.1183   13.7653   23.3172 C   0  0  0  0  0  0  0  0  0  0  0  0
    9.6103   10.2396   24.3980 C   0  0  0  0  0  0  0  0  0  0  0  0
    8.6866   11.0207   22.3444 C   0  0  0  0  0  0  0  0  0  0  0  0
    8.4642    9.9443   23.4227 C   0  0  2  0  0  0  0  0  0  0  0  0
    9.1724   11.6913   24.6075 C   0  0  1  0  0  0  0  0  0  0  0  0
    9.1519   12.2455   23.1617 C   0  0  1  0  0  0  0  0  0  0  0  0
    7.2174   10.3298   24.2457 C   0  0  2  0  0  0  0  0  0  0  0  0
    7.7331   11.4797   25.1269 C   0  0  2  0  0  0  0  0  0  0  0  0
   12.4012   16.3114   23.1709 C   0  0  0  0  0  0  0  0  0  0  0  0
   13.8921   15.2541   21.4479 C   0  0  0  0  0  0  0  0  0  0  0  0
   11.4244   15.4429   21.0200 C   0  0  0  0  0  0  0  0  0  0  0  0
   12.5034   15.2430   22.0833 C   0  0  0  0  0  0  0  0  0  0  0  0
   10.4466   12.7091   22.7329 N   0  0  0  0  0  0  0  0  0  0  0  0
   10.7113   14.4363   24.2599 O   0  0  0  0  0  0  0  0  0  0  0  0
    6.8304    9.2273   25.0559 O   0  0  0  0  0  0  0  0  0  0  0  0
    6.9472   12.6478   24.9846 O   0  0  0  0  0  0  0  0  0  0  0  0
   12.3157   13.9583   22.6875 O   0  0  0  0  0  0  0  0  0  0  0  0
    9.5688    9.6376   25.3119 H   0  0  0  0  0  0  0  0  0  0  0  0
   10.6002   10.1387   23.9423 H   0  0  0  0  0  0  0  0  0  0  0  0
    9.4572   10.6933   21.6359 H   0  0  0  0  0  0  0  0  0  0  0  0
    7.7767   11.2348   21.7738 H   0  0  0  0  0  0  0  0  0  0  0  0
    8.4497    8.9213   23.0401 H   0  0  0  0  0  0  0  0  0  0  0  0
    9.7856   12.2819   25.2926 H   0  0  0  0  0  0  0  0  0  0  0  0
    8.4655   13.0894   23.0455 H   0  0  0  0  0  0  0  0  0  0  0  0
    6.3678   10.6068   23.6128 H   0  0  0  0  0  0  0  0  0  0  0  0
    7.7480   11.2029   26.1877 H   0  0  0  0  0  0  0  0  0  0  0  0
   11.4058   16.3067   23.6294 H   0  0  0  0  0  0  0  0  0  0  0  0
   13.1472   16.1589   23.9576 H   0  0  0  0  0  0  0  0  0  0  0  0
   12.5426   17.3132   22.7494 H   0  0  0  0  0  0  0  0  0  0  0  0
   13.9699   14.4891   20.6670 H   0  0  0  0  0  0  0  0  0  0  0  0
   14.6628   15.0170   22.1902 H   0  0  0  0  0  0  0  0  0  0  0  0
   14.1257   16.2274   21.0043 H   0  0  0  0  0  0  0  0  0  0  0  0
   11.4976   14.6767   20.2397 H   0  0  0  0  0  0  0  0  0  0  0  0
   10.4195   15.4010   21.4523 H   0  0  0  0  0  0  0  0  0  0  0  0
   11.5472   16.4090   20.5171 H   0  0  0  0  0  0  0  0  0  0  0  0
   10.8925   12.2305   21.9538 H   0  0  0  0  0  0  0  0  0  0  0  0
    6.0470    9.5087   25.5552 H   0  0  0  0  0  0  0  0  0  0  0  0
    7.3801   13.3489   25.5015 H   0  0  0  0  0  0  0  0  0  0  0  0
  1 13  1  0  0  0  0
  1 14  2  0  0  0  0
  1 17  1  0  0  0  0
  2  4  1  0  0  0  0
  2  5  1  0  0  0  0
  3  4  1  0  0  0  0
  3  6  1  0  0  0  0
  4  7  1  0  0  0  0
  5  6  1  0  0  0  0
  5  8  1  0  0  0  0
  6 13  1  0  0  0  0
  7  8  1  0  0  0  0
  7 15  1  0  0  0  0
  8 16  1  0  0  0  0
  9 12  1  0  0  0  0
 10 12  1  0  0  0  0
 11 12  1  0  0  0  0
 12 17  1  0  0  0  0
  2 18  1  0  0  0  0
  2 19  1  0  0  0  0
  3 20  1  0  0  0  0
  3 21  1  0  0  0  0
  4 22  1  0  0  0  0
  5 23  1  0  0  0  0
  6 24  1  0  0  0  0
  7 25  1  0  0  0  0
  8 26  1  0  0  0  0
  9 27  1  0  0  0  0
  9 28  1  0  0  0  0
  9 29  1  0  0  0  0
 10 30  1  0  0  0  0
 10 31  1  0  0  0  0
 10 32  1  0  0  0  0
 11 33  1  0  0  0  0
 11 34  1  0  0  0  0
 11 35  1  0  0  0  0
 13 36  1  0  0  0  0
 15 37  1  0  0  0  0
 16 38  1  0  0  0  0
M  END
> <id>
EN300-28228704

> <smiles>
CC(C)(C)OC(=O)NC1CC2CC1C(O)C2O

> <IUPAC Name>
tert-butyl N-{5,6-dihydroxybicyclo[2.2.1]heptan-2-yl}carbamate

> <CAS>
2639462-62-5

> <URL>
https://www.enaminestore.com/catalog/EN300-28228704

> <ROCS_ShapeQuery>
A71EV2A-x0451_0A_A71EV2A-x0310_0A_A71EV2A-x0416_0A_peptide

> <ROCS_TanimotoCombo>
0.518 

> <ROCS_ShapeTanimoto>
0.298 

> <ROCS_ColorTanimoto>
0.220 

> <ROCS_RefTversky>
0.265 

> <ROCS_RefColorTversky>
0.264 

> <ROCS_RefTverskyCombo>
0.529 

> <ROCS_FitTversky>
1.710 

> <ROCS_FitColorTversky>
0.571 

> <ROCS_FitTverskyCombo>
2.281 

> <ROCS_ColorScore>
-8.121

> <ROCS_Overlap>
1837.819

> <ROCS_Rank>
228                 

$$$$
untitled-dbase-148515_2156
  -OEChem-11132313473D

 51 53  0     1  0  0  0  0  0999 V2000
    7.9140   12.8603   25.6709 C   0  0  0  0  0  0  0  0  0  0  0  0
    8.7369   12.2111   24.7928 C   0  0  0  0  0  0  0  0  0  0  0  0
    8.0745   11.0259   24.4462 C   0  0  0  0  0  0  0  0  0  0  0  0
   11.5654   15.6332   22.2143 C   0  0  0  0  0  0  0  0  0  0  0  0
    9.9469   12.3993   21.9326 C   0  0  0  0  0  0  0  0  0  0  0  0
   12.0188   12.0226   23.3349 C   0  0  0  0  0  0  0  0  0  0  0  0
   10.1656   10.3116   23.4237 C   0  0  0  0  0  0  0  0  0  0  0  0
   10.8594   13.4455   21.2843 C   0  0  0  0  0  0  0  0  0  0  0  0
   12.4086   13.4989   23.2272 C   0  0  0  0  0  0  0  0  0  0  0  0
    8.6538   10.0306   23.5210 C   0  0  1  0  0  0  0  0  0  0  0  0
   10.4885   11.8308   23.2735 C   0  0  0  0  0  0  0  0  0  0  0  0
    5.8973   12.0162   28.0620 C   0  0  0  0  0  0  0  0  0  0  0  0
   12.6280   16.0844   19.5962 C   0  0  0  0  0  0  0  0  0  0  0  0
   10.4875   17.3172   19.1405 C   0  0  0  0  0  0  0  0  0  0  0  0
   12.0531   18.1457   20.9211 C   0  0  0  0  0  0  0  0  0  0  0  0
    5.6486   12.3031   26.5912 C   0  0  0  0  0  0  0  0  0  0  0  0
   11.4994   16.9117   20.2099 C   0  0  0  0  0  0  0  0  0  0  0  0
    6.8831   10.9225   25.0400 N   0  0  0  0  0  0  0  0  0  0  0  0
    6.8158   12.0504   25.7802 N   0  0  0  0  0  0  0  0  0  0  0  0
   11.5844   14.2367   22.2688 N   0  0  0  0  0  0  0  0  0  0  0  0
   12.1503   16.3689   23.0067 O   0  0  0  0  0  0  0  0  0  0  0  0
    9.9494   12.6261   24.3717 O   0  0  0  0  0  0  0  0  0  0  0  0
    8.4740    8.6893   23.9642 O   0  0  0  0  0  0  0  0  0  0  0  0
   10.8113   16.1023   21.1703 O   0  0  0  0  0  0  0  0  0  0  0  0
    7.9994   13.7950   26.2077 H   0  0  0  0  0  0  0  0  0  0  0  0
    8.9602   12.8678   22.0814 H   0  0  0  0  0  0  0  0  0  0  0  0
    9.7894   11.5723   21.2185 H   0  0  0  0  0  0  0  0  0  0  0  0
   12.5022   11.4682   22.5259 H   0  0  0  0  0  0  0  0  0  0  0  0
   12.4049   11.6384   24.2827 H   0  0  0  0  0  0  0  0  0  0  0  0
   10.6460    9.9335   24.3373 H   0  0  0  0  0  0  0  0  0  0  0  0
   10.5942    9.7329   22.5971 H   0  0  0  0  0  0  0  0  0  0  0  0
   11.5581   12.9442   20.5986 H   0  0  0  0  0  0  0  0  0  0  0  0
   10.2690   14.1449   20.6724 H   0  0  0  0  0  0  0  0  0  0  0  0
   12.2944   14.0011   24.2032 H   0  0  0  0  0  0  0  0  0  0  0  0
   13.4778   13.5710   22.9724 H   0  0  0  0  0  0  0  0  0  0  0  0
    8.1876   10.1262   22.5359 H   0  0  0  0  0  0  0  0  0  0  0  0
    6.1900   10.9725   28.2176 H   0  0  0  0  0  0  0  0  0  0  0  0
    4.9906   12.2069   28.6443 H   0  0  0  0  0  0  0  0  0  0  0  0
    6.6976   12.6499   28.4586 H   0  0  0  0  0  0  0  0  0  0  0  0
   13.3565   15.7914   20.3607 H   0  0  0  0  0  0  0  0  0  0  0  0
   12.2474   15.1785   19.1132 H   0  0  0  0  0  0  0  0  0  0  0  0
   13.1800   16.6682   18.8507 H   0  0  0  0  0  0  0  0  0  0  0  0
    9.6759   17.9110   19.5764 H   0  0  0  0  0  0  0  0  0  0  0  0
   10.0176   16.4339   18.6929 H   0  0  0  0  0  0  0  0  0  0  0  0
   10.9555   17.9027   18.3426 H   0  0  0  0  0  0  0  0  0  0  0  0
   11.2438   18.7393   21.3614 H   0  0  0  0  0  0  0  0  0  0  0  0
   12.7534   17.8722   21.7169 H   0  0  0  0  0  0  0  0  0  0  0  0
   12.5698   18.8041   20.2135 H   0  0  0  0  0  0  0  0  0  0  0  0
    5.3564   13.3492   26.4456 H   0  0  0  0  0  0  0  0  0  0  0  0
    4.8312   11.6810   26.2091 H   0  0  0  0  0  0  0  0  0  0  0  0
    7.5169    8.5446   24.0309 H   0  0  0  0  0  0  0  0  0  0  0  0
  1  2  2  0  0  0  0
  1 19  1  0  0  0  0
  2  3  1  0  0  0  0
  2 22  1  0  0  0  0
  3 10  1  0  0  0  0
  3 18  2  0  0  0  0
  4 20  1  0  0  0  0
  4 21  2  0  0  0  0
  4 24  1  0  0  0  0
  5  8  1  0  0  0  0
  5 11  1  0  0  0  0
  6  9  1  0  0  0  0
  6 11  1  0  0  0  0
  7 10  1  0  0  0  0
  7 11  1  0  0  0  0
  8 20  1  0  0  0  0
  9 20  1  0  0  0  0
 10 23  1  0  0  0  0
 11 22  1  0  0  0  0
 12 16  1  0  0  0  0
 13 17  1  0  0  0  0
 14 17  1  0  0  0  0
 15 17  1  0  0  0  0
 16 19  1  0  0  0  0
 17 24  1  0  0  0  0
 18 19  1  0  0  0  0
  1 25  1  0  0  0  0
  5 26  1  0  0  0  0
  5 27  1  0  0  0  0
  6 28  1  0  0  0  0
  6 29  1  0  0  0  0
  7 30  1  0  0  0  0
  7 31  1  0  0  0  0
  8 32  1  0  0  0  0
  8 33  1  0  0  0  0
  9 34  1  0  0  0  0
  9 35  1  0  0  0  0
 10 36  1  0  0  0  0
 12 37  1  0  0  0  0
 12 38  1  0  0  0  0
 12 39  1  0  0  0  0
 13 40  1  0  0  0  0
 13 41  1  0  0  0  0
 13 42  1  0  0  0  0
 14 43  1  0  0  0  0
 14 44  1  0  0  0  0
 14 45  1  0  0  0  0
 15 46  1  0  0  0  0
 15 47  1  0  0  0  0
 15 48  1  0  0  0  0
 16 49  1  0  0  0  0
 16 50  1  0  0  0  0
 23 51  1  0  0  0  0
M  END
> <id>
EN300-27718476

> <smiles>
CCN1C=C2OC3(CCN(CC3)C(=O)OC(C)(C)C)CC(O)C2=N1

> <IUPAC Name>
tert-butyl 2'-ethyl-7'-hydroxy-6',7'-dihydro-2'H-spiro[piperidine-4,5'-pyrano[3,2-c]pyrazole]-1-carboxylate

> <CAS>
2639464-07-4

> <URL>
https://www.enaminestore.com/catalog/EN300-27718476

> <ROCS_ShapeQuery>
A71EV2A-x0451_0A_A71EV2A-x0310_0A_A71EV2A-x0416_0A_peptide

> <ROCS_TanimotoCombo>
0.518 

> <ROCS_ShapeTanimoto>
0.360 

> <ROCS_ColorTanimoto>
0.158 

> <ROCS_RefTversky>
0.318 

> <ROCS_RefColorTversky>
0.181 

> <ROCS_RefTverskyCombo>
0.499 

> <ROCS_FitTversky>
1.585 

> <ROCS_FitColorTversky>
0.546 

> <ROCS_FitTverskyCombo>
2.131 

> <ROCS_ColorScore>
-5.545

> <ROCS_Overlap>
2210.776

> <ROCS_Rank>
229                 

$$$$
untitled-dbase-103262_9
  -OEChem-11132313473D

 41 44  0     0  0  0  0  0  0999 V2000
    6.4006   12.0422   25.5538 C   0  0  0  0  0  0  0  0  0  0  0  0
    7.7892   10.8006   24.5481 C   0  0  0  0  0  0  0  0  0  0  0  0
    8.2812   12.0786   24.4162 C   0  0  0  0  0  0  0  0  0  0  0  0
   11.6955   15.8659   22.2279 C   0  0  0  0  0  0  0  0  0  0  0  0
    8.4815    9.6252   23.9790 C   0  0  0  0  0  0  0  0  0  0  0  0
   12.1667   17.4162   20.2283 C   0  0  0  0  0  0  0  0  0  0  0  0
   11.9518   16.0396   19.6711 C   0  0  0  0  0  0  0  0  0  0  0  0
   10.4046   13.4092   24.5472 C   0  0  0  0  0  0  0  0  0  0  0  0
    9.1677   13.2162   22.3700 C   0  0  0  0  0  0  0  0  0  0  0  0
    9.5058   10.0924   22.9210 C   0  0  0  0  0  0  0  0  0  0  0  0
   11.6173   13.9535   23.7898 C   0  0  0  0  0  0  0  0  0  0  0  0
   10.3976   13.7623   21.6411 C   0  0  0  0  0  0  0  0  0  0  0  0
    9.5260   12.4740   23.6797 C   0  0  0  0  0  0  0  0  0  0  0  0
   11.2432   16.4625   20.9188 C   0  0  0  0  0  0  0  0  0  0  0  0
    6.6242   10.7771   25.2604 N   0  0  0  0  0  0  0  0  0  0  0  0
    7.3756   12.8717   25.0600 N   0  0  0  0  0  0  0  0  0  0  0  0
   10.3212   11.2410   23.3738 N   0  0  0  0  0  0  0  0  0  0  0  0
   11.2195   14.5896   22.5327 N   0  0  0  0  0  0  0  0  0  0  0  0
    9.8008   16.6808   20.9406 N   0  0  0  0  0  0  0  0  0  0  0  0
   12.4474   16.5173   22.9578 O   0  0  0  0  0  0  0  0  0  0  0  0
    5.5608   12.4237   26.1170 H   0  0  0  0  0  0  0  0  0  0  0  0
    8.9901    9.0566   24.7642 H   0  0  0  0  0  0  0  0  0  0  0  0
    7.7407    8.9663   23.5111 H   0  0  0  0  0  0  0  0  0  0  0  0
   13.1331   17.6345   20.6675 H   0  0  0  0  0  0  0  0  0  0  0  0
   11.7284   18.2491   19.6911 H   0  0  0  0  0  0  0  0  0  0  0  0
   11.3691   15.9514   18.7616 H   0  0  0  0  0  0  0  0  0  0  0  0
   12.7742   15.3369   19.7378 H   0  0  0  0  0  0  0  0  0  0  0  0
   10.7464   12.9029   25.4585 H   0  0  0  0  0  0  0  0  0  0  0  0
    9.8042   14.2619   24.8952 H   0  0  0  0  0  0  0  0  0  0  0  0
    8.4957   14.0587   22.5835 H   0  0  0  0  0  0  0  0  0  0  0  0
    8.6128   12.5523   21.6935 H   0  0  0  0  0  0  0  0  0  0  0  0
   10.1596    9.2599   22.6350 H   0  0  0  0  0  0  0  0  0  0  0  0
    8.9623   10.3851   22.0154 H   0  0  0  0  0  0  0  0  0  0  0  0
   12.1437   14.6706   24.4283 H   0  0  0  0  0  0  0  0  0  0  0  0
   12.3372   13.1645   23.5494 H   0  0  0  0  0  0  0  0  0  0  0  0
   11.0344   12.9499   21.2732 H   0  0  0  0  0  0  0  0  0  0  0  0
   10.0671   14.3238   20.7648 H   0  0  0  0  0  0  0  0  0  0  0  0
    7.4131   13.8775   25.1598 H   0  0  0  0  0  0  0  0  0  0  0  0
   11.0424   11.4375   22.6838 H   0  0  0  0  0  0  0  0  0  0  0  0
    9.6298   17.6498   20.8076 H   0  0  0  0  0  0  0  0  0  0  0  0
    9.3943   16.1499   20.2065 H   0  0  0  0  0  0  0  0  0  0  0  0
  1 15  2  0  0  0  0
  1 16  1  0  0  0  0
  2  3  2  0  0  0  0
  2  5  1  0  0  0  0
  2 15  1  0  0  0  0
  3 13  1  0  0  0  0
  3 16  1  0  0  0  0
  4 14  1  0  0  0  0
  4 18  1  0  0  0  0
  4 20  2  0  0  0  0
  5 10  1  0  0  0  0
  6  7  1  0  0  0  0
  6 14  1  0  0  0  0
  7 14  1  0  0  0  0
  8 11  1  0  0  0  0
  8 13  1  0  0  0  0
  9 12  1  0  0  0  0
  9 13  1  0  0  0  0
 10 17  1  0  0  0  0
 11 18  1  0  0  0  0
 12 18  1  0  0  0  0
 13 17  1  0  0  0  0
 14 19  1  0  0  0  0
  1 21  1  0  0  0  0
  5 22  1  0  0  0  0
  5 23  1  0  0  0  0
  6 24  1  0  0  0  0
  6 25  1  0  0  0  0
  7 26  1  0  0  0  0
  7 27  1  0  0  0  0
  8 28  1  0  0  0  0
  8 29  1  0  0  0  0
  9 30  1  0  0  0  0
  9 31  1  0  0  0  0
 10 32  1  0  0  0  0
 10 33  1  0  0  0  0
 11 34  1  0  0  0  0
 11 35  1  0  0  0  0
 12 36  1  0  0  0  0
 12 37  1  0  0  0  0
 16 38  1  0  0  0  0
 17 39  1  0  0  0  0
 19 40  1  0  0  0  0
 19 41  1  0  0  0  0
M  END
> <id>
EN300-7562813

> <smiles>
Cl.Cl.Cl.NC1(CC1)C(=O)N2CCC3(CC2)NCCC=4N=CNC43

> <MDLNUMBER>
MFCD27959822

> <IUPAC Name>
1-({3,5,6,7-tetrahydrospiro[imidazo[4,5-c]pyridine-4,4'-piperidine]-1'-yl}carbonyl)cyclopropan-1-amine trihydrochloride

> <CAS>
1326748-19-9

> <Purity>
95

> <URL>
https://www.enaminestore.com/catalog/EN300-7562813

> <Saltdate>
Cl

> <ROCS_ShapeQuery>
A71EV2A-x0451_0A_A71EV2A-x0310_0A_A71EV2A-x0416_0A_peptide

> <ROCS_TanimotoCombo>
0.518 

> <ROCS_ShapeTanimoto>
0.324 

> <ROCS_ColorTanimoto>
0.194 

> <ROCS_RefTversky>
0.288 

> <ROCS_RefColorTversky>
0.226 

> <ROCS_RefTverskyCombo>
0.514 

> <ROCS_FitTversky>
1.626 

> <ROCS_FitColorTversky>
0.575 

> <ROCS_FitTverskyCombo>
2.200 

> <ROCS_ColorScore>
-6.929

> <ROCS_Overlap>
2001.073

> <ROCS_Rank>
230                 

$$$$
untitled-dbase-21025_9
  -OEChem-11132313473D

 41 44  0     0  0  0  0  0  0999 V2000
    6.4006   12.0422   25.5538 C   0  0  0  0  0  0  0  0  0  0  0  0
    7.7892   10.8006   24.5481 C   0  0  0  0  0  0  0  0  0  0  0  0
    8.2812   12.0786   24.4162 C   0  0  0  0  0  0  0  0  0  0  0  0
   11.6955   15.8659   22.2279 C   0  0  0  0  0  0  0  0  0  0  0  0
    8.4815    9.6252   23.9790 C   0  0  0  0  0  0  0  0  0  0  0  0
   12.1667   17.4162   20.2283 C   0  0  0  0  0  0  0  0  0  0  0  0
   11.9518   16.0396   19.6711 C   0  0  0  0  0  0  0  0  0  0  0  0
   10.4046   13.4092   24.5472 C   0  0  0  0  0  0  0  0  0  0  0  0
    9.1677   13.2162   22.3700 C   0  0  0  0  0  0  0  0  0  0  0  0
    9.5058   10.0924   22.9210 C   0  0  0  0  0  0  0  0  0  0  0  0
   11.6173   13.9535   23.7898 C   0  0  0  0  0  0  0  0  0  0  0  0
   10.3976   13.7623   21.6411 C   0  0  0  0  0  0  0  0  0  0  0  0
    9.5260   12.4740   23.6797 C   0  0  0  0  0  0  0  0  0  0  0  0
   11.2432   16.4625   20.9188 C   0  0  0  0  0  0  0  0  0  0  0  0
    6.6242   10.7771   25.2604 N   0  0  0  0  0  0  0  0  0  0  0  0
    7.3756   12.8717   25.0600 N   0  0  0  0  0  0  0  0  0  0  0  0
   10.3212   11.2410   23.3738 N   0  0  0  0  0  0  0  0  0  0  0  0
   11.2195   14.5896   22.5327 N   0  0  0  0  0  0  0  0  0  0  0  0
    9.8008   16.6808   20.9406 N   0  0  0  0  0  0  0  0  0  0  0  0
   12.4474   16.5173   22.9578 O   0  0  0  0  0  0  0  0  0  0  0  0
    5.5608   12.4237   26.1170 H   0  0  0  0  0  0  0  0  0  0  0  0
    8.9901    9.0566   24.7642 H   0  0  0  0  0  0  0  0  0  0  0  0
    7.7407    8.9663   23.5111 H   0  0  0  0  0  0  0  0  0  0  0  0
   13.1331   17.6345   20.6675 H   0  0  0  0  0  0  0  0  0  0  0  0
   11.7284   18.2491   19.6911 H   0  0  0  0  0  0  0  0  0  0  0  0
   11.3691   15.9514   18.7616 H   0  0  0  0  0  0  0  0  0  0  0  0
   12.7742   15.3369   19.7378 H   0  0  0  0  0  0  0  0  0  0  0  0
   10.7464   12.9029   25.4585 H   0  0  0  0  0  0  0  0  0  0  0  0
    9.8042   14.2619   24.8952 H   0  0  0  0  0  0  0  0  0  0  0  0
    8.4957   14.0587   22.5835 H   0  0  0  0  0  0  0  0  0  0  0  0
    8.6128   12.5523   21.6935 H   0  0  0  0  0  0  0  0  0  0  0  0
   10.1596    9.2599   22.6350 H   0  0  0  0  0  0  0  0  0  0  0  0
    8.9623   10.3851   22.0154 H   0  0  0  0  0  0  0  0  0  0  0  0
   12.1437   14.6706   24.4283 H   0  0  0  0  0  0  0  0  0  0  0  0
   12.3372   13.1645   23.5494 H   0  0  0  0  0  0  0  0  0  0  0  0
   11.0344   12.9499   21.2732 H   0  0  0  0  0  0  0  0  0  0  0  0
   10.0671   14.3238   20.7648 H   0  0  0  0  0  0  0  0  0  0  0  0
    7.4131   13.8775   25.1598 H   0  0  0  0  0  0  0  0  0  0  0  0
   11.0424   11.4375   22.6838 H   0  0  0  0  0  0  0  0  0  0  0  0
    9.6298   17.6498   20.8076 H   0  0  0  0  0  0  0  0  0  0  0  0
    9.3943   16.1499   20.2065 H   0  0  0  0  0  0  0  0  0  0  0  0
  1 15  2  0  0  0  0
  1 16  1  0  0  0  0
  2  3  2  0  0  0  0
  2  5  1  0  0  0  0
  2 15  1  0  0  0  0
  3 13  1  0  0  0  0
  3 16  1  0  0  0  0
  4 14  1  0  0  0  0
  4 18  1  0  0  0  0
  4 20  2  0  0  0  0
  5 10  1  0  0  0  0
  6  7  1  0  0  0  0
  6 14  1  0  0  0  0
  7 14  1  0  0  0  0
  8 11  1  0  0  0  0
  8 13  1  0  0  0  0
  9 12  1  0  0  0  0
  9 13  1  0  0  0  0
 10 17  1  0  0  0  0
 11 18  1  0  0  0  0
 12 18  1  0  0  0  0
 13 17  1  0  0  0  0
 14 19  1  0  0  0  0
  1 21  1  0  0  0  0
  5 22  1  0  0  0  0
  5 23  1  0  0  0  0
  6 24  1  0  0  0  0
  6 25  1  0  0  0  0
  7 26  1  0  0  0  0
  7 27  1  0  0  0  0
  8 28  1  0  0  0  0
  8 29  1  0  0  0  0
  9 30  1  0  0  0  0
  9 31  1  0  0  0  0
 10 32  1  0  0  0  0
 10 33  1  0  0  0  0
 11 34  1  0  0  0  0
 11 35  1  0  0  0  0
 12 36  1  0  0  0  0
 12 37  1  0  0  0  0
 16 38  1  0  0  0  0
 17 39  1  0  0  0  0
 19 40  1  0  0  0  0
 19 41  1  0  0  0  0
M  END
> <id>
EN300-303134

> <smiles>
NC1(CC1)C(=O)N2CCC3(CC2)NCCC=4N=CNC43

> <MDLNUMBER>
MFCD13967169

> <IUPAC Name>
1-({3,5,6,7-tetrahydrospiro[imidazo[4,5-c]pyridine-4,4'-piperidine]-1'-yl}carbonyl)cyclopropan-1-amine

> <CAS>
1171476-00-8

> <URL>
https://www.enaminestore.com/catalog/EN300-303134

> <ROCS_ShapeQuery>
A71EV2A-x0451_0A_A71EV2A-x0310_0A_A71EV2A-x0416_0A_peptide

> <ROCS_TanimotoCombo>
0.518 

> <ROCS_ShapeTanimoto>
0.324 

> <ROCS_ColorTanimoto>
0.194 

> <ROCS_RefTversky>
0.288 

> <ROCS_RefColorTversky>
0.226 

> <ROCS_RefTverskyCombo>
0.514 

> <ROCS_FitTversky>
1.626 

> <ROCS_FitColorTversky>
0.575 

> <ROCS_FitTverskyCombo>
2.200 

> <ROCS_ColorScore>
-6.929

> <ROCS_Overlap>
2001.073

> <ROCS_Rank>
231                 

$$$$
untitled-dbase-105282_339
  -OEChem-11132313473D

 40 41  0     1  0  0  0  0  0999 V2000
    5.7001   12.8055   26.3894 C   0  0  0  0  0  0  0  0  0  0  0  0
   10.3352   13.2200   23.6679 C   0  0  0  0  0  0  0  0  0  0  0  0
    8.0377   12.2240   25.7346 C   0  0  0  0  0  0  0  0  0  0  0  0
    6.1538   10.9375   24.8072 C   0  0  0  0  0  0  0  0  0  0  0  0
    9.9537   10.8323   23.1244 C   0  0  0  0  0  0  0  0  0  0  0  0
    9.4953    9.6545   23.9689 C   0  0  0  0  0  0  0  0  0  0  0  0
    6.6381   11.6853   26.0601 C   0  0  2  0  0  0  0  0  0  0  0  0
    8.1407   12.1198   24.2087 C   0  0  2  0  0  0  0  0  0  0  0  0
    7.3833   10.8265   23.9075 C   0  0  1  0  0  0  0  0  0  0  0  0
   12.9474   14.3871   23.6592 C   0  0  0  0  0  0  0  0  0  0  0  0
   12.8381   14.1616   21.1599 C   0  0  0  0  0  0  0  0  0  0  0  0
   11.1844   15.6245   22.3571 C   0  0  0  0  0  0  0  0  0  0  0  0
   12.0272   14.3526   22.4398 C   0  0  0  0  0  0  0  0  0  0  0  0
    9.5137   12.0908   23.7138 N   0  0  0  0  0  0  0  0  0  0  0  0
    5.7839   13.9429   25.9505 O   0  0  0  0  0  0  0  0  0  0  0  0
   10.3404   14.1091   24.5170 O   0  0  0  0  0  0  0  0  0  0  0  0
    8.1074    9.6591   24.2977 O   0  0  0  0  0  0  0  0  0  0  0  0
    4.7386   12.3879   27.2486 O   0  0  0  0  0  0  0  0  0  0  0  0
   11.1473   13.2299   22.5646 O   0  0  0  0  0  0  0  0  0  0  0  0
    8.1998   13.2495   26.0825 H   0  0  0  0  0  0  0  0  0  0  0  0
    8.7828   11.5844   26.2225 H   0  0  0  0  0  0  0  0  0  0  0  0
    5.7577    9.9555   25.0745 H   0  0  0  0  0  0  0  0  0  0  0  0
    5.3663   11.4983   24.2969 H   0  0  0  0  0  0  0  0  0  0  0  0
   11.0447   10.8675   23.0953 H   0  0  0  0  0  0  0  0  0  0  0  0
    9.5889   10.7355   22.1018 H   0  0  0  0  0  0  0  0  0  0  0  0
    9.7535    8.6840   23.4777 H   0  0  0  0  0  0  0  0  0  0  0  0
   10.0599    9.6460   24.9293 H   0  0  0  0  0  0  0  0  0  0  0  0
    6.6724   11.0196   26.9293 H   0  0  0  0  0  0  0  0  0  0  0  0
    7.5977   12.9560   23.7569 H   0  0  0  0  0  0  0  0  0  0  0  0
    7.0896   10.7374   22.8578 H   0  0  0  0  0  0  0  0  0  0  0  0
   12.3692   14.5241   24.5799 H   0  0  0  0  0  0  0  0  0  0  0  0
   13.5320   13.4658   23.7495 H   0  0  0  0  0  0  0  0  0  0  0  0
   13.6416   15.2332   23.6014 H   0  0  0  0  0  0  0  0  0  0  0  0
   12.1819   14.1363   20.2824 H   0  0  0  0  0  0  0  0  0  0  0  0
   13.3708   13.2039   21.1746 H   0  0  0  0  0  0  0  0  0  0  0  0
   13.5705   14.9636   21.0221 H   0  0  0  0  0  0  0  0  0  0  0  0
   10.5243   15.6001   21.4825 H   0  0  0  0  0  0  0  0  0  0  0  0
   10.5678   15.7586   23.2518 H   0  0  0  0  0  0  0  0  0  0  0  0
   11.8225   16.5077   22.2383 H   0  0  0  0  0  0  0  0  0  0  0  0
    4.8431   11.4411   27.4833 H   0  0  0  0  0  0  0  0  0  0  0  0
  1  7  1  0  0  0  0
  1 15  2  0  0  0  0
  1 18  1  0  0  0  0
  2 14  1  0  0  0  0
  2 16  2  0  0  0  0
  2 19  1  0  0  0  0
  3  7  1  0  0  0  0
  3  8  1  0  0  0  0
  4  7  1  0  0  0  0
  4  9  1  0  0  0  0
  5  6  1  0  0  0  0
  5 14  1  0  0  0  0
  6 17  1  0  0  0  0
  8  9  1  0  0  0  0
  8 14  1  0  0  0  0
  9 17  1  0  0  0  0
 10 13  1  0  0  0  0
 11 13  1  0  0  0  0
 12 13  1  0  0  0  0
 13 19  1  0  0  0  0
  3 20  1  0  0  0  0
  3 21  1  0  0  0  0
  4 22  1  0  0  0  0
  4 23  1  0  0  0  0
  5 24  1  0  0  0  0
  5 25  1  0  0  0  0
  6 26  1  0  0  0  0
  6 27  1  0  0  0  0
  7 28  1  0  0  0  0
  8 29  1  0  0  0  0
  9 30  1  0  0  0  0
 10 31  1  0  0  0  0
 10 32  1  0  0  0  0
 10 33  1  0  0  0  0
 11 34  1  0  0  0  0
 11 35  1  0  0  0  0
 11 36  1  0  0  0  0
 12 37  1  0  0  0  0
 12 38  1  0  0  0  0
 12 39  1  0  0  0  0
 18 40  1  0  0  0  0
M  END
> <id>
EN300-23012877

> <smiles>
CC(C)(C)OC(=O)N1CCOC2CC(CC21)C(=O)O

> <MDLNUMBER>
MFCD32679316

> <IUPAC Name>
4-[(tert-butoxy)carbonyl]-octahydrocyclopenta[b][1,4]oxazine-6-carboxylic acid

> <CAS>
2418694-38-7

> <Purity>
95

> <URL>
https://www.enaminestore.com/catalog/EN300-23012877

> <ROCS_ShapeQuery>
A71EV2A-x0451_0A_A71EV2A-x0310_0A_A71EV2A-x0416_0A_peptide

> <ROCS_TanimotoCombo>
0.518 

> <ROCS_ShapeTanimoto>
0.338 

> <ROCS_ColorTanimoto>
0.179 

> <ROCS_RefTversky>
0.295 

> <ROCS_RefColorTversky>
0.198 

> <ROCS_RefTverskyCombo>
0.493 

> <ROCS_FitTversky>
1.760 

> <ROCS_FitColorTversky>
0.655 

> <ROCS_FitTverskyCombo>
2.415 

> <ROCS_ColorScore>
-6.045

> <ROCS_Overlap>
2048.342

> <ROCS_Rank>
232                 

$$$$
untitled-dbase-151632_105
  -OEChem-11132313473D

 33 34  0     0  0  0  0  0  0999 V2000
    6.8251    9.9903   24.8055 C   0  0  0  0  0  0  0  0  0  0  0  0
    5.9869   10.8661   25.5020 C   0  0  0  0  0  0  0  0  0  0  0  0
    7.5193   12.7152   25.1211 C   0  0  0  0  0  0  0  0  0  0  0  0
    8.0233   10.4858   24.2619 C   0  0  0  0  0  0  0  0  0  0  0  0
    6.3307   12.2070   25.6563 C   0  0  0  0  0  0  0  0  0  0  0  0
    8.3551   11.8301   24.4232 C   0  0  0  0  0  0  0  0  0  0  0  0
    9.0896    9.9430   23.5244 C   0  0  0  0  0  0  0  0  0  0  0  0
    5.4394   13.0958   26.3864 C   0  0  0  0  0  0  0  0  0  0  0  0
   10.3383   13.1598   23.6543 C   0  0  0  0  0  0  0  0  0  0  0  0
   12.1148   15.2411   22.9092 C   0  0  0  0  0  0  0  0  0  0  0  0
   12.1223   14.1689   20.6378 C   0  0  0  0  0  0  0  0  0  0  0  0
    9.9805   15.0757   21.5856 C   0  0  0  0  0  0  0  0  0  0  0  0
   11.3141   14.4051   21.9118 C   0  0  0  0  0  0  0  0  0  0  0  0
   10.0273   10.8408   23.2311 N   0  0  0  0  0  0  0  0  0  0  0  0
    9.5756   11.9960   23.7820 N   0  0  0  0  0  0  0  0  0  0  0  0
    5.3105   14.3066   26.1806 O   0  0  0  0  0  0  0  0  0  0  0  0
   10.3099   14.0314   24.5075 O   0  0  0  0  0  0  0  0  0  0  0  0
    4.7339   12.4460   27.3520 O   0  0  0  0  0  0  0  0  0  0  0  0
   11.0500   13.1270   22.4978 O   0  0  0  0  0  0  0  0  0  0  0  0
    9.2574    7.9695   22.9207 I   0  0  0  0  0  0  0  0  0  0  0  0
    6.5405    8.9478   24.6967 H   0  0  0  0  0  0  0  0  0  0  0  0
    5.0601   10.4837   25.9233 H   0  0  0  0  0  0  0  0  0  0  0  0
    7.7782   13.7613   25.2466 H   0  0  0  0  0  0  0  0  0  0  0  0
   11.5381   15.4129   23.8252 H   0  0  0  0  0  0  0  0  0  0  0  0
   13.0578   14.7543   23.1783 H   0  0  0  0  0  0  0  0  0  0  0  0
   12.3416   16.2309   22.4966 H   0  0  0  0  0  0  0  0  0  0  0  0
   11.5517   13.5695   19.9193 H   0  0  0  0  0  0  0  0  0  0  0  0
   13.0361   13.6038   20.8544 H   0  0  0  0  0  0  0  0  0  0  0  0
   12.4033   15.1115   20.1570 H   0  0  0  0  0  0  0  0  0  0  0  0
    9.4060   14.4762   20.8702 H   0  0  0  0  0  0  0  0  0  0  0  0
    9.3711   15.2197   22.4837 H   0  0  0  0  0  0  0  0  0  0  0  0
   10.1403   16.0516   21.1131 H   0  0  0  0  0  0  0  0  0  0  0  0
    4.1291   13.0367   27.8496 H   0  0  0  0  0  0  0  0  0  0  0  0
  1  2  1  0  0  0  0
  1  4  2  0  0  0  0
  2  5  2  0  0  0  0
  3  5  1  0  0  0  0
  3  6  2  0  0  0  0
  4  6  1  0  0  0  0
  4  7  1  0  0  0  0
  5  8  1  0  0  0  0
  6 15  1  0  0  0  0
  7 14  2  0  0  0  0
  7 20  1  0  0  0  0
  8 16  2  0  0  0  0
  8 18  1  0  0  0  0
  9 15  1  0  0  0  0
  9 17  2  0  0  0  0
  9 19  1  0  0  0  0
 10 13  1  0  0  0  0
 11 13  1  0  0  0  0
 12 13  1  0  0  0  0
 13 19  1  0  0  0  0
 14 15  1  0  0  0  0
  1 21  1  0  0  0  0
  2 22  1  0  0  0  0
  3 23  1  0  0  0  0
 10 24  1  0  0  0  0
 10 25  1  0  0  0  0
 10 26  1  0  0  0  0
 11 27  1  0  0  0  0
 11 28  1  0  0  0  0
 11 29  1  0  0  0  0
 12 30  1  0  0  0  0
 12 31  1  0  0  0  0
 12 32  1  0  0  0  0
 18 33  1  0  0  0  0
M  END
> <id>
EN300-7395395

> <smiles>
CC(C)(C)OC(=O)N1N=C(I)C=2C=CC(=CC12)C(=O)O

> <MDLNUMBER>
MFCD28053692

> <IUPAC Name>
1-[(tert-butoxy)carbonyl]-3-iodo-1H-indazole-6-carboxylic acid

> <CAS>
1799420-87-3

> <URL>
https://www.enaminestore.com/catalog/EN300-7395395

> <ROCS_ShapeQuery>
A71EV2A-x0451_0A_A71EV2A-x0310_0A_A71EV2A-x0416_0A_peptide

> <ROCS_TanimotoCombo>
0.518 

> <ROCS_ShapeTanimoto>
0.363 

> <ROCS_ColorTanimoto>
0.154 

> <ROCS_RefTversky>
0.313 

> <ROCS_RefColorTversky>
0.178 

> <ROCS_RefTverskyCombo>
0.492 

> <ROCS_FitTversky>
1.780 

> <ROCS_FitColorTversky>
0.536 

> <ROCS_FitTverskyCombo>
2.316 

> <ROCS_ColorScore>
-5.447

> <ROCS_Overlap>
2175.338

> <ROCS_Rank>
233                 

$$$$
untitled-dbase-154797_19
  -OEChem-11132313473D

 33 34  0     0  0  0  0  0  0999 V2000
    7.0149   10.2655   25.5869 C   0  0  0  0  0  0  0  0  0  0  0  0
    6.4635   11.4398   26.1073 C   0  0  0  0  0  0  0  0  0  0  0  0
    8.0155   12.8030   24.8306 C   0  0  0  0  0  0  0  0  0  0  0  0
    9.7523   10.0140   23.2289 C   0  0  0  0  0  0  0  0  0  0  0  0
    8.5876   11.6330   24.2928 C   0  0  0  0  0  0  0  0  0  0  0  0
    8.0751   10.3937   24.6825 C   0  0  0  0  0  0  0  0  0  0  0  0
    9.6450   11.3778   23.3754 C   0  0  0  0  0  0  0  0  0  0  0  0
    6.9544   12.6900   25.7363 C   0  0  0  0  0  0  0  0  0  0  0  0
   10.8363   13.5788   23.1586 C   0  0  0  0  0  0  0  0  0  0  0  0
   11.0071   16.4100   22.7914 C   0  0  0  0  0  0  0  0  0  0  0  0
   12.1702   15.8737   20.6306 C   0  0  0  0  0  0  0  0  0  0  0  0
    9.7961   15.1368   20.9894 C   0  0  0  0  0  0  0  0  0  0  0  0
   11.1459   15.3954   21.6573 C   0  0  0  0  0  0  0  0  0  0  0  0
    8.8011    9.4290   24.0210 N   0  0  0  0  0  0  0  0  0  0  0  0
   10.4376   12.3014   22.7323 N   0  0  0  0  0  0  0  0  0  0  0  0
   10.5397   14.1205   24.2165 O   0  0  0  0  0  0  0  0  0  0  0  0
   11.6273   14.1625   22.2051 O   0  0  0  0  0  0  0  0  0  0  0  0
    6.1795   14.2552   26.4638 Br  0  0  0  0  0  0  0  0  0  0  0  0
    6.6320    9.2925   25.8760 H   0  0  0  0  0  0  0  0  0  0  0  0
    5.6385   11.3575   26.8114 H   0  0  0  0  0  0  0  0  0  0  0  0
    8.3990   13.7776   24.5407 H   0  0  0  0  0  0  0  0  0  0  0  0
   10.4182    9.4051   22.6332 H   0  0  0  0  0  0  0  0  0  0  0  0
   10.2727   16.0702   23.5305 H   0  0  0  0  0  0  0  0  0  0  0  0
   11.9613   16.5781   23.3012 H   0  0  0  0  0  0  0  0  0  0  0  0
   10.6427   17.3719   22.4131 H   0  0  0  0  0  0  0  0  0  0  0  0
   12.2730   15.1488   19.8151 H   0  0  0  0  0  0  0  0  0  0  0  0
   13.1629   15.9697   21.0852 H   0  0  0  0  0  0  0  0  0  0  0  0
   11.8904   16.8412   20.2013 H   0  0  0  0  0  0  0  0  0  0  0  0
    9.8954   14.4090   20.1759 H   0  0  0  0  0  0  0  0  0  0  0  0
    9.0585   14.7576   21.7041 H   0  0  0  0  0  0  0  0  0  0  0  0
    9.4030   16.0544   20.5371 H   0  0  0  0  0  0  0  0  0  0  0  0
    8.6529    8.4331   24.1085 H   0  0  0  0  0  0  0  0  0  0  0  0
   10.7894   12.0139   21.8036 H   0  0  0  0  0  0  0  0  0  0  0  0
  1  2  1  0  0  0  0
  1  6  2  0  0  0  0
  2  8  2  0  0  0  0
  3  5  2  0  0  0  0
  3  8  1  0  0  0  0
  4  7  2  0  0  0  0
  4 14  1  0  0  0  0
  5  6  1  0  0  0  0
  5  7  1  0  0  0  0
  6 14  1  0  0  0  0
  7 15  1  0  0  0  0
  8 18  1  0  0  0  0
  9 15  1  0  0  0  0
  9 16  2  0  0  0  0
  9 17  1  0  0  0  0
 10 13  1  0  0  0  0
 11 13  1  0  0  0  0
 12 13  1  0  0  0  0
 13 17  1  0  0  0  0
  1 19  1  0  0  0  0
  2 20  1  0  0  0  0
  3 21  1  0  0  0  0
  4 22  1  0  0  0  0
 10 23  1  0  0  0  0
 10 24  1  0  0  0  0
 10 25  1  0  0  0  0
 11 26  1  0  0  0  0
 11 27  1  0  0  0  0
 11 28  1  0  0  0  0
 12 29  1  0  0  0  0
 12 30  1  0  0  0  0
 12 31  1  0  0  0  0
 14 32  1  0  0  0  0
 15 33  1  0  0  0  0
M  END
> <id>
EN300-28292164

> <smiles>
CC(C)(C)OC(=O)NC1=CNC=2C=CC(Br)=CC12

> <IUPAC Name>
tert-butyl N-(5-bromo-1H-indol-3-yl)carbamate

> <CAS>
2638559-58-5

> <URL>
https://www.enaminestore.com/catalog/EN300-28292164

> <ROCS_ShapeQuery>
A71EV2A-x0451_0A_A71EV2A-x0310_0A_A71EV2A-x0416_0A_peptide

> <ROCS_TanimotoCombo>
0.518 

> <ROCS_ShapeTanimoto>
0.339 

> <ROCS_ColorTanimoto>
0.178 

> <ROCS_RefTversky>
0.294 

> <ROCS_RefColorTversky>
0.192 

> <ROCS_RefTverskyCombo>
0.487 

> <ROCS_FitTversky>
1.814 

> <ROCS_FitColorTversky>
0.710 

> <ROCS_FitTverskyCombo>
2.525 

> <ROCS_ColorScore>
-5.863

> <ROCS_Overlap>
2042.028

> <ROCS_Rank>
234                 

$$$$
untitled-dbase-175051_10
  -OEChem-11132313473D

 25 27  0     0  0  0  0  0  0999 V2000
    6.8804   12.7461   25.9603 C   0  0  0  0  0  0  0  0  0  0  0  0
    6.2892   11.4959   26.1158 C   0  0  0  0  0  0  0  0  0  0  0  0
    7.9842   12.8973   25.1206 C   0  0  0  0  0  0  0  0  0  0  0  0
    6.7996   10.3920   25.4322 C   0  0  0  0  0  0  0  0  0  0  0  0
   10.1322   10.8272   22.8919 C   0  0  0  0  0  0  0  0  0  0  0  0
    9.5410    9.5768   23.0474 C   0  0  0  0  0  0  0  0  0  0  0  0
    8.5113   11.7972   24.4248 C   0  0  0  0  0  0  0  0  0  0  0  0
    7.9101   10.5257   24.5829 C   0  0  0  0  0  0  0  0  0  0  0  0
    9.6217   11.9310   23.5755 C   0  0  0  0  0  0  0  0  0  0  0  0
    8.4372    9.4256   23.8871 C   0  0  0  0  0  0  0  0  0  0  0  0
   10.2877   13.2004   23.3616 C   0  0  0  0  0  0  0  0  0  0  0  0
   11.4094   14.7790   22.3824 C   0  0  0  0  0  0  0  0  0  0  0  0
   10.3900   14.1973   24.2113 N   0  0  0  0  0  0  0  0  0  0  0  0
   11.1038   15.2016   23.5883 N   0  0  0  0  0  0  0  0  0  0  0  0
   10.9153   13.5235   22.1969 N   0  0  0  0  0  0  0  0  0  0  0  0
   12.2865   15.5956   21.1528 S   0  0  0  0  0  0  0  0  0  0  0  0
    7.7258    7.6582   24.0020 Br  0  0  0  0  0  0  0  0  0  0  0  0
    6.4823   13.6040   26.4940 H   0  0  0  0  0  0  0  0  0  0  0  0
    5.4304   11.3795   26.7706 H   0  0  0  0  0  0  0  0  0  0  0  0
    8.4141   13.8923   25.0304 H   0  0  0  0  0  0  0  0  0  0  0  0
    6.2981    9.4421   25.5923 H   0  0  0  0  0  0  0  0  0  0  0  0
   10.9916   10.9247   22.2321 H   0  0  0  0  0  0  0  0  0  0  0  0
    9.9567    8.7324   22.5028 H   0  0  0  0  0  0  0  0  0  0  0  0
   10.9994   12.9553   21.3638 H   0  0  0  0  0  0  0  0  0  0  0  0
   12.2614   14.6563   20.1814 H   0  0  0  0  0  0  0  0  0  0  0  0
  1  2  2  0  0  0  0
  1  3  1  0  0  0  0
  2  4  1  0  0  0  0
  3  7  2  0  0  0  0
  4  8  2  0  0  0  0
  5  6  1  0  0  0  0
  5  9  2  0  0  0  0
  6 10  2  0  0  0  0
  7  8  1  0  0  0  0
  7  9  1  0  0  0  0
  8 10  1  0  0  0  0
  9 11  1  0  0  0  0
 10 17  1  0  0  0  0
 11 13  2  0  0  0  0
 11 15  1  0  0  0  0
 12 14  2  0  0  0  0
 12 15  1  0  0  0  0
 12 16  1  0  0  0  0
 13 14  1  0  0  0  0
  1 18  1  0  0  0  0
  2 19  1  0  0  0  0
  3 20  1  0  0  0  0
  4 21  1  0  0  0  0
  5 22  1  0  0  0  0
  6 23  1  0  0  0  0
 15 24  1  0  0  0  0
 16 25  1  0  0  0  0
M  END
> <id>
EN300-34808557

> <smiles>
SC1=NN=C(N1)C=2C=CC(Br)=C3C=CC=CC23

> <IUPAC Name>
5-(4-bromonaphthalen-1-yl)-4H-1,2,4-triazole-3-thiol

> <Purity>
95

> <URL>
https://www.enaminestore.com/catalog/EN300-34808557

> <ROCS_ShapeQuery>
A71EV2A-x0451_0A_A71EV2A-x0310_0A_A71EV2A-x0416_0A_peptide

> <ROCS_TanimotoCombo>
0.518 

> <ROCS_ShapeTanimoto>
0.343 

> <ROCS_ColorTanimoto>
0.175 

> <ROCS_RefTversky>
0.296 

> <ROCS_RefColorTversky>
0.195 

> <ROCS_RefTverskyCombo>
0.491 

> <ROCS_FitTversky>
1.864 

> <ROCS_FitColorTversky>
0.628 

> <ROCS_FitTverskyCombo>
2.492 

> <ROCS_ColorScore>
-5.953

> <ROCS_Overlap>
2051.271

> <ROCS_Rank>
235                 

$$$$
untitled-dbase-153958_53
  -OEChem-11132313473D

 37 38  0     0  0  0  0  0  0999 V2000
    7.7182   13.0412   24.9371 C   0  0  0  0  0  0  0  0  0  0  0  0
    6.5721   12.8359   25.7168 C   0  0  0  0  0  0  0  0  0  0  0  0
    6.7414   10.4724   25.3542 C   0  0  0  0  0  0  0  0  0  0  0  0
    7.8817   10.6850   24.5642 C   0  0  0  0  0  0  0  0  0  0  0  0
    8.4338   11.9691   24.3789 C   0  0  0  0  0  0  0  0  0  0  0  0
    6.0951   11.5519   25.9414 C   0  0  0  0  0  0  0  0  0  0  0  0
    8.4487    9.5217   23.8557 C   0  0  0  0  0  0  0  0  0  0  0  0
   10.4677   13.3007   23.5863 C   0  0  0  0  0  0  0  0  0  0  0  0
    9.2672    9.8486   22.6467 C   0  0  0  0  0  0  0  0  0  0  0  0
   10.2393   10.9558   22.9823 C   0  0  0  0  0  0  0  0  0  0  0  0
   12.1725   15.5519   23.0850 C   0  0  0  0  0  0  0  0  0  0  0  0
   12.3243   14.6722   20.7372 C   0  0  0  0  0  0  0  0  0  0  0  0
   10.1045   15.4013   21.6584 C   0  0  0  0  0  0  0  0  0  0  0  0
   11.4544   14.7662   21.9888 C   0  0  0  0  0  0  0  0  0  0  0  0
    9.6583   12.1375   23.6302 N   0  0  0  0  0  0  0  0  0  0  0  0
    4.9551   11.3462   26.7600 N   0  3  0  0  0  0  0  0  0  0  0  0
    4.3882   12.3403   27.2749 O   0  5  0  0  0  0  0  0  0  0  0  0
    8.1956    8.3719   24.1936 O   0  0  0  0  0  0  0  0  0  0  0  0
   10.4461   14.1706   24.4593 O   0  0  0  0  0  0  0  0  0  0  0  0
    4.5445   10.1752   26.9473 O   0  0  0  0  0  0  0  0  0  0  0  0
   11.2279   13.4313   22.4583 O   0  0  0  0  0  0  0  0  0  0  0  0
    7.9929   14.0772   24.7509 H   0  0  0  0  0  0  0  0  0  0  0  0
    6.0568   13.7004   26.1310 H   0  0  0  0  0  0  0  0  0  0  0  0
    6.3612    9.4677   25.5193 H   0  0  0  0  0  0  0  0  0  0  0  0
    9.7869    8.9480   22.3168 H   0  0  0  0  0  0  0  0  0  0  0  0
    8.5991   10.1855   21.8524 H   0  0  0  0  0  0  0  0  0  0  0  0
   11.0526   10.5231   23.6024 H   0  0  0  0  0  0  0  0  0  0  0  0
   10.7474   11.3205   22.0610 H   0  0  0  0  0  0  0  0  0  0  0  0
   11.5513   15.6216   23.9851 H   0  0  0  0  0  0  0  0  0  0  0  0
   13.1261   15.0871   23.3557 H   0  0  0  0  0  0  0  0  0  0  0  0
   12.3681   16.5815   22.7639 H   0  0  0  0  0  0  0  0  0  0  0  0
   11.8130   14.1092   19.9480 H   0  0  0  0  0  0  0  0  0  0  0  0
   13.2547   14.1325   20.9481 H   0  0  0  0  0  0  0  0  0  0  0  0
   12.5791   15.6629   20.3469 H   0  0  0  0  0  0  0  0  0  0  0  0
    9.5892   14.8378   20.8721 H   0  0  0  0  0  0  0  0  0  0  0  0
    9.4527   15.4433   22.5371 H   0  0  0  0  0  0  0  0  0  0  0  0
   10.2364   16.4190   21.2737 H   0  0  0  0  0  0  0  0  0  0  0  0
  1  2  1  0  0  0  0
  1  5  2  0  0  0  0
  2  6  2  0  0  0  0
  3  4  2  0  0  0  0
  3  6  1  0  0  0  0
  4  5  1  0  0  0  0
  4  7  1  0  0  0  0
  5 15  1  0  0  0  0
  6 16  1  0  0  0  0
  7  9  1  0  0  0  0
  7 18  2  0  0  0  0
  8 15  1  0  0  0  0
  8 19  2  0  0  0  0
  8 21  1  0  0  0  0
  9 10  1  0  0  0  0
 10 15  1  0  0  0  0
 11 14  1  0  0  0  0
 12 14  1  0  0  0  0
 13 14  1  0  0  0  0
 14 21  1  0  0  0  0
 16 17  1  0  0  0  0
 16 20  2  0  0  0  0
  1 22  1  0  0  0  0
  2 23  1  0  0  0  0
  3 24  1  0  0  0  0
  9 25  1  0  0  0  0
  9 26  1  0  0  0  0
 10 27  1  0  0  0  0
 10 28  1  0  0  0  0
 11 29  1  0  0  0  0
 11 30  1  0  0  0  0
 11 31  1  0  0  0  0
 12 32  1  0  0  0  0
 12 33  1  0  0  0  0
 12 34  1  0  0  0  0
 13 35  1  0  0  0  0
 13 36  1  0  0  0  0
 13 37  1  0  0  0  0
M  CHG  2  16   1  17  -1
M  END
> <id>
EN300-28288639

> <smiles>
CC(C)(C)OC(=O)N1CCC(=O)C=2C=C(C=CC12)[N+](=O)[O-]

> <IUPAC Name>
tert-butyl 6-nitro-4-oxo-1,2,3,4-tetrahydroquinoline-1-carboxylate

> <CAS>
2680874-67-1

> <URL>
https://www.enaminestore.com/catalog/EN300-28288639

> <ROCS_ShapeQuery>
A71EV2A-x0451_0A_A71EV2A-x0310_0A_A71EV2A-x0416_0A_peptide

> <ROCS_TanimotoCombo>
0.517 

> <ROCS_ShapeTanimoto>
0.370 

> <ROCS_ColorTanimoto>
0.148 

> <ROCS_RefTversky>
0.319 

> <ROCS_RefColorTversky>
0.164 

> <ROCS_RefTverskyCombo>
0.483 

> <ROCS_FitTversky>
1.747 

> <ROCS_FitColorTversky>
0.604 

> <ROCS_FitTverskyCombo>
2.351 

> <ROCS_ColorScore>
-4.984

> <ROCS_Overlap>
2216.761

> <ROCS_Rank>
236                 

$$$$
untitled-dbase-87024_856
  -OEChem-11132313473D

 38 39  0     0  0  0  0  0  0999 V2000
    6.8296   13.0205   26.0691 C   0  0  0  0  0  0  0  0  0  0  0  0
    7.8795   13.1804   25.1550 C   0  0  0  0  0  0  0  0  0  0  0  0
    6.8127   10.6610   25.6465 C   0  0  0  0  0  0  0  0  0  0  0  0
    7.8560   10.8287   24.7229 C   0  0  0  0  0  0  0  0  0  0  0  0
    6.3095   11.7603   26.3294 C   0  0  0  0  0  0  0  0  0  0  0  0
    8.4555   12.0839   24.4923 C   0  0  0  0  0  0  0  0  0  0  0  0
    8.2606    9.6533   23.9283 C   0  0  0  0  0  0  0  0  0  0  0  0
    5.2456   11.5944   27.3046 C   0  0  0  0  0  0  0  0  0  0  0  0
   10.4495   13.3182   23.4733 C   0  0  0  0  0  0  0  0  0  0  0  0
    8.9397    9.9636   22.6317 C   0  0  0  0  0  0  0  0  0  0  0  0
   10.0096   11.0056   22.8616 C   0  0  0  0  0  0  0  0  0  0  0  0
   12.2083   15.4816   22.8010 C   0  0  0  0  0  0  0  0  0  0  0  0
   12.0139   14.6535   20.4376 C   0  0  0  0  0  0  0  0  0  0  0  0
    9.9732   15.4832   21.6439 C   0  0  0  0  0  0  0  0  0  0  0  0
   11.3139   14.7651   21.7903 C   0  0  0  0  0  0  0  0  0  0  0  0
    9.5847   12.2016   23.5983 N   0  0  0  0  0  0  0  0  0  0  0  0
    7.9843    8.5115   24.2751 O   0  0  0  0  0  0  0  0  0  0  0  0
    4.1307   12.1236   27.2451 O   0  0  0  0  0  0  0  0  0  0  0  0
   10.5884   14.1659   24.3573 O   0  0  0  0  0  0  0  0  0  0  0  0
    5.6013   10.7708   28.3285 O   0  0  0  0  0  0  0  0  0  0  0  0
   11.0695   13.4338   22.2610 O   0  0  0  0  0  0  0  0  0  0  0  0
    6.4198   13.9006   26.5606 H   0  0  0  0  0  0  0  0  0  0  0  0
    8.1891   14.2037   24.9538 H   0  0  0  0  0  0  0  0  0  0  0  0
    6.3961    9.6768   25.8422 H   0  0  0  0  0  0  0  0  0  0  0  0
    9.3603    9.0438   22.2230 H   0  0  0  0  0  0  0  0  0  0  0  0
    8.1985   10.3567   21.9338 H   0  0  0  0  0  0  0  0  0  0  0  0
   10.8668   10.5126   23.3666 H   0  0  0  0  0  0  0  0  0  0  0  0
   10.4195   11.3638   21.8903 H   0  0  0  0  0  0  0  0  0  0  0  0
   11.7094   15.5638   23.7733 H   0  0  0  0  0  0  0  0  0  0  0  0
   13.1591   14.9573   22.9412 H   0  0  0  0  0  0  0  0  0  0  0  0
   12.4227   16.5062   22.4760 H   0  0  0  0  0  0  0  0  0  0  0  0
   11.3758   14.1400   19.7093 H   0  0  0  0  0  0  0  0  0  0  0  0
   12.9298   14.0572   20.5200 H   0  0  0  0  0  0  0  0  0  0  0  0
   12.2759   15.6376   20.0358 H   0  0  0  0  0  0  0  0  0  0  0  0
    9.3314   14.9694   20.9190 H   0  0  0  0  0  0  0  0  0  0  0  0
    9.4397   15.5400   22.5983 H   0  0  0  0  0  0  0  0  0  0  0  0
   10.1158   16.5011   21.2636 H   0  0  0  0  0  0  0  0  0  0  0  0
    4.8889   10.6517   28.9924 H   0  0  0  0  0  0  0  0  0  0  0  0
  1  2  1  0  0  0  0
  1  5  2  0  0  0  0
  2  6  2  0  0  0  0
  3  4  2  0  0  0  0
  3  5  1  0  0  0  0
  4  6  1  0  0  0  0
  4  7  1  0  0  0  0
  5  8  1  0  0  0  0
  6 16  1  0  0  0  0
  7 10  1  0  0  0  0
  7 17  2  0  0  0  0
  8 18  2  0  0  0  0
  8 20  1  0  0  0  0
  9 16  1  0  0  0  0
  9 19  2  0  0  0  0
  9 21  1  0  0  0  0
 10 11  1  0  0  0  0
 11 16  1  0  0  0  0
 12 15  1  0  0  0  0
 13 15  1  0  0  0  0
 14 15  1  0  0  0  0
 15 21  1  0  0  0  0
  1 22  1  0  0  0  0
  2 23  1  0  0  0  0
  3 24  1  0  0  0  0
 10 25  1  0  0  0  0
 10 26  1  0  0  0  0
 11 27  1  0  0  0  0
 11 28  1  0  0  0  0
 12 29  1  0  0  0  0
 12 30  1  0  0  0  0
 12 31  1  0  0  0  0
 13 32  1  0  0  0  0
 13 33  1  0  0  0  0
 13 34  1  0  0  0  0
 14 35  1  0  0  0  0
 14 36  1  0  0  0  0
 14 37  1  0  0  0  0
 20 38  1  0  0  0  0
M  END
> <id>
EN300-6508971

> <smiles>
CC(C)(C)OC(=O)N1CCC(=O)C=2C=C(C=CC12)C(=O)O

> <IUPAC Name>
1-[(tert-butoxy)carbonyl]-4-oxo-1,2,3,4-tetrahydroquinoline-6-carboxylic acid

> <CAS>
2248288-11-9

> <URL>
https://www.enaminestore.com/catalog/EN300-6508971

> <ROCS_ShapeQuery>
A71EV2A-x0451_0A_A71EV2A-x0310_0A_A71EV2A-x0416_0A_peptide

> <ROCS_TanimotoCombo>
0.517 

> <ROCS_ShapeTanimoto>
0.364 

> <ROCS_ColorTanimoto>
0.153 

> <ROCS_RefTversky>
0.315 

> <ROCS_RefColorTversky>
0.173 

> <ROCS_RefTverskyCombo>
0.488 

> <ROCS_FitTversky>
1.732 

> <ROCS_FitColorTversky>
0.574 

> <ROCS_FitTverskyCombo>
2.306 

> <ROCS_ColorScore>
-5.283

> <ROCS_Overlap>
2189.884

> <ROCS_Rank>
237                 

$$$$
untitled-dbase-81589_193
  -OEChem-11132313473D

 44 46  0     1  0  0  0  0  0999 V2000
    7.1574   12.8894   25.0431 C   0  0  0  0  0  0  0  0  0  0  0  0
    8.3985   12.8676   24.4094 C   0  0  0  0  0  0  0  0  0  0  0  0
    6.5526   11.6828   25.3689 C   0  0  0  0  0  0  0  0  0  0  0  0
   10.1529    9.7797   23.5567 C   0  0  0  0  0  0  0  0  0  0  0  0
    8.9722   11.6159   24.1339 C   0  0  0  0  0  0  0  0  0  0  0  0
   10.1717   11.1575   23.5276 C   0  0  0  0  0  0  0  0  0  0  0  0
    8.2559   10.4851   24.5156 C   0  0  0  0  0  0  0  0  0  0  0  0
   10.7971   14.4813   22.9146 C   0  0  0  0  0  0  0  0  0  0  0  0
   13.3801   12.8437   24.8092 C   0  0  0  0  0  0  0  0  0  0  0  0
   11.9744   13.4308   24.8884 C   0  0  0  0  0  0  0  0  0  0  0  0
   12.7206   11.4454   22.9501 C   0  0  0  0  0  0  0  0  0  0  0  0
   11.2872   12.0252   22.9448 C   0  0  2  0  0  0  0  0  0  0  0  0
   12.2957   15.0734   20.8431 C   0  0  0  0  0  0  0  0  0  0  0  0
   10.6611   13.8595   19.3722 C   0  0  0  0  0  0  0  0  0  0  0  0
   10.0687   16.1151   20.3045 C   0  0  0  0  0  0  0  0  0  0  0  0
   10.8180   14.8080   20.5587 C   0  0  0  0  0  0  0  0  0  0  0  0
    7.0574   10.4504   25.1282 N   0  0  0  0  0  0  0  0  0  0  0  0
    8.9865    9.3828   24.1576 N   0  0  0  0  0  0  0  0  0  0  0  0
   13.3701   11.4843   24.2665 N   0  0  0  0  0  0  0  0  0  0  0  0
   11.3228   13.3640   23.5758 N   0  0  0  0  0  0  0  0  0  0  0  0
   10.8258   15.6271   23.3606 O   0  0  0  0  0  0  0  0  0  0  0  0
   10.2417   14.1670   21.7027 O   0  0  0  0  0  0  0  0  0  0  0  0
    6.6739   13.8319   25.2765 H   0  0  0  0  0  0  0  0  0  0  0  0
    8.8985   13.7928   24.1419 H   0  0  0  0  0  0  0  0  0  0  0  0
    5.5851   11.6806   25.8641 H   0  0  0  0  0  0  0  0  0  0  0  0
   10.8641    9.0454   23.2046 H   0  0  0  0  0  0  0  0  0  0  0  0
   14.0289   13.4909   24.2032 H   0  0  0  0  0  0  0  0  0  0  0  0
   13.8135   12.8180   25.8167 H   0  0  0  0  0  0  0  0  0  0  0  0
   11.3612   12.8568   25.5786 H   0  0  0  0  0  0  0  0  0  0  0  0
   12.0189   14.4559   25.2395 H   0  0  0  0  0  0  0  0  0  0  0  0
   12.7100   10.4090   22.5970 H   0  0  0  0  0  0  0  0  0  0  0  0
   13.3339   12.0141   22.2413 H   0  0  0  0  0  0  0  0  0  0  0  0
   11.0205   12.1892   21.8577 H   0  0  0  0  0  0  0  0  0  0  0  0
   12.4126   15.7538   21.6942 H   0  0  0  0  0  0  0  0  0  0  0  0
   12.8372   14.1472   21.0615 H   0  0  0  0  0  0  0  0  0  0  0  0
   12.7768   15.5622   19.9882 H   0  0  0  0  0  0  0  0  0  0  0  0
    9.6024   13.6662   19.1645 H   0  0  0  0  0  0  0  0  0  0  0  0
   11.1160   12.8860   19.5878 H   0  0  0  0  0  0  0  0  0  0  0  0
   11.1235   14.2653   18.4666 H   0  0  0  0  0  0  0  0  0  0  0  0
    9.0088   15.9250   20.1005 H   0  0  0  0  0  0  0  0  0  0  0  0
   10.1395   16.7937   21.1608 H   0  0  0  0  0  0  0  0  0  0  0  0
   10.4667   16.6269   19.4208 H   0  0  0  0  0  0  0  0  0  0  0  0
    8.7068    8.4241   24.3119 H   0  0  0  0  0  0  0  0  0  0  0  0
   14.3285   11.1482   24.1772 H   0  0  0  0  0  0  0  0  0  0  0  0
  1  2  1  0  0  0  0
  1  3  2  0  0  0  0
  2  5  2  0  0  0  0
  3 17  1  0  0  0  0
  4  6  2  0  0  0  0
  4 18  1  0  0  0  0
  5  6  1  0  0  0  0
  5  7  1  0  0  0  0
  6 12  1  0  0  0  0
  7 17  2  0  0  0  0
  7 18  1  0  0  0  0
  8 20  1  0  0  0  0
  8 21  2  0  0  0  0
  8 22  1  0  0  0  0
  9 10  1  0  0  0  0
  9 19  1  0  0  0  0
 10 20  1  0  0  0  0
 11 12  1  0  0  0  0
 11 19  1  0  0  0  0
 12 20  1  0  0  0  0
 13 16  1  0  0  0  0
 14 16  1  0  0  0  0
 15 16  1  0  0  0  0
 16 22  1  0  0  0  0
  1 23  1  0  0  0  0
  2 24  1  0  0  0  0
  3 25  1  0  0  0  0
  4 26  1  0  0  0  0
  9 27  1  0  0  0  0
  9 28  1  0  0  0  0
 10 29  1  0  0  0  0
 10 30  1  0  0  0  0
 11 31  1  0  0  0  0
 11 32  1  0  0  0  0
 12 33  1  0  0  0  0
 13 34  1  0  0  0  0
 13 35  1  0  0  0  0
 13 36  1  0  0  0  0
 14 37  1  0  0  0  0
 14 38  1  0  0  0  0
 14 39  1  0  0  0  0
 15 40  1  0  0  0  0
 15 41  1  0  0  0  0
 15 42  1  0  0  0  0
 18 43  1  0  0  0  0
 19 44  1  0  0  0  0
M  END
> <id>
EN300-1902490

> <smiles>
CC(C)(C)OC(=O)N1CCNCC1C2=CNC=3N=CC=CC23

> <IUPAC Name>
tert-butyl 2-{1H-pyrrolo[2,3-b]pyridin-3-yl}piperazine-1-carboxylate

> <CAS>
2228616-08-6

> <URL>
https://www.enaminestore.com/catalog/EN300-1902490

> <ROCS_ShapeQuery>
A71EV2A-x0451_0A_A71EV2A-x0310_0A_A71EV2A-x0416_0A_peptide

> <ROCS_TanimotoCombo>
0.517 

> <ROCS_ShapeTanimoto>
0.357 

> <ROCS_ColorTanimoto>
0.160 

> <ROCS_RefTversky>
0.313 

> <ROCS_RefColorTversky>
0.184 

> <ROCS_RefTverskyCombo>
0.497 

> <ROCS_FitTversky>
1.651 

> <ROCS_FitColorTversky>
0.553 

> <ROCS_FitTverskyCombo>
2.204 

> <ROCS_ColorScore>
-5.621

> <ROCS_Overlap>
2173.834

> <ROCS_Rank>
238                 

$$$$
untitled-dbase-39179_158
  -OEChem-11132313473D

 42 43  0     0  0  0  0  0  0999 V2000
    6.8852   12.7896   24.9335 C   0  0  0  0  0  0  0  0  0  0  0  0
    6.1582   11.0814   26.4827 C   0  0  0  0  0  0  0  0  0  0  0  0
    6.1324   12.4038   26.0445 C   0  0  0  0  0  0  0  0  0  0  0  0
    7.6822   11.8589   24.2525 C   0  0  0  0  0  0  0  0  0  0  0  0
    6.9441   10.1432   25.8173 C   0  0  0  0  0  0  0  0  0  0  0  0
    7.7170   10.5360   24.7219 C   0  0  0  0  0  0  0  0  0  0  0  0
    5.3090   13.3824   26.7376 C   0  0  0  0  0  0  0  0  0  0  0  0
   10.7792   13.0532   23.5961 C   0  0  0  0  0  0  0  0  0  0  0  0
    8.4485   12.2788   23.0247 C   0  0  0  0  0  0  0  0  0  0  0  0
   10.3514   10.6740   23.0337 C   0  0  0  0  0  0  0  0  0  0  0  0
    9.8593    9.8068   24.1870 C   0  0  0  0  0  0  0  0  0  0  0  0
    6.9513    8.7294   26.2996 C   0  0  0  0  0  0  0  0  0  0  0  0
   12.5573   15.2383   23.0918 C   0  0  0  0  0  0  0  0  0  0  0  0
   13.9184   13.5863   21.7775 C   0  0  0  0  0  0  0  0  0  0  0  0
   11.5737   14.1281   21.0585 C   0  0  0  0  0  0  0  0  0  0  0  0
   12.5161   13.9638   22.2500 C   0  0  0  0  0  0  0  0  0  0  0  0
    9.8887   12.0549   23.1810 N   0  0  0  0  0  0  0  0  0  0  0  0
    5.2347   14.5650   26.3931 O   0  0  0  0  0  0  0  0  0  0  0  0
   10.4799   13.9824   24.3439 O   0  0  0  0  0  0  0  0  0  0  0  0
    8.4504    9.5605   24.0942 O   0  0  0  0  0  0  0  0  0  0  0  0
   12.0336   12.8923   23.0686 O   0  0  0  0  0  0  0  0  0  0  0  0
    6.8449   13.8215   24.5905 H   0  0  0  0  0  0  0  0  0  0  0  0
    5.5628   10.7802   27.3417 H   0  0  0  0  0  0  0  0  0  0  0  0
    4.7270   13.0300   27.6167 H   0  0  0  0  0  0  0  0  0  0  0  0
    8.0951   11.7114   22.1551 H   0  0  0  0  0  0  0  0  0  0  0  0
    8.2616   13.3338   22.7975 H   0  0  0  0  0  0  0  0  0  0  0  0
   11.4454   10.6528   23.0047 H   0  0  0  0  0  0  0  0  0  0  0  0
    9.9783   10.2989   22.0741 H   0  0  0  0  0  0  0  0  0  0  0  0
   10.3450    8.8269   24.1163 H   0  0  0  0  0  0  0  0  0  0  0  0
   10.1390   10.2214   25.1650 H   0  0  0  0  0  0  0  0  0  0  0  0
    6.1654    8.1532   25.7978 H   0  0  0  0  0  0  0  0  0  0  0  0
    7.9174    8.2487   26.1029 H   0  0  0  0  0  0  0  0  0  0  0  0
    6.7843    8.6796   27.3826 H   0  0  0  0  0  0  0  0  0  0  0  0
   11.5526   15.5127   23.4329 H   0  0  0  0  0  0  0  0  0  0  0  0
   13.2025   15.1219   23.9687 H   0  0  0  0  0  0  0  0  0  0  0  0
   12.9253   16.0852   22.5013 H   0  0  0  0  0  0  0  0  0  0  0  0
   13.8935   12.6723   21.1731 H   0  0  0  0  0  0  0  0  0  0  0  0
   14.5737   13.3747   22.6301 H   0  0  0  0  0  0  0  0  0  0  0  0
   14.3722   14.3842   21.1809 H   0  0  0  0  0  0  0  0  0  0  0  0
   11.5439   13.2140   20.4545 H   0  0  0  0  0  0  0  0  0  0  0  0
   10.5539   14.3630   21.3802 H   0  0  0  0  0  0  0  0  0  0  0  0
   11.9217   14.9268   20.3936 H   0  0  0  0  0  0  0  0  0  0  0  0
  1  3  2  0  0  0  0
  1  4  1  0  0  0  0
  2  3  1  0  0  0  0
  2  5  2  0  0  0  0
  3  7  1  0  0  0  0
  4  6  2  0  0  0  0
  4  9  1  0  0  0  0
  5  6  1  0  0  0  0
  5 12  1  0  0  0  0
  6 20  1  0  0  0  0
  7 18  2  0  0  0  0
  8 17  1  0  0  0  0
  8 19  2  0  0  0  0
  8 21  1  0  0  0  0
  9 17  1  0  0  0  0
 10 11  1  0  0  0  0
 10 17  1  0  0  0  0
 11 20  1  0  0  0  0
 13 16  1  0  0  0  0
 14 16  1  0  0  0  0
 15 16  1  0  0  0  0
 16 21  1  0  0  0  0
  1 22  1  0  0  0  0
  2 23  1  0  0  0  0
  7 24  1  0  0  0  0
  9 25  1  0  0  0  0
  9 26  1  0  0  0  0
 10 27  1  0  0  0  0
 10 28  1  0  0  0  0
 11 29  1  0  0  0  0
 11 30  1  0  0  0  0
 12 31  1  0  0  0  0
 12 32  1  0  0  0  0
 12 33  1  0  0  0  0
 13 34  1  0  0  0  0
 13 35  1  0  0  0  0
 13 36  1  0  0  0  0
 14 37  1  0  0  0  0
 14 38  1  0  0  0  0
 14 39  1  0  0  0  0
 15 40  1  0  0  0  0
 15 41  1  0  0  0  0
 15 42  1  0  0  0  0
M  END
> <id>
EN300-1128966

> <smiles>
CC=1C=C(C=O)C=C2CN(CCOC12)C(=O)OC(C)(C)C

> <MDLNUMBER>
MFCD31597204

> <IUPAC Name>
tert-butyl 7-formyl-9-methyl-2,3,4,5-tetrahydro-1,4-benzoxazepine-4-carboxylate

> <CAS>
2137796-89-3

> <URL>
https://www.enaminestore.com/catalog/EN300-1128966

> <ROCS_ShapeQuery>
A71EV2A-x0451_0A_A71EV2A-x0310_0A_A71EV2A-x0416_0A_peptide

> <ROCS_TanimotoCombo>
0.517 

> <ROCS_ShapeTanimoto>
0.336 

> <ROCS_ColorTanimoto>
0.181 

> <ROCS_RefTversky>
0.297 

> <ROCS_RefColorTversky>
0.190 

> <ROCS_RefTverskyCombo>
0.487 

> <ROCS_FitTversky>
1.643 

> <ROCS_FitColorTversky>
0.794 

> <ROCS_FitTverskyCombo>
2.437 

> <ROCS_ColorScore>
-5.786

> <ROCS_Overlap>
2060.750

> <ROCS_Rank>
239                 

$$$$
untitled-dbase-151539_2
  -OEChem-11132313473D

 27 28  0     0  0  0  0  0  0999 V2000
    6.5954   12.8330   25.8281 C   0  0  0  0  0  0  0  0  0  0  0  0
    7.7619   13.0053   25.0729 C   0  0  0  0  0  0  0  0  0  0  0  0
    6.6047   10.4860   25.3229 C   0  0  0  0  0  0  0  0  0  0  0  0
    6.0166   11.5759   25.9528 C   0  0  0  0  0  0  0  0  0  0  0  0
    8.3826   11.9195   24.4360 C   0  0  0  0  0  0  0  0  0  0  0  0
    7.7806   10.6531   24.5812 C   0  0  0  0  0  0  0  0  0  0  0  0
    4.8090   11.4019   26.7433 C   0  0  0  0  0  0  0  0  0  0  0  0
   10.3086   13.2356   23.5132 C   0  0  0  0  0  0  0  0  0  0  0  0
    9.8970   10.8479   22.8391 C   0  0  0  0  0  0  0  0  0  0  0  0
    9.6456    9.6048   23.6653 C   0  0  0  0  0  0  0  0  0  0  0  0
   10.9991   13.4724   22.1881 C   0  0  0  0  0  0  0  0  0  0  0  0
    9.5560   12.0539   23.6089 N   0  0  0  0  0  0  0  0  0  0  0  0
    4.2121   12.2998   27.3470 O   0  0  0  0  0  0  0  0  0  0  0  0
   10.4653   14.0721   24.4044 O   0  0  0  0  0  0  0  0  0  0  0  0
    8.2669    9.5042   24.0060 O   0  0  0  0  0  0  0  0  0  0  0  0
    4.3774   10.1106   26.7581 O   0  0  0  0  0  0  0  0  0  0  0  0
   10.7408   12.4635   21.3396 F   0  0  0  0  0  0  0  0  0  0  0  0
   10.5681   14.6169   21.6323 F   0  0  0  0  0  0  0  0  0  0  0  0
   12.3291   13.5563   22.3575 F   0  0  0  0  0  0  0  0  0  0  0  0
    6.1569   13.6938   26.3277 H   0  0  0  0  0  0  0  0  0  0  0  0
    8.1672   14.0099   25.0426 H   0  0  0  0  0  0  0  0  0  0  0  0
    6.1486    9.5008   25.3981 H   0  0  0  0  0  0  0  0  0  0  0  0
   10.9552   10.9338   22.5637 H   0  0  0  0  0  0  0  0  0  0  0  0
    9.3053   10.7862   21.9226 H   0  0  0  0  0  0  0  0  0  0  0  0
    9.9698    8.6929   23.1477 H   0  0  0  0  0  0  0  0  0  0  0  0
   10.2097    9.6643   24.6019 H   0  0  0  0  0  0  0  0  0  0  0  0
    3.5621    9.9828   27.2884 H   0  0  0  0  0  0  0  0  0  0  0  0
  1  2  1  0  0  0  0
  1  4  2  0  0  0  0
  2  5  2  0  0  0  0
  3  4  1  0  0  0  0
  3  6  2  0  0  0  0
  4  7  1  0  0  0  0
  5  6  1  0  0  0  0
  5 12  1  0  0  0  0
  6 15  1  0  0  0  0
  7 13  2  0  0  0  0
  7 16  1  0  0  0  0
  8 11  1  0  0  0  0
  8 12  1  0  0  0  0
  8 14  2  0  0  0  0
  9 10  1  0  0  0  0
  9 12  1  0  0  0  0
 10 15  1  0  0  0  0
 11 17  1  0  0  0  0
 11 18  1  0  0  0  0
 11 19  1  0  0  0  0
  1 20  1  0  0  0  0
  2 21  1  0  0  0  0
  3 22  1  0  0  0  0
  9 23  1  0  0  0  0
  9 24  1  0  0  0  0
 10 25  1  0  0  0  0
 10 26  1  0  0  0  0
 16 27  1  0  0  0  0
M  END
> <id>
EN300-28284254

> <smiles>
OC(=O)C=1C=CC=2N(CCOC2C1)C(=O)C(F)(F)F

> <IUPAC Name>
4-(2,2,2-trifluoroacetyl)-3,4-dihydro-2H-1,4-benzoxazine-7-carboxylic acid

> <CAS>
2680738-87-6

> <URL>
https://www.enaminestore.com/catalog/EN300-28284254

> <ROCS_ShapeQuery>
A71EV2A-x0451_0A_A71EV2A-x0310_0A_A71EV2A-x0416_0A_peptide

> <ROCS_TanimotoCombo>
0.517 

> <ROCS_ShapeTanimoto>
0.338 

> <ROCS_ColorTanimoto>
0.179 

> <ROCS_RefTversky>
0.297 

> <ROCS_RefColorTversky>
0.193 

> <ROCS_RefTverskyCombo>
0.489 

> <ROCS_FitTversky>
1.715 

> <ROCS_FitColorTversky>
0.711 

> <ROCS_FitTverskyCombo>
2.426 

> <ROCS_ColorScore>
-5.867

> <ROCS_Overlap>
2058.578

> <ROCS_Rank>
240                 

$$$$
untitled-dbase-180379_16
  -OEChem-11132313473D

 38 39  0     1  0  0  0  0  0999 V2000
   10.9154   13.4888   23.1235 C   0  0  0  0  0  0  0  0  0  0  0  0
    8.6245   11.2579   25.8679 C   0  0  0  0  0  0  0  0  0  0  0  0
    9.9631   11.3292   25.1011 C   0  0  0  0  0  0  0  0  0  0  0  0
    7.1722   10.0060   24.1926 C   0  0  0  0  0  0  0  0  0  0  0  0
    9.2935   10.0724   22.9768 C   0  0  0  0  0  0  0  0  0  0  0  0
    7.5330   11.3803   24.7853 C   0  0  2  0  0  0  0  0  0  0  0  0
    9.5598   11.4585   23.6142 C   0  0  1  0  0  0  0  0  0  0  0  0
    8.2421   12.2153   23.7301 C   0  0  0  0  0  0  0  0  0  0  0  0
   12.1252   16.0732   23.2099 C   0  0  0  0  0  0  0  0  0  0  0  0
   13.0053   15.5337   20.9201 C   0  0  0  0  0  0  0  0  0  0  0  0
   10.5274   15.6659   21.3084 C   0  0  0  0  0  0  0  0  0  0  0  0
   11.8768   15.2923   21.9203 C   0  0  0  0  0  0  0  0  0  0  0  0
    8.3490    9.2574   23.7467 N   0  0  0  0  0  0  0  0  0  0  0  0
   10.5434   12.1854   22.8549 N   0  0  0  0  0  0  0  0  0  0  0  0
   10.4666   14.1870   24.0267 O   0  0  0  0  0  0  0  0  0  0  0  0
   11.8658   13.8940   22.2291 O   0  0  0  0  0  0  0  0  0  0  0  0
    7.5629   12.2870   22.5734 F   0  0  0  0  0  0  0  0  0  0  0  0
    8.4328   13.4777   24.1758 F   0  0  0  0  0  0  0  0  0  0  0  0
    8.5358   10.3413   26.4600 H   0  0  0  0  0  0  0  0  0  0  0  0
    8.5614   12.1038   26.5628 H   0  0  0  0  0  0  0  0  0  0  0  0
   10.5184   12.2125   25.4413 H   0  0  0  0  0  0  0  0  0  0  0  0
   10.5910   10.4526   25.2932 H   0  0  0  0  0  0  0  0  0  0  0  0
    6.6400    9.4080   24.9413 H   0  0  0  0  0  0  0  0  0  0  0  0
    6.4838   10.1325   23.3485 H   0  0  0  0  0  0  0  0  0  0  0  0
    8.9020   10.1955   21.9591 H   0  0  0  0  0  0  0  0  0  0  0  0
   10.2313    9.5111   22.8857 H   0  0  0  0  0  0  0  0  0  0  0  0
    6.6376   11.8753   25.1733 H   0  0  0  0  0  0  0  0  0  0  0  0
   11.3173   15.9026   23.9305 H   0  0  0  0  0  0  0  0  0  0  0  0
   13.0736   15.7890   23.6773 H   0  0  0  0  0  0  0  0  0  0  0  0
   12.1441   17.1518   23.0165 H   0  0  0  0  0  0  0  0  0  0  0  0
   12.8312   14.9753   19.9932 H   0  0  0  0  0  0  0  0  0  0  0  0
   13.9627   15.1792   21.3188 H   0  0  0  0  0  0  0  0  0  0  0  0
   13.1049   16.5953   20.6718 H   0  0  0  0  0  0  0  0  0  0  0  0
   10.3490   15.1060   20.3832 H   0  0  0  0  0  0  0  0  0  0  0  0
    9.7019   15.4647   21.9988 H   0  0  0  0  0  0  0  0  0  0  0  0
   10.5033   16.7275   21.0367 H   0  0  0  0  0  0  0  0  0  0  0  0
    8.8310    8.8873   24.5660 H   0  0  0  0  0  0  0  0  0  0  0  0
   10.9914   11.7111   22.0738 H   0  0  0  0  0  0  0  0  0  0  0  0
  1 14  1  0  0  0  0
  1 15  2  0  0  0  0
  1 16  1  0  0  0  0
  2  3  1  0  0  0  0
  2  6  1  0  0  0  0
  3  7  1  0  0  0  0
  4  6  1  0  0  0  0
  4 13  1  0  0  0  0
  5  7  1  0  0  0  0
  5 13  1  0  0  0  0
  6  8  1  0  0  0  0
  7  8  1  0  0  0  0
  7 14  1  0  0  0  0
  8 17  1  0  0  0  0
  8 18  1  0  0  0  0
  9 12  1  0  0  0  0
 10 12  1  0  0  0  0
 11 12  1  0  0  0  0
 12 16  1  0  0  0  0
  2 19  1  0  0  0  0
  2 20  1  0  0  0  0
  3 21  1  0  0  0  0
  3 22  1  0  0  0  0
  4 23  1  0  0  0  0
  4 24  1  0  0  0  0
  5 25  1  0  0  0  0
  5 26  1  0  0  0  0
  6 27  1  0  0  0  0
  9 28  1  0  0  0  0
  9 29  1  0  0  0  0
  9 30  1  0  0  0  0
 10 31  1  0  0  0  0
 10 32  1  0  0  0  0
 10 33  1  0  0  0  0
 11 34  1  0  0  0  0
 11 35  1  0  0  0  0
 11 36  1  0  0  0  0
 13 37  1  0  0  0  0
 14 38  1  0  0  0  0
M  END
> <id>
EN300-27755319

> <smiles>
CC(C)(C)OC(=O)NC1(CCC2CNC1)C2(F)F

> <IUPAC Name>
tert-butyl N-{8,8-difluoro-3-azabicyclo[3.2.1]octan-1-yl}carbamate

> <URL>
https://www.enaminestore.com/catalog/EN300-27755319

> <ROCS_ShapeQuery>
A71EV2A-x0451_0A_A71EV2A-x0310_0A_A71EV2A-x0416_0A_peptide

> <ROCS_TanimotoCombo>
0.517 

> <ROCS_ShapeTanimoto>
0.315 

> <ROCS_ColorTanimoto>
0.202 

> <ROCS_RefTversky>
0.279 

> <ROCS_RefColorTversky>
0.233 

> <ROCS_RefTverskyCombo>
0.512 

> <ROCS_FitTversky>
1.702 

> <ROCS_FitColorTversky>
0.603 

> <ROCS_FitTverskyCombo>
2.305 

> <ROCS_ColorScore>
-7.154

> <ROCS_Overlap>
1932.251

> <ROCS_Rank>
241                 

$$$$
untitled-dbase-180121_16
  -OEChem-11132313473D

 38 39  0     1  0  0  0  0  0999 V2000
   10.9154   13.4888   23.1235 C   0  0  0  0  0  0  0  0  0  0  0  0
    8.6245   11.2579   25.8679 C   0  0  0  0  0  0  0  0  0  0  0  0
    9.9631   11.3292   25.1011 C   0  0  0  0  0  0  0  0  0  0  0  0
    7.1722   10.0060   24.1926 C   0  0  0  0  0  0  0  0  0  0  0  0
    9.2935   10.0724   22.9768 C   0  0  0  0  0  0  0  0  0  0  0  0
    7.5330   11.3803   24.7853 C   0  0  2  0  0  0  0  0  0  0  0  0
    9.5598   11.4585   23.6142 C   0  0  1  0  0  0  0  0  0  0  0  0
    8.2421   12.2153   23.7301 C   0  0  0  0  0  0  0  0  0  0  0  0
   12.1252   16.0732   23.2099 C   0  0  0  0  0  0  0  0  0  0  0  0
   13.0053   15.5337   20.9201 C   0  0  0  0  0  0  0  0  0  0  0  0
   10.5274   15.6659   21.3084 C   0  0  0  0  0  0  0  0  0  0  0  0
   11.8768   15.2923   21.9203 C   0  0  0  0  0  0  0  0  0  0  0  0
    8.3490    9.2574   23.7467 N   0  0  0  0  0  0  0  0  0  0  0  0
   10.5434   12.1854   22.8549 N   0  0  0  0  0  0  0  0  0  0  0  0
   10.4666   14.1870   24.0267 O   0  0  0  0  0  0  0  0  0  0  0  0
   11.8658   13.8940   22.2291 O   0  0  0  0  0  0  0  0  0  0  0  0
    7.5629   12.2870   22.5734 F   0  0  0  0  0  0  0  0  0  0  0  0
    8.4328   13.4777   24.1758 F   0  0  0  0  0  0  0  0  0  0  0  0
    8.5358   10.3413   26.4600 H   0  0  0  0  0  0  0  0  0  0  0  0
    8.5614   12.1038   26.5628 H   0  0  0  0  0  0  0  0  0  0  0  0
   10.5184   12.2125   25.4413 H   0  0  0  0  0  0  0  0  0  0  0  0
   10.5910   10.4526   25.2932 H   0  0  0  0  0  0  0  0  0  0  0  0
    6.6400    9.4080   24.9413 H   0  0  0  0  0  0  0  0  0  0  0  0
    6.4838   10.1325   23.3485 H   0  0  0  0  0  0  0  0  0  0  0  0
    8.9020   10.1955   21.9591 H   0  0  0  0  0  0  0  0  0  0  0  0
   10.2313    9.5111   22.8857 H   0  0  0  0  0  0  0  0  0  0  0  0
    6.6376   11.8753   25.1733 H   0  0  0  0  0  0  0  0  0  0  0  0
   11.3173   15.9026   23.9305 H   0  0  0  0  0  0  0  0  0  0  0  0
   13.0736   15.7890   23.6773 H   0  0  0  0  0  0  0  0  0  0  0  0
   12.1441   17.1518   23.0165 H   0  0  0  0  0  0  0  0  0  0  0  0
   12.8312   14.9753   19.9932 H   0  0  0  0  0  0  0  0  0  0  0  0
   13.9627   15.1792   21.3188 H   0  0  0  0  0  0  0  0  0  0  0  0
   13.1049   16.5953   20.6718 H   0  0  0  0  0  0  0  0  0  0  0  0
   10.3490   15.1060   20.3832 H   0  0  0  0  0  0  0  0  0  0  0  0
    9.7019   15.4647   21.9988 H   0  0  0  0  0  0  0  0  0  0  0  0
   10.5033   16.7275   21.0367 H   0  0  0  0  0  0  0  0  0  0  0  0
    8.8310    8.8873   24.5660 H   0  0  0  0  0  0  0  0  0  0  0  0
   10.9914   11.7111   22.0738 H   0  0  0  0  0  0  0  0  0  0  0  0
  1 14  1  0  0  0  0
  1 15  2  0  0  0  0
  1 16  1  0  0  0  0
  2  3  1  0  0  0  0
  2  6  1  0  0  0  0
  3  7  1  0  0  0  0
  4  6  1  0  0  0  0
  4 13  1  0  0  0  0
  5  7  1  0  0  0  0
  5 13  1  0  0  0  0
  6  8  1  0  0  0  0
  7  8  1  0  0  0  0
  7 14  1  0  0  0  0
  8 17  1  0  0  0  0
  8 18  1  0  0  0  0
  9 12  1  0  0  0  0
 10 12  1  0  0  0  0
 11 12  1  0  0  0  0
 12 16  1  0  0  0  0
  2 19  1  0  0  0  0
  2 20  1  0  0  0  0
  3 21  1  0  0  0  0
  3 22  1  0  0  0  0
  4 23  1  0  0  0  0
  4 24  1  0  0  0  0
  5 25  1  0  0  0  0
  5 26  1  0  0  0  0
  6 27  1  0  0  0  0
  9 28  1  0  0  0  0
  9 29  1  0  0  0  0
  9 30  1  0  0  0  0
 10 31  1  0  0  0  0
 10 32  1  0  0  0  0
 10 33  1  0  0  0  0
 11 34  1  0  0  0  0
 11 35  1  0  0  0  0
 11 36  1  0  0  0  0
 13 37  1  0  0  0  0
 14 38  1  0  0  0  0
M  END
> <id>
EN300-45185834

> <smiles>
Cl.CC(C)(C)OC(=O)NC1(CCC2CNC1)C2(F)F

> <IUPAC Name>
tert-butyl N-{8,8-difluoro-3-azabicyclo[3.2.1]octan-1-yl}carbamate hydrochloride

> <Purity>
95

> <URL>
https://www.enaminestore.com/catalog/EN300-45185834

> <Saltdate>
Cl

> <ROCS_ShapeQuery>
A71EV2A-x0451_0A_A71EV2A-x0310_0A_A71EV2A-x0416_0A_peptide

> <ROCS_TanimotoCombo>
0.517 

> <ROCS_ShapeTanimoto>
0.315 

> <ROCS_ColorTanimoto>
0.202 

> <ROCS_RefTversky>
0.279 

> <ROCS_RefColorTversky>
0.233 

> <ROCS_RefTverskyCombo>
0.512 

> <ROCS_FitTversky>
1.702 

> <ROCS_FitColorTversky>
0.603 

> <ROCS_FitTverskyCombo>
2.305 

> <ROCS_ColorScore>
-7.154

> <ROCS_Overlap>
1932.251

> <ROCS_Rank>
242                 

$$$$
untitled-dbase-148514_29
  -OEChem-11132313473D

 43 45  0     1  0  0  0  0  0999 V2000
    6.1364   11.7697   26.3497 C   0  0  0  0  0  0  0  0  0  0  0  0
    6.7597   13.0212   26.3043 C   0  0  0  0  0  0  0  0  0  0  0  0
    6.6511   10.6986   25.6186 C   0  0  0  0  0  0  0  0  0  0  0  0
    7.9040   13.2199   25.5286 C   0  0  0  0  0  0  0  0  0  0  0  0
    7.7920   10.8806   24.8405 C   0  0  0  0  0  0  0  0  0  0  0  0
    8.4119   12.1480   24.8054 C   0  0  0  0  0  0  0  0  0  0  0  0
   11.1681   10.1418   23.6409 C   0  0  0  0  0  0  0  0  0  0  0  0
   10.3349   13.2263   23.6091 C   0  0  0  0  0  0  0  0  0  0  0  0
    8.0939    9.5753   22.5069 C   0  0  0  0  0  0  0  0  0  0  0  0
    9.1514   10.5407   21.9536 C   0  0  0  0  0  0  0  0  0  0  0  0
    8.5543    9.8589   23.9458 C   0  0  1  0  0  0  0  0  0  0  0  0
    9.7580   10.7105   23.3679 C   0  0  1  0  0  0  0  0  0  0  0  0
   12.8457   14.3326   22.7857 C   0  0  0  0  0  0  0  0  0  0  0  0
   12.0530   13.9095   20.4401 C   0  0  0  0  0  0  0  0  0  0  0  0
   10.7921   15.5010   21.9185 C   0  0  0  0  0  0  0  0  0  0  0  0
   13.4639   10.6977   23.5755 C   0  0  0  0  0  0  0  0  0  0  0  0
   11.6255   14.2211   21.8727 C   0  0  0  0  0  0  0  0  0  0  0  0
    9.5500   12.1208   23.9393 N   0  0  0  0  0  0  0  0  0  0  0  0
   11.3828    9.0067   24.0442 O   0  0  0  0  0  0  0  0  0  0  0  0
   10.5785   14.1834   24.3381 O   0  0  0  0  0  0  0  0  0  0  0  0
   12.1048   11.0932   23.3643 O   0  0  0  0  0  0  0  0  0  0  0  0
   10.8141   13.1320   22.3275 O   0  0  0  0  0  0  0  0  0  0  0  0
    5.2468   11.6317   26.9577 H   0  0  0  0  0  0  0  0  0  0  0  0
    6.3482   13.8471   26.8785 H   0  0  0  0  0  0  0  0  0  0  0  0
    6.1636    9.7292   25.6567 H   0  0  0  0  0  0  0  0  0  0  0  0
    8.3583   14.2027   25.5190 H   0  0  0  0  0  0  0  0  0  0  0  0
    7.0595    9.8533   22.2819 H   0  0  0  0  0  0  0  0  0  0  0  0
    8.2469    8.5355   22.1975 H   0  0  0  0  0  0  0  0  0  0  0  0
    9.8205   10.0912   21.2126 H   0  0  0  0  0  0  0  0  0  0  0  0
    8.7305   11.4544   21.5187 H   0  0  0  0  0  0  0  0  0  0  0  0
    8.8600    8.9537   24.4850 H   0  0  0  0  0  0  0  0  0  0  0  0
   12.5431   14.5563   23.8150 H   0  0  0  0  0  0  0  0  0  0  0  0
   13.4329   13.4086   22.7889 H   0  0  0  0  0  0  0  0  0  0  0  0
   13.4969   15.1554   22.4693 H   0  0  0  0  0  0  0  0  0  0  0  0
   11.1806   13.8286   19.7816 H   0  0  0  0  0  0  0  0  0  0  0  0
   12.5695   12.9443   20.3881 H   0  0  0  0  0  0  0  0  0  0  0  0
   12.7189   14.6811   20.0403 H   0  0  0  0  0  0  0  0  0  0  0  0
    9.9168   15.4213   21.2637 H   0  0  0  0  0  0  0  0  0  0  0  0
   10.4454   15.7205   22.9335 H   0  0  0  0  0  0  0  0  0  0  0  0
   11.3725   16.3571   21.5559 H   0  0  0  0  0  0  0  0  0  0  0  0
   14.1288   11.5281   23.3256 H   0  0  0  0  0  0  0  0  0  0  0  0
   13.6938    9.8318   22.9495 H   0  0  0  0  0  0  0  0  0  0  0  0
   13.5972   10.4306   24.6265 H   0  0  0  0  0  0  0  0  0  0  0  0
  1  2  2  0  0  0  0
  1  3  1  0  0  0  0
  2  4  1  0  0  0  0
  3  5  2  0  0  0  0
  4  6  2  0  0  0  0
  5  6  1  0  0  0  0
  5 11  1  0  0  0  0
  6 18  1  0  0  0  0
  7 12  1  0  0  0  0
  7 19  2  0  0  0  0
  7 21  1  0  0  0  0
  8 18  1  0  0  0  0
  8 20  2  0  0  0  0
  8 22  1  0  0  0  0
  9 10  1  0  0  0  0
  9 11  1  0  0  0  0
 10 12  1  0  0  0  0
 11 12  1  0  0  0  0
 12 18  1  0  0  0  0
 13 17  1  0  0  0  0
 14 17  1  0  0  0  0
 15 17  1  0  0  0  0
 16 21  1  0  0  0  0
 17 22  1  0  0  0  0
  1 23  1  0  0  0  0
  2 24  1  0  0  0  0
  3 25  1  0  0  0  0
  4 26  1  0  0  0  0
  9 27  1  0  0  0  0
  9 28  1  0  0  0  0
 10 29  1  0  0  0  0
 10 30  1  0  0  0  0
 11 31  1  0  0  0  0
 13 32  1  0  0  0  0
 13 33  1  0  0  0  0
 13 34  1  0  0  0  0
 14 35  1  0  0  0  0
 14 36  1  0  0  0  0
 14 37  1  0  0  0  0
 15 38  1  0  0  0  0
 15 39  1  0  0  0  0
 15 40  1  0  0  0  0
 16 41  1  0  0  0  0
 16 42  1  0  0  0  0
 16 43  1  0  0  0  0
M  END
> <id>
EN300-27718100

> <smiles>
COC(=O)C12CCC2C=3C=CC=CC3N1C(=O)OC(C)(C)C

> <MDLNUMBER>
MFCD33549853

> <IUPAC Name>
3-tert-butyl 2a-methyl 1H,2H,2aH,3H,7bH-cyclobuta[b]indole-2a,3-dicarboxylate

> <CAS>
2639454-19-4

> <Purity>
95

> <URL>
https://www.enaminestore.com/catalog/EN300-27718100

> <ROCS_ShapeQuery>
A71EV2A-x0451_0A_A71EV2A-x0310_0A_A71EV2A-x0416_0A_peptide

> <ROCS_TanimotoCombo>
0.517 

> <ROCS_ShapeTanimoto>
0.360 

> <ROCS_ColorTanimoto>
0.157 

> <ROCS_RefTversky>
0.314 

> <ROCS_RefColorTversky>
0.182 

> <ROCS_RefTverskyCombo>
0.497 

> <ROCS_FitTversky>
1.664 

> <ROCS_FitColorTversky>
0.535 

> <ROCS_FitTverskyCombo>
2.199 

> <ROCS_ColorScore>
-5.577

> <ROCS_Overlap>
2184.326

> <ROCS_Rank>
243                 

$$$$
untitled-dbase-86294_220
  -OEChem-11132313473D

 40 41  0     1  0  0  0  0  0999 V2000
    6.2509   11.6390   26.3060 C   0  0  0  0  0  0  0  0  0  0  0  0
    6.7840   10.5392   25.6473 C   0  0  0  0  0  0  0  0  0  0  0  0
    7.8404   13.0696   25.1653 C   0  0  0  0  0  0  0  0  0  0  0  0
    6.7683   12.9035   26.0525 C   0  0  0  0  0  0  0  0  0  0  0  0
    8.4287   11.9725   24.5198 C   0  0  0  0  0  0  0  0  0  0  0  0
    7.8390   10.7107   24.7434 C   0  0  0  0  0  0  0  0  0  0  0  0
    9.2457    8.5466   22.2944 C   0  0  0  0  0  0  0  0  0  0  0  0
   10.4397   13.1606   23.4719 C   0  0  0  0  0  0  0  0  0  0  0  0
    9.9458   10.8259   22.9518 C   0  0  0  0  0  0  0  0  0  0  0  0
    8.7854    9.8649   22.8249 C   0  0  2  0  0  0  0  0  0  0  0  0
   12.2392   15.2619   22.7192 C   0  0  0  0  0  0  0  0  0  0  0  0
   12.0146   14.3586   20.3862 C   0  0  0  0  0  0  0  0  0  0  0  0
    9.9983   15.2714   21.5733 C   0  0  0  0  0  0  0  0  0  0  0  0
    6.1852   14.0931   26.7410 C   0  0  0  0  0  0  0  0  0  0  0  0
   11.3246   14.5306   21.7376 C   0  0  0  0  0  0  0  0  0  0  0  0
    9.5692   12.0622   23.6449 N   0  0  0  0  0  0  0  0  0  0  0  0
   10.3865    8.2936   21.9368 O   0  0  0  0  0  0  0  0  0  0  0  0
   10.5993   14.0332   24.3276 O   0  0  0  0  0  0  0  0  0  0  0  0
    8.2551    9.5641   24.1086 O   0  0  0  0  0  0  0  0  0  0  0  0
    8.2205    7.6605   22.2591 O   0  0  0  0  0  0  0  0  0  0  0  0
   11.0549   13.2216   22.2543 O   0  0  0  0  0  0  0  0  0  0  0  0
    5.1566   13.7861   27.5849 F   0  0  0  0  0  0  0  0  0  0  0  0
    7.0856   14.7746   27.5085 F   0  0  0  0  0  0  0  0  0  0  0  0
    5.6807   15.0098   25.8654 F   0  0  0  0  0  0  0  0  0  0  0  0
    5.4387   11.5023   27.0139 H   0  0  0  0  0  0  0  0  0  0  0  0
    6.3717    9.5518   25.8322 H   0  0  0  0  0  0  0  0  0  0  0  0
    8.2007   14.0827   25.0288 H   0  0  0  0  0  0  0  0  0  0  0  0
   10.7764   10.3837   23.5315 H   0  0  0  0  0  0  0  0  0  0  0  0
   10.3489   11.0457   21.9487 H   0  0  0  0  0  0  0  0  0  0  0  0
    7.9959   10.2440   22.1677 H   0  0  0  0  0  0  0  0  0  0  0  0
   11.7475   15.3873   23.6905 H   0  0  0  0  0  0  0  0  0  0  0  0
   13.1796   14.7226   22.8726 H   0  0  0  0  0  0  0  0  0  0  0  0
   12.4732   16.2701   22.3587 H   0  0  0  0  0  0  0  0  0  0  0  0
   11.3620   13.8344   19.6788 H   0  0  0  0  0  0  0  0  0  0  0  0
   12.9183   13.7463   20.4845 H   0  0  0  0  0  0  0  0  0  0  0  0
   12.2950   15.3229   19.9501 H   0  0  0  0  0  0  0  0  0  0  0  0
    9.3421   14.7471   20.8693 H   0  0  0  0  0  0  0  0  0  0  0  0
    9.4714   15.3717   22.5278 H   0  0  0  0  0  0  0  0  0  0  0  0
   10.1601   16.2728   21.1580 H   0  0  0  0  0  0  0  0  0  0  0  0
    7.3844    8.0543   22.5879 H   0  0  0  0  0  0  0  0  0  0  0  0
  1  2  1  0  0  0  0
  1  4  2  0  0  0  0
  2  6  2  0  0  0  0
  3  4  1  0  0  0  0
  3  5  2  0  0  0  0
  4 14  1  0  0  0  0
  5  6  1  0  0  0  0
  5 16  1  0  0  0  0
  6 19  1  0  0  0  0
  7 10  1  0  0  0  0
  7 17  2  0  0  0  0
  7 20  1  0  0  0  0
  8 16  1  0  0  0  0
  8 18  2  0  0  0  0
  8 21  1  0  0  0  0
  9 10  1  0  0  0  0
  9 16  1  0  0  0  0
 10 19  1  0  0  0  0
 11 15  1  0  0  0  0
 12 15  1  0  0  0  0
 13 15  1  0  0  0  0
 14 22  1  0  0  0  0
 14 23  1  0  0  0  0
 14 24  1  0  0  0  0
 15 21  1  0  0  0  0
  1 25  1  0  0  0  0
  2 26  1  0  0  0  0
  3 27  1  0  0  0  0
  9 28  1  0  0  0  0
  9 29  1  0  0  0  0
 10 30  1  0  0  0  0
 11 31  1  0  0  0  0
 11 32  1  0  0  0  0
 11 33  1  0  0  0  0
 12 34  1  0  0  0  0
 12 35  1  0  0  0  0
 12 36  1  0  0  0  0
 13 37  1  0  0  0  0
 13 38  1  0  0  0  0
 13 39  1  0  0  0  0
 20 40  1  0  0  0  0
M  END
> <id>
EN300-37419358

> <smiles>
CC(C)(C)OC(=O)N1CC(OC=2C=CC(=CC12)C(F)(F)F)C(=O)O

> <IUPAC Name>
4-[(tert-butoxy)carbonyl]-6-(trifluoromethyl)-3,4-dihydro-2H-1,4-benzoxazine-2-carboxylic acid

> <URL>
https://www.enaminestore.com/catalog/EN300-37419358

> <ROCS_ShapeQuery>
A71EV2A-x0451_0A_A71EV2A-x0310_0A_A71EV2A-x0416_0A_peptide

> <ROCS_TanimotoCombo>
0.517 

> <ROCS_ShapeTanimoto>
0.371 

> <ROCS_ColorTanimoto>
0.146 

> <ROCS_RefTversky>
0.325 

> <ROCS_RefColorTversky>
0.166 

> <ROCS_RefTverskyCombo>
0.491 

> <ROCS_FitTversky>
1.607 

> <ROCS_FitColorTversky>
0.550 

> <ROCS_FitTverskyCombo>
2.157 

> <ROCS_ColorScore>
-5.060

> <ROCS_Overlap>
2261.247

> <ROCS_Rank>
244                 

$$$$
untitled-dbase-156819_4
  -OEChem-11132313473D

 32 35  0     0  0  0  0  0  0999 V2000
   12.2538   15.1725   19.5462 C   0  0  0  0  0  0  0  0  0  0  0  0
   11.5006   13.9969   19.6127 C   0  0  0  0  0  0  0  0  0  0  0  0
   12.5008   15.9415   20.7017 C   0  0  0  0  0  0  0  0  0  0  0  0
   11.0154   13.6304   20.8511 C   0  0  0  0  0  0  0  0  0  0  0  0
   11.2580   14.3872   21.9881 C   0  0  0  0  0  0  0  0  0  0  0  0
   11.9990   15.5503   21.9463 C   0  0  0  0  0  0  0  0  0  0  0  0
   10.2095   12.4739   21.2402 C   0  0  0  0  0  0  0  0  0  0  0  0
   10.6106   13.7253   23.1205 C   0  0  0  0  0  0  0  0  0  0  0  0
    7.9165    9.7332   24.8406 C   0  0  0  0  0  0  0  0  0  0  0  0
    9.8280   10.1973   23.3567 C   0  0  0  0  0  0  0  0  0  0  0  0
    7.6997   11.7469   23.1449 C   0  0  0  0  0  0  0  0  0  0  0  0
    8.8946   12.1868   24.8216 C   0  0  0  0  0  0  0  0  0  0  0  0
    7.6228   11.2789   24.6443 C   0  0  0  0  0  0  0  0  0  0  0  0
    9.2323   11.6425   23.4020 C   0  0  0  0  0  0  0  0  0  0  0  0
    9.0564    9.3246   24.1341 N   0  0  0  0  0  0  0  0  0  0  0  0
   10.0070   12.6010   22.5986 N   0  0  0  0  0  0  0  0  0  0  0  0
   12.2517   16.3242   23.0894 N   0  0  0  0  0  0  0  0  0  0  0  0
    9.8299   11.6126   20.4688 O   0  0  0  0  0  0  0  0  0  0  0  0
   10.6352   14.1323   24.2672 O   0  0  0  0  0  0  0  0  0  0  0  0
    7.2464    8.9568   25.5229 O   0  0  0  0  0  0  0  0  0  0  0  0
   10.8286    9.8297   22.7413 O   0  0  0  0  0  0  0  0  0  0  0  0
   12.6561   15.5003   18.5911 H   0  0  0  0  0  0  0  0  0  0  0  0
   11.3113   13.4058   18.7244 H   0  0  0  0  0  0  0  0  0  0  0  0
   13.0915   16.8504   20.6095 H   0  0  0  0  0  0  0  0  0  0  0  0
    7.2831   11.0536   22.4087 H   0  0  0  0  0  0  0  0  0  0  0  0
    7.3058   12.7519   22.9519 H   0  0  0  0  0  0  0  0  0  0  0  0
    8.6907   13.2617   24.8951 H   0  0  0  0  0  0  0  0  0  0  0  0
    9.5759   11.8975   25.6269 H   0  0  0  0  0  0  0  0  0  0  0  0
    6.7362   11.6199   25.1864 H   0  0  0  0  0  0  0  0  0  0  0  0
    9.3365    8.3501   24.1899 H   0  0  0  0  0  0  0  0  0  0  0  0
   12.8355   17.1371   23.0176 H   0  0  0  0  0  0  0  0  0  0  0  0
   11.9255   16.0068   23.9837 H   0  0  0  0  0  0  0  0  0  0  0  0
  1  2  1  0  0  0  0
  1  3  2  0  0  0  0
  2  4  2  0  0  0  0
  3  6  1  0  0  0  0
  4  5  1  0  0  0  0
  4  7  1  0  0  0  0
  5  6  2  0  0  0  0
  5  8  1  0  0  0  0
  6 17  1  0  0  0  0
  7 16  1  0  0  0  0
  7 18  2  0  0  0  0
  8 16  1  0  0  0  0
  8 19  2  0  0  0  0
  9 13  1  0  0  0  0
  9 15  1  0  0  0  0
  9 20  2  0  0  0  0
 10 14  1  0  0  0  0
 10 15  1  0  0  0  0
 10 21  2  0  0  0  0
 11 13  1  0  0  0  0
 11 14  1  0  0  0  0
 12 13  1  0  0  0  0
 12 14  1  0  0  0  0
 14 16  1  0  0  0  0
  1 22  1  0  0  0  0
  2 23  1  0  0  0  0
  3 24  1  0  0  0  0
 11 25  1  0  0  0  0
 11 26  1  0  0  0  0
 12 27  1  0  0  0  0
 12 28  1  0  0  0  0
 13 29  1  0  0  0  0
 15 30  1  0  0  0  0
 17 31  1  0  0  0  0
 17 32  1  0  0  0  0
M  END
> <id>
EN300-27752570

> <smiles>
NC=1C=CC=C2C(=O)N(C(=O)C21)C3(CC4C3)C(=O)NC4=O

> <MDLNUMBER>
MFCD34183695

> <IUPAC Name>
4-amino-2-{2,4-dioxo-3-azabicyclo[3.1.1]heptan-1-yl}-2,3-dihydro-1H-isoindole-1,3-dione

> <CAS>
2680530-66-7

> <Purity>
95

> <URL>
https://www.enaminestore.com/catalog/EN300-27752570

> <ROCS_ShapeQuery>
A71EV2A-x0451_0A_A71EV2A-x0310_0A_A71EV2A-x0416_0A_peptide

> <ROCS_TanimotoCombo>
0.517 

> <ROCS_ShapeTanimoto>
0.322 

> <ROCS_ColorTanimoto>
0.195 

> <ROCS_RefTversky>
0.289 

> <ROCS_RefColorTversky>
0.247 

> <ROCS_RefTverskyCombo>
0.536 

> <ROCS_FitTversky>
1.533 

> <ROCS_FitColorTversky>
0.480 

> <ROCS_FitTverskyCombo>
2.014 

> <ROCS_ColorScore>
-7.621

> <ROCS_Overlap>
2010.800

> <ROCS_Rank>
245                 

$$$$
untitled-dbase-173718_1
  -OEChem-11132313473D

 30 31  0     0  0  0  0  0  0999 V2000
    6.1925   11.4739   26.2384 C   0  0  0  0  0  0  0  0  0  0  0  0
    6.7886   10.4168   25.5603 C   0  0  0  0  0  0  0  0  0  0  0  0
    6.6500   12.7694   26.0278 C   0  0  0  0  0  0  0  0  0  0  0  0
    7.7126   13.0103   25.1498 C   0  0  0  0  0  0  0  0  0  0  0  0
    8.3547   11.9577   24.4839 C   0  0  0  0  0  0  0  0  0  0  0  0
    7.8586   10.6543   24.6891 C   0  0  0  0  0  0  0  0  0  0  0  0
    6.0139   13.8481   26.7751 C   0  0  0  0  0  0  0  0  0  0  0  0
   10.2403   13.2709   23.3895 C   0  0  0  0  0  0  0  0  0  0  0  0
    9.5968   11.0330   22.6164 C   0  0  0  0  0  0  0  0  0  0  0  0
    9.5958    9.7376   23.4007 C   0  0  0  0  0  0  0  0  0  0  0  0
    8.2154   14.4233   25.1198 C   0  0  0  0  0  0  0  0  0  0  0  0
   10.6635   13.6778   21.9993 C   0  0  0  0  0  0  0  0  0  0  0  0
    9.4182   12.1530   23.5441 N   0  0  0  0  0  0  0  0  0  0  0  0
    5.0317   14.4915   26.3996 O   0  0  0  0  0  0  0  0  0  0  0  0
   10.5790   13.9943   24.3338 O   0  0  0  0  0  0  0  0  0  0  0  0
    8.3433    9.5364   24.0528 O   0  0  0  0  0  0  0  0  0  0  0  0
    6.6278   14.0825   27.9654 O   0  0  0  0  0  0  0  0  0  0  0  0
   10.1427   12.8397   21.0877 F   0  0  0  0  0  0  0  0  0  0  0  0
   10.2388   14.9224   21.7246 F   0  0  0  0  0  0  0  0  0  0  0  0
   12.0020   13.6508   21.8865 F   0  0  0  0  0  0  0  0  0  0  0  0
    5.3806   11.2735   26.9328 H   0  0  0  0  0  0  0  0  0  0  0  0
    6.4124    9.4075   25.7071 H   0  0  0  0  0  0  0  0  0  0  0  0
   10.5531   11.1840   22.1123 H   0  0  0  0  0  0  0  0  0  0  0  0
    8.8009   10.9983   21.8755 H   0  0  0  0  0  0  0  0  0  0  0  0
    9.8280    8.8707   22.7657 H   0  0  0  0  0  0  0  0  0  0  0  0
   10.3655    9.7779   24.1811 H   0  0  0  0  0  0  0  0  0  0  0  0
    9.0095   14.5531   25.8609 H   0  0  0  0  0  0  0  0  0  0  0  0
    8.6088   14.6760   24.1301 H   0  0  0  0  0  0  0  0  0  0  0  0
    7.4074   15.1290   25.3379 H   0  0  0  0  0  0  0  0  0  0  0  0
    6.2068   14.8062   28.4767 H   0  0  0  0  0  0  0  0  0  0  0  0
  1  2  2  0  0  0  0
  1  3  1  0  0  0  0
  2  6  1  0  0  0  0
  3  4  2  0  0  0  0
  3  7  1  0  0  0  0
  4  5  1  0  0  0  0
  4 11  1  0  0  0  0
  5  6  2  0  0  0  0
  5 13  1  0  0  0  0
  6 16  1  0  0  0  0
  7 14  2  0  0  0  0
  7 17  1  0  0  0  0
  8 12  1  0  0  0  0
  8 13  1  0  0  0  0
  8 15  2  0  0  0  0
  9 10  1  0  0  0  0
  9 13  1  0  0  0  0
 10 16  1  0  0  0  0
 12 18  1  0  0  0  0
 12 19  1  0  0  0  0
 12 20  1  0  0  0  0
  1 21  1  0  0  0  0
  2 22  1  0  0  0  0
  9 23  1  0  0  0  0
  9 24  1  0  0  0  0
 10 25  1  0  0  0  0
 10 26  1  0  0  0  0
 11 27  1  0  0  0  0
 11 28  1  0  0  0  0
 11 29  1  0  0  0  0
 17 30  1  0  0  0  0
M  END
> <id>
EN300-43353106

> <smiles>
CC=1C(=CC=C2OCCN(C(=O)C(F)(F)F)C12)C(=O)O

> <IUPAC Name>
5-methyl-4-(2,2,2-trifluoroacetyl)-3,4-dihydro-2H-1,4-benzoxazine-6-carboxylic acid

> <URL>
https://www.enaminestore.com/catalog/EN300-43353106

> <ROCS_ShapeQuery>
A71EV2A-x0451_0A_A71EV2A-x0310_0A_A71EV2A-x0416_0A_peptide

> <ROCS_TanimotoCombo>
0.517 

> <ROCS_ShapeTanimoto>
0.331 

> <ROCS_ColorTanimoto>
0.185 

> <ROCS_RefTversky>
0.294 

> <ROCS_RefColorTversky>
0.199 

> <ROCS_RefTverskyCombo>
0.492 

> <ROCS_FitTversky>
1.635 

> <ROCS_FitColorTversky>
0.734 

> <ROCS_FitTverskyCombo>
2.369 

> <ROCS_ColorScore>
-6.056

> <ROCS_Overlap>
2037.975

> <ROCS_Rank>
246                 

$$$$
untitled-dbase-149107_147
  -OEChem-11132313473D

 35 36  0     0  0  0  0  0  0999 V2000
    7.1212    9.9677   24.9603 C   0  0  0  0  0  0  0  0  0  0  0  0
    6.3937   10.8503   25.7612 C   0  0  0  0  0  0  0  0  0  0  0  0
    7.8966   12.6651   25.1838 C   0  0  0  0  0  0  0  0  0  0  0  0
   10.0851   10.7570   22.9943 C   0  0  0  0  0  0  0  0  0  0  0  0
    8.2528   10.4335   24.2585 C   0  0  0  0  0  0  0  0  0  0  0  0
    9.1759    9.8076   23.3884 C   0  0  0  0  0  0  0  0  0  0  0  0
    8.6321   11.7778   24.3748 C   0  0  0  0  0  0  0  0  0  0  0  0
    6.7784   12.1806   25.8701 C   0  0  0  0  0  0  0  0  0  0  0  0
   10.4783   13.1709   23.4150 C   0  0  0  0  0  0  0  0  0  0  0  0
   12.9297   14.5105   22.9171 C   0  0  0  0  0  0  0  0  0  0  0  0
   12.3673   14.2400   20.4841 C   0  0  0  0  0  0  0  0  0  0  0  0
   10.8623   15.5916   21.9729 C   0  0  0  0  0  0  0  0  0  0  0  0
    9.1735    8.3910   22.9707 C   0  0  0  0  0  0  0  0  0  0  0  0
   11.8009   14.3884   21.8945 C   0  0  0  0  0  0  0  0  0  0  0  0
    9.7712   11.9686   23.5852 N   0  0  0  0  0  0  0  0  0  0  0  0
   10.5253   14.0151   24.2944 O   0  0  0  0  0  0  0  0  0  0  0  0
    7.9166    7.7926   23.2857 O   0  0  0  0  0  0  0  0  0  0  0  0
   11.0501   13.2053   22.1842 O   0  0  0  0  0  0  0  0  0  0  0  0
    5.7763   13.3581   26.9624 Br  0  0  0  0  0  0  0  0  0  0  0  0
    6.8102    8.9293   24.8840 H   0  0  0  0  0  0  0  0  0  0  0  0
    5.5241   10.4751   26.2957 H   0  0  0  0  0  0  0  0  0  0  0  0
    8.1835   13.7069   25.2797 H   0  0  0  0  0  0  0  0  0  0  0  0
   10.9367   10.6605   22.3337 H   0  0  0  0  0  0  0  0  0  0  0  0
   12.5273   14.6171   23.9309 H   0  0  0  0  0  0  0  0  0  0  0  0
   13.5900   13.6374   22.8952 H   0  0  0  0  0  0  0  0  0  0  0  0
   13.5332   15.4057   22.7284 H   0  0  0  0  0  0  0  0  0  0  0  0
   11.5609   14.1521   19.7471 H   0  0  0  0  0  0  0  0  0  0  0  0
   12.9653   13.3256   20.3978 H   0  0  0  0  0  0  0  0  0  0  0  0
   12.9964   15.0929   20.2095 H   0  0  0  0  0  0  0  0  0  0  0  0
   10.0525   15.5042   21.2394 H   0  0  0  0  0  0  0  0  0  0  0  0
   10.4176   15.6921   22.9682 H   0  0  0  0  0  0  0  0  0  0  0  0
   11.3964   16.5186   21.7348 H   0  0  0  0  0  0  0  0  0  0  0  0
    9.3423    8.2777   21.8855 H   0  0  0  0  0  0  0  0  0  0  0  0
    9.9653    7.8116   23.4765 H   0  0  0  0  0  0  0  0  0  0  0  0
    7.9706    6.8706   22.9920 H   0  0  0  0  0  0  0  0  0  0  0  0
  1  2  1  0  0  0  0
  1  5  2  0  0  0  0
  2  8  2  0  0  0  0
  3  7  2  0  0  0  0
  3  8  1  0  0  0  0
  4  6  2  0  0  0  0
  4 15  1  0  0  0  0
  5  6  1  0  0  0  0
  5  7  1  0  0  0  0
  6 13  1  0  0  0  0
  7 15  1  0  0  0  0
  8 19  1  0  0  0  0
  9 15  1  0  0  0  0
  9 16  2  0  0  0  0
  9 18  1  0  0  0  0
 10 14  1  0  0  0  0
 11 14  1  0  0  0  0
 12 14  1  0  0  0  0
 13 17  1  0  0  0  0
 14 18  1  0  0  0  0
  1 20  1  0  0  0  0
  2 21  1  0  0  0  0
  3 22  1  0  0  0  0
  4 23  1  0  0  0  0
 10 24  1  0  0  0  0
 10 25  1  0  0  0  0
 10 26  1  0  0  0  0
 11 27  1  0  0  0  0
 11 28  1  0  0  0  0
 11 29  1  0  0  0  0
 12 30  1  0  0  0  0
 12 31  1  0  0  0  0
 12 32  1  0  0  0  0
 13 33  1  0  0  0  0
 13 34  1  0  0  0  0
 17 35  1  0  0  0  0
M  END
> <id>
EN300-6487414

> <smiles>
CC(C)(C)OC(=O)N1C=C(CO)C=2C=CC(Br)=CC12

> <MDLNUMBER>
MFCD16037118

> <IUPAC Name>
tert-butyl 6-bromo-3-(hydroxymethyl)-1H-indole-1-carboxylate

> <CAS>
1028424-48-7

> <Purity>
95

> <URL>
https://www.enaminestore.com/catalog/EN300-6487414

> <ROCS_ShapeQuery>
A71EV2A-x0451_0A_A71EV2A-x0310_0A_A71EV2A-x0416_0A_peptide

> <ROCS_TanimotoCombo>
0.517 

> <ROCS_ShapeTanimoto>
0.365 

> <ROCS_ColorTanimoto>
0.152 

> <ROCS_RefTversky>
0.312 

> <ROCS_RefColorTversky>
0.168 

> <ROCS_RefTverskyCombo>
0.480 

> <ROCS_FitTversky>
1.855 

> <ROCS_FitColorTversky>
0.619 

> <ROCS_FitTverskyCombo>
2.475 

> <ROCS_ColorScore>
-5.112

> <ROCS_Overlap>
2165.689

> <ROCS_Rank>
247                 

$$$$
untitled-dbase-152405_2
  -OEChem-11132313473D

 35 36  0     0  0  0  0  0  0999 V2000
    6.0811   10.7757   25.6442 C   0  0  0  0  0  0  0  0  0  0  0  0
    7.4851   12.6920   25.1255 C   0  0  0  0  0  0  0  0  0  0  0  0
    9.1944    9.9372   23.6456 C   0  0  0  0  0  0  0  0  0  0  0  0
    8.1113   10.4533   24.3779 C   0  0  0  0  0  0  0  0  0  0  0  0
    6.9584    9.9158   24.9767 C   0  0  0  0  0  0  0  0  0  0  0  0
    8.3606   11.8226   24.4571 C   0  0  0  0  0  0  0  0  0  0  0  0
    6.3423   12.1418   25.7164 C   0  0  0  0  0  0  0  0  0  0  0  0
   10.2392   13.2275   23.5686 C   0  0  0  0  0  0  0  0  0  0  0  0
   12.6899   14.6032   23.1884 C   0  0  0  0  0  0  0  0  0  0  0  0
   12.3764   14.1046   20.7466 C   0  0  0  0  0  0  0  0  0  0  0  0
   10.6965   15.5248   21.9588 C   0  0  0  0  0  0  0  0  0  0  0  0
    6.6323    8.4572   24.9268 C   0  0  0  0  0  0  0  0  0  0  0  0
   11.6705   14.3535   22.0778 C   0  0  0  0  0  0  0  0  0  0  0  0
   10.0670   10.8736   23.2809 N   0  0  0  0  0  0  0  0  0  0  0  0
    9.5545   12.0276   23.7784 N   0  0  0  0  0  0  0  0  0  0  0  0
    5.4335   12.9937   26.4004 N   0  3  0  0  0  0  0  0  0  0  0  0
    4.4110   12.4929   26.9265 O   0  5  0  0  0  0  0  0  0  0  0  0
   10.1734   14.1423   24.3731 O   0  0  0  0  0  0  0  0  0  0  0  0
    5.6796   14.2223   26.4582 O   0  0  0  0  0  0  0  0  0  0  0  0
   10.9274   13.1739   22.3988 O   0  0  0  0  0  0  0  0  0  0  0  0
    5.4703    8.1379   25.5664 F   0  0  0  0  0  0  0  0  0  0  0  0
    6.4883    7.9764   23.6581 F   0  0  0  0  0  0  0  0  0  0  0  0
    7.5968    7.6874   25.5065 F   0  0  0  0  0  0  0  0  0  0  0  0
    5.1858   10.3686   26.1112 H   0  0  0  0  0  0  0  0  0  0  0  0
    7.6811   13.7576   25.1844 H   0  0  0  0  0  0  0  0  0  0  0  0
    9.3865    8.9125   23.3606 H   0  0  0  0  0  0  0  0  0  0  0  0
   12.1872   14.7823   24.1456 H   0  0  0  0  0  0  0  0  0  0  0  0
   13.3725   13.7556   23.3074 H   0  0  0  0  0  0  0  0  0  0  0  0
   13.2845   15.4998   22.9791 H   0  0  0  0  0  0  0  0  0  0  0  0
   11.6488   13.9250   19.9469 H   0  0  0  0  0  0  0  0  0  0  0  0
   13.0045   13.2081   20.7995 H   0  0  0  0  0  0  0  0  0  0  0  0
   13.0060   14.9526   20.4585 H   0  0  0  0  0  0  0  0  0  0  0  0
    9.9653   15.3459   21.1623 H   0  0  0  0  0  0  0  0  0  0  0  0
   10.1538   15.6947   22.8944 H   0  0  0  0  0  0  0  0  0  0  0  0
   11.2261   16.4463   21.6912 H   0  0  0  0  0  0  0  0  0  0  0  0
  1  5  1  0  0  0  0
  1  7  2  0  0  0  0
  2  6  2  0  0  0  0
  2  7  1  0  0  0  0
  3  4  1  0  0  0  0
  3 14  2  0  0  0  0
  4  5  2  0  0  0  0
  4  6  1  0  0  0  0
  5 12  1  0  0  0  0
  6 15  1  0  0  0  0
  7 16  1  0  0  0  0
  8 15  1  0  0  0  0
  8 18  2  0  0  0  0
  8 20  1  0  0  0  0
  9 13  1  0  0  0  0
 10 13  1  0  0  0  0
 11 13  1  0  0  0  0
 12 21  1  0  0  0  0
 12 22  1  0  0  0  0
 12 23  1  0  0  0  0
 13 20  1  0  0  0  0
 14 15  1  0  0  0  0
 16 17  1  0  0  0  0
 16 19  2  0  0  0  0
  1 24  1  0  0  0  0
  2 25  1  0  0  0  0
  3 26  1  0  0  0  0
  9 27  1  0  0  0  0
  9 28  1  0  0  0  0
  9 29  1  0  0  0  0
 10 30  1  0  0  0  0
 10 31  1  0  0  0  0
 10 32  1  0  0  0  0
 11 33  1  0  0  0  0
 11 34  1  0  0  0  0
 11 35  1  0  0  0  0
M  CHG  2  16   1  17  -1
M  END
> <id>
EN300-28262927

> <smiles>
CC(C)(C)OC(=O)N1N=CC=2C(=CC(=CC12)[N+](=O)[O-])C(F)(F)F

> <IUPAC Name>
tert-butyl 6-nitro-4-(trifluoromethyl)-1H-indazole-1-carboxylate

> <CAS>
2680760-30-7

> <URL>
https://www.enaminestore.com/catalog/EN300-28262927

> <ROCS_ShapeQuery>
A71EV2A-x0451_0A_A71EV2A-x0310_0A_A71EV2A-x0416_0A_peptide

> <ROCS_TanimotoCombo>
0.517 

> <ROCS_ShapeTanimoto>
0.361 

> <ROCS_ColorTanimoto>
0.156 

> <ROCS_RefTversky>
0.318 

> <ROCS_RefColorTversky>
0.171 

> <ROCS_RefTverskyCombo>
0.489 

> <ROCS_FitTversky>
1.599 

> <ROCS_FitColorTversky>
0.632 

> <ROCS_FitTverskyCombo>
2.231 

> <ROCS_ColorScore>
-5.223

> <ROCS_Overlap>
2208.835

> <ROCS_Rank>
248                 

$$$$
untitled-dbase-99246_170
  -OEChem-11132313473D

 38 39  0     1  0  0  0  0  0999 V2000
    7.1993   12.9952   26.4741 C   0  0  0  0  0  0  0  0  0  0  0  0
    8.2650   13.0337   25.5660 C   0  0  0  0  0  0  0  0  0  0  0  0
    6.3646   11.8863   26.5343 C   0  0  0  0  0  0  0  0  0  0  0  0
    8.5255   11.9579   24.7034 C   0  0  0  0  0  0  0  0  0  0  0  0
    7.6745   10.8384   24.7940 C   0  0  0  0  0  0  0  0  0  0  0  0
    6.5980   10.8089   25.6893 C   0  0  0  0  0  0  0  0  0  0  0  0
   10.5233   12.9970   23.5719 C   0  0  0  0  0  0  0  0  0  0  0  0
    9.5694   10.8210   22.7932 C   0  0  0  0  0  0  0  0  0  0  0  0
    9.1264    9.5516   23.5017 C   0  0  2  0  0  0  0  0  0  0  0  0
   12.6813   14.7539   22.8682 C   0  0  0  0  0  0  0  0  0  0  0  0
   12.7960   13.4540   20.7220 C   0  0  0  0  0  0  0  0  0  0  0  0
   10.7175   14.7427   21.2940 C   0  0  0  0  0  0  0  0  0  0  0  0
    9.0994    8.3711   22.5382 C   0  0  0  0  0  0  0  0  0  0  0  0
   11.8877   13.9339   21.8520 C   0  0  0  0  0  0  0  0  0  0  0  0
    9.5765   11.9641   23.7195 N   0  0  0  0  0  0  0  0  0  0  0  0
   10.6299   13.9964   24.2767 O   0  0  0  0  0  0  0  0  0  0  0  0
    7.8058    9.7146   24.0163 O   0  0  0  0  0  0  0  0  0  0  0  0
    8.2779    7.3568   23.0883 O   0  0  0  0  0  0  0  0  0  0  0  0
   11.3670   12.7726   22.5101 O   0  0  0  0  0  0  0  0  0  0  0  0
    5.4273    9.3162   25.8085 Br  0  0  0  0  0  0  0  0  0  0  0  0
    7.0181   13.8448   27.1270 H   0  0  0  0  0  0  0  0  0  0  0  0
    8.8483   13.9461   25.5599 H   0  0  0  0  0  0  0  0  0  0  0  0
    5.5393   11.8830   27.2411 H   0  0  0  0  0  0  0  0  0  0  0  0
   10.5640   10.6696   22.3616 H   0  0  0  0  0  0  0  0  0  0  0  0
    8.8831   11.0858   21.9787 H   0  0  0  0  0  0  0  0  0  0  0  0
    9.8077    9.3066   24.3283 H   0  0  0  0  0  0  0  0  0  0  0  0
   12.0329   15.1002   23.6810 H   0  0  0  0  0  0  0  0  0  0  0  0
   13.5024   14.1736   23.3017 H   0  0  0  0  0  0  0  0  0  0  0  0
   13.1009   15.6531   22.4029 H   0  0  0  0  0  0  0  0  0  0  0  0
   12.2308   12.8652   19.9904 H   0  0  0  0  0  0  0  0  0  0  0  0
   13.5828   12.7951   21.1067 H   0  0  0  0  0  0  0  0  0  0  0  0
   13.2698   14.2921   20.2008 H   0  0  0  0  0  0  0  0  0  0  0  0
   10.1481   14.1547   20.5650 H   0  0  0  0  0  0  0  0  0  0  0  0
   10.0349   15.0643   22.0873 H   0  0  0  0  0  0  0  0  0  0  0  0
   11.0764   15.6312   20.7620 H   0  0  0  0  0  0  0  0  0  0  0  0
   10.1077    7.9800   22.3979 H   0  0  0  0  0  0  0  0  0  0  0  0
    8.6901    8.6826   21.5765 H   0  0  0  0  0  0  0  0  0  0  0  0
    8.2770    6.6173   22.4571 H   0  0  0  0  0  0  0  0  0  0  0  0
  1  2  1  0  0  0  0
  1  3  2  0  0  0  0
  2  4  2  0  0  0  0
  3  6  1  0  0  0  0
  4  5  1  0  0  0  0
  4 15  1  0  0  0  0
  5  6  2  0  0  0  0
  5 17  1  0  0  0  0
  6 20  1  0  0  0  0
  7 15  1  0  0  0  0
  7 16  2  0  0  0  0
  7 19  1  0  0  0  0
  8  9  1  0  0  0  0
  8 15  1  0  0  0  0
  9 13  1  0  0  0  0
  9 17  1  0  0  0  0
 10 14  1  0  0  0  0
 11 14  1  0  0  0  0
 12 14  1  0  0  0  0
 13 18  1  0  0  0  0
 14 19  1  0  0  0  0
  1 21  1  0  0  0  0
  2 22  1  0  0  0  0
  3 23  1  0  0  0  0
  8 24  1  0  0  0  0
  8 25  1  0  0  0  0
  9 26  1  0  0  0  0
 10 27  1  0  0  0  0
 10 28  1  0  0  0  0
 10 29  1  0  0  0  0
 11 30  1  0  0  0  0
 11 31  1  0  0  0  0
 11 32  1  0  0  0  0
 12 33  1  0  0  0  0
 12 34  1  0  0  0  0
 12 35  1  0  0  0  0
 13 36  1  0  0  0  0
 13 37  1  0  0  0  0
 18 38  1  0  0  0  0
M  END
> <id>
EN300-37100366

> <smiles>
CC(C)(C)OC(=O)N1CC(CO)OC=2C(Br)=CC=CC12

> <IUPAC Name>
tert-butyl 8-bromo-2-(hydroxymethyl)-3,4-dihydro-2H-1,4-benzoxazine-4-carboxylate

> <CAS>
1021860-16-1

> <URL>
https://www.enaminestore.com/catalog/EN300-37100366

> <ROCS_ShapeQuery>
A71EV2A-x0451_0A_A71EV2A-x0310_0A_A71EV2A-x0416_0A_peptide

> <ROCS_TanimotoCombo>
0.516 

> <ROCS_ShapeTanimoto>
0.347 

> <ROCS_ColorTanimoto>
0.170 

> <ROCS_RefTversky>
0.302 

> <ROCS_RefColorTversky>
0.189 

> <ROCS_RefTverskyCombo>
0.491 

> <ROCS_FitTversky>
1.743 

> <ROCS_FitColorTversky>
0.627 

> <ROCS_FitTverskyCombo>
2.370 

> <ROCS_ColorScore>
-5.763

> <ROCS_Overlap>
2096.243

> <ROCS_Rank>
249                 

$$$$
untitled-dbase-175887_29
  -OEChem-11132313473D

 40 41  0     1  0  0  0  0  0999 V2000
    8.4762    9.5624   23.9863 C   0  0  0  0  0  0  0  0  0  0  0  0
   10.8506   13.6731   23.1670 C   0  0  0  0  0  0  0  0  0  0  0  0
    9.7405   10.1221   23.3870 C   0  0  0  0  0  0  0  0  0  0  0  0
    7.4135   10.6199   24.1530 C   0  0  2  0  0  0  0  0  0  0  0  0
    9.5754   11.6068   23.6936 C   0  0  2  0  0  0  0  0  0  0  0  0
    8.0697   11.8625   23.5827 C   0  0  2  0  0  0  0  0  0  0  0  0
    7.0824   12.3329   25.5903 C   0  0  0  0  0  0  0  0  0  0  0  0
    5.6069   12.7190   25.6422 C   0  0  0  0  0  0  0  0  0  0  0  0
    7.8165   12.8199   26.8319 C   0  0  0  0  0  0  0  0  0  0  0  0
   11.1116   16.4891   22.7771 C   0  0  0  0  0  0  0  0  0  0  0  0
   11.9237   15.9075   20.4725 C   0  0  0  0  0  0  0  0  0  0  0  0
    9.5915   15.2890   21.1698 C   0  0  0  0  0  0  0  0  0  0  0  0
   11.0345   15.4754   21.6364 C   0  0  0  0  0  0  0  0  0  0  0  0
   10.3398   12.4421   22.8092 N   0  0  0  0  0  0  0  0  0  0  0  0
    8.3268    8.3872   24.2945 O   0  0  0  0  0  0  0  0  0  0  0  0
   10.7243   14.2089   24.2632 O   0  0  0  0  0  0  0  0  0  0  0  0
    7.1905   10.9058   25.5171 O   0  0  0  0  0  0  0  0  0  0  0  0
    7.6673   12.9347   24.4269 O   0  0  0  0  0  0  0  0  0  0  0  0
   11.5264   14.2170   22.1111 O   0  0  0  0  0  0  0  0  0  0  0  0
   10.5916    9.7048   23.9237 H   0  0  0  0  0  0  0  0  0  0  0  0
    9.8063    9.9048   22.3239 H   0  0  0  0  0  0  0  0  0  0  0  0
    6.5059   10.3189   23.6390 H   0  0  0  0  0  0  0  0  0  0  0  0
    9.9374   11.8192   24.7234 H   0  0  0  0  0  0  0  0  0  0  0  0
    7.7482   12.0891   22.5562 H   0  0  0  0  0  0  0  0  0  0  0  0
    5.0980   12.3629   24.7470 H   0  0  0  0  0  0  0  0  0  0  0  0
    5.5083   13.8027   25.6989 H   0  0  0  0  0  0  0  0  0  0  0  0
    5.1370   12.2735   26.5185 H   0  0  0  0  0  0  0  0  0  0  0  0
    8.8681   12.5365   26.7796 H   0  0  0  0  0  0  0  0  0  0  0  0
    7.3755   12.3763   27.7249 H   0  0  0  0  0  0  0  0  0  0  0  0
    7.7467   13.9056   26.9055 H   0  0  0  0  0  0  0  0  0  0  0  0
   10.4747   16.1825   23.6146 H   0  0  0  0  0  0  0  0  0  0  0  0
   12.1364   16.6060   23.1443 H   0  0  0  0  0  0  0  0  0  0  0  0
   10.7458   17.4703   22.4536 H   0  0  0  0  0  0  0  0  0  0  0  0
   11.8715   15.1830   19.6517 H   0  0  0  0  0  0  0  0  0  0  0  0
   12.9750   15.9507   20.7795 H   0  0  0  0  0  0  0  0  0  0  0  0
   11.6346   16.8903   20.0863 H   0  0  0  0  0  0  0  0  0  0  0  0
    9.5359   14.5619   20.3516 H   0  0  0  0  0  0  0  0  0  0  0  0
    8.9459   14.9433   21.9837 H   0  0  0  0  0  0  0  0  0  0  0  0
    9.1845   16.2279   20.7773 H   0  0  0  0  0  0  0  0  0  0  0  0
   10.5145   12.1070   21.8659 H   0  0  0  0  0  0  0  0  0  0  0  0
  1  3  1  0  0  0  0
  1  4  1  0  0  0  0
  1 15  2  0  0  0  0
  2 14  1  0  0  0  0
  2 16  2  0  0  0  0
  2 19  1  0  0  0  0
  3  5  1  0  0  0  0
  4  6  1  0  0  0  0
  4 17  1  1  0  0  0
  5  6  1  0  0  0  0
  5 14  1  6  0  0  0
  6 18  1  1  0  0  0
  7  8  1  0  0  0  0
  7  9  1  0  0  0  0
  7 17  1  0  0  0  0
  7 18  1  0  0  0  0
 10 13  1  0  0  0  0
 11 13  1  0  0  0  0
 12 13  1  0  0  0  0
 13 19  1  0  0  0  0
  3 20  1  0  0  0  0
  3 21  1  0  0  0  0
  4 22  1  0  0  0  0
  5 23  1  0  0  0  0
  6 24  1  0  0  0  0
  8 25  1  0  0  0  0
  8 26  1  0  0  0  0
  8 27  1  0  0  0  0
  9 28  1  0  0  0  0
  9 29  1  0  0  0  0
  9 30  1  0  0  0  0
 10 31  1  0  0  0  0
 10 32  1  0  0  0  0
 10 33  1  0  0  0  0
 11 34  1  0  0  0  0
 11 35  1  0  0  0  0
 11 36  1  0  0  0  0
 12 37  1  0  0  0  0
 12 38  1  0  0  0  0
 12 39  1  0  0  0  0
 14 40  1  0  0  0  0
M  END
> <id>
EN300-45168585

> <smiles>
CC(C)(C)OC(=O)N[C@@H]1CC(=O)[C@H]2OC(C)(C)O[C@@H]12

> <IUPAC Name>
tert-butyl N-[(3aS,4R,6aS)-2,2-dimethyl-6-oxo-hexahydrocyclopenta[d][1,3]dioxol-4-yl]carbamate

> <URL>
https://www.enaminestore.com/catalog/EN300-45168585

> <ROCS_ShapeQuery>
A71EV2A-x0451_0A_A71EV2A-x0310_0A_A71EV2A-x0416_0A_peptide

> <ROCS_TanimotoCombo>
0.516 

> <ROCS_ShapeTanimoto>
0.342 

> <ROCS_ColorTanimoto>
0.175 

> <ROCS_RefTversky>
0.298 

> <ROCS_RefColorTversky>
0.199 

> <ROCS_RefTverskyCombo>
0.496 

> <ROCS_FitTversky>
1.762 

> <ROCS_FitColorTversky>
0.592 

> <ROCS_FitTverskyCombo>
2.355 

> <ROCS_ColorScore>
-6.074

> <ROCS_Overlap>
2065.202

> <ROCS_Rank>
250                 

$$$$
untitled-dbase-172707_112
  -OEChem-11132313473D

 38 39  0     0  0  0  0  0  0999 V2000
   10.6486   13.2569   23.5141 C   0  0  0  0  0  0  0  0  0  0  0  0
    8.3512   10.3332   25.2943 C   0  0  0  0  0  0  0  0  0  0  0  0
    7.4905   10.3712   23.3544 C   0  0  0  0  0  0  0  0  0  0  0  0
   10.0030   10.8384   23.3887 C   0  0  0  0  0  0  0  0  0  0  0  0
    8.3526   12.6376   24.1530 C   0  0  0  0  0  0  0  0  0  0  0  0
    8.8836    9.9240   23.8866 C   0  0  0  0  0  0  0  0  0  0  0  0
    7.5417   11.4052   24.5111 C   0  0  0  0  0  0  0  0  0  0  0  0
   13.3692   14.1352   23.4285 C   0  0  0  0  0  0  0  0  0  0  0  0
   13.3149   13.4705   21.0068 C   0  0  0  0  0  0  0  0  0  0  0  0
   11.7905   15.2843   21.8404 C   0  0  0  0  0  0  0  0  0  0  0  0
    9.2032    8.4512   23.7043 C   0  0  0  0  0  0  0  0  0  0  0  0
   12.4893   13.9712   22.1901 C   0  0  0  0  0  0  0  0  0  0  0  0
    9.6994   12.2443   23.7168 N   0  0  0  0  0  0  0  0  0  0  0  0
    8.0043    7.7142   23.4664 N   0  0  0  0  0  0  0  0  0  0  0  0
   10.7213   14.2805   24.1917 O   0  0  0  0  0  0  0  0  0  0  0  0
   11.4907   12.9832   22.4682 O   0  0  0  0  0  0  0  0  0  0  0  0
    6.3526   11.7633   25.0409 F   0  0  0  0  0  0  0  0  0  0  0  0
    7.7268    9.5826   25.7942 H   0  0  0  0  0  0  0  0  0  0  0  0
    9.0906   10.7016   26.0114 H   0  0  0  0  0  0  0  0  0  0  0  0
    7.4597   10.7726   22.3372 H   0  0  0  0  0  0  0  0  0  0  0  0
    6.6900    9.6285   23.4579 H   0  0  0  0  0  0  0  0  0  0  0  0
   10.9596   10.5779   23.8561 H   0  0  0  0  0  0  0  0  0  0  0  0
   10.1248   10.7656   22.3017 H   0  0  0  0  0  0  0  0  0  0  0  0
    7.8822   13.2021   23.3401 H   0  0  0  0  0  0  0  0  0  0  0  0
    8.4501   13.3097   25.0130 H   0  0  0  0  0  0  0  0  0  0  0  0
   12.7803   14.4944   24.2801 H   0  0  0  0  0  0  0  0  0  0  0  0
   13.8487   13.1921   23.7104 H   0  0  0  0  0  0  0  0  0  0  0  0
   14.1515   14.8832   23.2561 H   0  0  0  0  0  0  0  0  0  0  0  0
   12.6875   13.3514   20.1160 H   0  0  0  0  0  0  0  0  0  0  0  0
   13.7413   12.4833   21.2183 H   0  0  0  0  0  0  0  0  0  0  0  0
   14.1328   14.1570   20.7656 H   0  0  0  0  0  0  0  0  0  0  0  0
   11.1594   15.1669   20.9521 H   0  0  0  0  0  0  0  0  0  0  0  0
   11.1641   15.6398   22.6649 H   0  0  0  0  0  0  0  0  0  0  0  0
   12.5229   16.0631   21.5987 H   0  0  0  0  0  0  0  0  0  0  0  0
    9.8775    8.3611   22.8508 H   0  0  0  0  0  0  0  0  0  0  0  0
    9.6868    8.1010   24.6179 H   0  0  0  0  0  0  0  0  0  0  0  0
    7.5407    8.0662   22.6492 H   0  0  0  0  0  0  0  0  0  0  0  0
    8.2198    6.7444   23.3259 H   0  0  0  0  0  0  0  0  0  0  0  0
  1 13  1  0  0  0  0
  1 15  2  0  0  0  0
  1 16  1  0  0  0  0
  2  6  1  0  0  0  0
  2  7  1  0  0  0  0
  3  6  1  0  0  0  0
  3  7  1  0  0  0  0
  4  6  1  0  0  0  0
  4 13  1  0  0  0  0
  5  7  1  0  0  0  0
  5 13  1  0  0  0  0
  6 11  1  1  0  0  0
  7 17  1  1  0  0  0
  8 12  1  0  0  0  0
  9 12  1  0  0  0  0
 10 12  1  0  0  0  0
 11 14  1  0  0  0  0
 12 16  1  0  0  0  0
  2 18  1  0  0  0  0
  2 19  1  0  0  0  0
  3 20  1  0  0  0  0
  3 21  1  0  0  0  0
  4 22  1  0  0  0  0
  4 23  1  0  0  0  0
  5 24  1  0  0  0  0
  5 25  1  0  0  0  0
  8 26  1  0  0  0  0
  8 27  1  0  0  0  0
  8 28  1  0  0  0  0
  9 29  1  0  0  0  0
  9 30  1  0  0  0  0
  9 31  1  0  0  0  0
 10 32  1  0  0  0  0
 10 33  1  0  0  0  0
 10 34  1  0  0  0  0
 11 35  1  0  0  0  0
 11 36  1  0  0  0  0
 14 37  1  0  0  0  0
 14 38  1  0  0  0  0
M  END
> <id>
EN300-37375343

> <smiles>
CC(C)(C)OC(=O)N1C[C@]2(F)C[C@@](CN)(C2)C1

> <IUPAC Name>
tert-butyl 1-(aminomethyl)-5-fluoro-3-azabicyclo[3.1.1]heptane-3-carboxylate

> <CAS>
2402831-08-5

> <URL>
https://www.enaminestore.com/catalog/EN300-37375343

> <ROCS_ShapeQuery>
A71EV2A-x0451_0A_A71EV2A-x0310_0A_A71EV2A-x0416_0A_peptide

> <ROCS_TanimotoCombo>
0.516 

> <ROCS_ShapeTanimoto>
0.310 

> <ROCS_ColorTanimoto>
0.206 

> <ROCS_RefTversky>
0.273 

> <ROCS_RefColorTversky>
0.234 

> <ROCS_RefTverskyCombo>
0.507 

> <ROCS_FitTversky>
1.761 

> <ROCS_FitColorTversky>
0.638 

> <ROCS_FitTverskyCombo>
2.399 

> <ROCS_ColorScore>
-7.158

> <ROCS_Overlap>
1895.292

> <ROCS_Rank>
251                 

$$$$
untitled-dbase-154422_20
  -OEChem-11132313473D

 32 33  0     0  0  0  0  0  0999 V2000
    8.0356   12.8330   24.8421 C   0  0  0  0  0  0  0  0  0  0  0  0
    6.9789   12.7293   25.7554 C   0  0  0  0  0  0  0  0  0  0  0  0
    7.0041   10.2991   25.6076 C   0  0  0  0  0  0  0  0  0  0  0  0
    8.5792   11.6527   24.3081 C   0  0  0  0  0  0  0  0  0  0  0  0
    8.0569   10.4247   24.6985 C   0  0  0  0  0  0  0  0  0  0  0  0
    6.4734   11.4830   26.1303 C   0  0  0  0  0  0  0  0  0  0  0  0
    9.6064   11.3225   23.3980 C   0  0  0  0  0  0  0  0  0  0  0  0
   10.8137   13.5143   23.1762 C   0  0  0  0  0  0  0  0  0  0  0  0
   11.0038   16.3447   22.8128 C   0  0  0  0  0  0  0  0  0  0  0  0
   12.1455   15.8035   20.6420 C   0  0  0  0  0  0  0  0  0  0  0  0
    9.7686   15.0845   21.0182 C   0  0  0  0  0  0  0  0  0  0  0  0
   11.1256   15.3312   21.6758 C   0  0  0  0  0  0  0  0  0  0  0  0
    9.7354   10.0062   23.2173 N   0  0  0  0  0  0  0  0  0  0  0  0
    8.7864    9.4893   24.0155 N   0  0  0  0  0  0  0  0  0  0  0  0
   10.4049   12.2447   22.7480 N   0  0  0  0  0  0  0  0  0  0  0  0
   10.5297   14.0563   24.2374 O   0  0  0  0  0  0  0  0  0  0  0  0
   11.6017   14.0936   22.2175 O   0  0  0  0  0  0  0  0  0  0  0  0
    5.0433   11.3899   27.3674 Br  0  0  0  0  0  0  0  0  0  0  0  0
    8.4190   13.8087   24.5594 H   0  0  0  0  0  0  0  0  0  0  0  0
    6.5580   13.6435   26.1683 H   0  0  0  0  0  0  0  0  0  0  0  0
    6.6223    9.3230   25.8881 H   0  0  0  0  0  0  0  0  0  0  0  0
   10.2726   16.0094   23.5571 H   0  0  0  0  0  0  0  0  0  0  0  0
   11.9633   16.5044   23.3154 H   0  0  0  0  0  0  0  0  0  0  0  0
   10.6439   17.3102   22.4392 H   0  0  0  0  0  0  0  0  0  0  0  0
   12.2362   15.0793   19.8243 H   0  0  0  0  0  0  0  0  0  0  0  0
   13.1425   15.8909   21.0888 H   0  0  0  0  0  0  0  0  0  0  0  0
   11.8700   16.7739   20.2166 H   0  0  0  0  0  0  0  0  0  0  0  0
    9.8558   14.3575   20.2026 H   0  0  0  0  0  0  0  0  0  0  0  0
    9.0338   14.7098   21.7380 H   0  0  0  0  0  0  0  0  0  0  0  0
    9.3792   16.0061   20.5707 H   0  0  0  0  0  0  0  0  0  0  0  0
    8.6855    8.4825   24.0474 H   0  0  0  0  0  0  0  0  0  0  0  0
   10.7475   11.9581   21.8185 H   0  0  0  0  0  0  0  0  0  0  0  0
  1  2  1  0  0  0  0
  1  4  2  0  0  0  0
  2  6  2  0  0  0  0
  3  5  2  0  0  0  0
  3  6  1  0  0  0  0
  4  5  1  0  0  0  0
  4  7  1  0  0  0  0
  5 14  1  0  0  0  0
  6 18  1  0  0  0  0
  7 13  2  0  0  0  0
  7 15  1  0  0  0  0
  8 15  1  0  0  0  0
  8 16  2  0  0  0  0
  8 17  1  0  0  0  0
  9 12  1  0  0  0  0
 10 12  1  0  0  0  0
 11 12  1  0  0  0  0
 12 17  1  0  0  0  0
 13 14  1  0  0  0  0
  1 19  1  0  0  0  0
  2 20  1  0  0  0  0
  3 21  1  0  0  0  0
  9 22  1  0  0  0  0
  9 23  1  0  0  0  0
  9 24  1  0  0  0  0
 10 25  1  0  0  0  0
 10 26  1  0  0  0  0
 10 27  1  0  0  0  0
 11 28  1  0  0  0  0
 11 29  1  0  0  0  0
 11 30  1  0  0  0  0
 14 31  1  0  0  0  0
 15 32  1  0  0  0  0
M  END
> <id>
EN300-28292384

> <smiles>
CC(C)(C)OC(=O)NC1=NNC=2C=C(Br)C=CC12

> <IUPAC Name>
tert-butyl N-(6-bromo-1H-indazol-3-yl)carbamate

> <CAS>
2680894-83-9

> <URL>
https://www.enaminestore.com/catalog/EN300-28292384

> <ROCS_ShapeQuery>
A71EV2A-x0451_0A_A71EV2A-x0310_0A_A71EV2A-x0416_0A_peptide

> <ROCS_TanimotoCombo>
0.516 

> <ROCS_ShapeTanimoto>
0.343 

> <ROCS_ColorTanimoto>
0.173 

> <ROCS_RefTversky>
0.297 

> <ROCS_RefColorTversky>
0.192 

> <ROCS_RefTverskyCombo>
0.489 

> <ROCS_FitTversky>
1.822 

> <ROCS_FitColorTversky>
0.638 

> <ROCS_FitTverskyCombo>
2.460 

> <ROCS_ColorScore>
-5.872

> <ROCS_Overlap>
2059.172

> <ROCS_Rank>
252                 

$$$$
untitled-dbase-92622_535
  -OEChem-11132313473D

 45 47  0     0  0  0  0  0  0999 V2000
    4.8636   12.0456   26.7915 C   0  0  0  0  0  0  0  0  0  0  0  0
    6.7168   13.0613   25.5648 C   0  0  0  0  0  0  0  0  0  0  0  0
    7.8503   12.9780   24.7486 C   0  0  0  0  0  0  0  0  0  0  0  0
    6.4277   10.6411   25.5449 C   0  0  0  0  0  0  0  0  0  0  0  0
    6.0173   11.9158   25.9567 C   0  0  0  0  0  0  0  0  0  0  0  0
    7.5624   10.5439   24.7264 C   0  0  0  0  0  0  0  0  0  0  0  0
    8.2364   11.6988   24.3537 C   0  0  0  0  0  0  0  0  0  0  0  0
   12.0269   15.9504   22.1344 C   0  0  0  0  0  0  0  0  0  0  0  0
    9.7360   12.9360   21.7967 C   0  0  0  0  0  0  0  0  0  0  0  0
   11.2527   12.7989   23.8611 C   0  0  0  0  0  0  0  0  0  0  0  0
   10.7416   13.9669   21.2984 C   0  0  0  0  0  0  0  0  0  0  0  0
   11.1013   14.3133   23.7532 C   0  0  0  0  0  0  0  0  0  0  0  0
   10.3439   12.0268   22.8797 C   0  0  0  0  0  0  0  0  0  0  0  0
   14.3507   15.3458   21.0792 C   0  0  0  0  0  0  0  0  0  0  0  0
   13.3981   15.8405   18.8083 C   0  0  0  0  0  0  0  0  0  0  0  0
   13.9579   17.7279   20.3679 C   0  0  0  0  0  0  0  0  0  0  0  0
   13.4612   16.2864   20.2675 C   0  0  0  0  0  0  0  0  0  0  0  0
    3.9273   12.1507   27.4690 N   0  0  0  0  0  0  0  0  0  0  0  0
    8.1882    9.4554   24.1785 N   0  0  0  0  0  0  0  0  0  0  0  0
    9.2294    9.8893   23.4764 N   0  0  0  0  0  0  0  0  0  0  0  0
    9.2582   11.2282   23.5808 N   0  0  0  0  0  0  0  0  0  0  0  0
   11.3071   14.7768   22.3811 N   0  0  0  0  0  0  0  0  0  0  0  0
   12.5190   16.6610   23.0085 O   0  0  0  0  0  0  0  0  0  0  0  0
   12.1313   16.2245   20.7954 O   0  0  0  0  0  0  0  0  0  0  0  0
    6.3862   14.0455   25.8925 H   0  0  0  0  0  0  0  0  0  0  0  0
    8.3938   13.8648   24.4438 H   0  0  0  0  0  0  0  0  0  0  0  0
    5.8888    9.7473   25.8455 H   0  0  0  0  0  0  0  0  0  0  0  0
    8.8492   13.4518   22.1934 H   0  0  0  0  0  0  0  0  0  0  0  0
    9.3850   12.3264   20.9526 H   0  0  0  0  0  0  0  0  0  0  0  0
   12.3075   12.5212   23.6850 H   0  0  0  0  0  0  0  0  0  0  0  0
   11.0348   12.4827   24.8984 H   0  0  0  0  0  0  0  0  0  0  0  0
   11.5885   13.4628   20.8005 H   0  0  0  0  0  0  0  0  0  0  0  0
   10.2673   14.6004   20.5321 H   0  0  0  0  0  0  0  0  0  0  0  0
   10.1130   14.6147   24.1194 H   0  0  0  0  0  0  0  0  0  0  0  0
   11.8476   14.8173   24.3810 H   0  0  0  0  0  0  0  0  0  0  0  0
   10.9455   11.2253   22.3761 H   0  0  0  0  0  0  0  0  0  0  0  0
   14.3986   15.6625   22.1272 H   0  0  0  0  0  0  0  0  0  0  0  0
   13.9852   14.3144   21.0439 H   0  0  0  0  0  0  0  0  0  0  0  0
   15.3805   15.3611   20.7043 H   0  0  0  0  0  0  0  0  0  0  0  0
   12.7609   16.5126   18.2222 H   0  0  0  0  0  0  0  0  0  0  0  0
   12.9536   14.8422   18.7240 H   0  0  0  0  0  0  0  0  0  0  0  0
   14.3919   15.8174   18.3496 H   0  0  0  0  0  0  0  0  0  0  0  0
   13.3200   18.4028   19.7858 H   0  0  0  0  0  0  0  0  0  0  0  0
   13.9746   18.0774   21.4053 H   0  0  0  0  0  0  0  0  0  0  0  0
   14.9677   17.8219   19.9524 H   0  0  0  0  0  0  0  0  0  0  0  0
  1  5  1  0  0  0  0
  1 18  3  0  0  0  0
  2  3  1  0  0  0  0
  2  5  2  0  0  0  0
  3  7  2  0  0  0  0
  4  5  1  0  0  0  0
  4  6  2  0  0  0  0
  6  7  1  0  0  0  0
  6 19  1  0  0  0  0
  7 21  1  0  0  0  0
  8 22  1  0  0  0  0
  8 23  2  0  0  0  0
  8 24  1  0  0  0  0
  9 11  1  0  0  0  0
  9 13  1  0  0  0  0
 10 12  1  0  0  0  0
 10 13  1  0  0  0  0
 11 22  1  0  0  0  0
 12 22  1  0  0  0  0
 13 21  1  0  0  0  0
 14 17  1  0  0  0  0
 15 17  1  0  0  0  0
 16 17  1  0  0  0  0
 17 24  1  0  0  0  0
 19 20  2  0  0  0  0
 20 21  1  0  0  0  0
  2 25  1  0  0  0  0
  3 26  1  0  0  0  0
  4 27  1  0  0  0  0
  9 28  1  0  0  0  0
  9 29  1  0  0  0  0
 10 30  1  0  0  0  0
 10 31  1  0  0  0  0
 11 32  1  0  0  0  0
 11 33  1  0  0  0  0
 12 34  1  0  0  0  0
 12 35  1  0  0  0  0
 13 36  1  0  0  0  0
 14 37  1  0  0  0  0
 14 38  1  0  0  0  0
 14 39  1  0  0  0  0
 15 40  1  0  0  0  0
 15 41  1  0  0  0  0
 15 42  1  0  0  0  0
 16 43  1  0  0  0  0
 16 44  1  0  0  0  0
 16 45  1  0  0  0  0
M  END
> <id>
EN300-6749172

> <smiles>
CC(C)(C)OC(=O)N1CCC(CC1)N2N=NC=3C=C(C#N)C=CC23

> <IUPAC Name>
tert-butyl 4-(5-cyano-1H-1,2,3-benzotriazol-1-yl)piperidine-1-carboxylate

> <CAS>
2287339-49-3

> <URL>
https://www.enaminestore.com/catalog/EN300-6749172

> <ROCS_ShapeQuery>
A71EV2A-x0451_0A_A71EV2A-x0310_0A_A71EV2A-x0416_0A_peptide

> <ROCS_TanimotoCombo>
0.516 

> <ROCS_ShapeTanimoto>
0.374 

> <ROCS_ColorTanimoto>
0.142 

> <ROCS_RefTversky>
0.327 

> <ROCS_RefColorTversky>
0.163 

> <ROCS_RefTverskyCombo>
0.490 

> <ROCS_FitTversky>
1.627 

> <ROCS_FitColorTversky>
0.522 

> <ROCS_FitTverskyCombo>
2.149 

> <ROCS_ColorScore>
-4.977

> <ROCS_Overlap>
2274.139

> <ROCS_Rank>
253                 

$$$$
untitled-dbase-151540_23
  -OEChem-11132313473D

 27 28  0     0  0  0  0  0  0999 V2000
    6.1303   11.6469   26.0507 C   0  0  0  0  0  0  0  0  0  0  0  0
    6.6747   10.5430   25.4062 C   0  0  0  0  0  0  0  0  0  0  0  0
    7.8635   13.0403   25.0926 C   0  0  0  0  0  0  0  0  0  0  0  0
    6.7249   12.8931   25.8942 C   0  0  0  0  0  0  0  0  0  0  0  0
    8.4403   11.9398   24.4397 C   0  0  0  0  0  0  0  0  0  0  0  0
    7.8231   10.6849   24.6177 C   0  0  0  0  0  0  0  0  0  0  0  0
    6.1710   14.0477   26.5847 C   0  0  0  0  0  0  0  0  0  0  0  0
   10.3504   13.2165   23.4324 C   0  0  0  0  0  0  0  0  0  0  0  0
    9.8723   10.8318   22.7925 C   0  0  0  0  0  0  0  0  0  0  0  0
    9.6326    9.5987   23.6370 C   0  0  0  0  0  0  0  0  0  0  0  0
   10.9920   13.4326   22.0795 C   0  0  0  0  0  0  0  0  0  0  0  0
    9.5822   12.0485   23.5663 N   0  0  0  0  0  0  0  0  0  0  0  0
    5.0245   14.4844   26.4423 O   0  0  0  0  0  0  0  0  0  0  0  0
   10.5562   14.0561   24.3106 O   0  0  0  0  0  0  0  0  0  0  0  0
    8.2670    9.5241   24.0322 O   0  0  0  0  0  0  0  0  0  0  0  0
    7.0647   14.6233   27.4346 O   0  0  0  0  0  0  0  0  0  0  0  0
   10.6836   12.4227   21.2494 F   0  0  0  0  0  0  0  0  0  0  0  0
   10.5588   14.5806   21.5329 F   0  0  0  0  0  0  0  0  0  0  0  0
   12.3288   13.4948   22.1962 F   0  0  0  0  0  0  0  0  0  0  0  0
    5.2501   11.5235   26.6758 H   0  0  0  0  0  0  0  0  0  0  0  0
    6.1977    9.5719   25.5128 H   0  0  0  0  0  0  0  0  0  0  0  0
    8.2949   14.0335   25.0333 H   0  0  0  0  0  0  0  0  0  0  0  0
   10.9202   10.8978   22.4754 H   0  0  0  0  0  0  0  0  0  0  0  0
    9.2440   10.7739   21.9005 H   0  0  0  0  0  0  0  0  0  0  0  0
    9.9214    8.6782   23.1135 H   0  0  0  0  0  0  0  0  0  0  0  0
   10.2341    9.6543   24.5505 H   0  0  0  0  0  0  0  0  0  0  0  0
    6.7003   15.4027   27.9061 H   0  0  0  0  0  0  0  0  0  0  0  0
  1  2  1  0  0  0  0
  1  4  2  0  0  0  0
  2  6  2  0  0  0  0
  3  4  1  0  0  0  0
  3  5  2  0  0  0  0
  4  7  1  0  0  0  0
  5  6  1  0  0  0  0
  5 12  1  0  0  0  0
  6 15  1  0  0  0  0
  7 13  2  0  0  0  0
  7 16  1  0  0  0  0
  8 11  1  0  0  0  0
  8 12  1  0  0  0  0
  8 14  2  0  0  0  0
  9 10  1  0  0  0  0
  9 12  1  0  0  0  0
 10 15  1  0  0  0  0
 11 17  1  0  0  0  0
 11 18  1  0  0  0  0
 11 19  1  0  0  0  0
  1 20  1  0  0  0  0
  2 21  1  0  0  0  0
  3 22  1  0  0  0  0
  9 23  1  0  0  0  0
  9 24  1  0  0  0  0
 10 25  1  0  0  0  0
 10 26  1  0  0  0  0
 16 27  1  0  0  0  0
M  END
> <id>
EN300-28284259

> <smiles>
OC(=O)C=1C=CC=2OCCN(C(=O)C(F)(F)F)C2C1

> <IUPAC Name>
4-(2,2,2-trifluoroacetyl)-3,4-dihydro-2H-1,4-benzoxazine-6-carboxylic acid

> <CAS>
2680836-38-6

> <URL>
https://www.enaminestore.com/catalog/EN300-28284259

> <ROCS_ShapeQuery>
A71EV2A-x0451_0A_A71EV2A-x0310_0A_A71EV2A-x0416_0A_peptide

> <ROCS_TanimotoCombo>
0.516 

> <ROCS_ShapeTanimoto>
0.333 

> <ROCS_ColorTanimoto>
0.183 

> <ROCS_RefTversky>
0.293 

> <ROCS_RefColorTversky>
0.197 

> <ROCS_RefTverskyCombo>
0.490 

> <ROCS_FitTversky>
1.694 

> <ROCS_FitColorTversky>
0.727 

> <ROCS_FitTverskyCombo>
2.421 

> <ROCS_ColorScore>
-6.000

> <ROCS_Overlap>
2032.873

> <ROCS_Rank>
254                 

$$$$
untitled-dbase-104075_49
  -OEChem-11132313473D

 33 34  0     0  0  0  0  0  0999 V2000
    9.3398   12.8639   23.8120 C   0  0  0  0  0  0  0  0  0  0  0  0
   10.2622   11.0849   22.4290 C   0  0  0  0  0  0  0  0  0  0  0  0
    8.4236   10.5939   23.9101 C   0  0  0  0  0  0  0  0  0  0  0  0
    8.4389   11.9235   24.3165 C   0  0  0  0  0  0  0  0  0  0  0  0
   10.2555   12.4145   22.8550 C   0  0  0  0  0  0  0  0  0  0  0  0
    9.3498   10.1577   22.9481 C   0  0  0  0  0  0  0  0  0  0  0  0
    7.3774   10.0116   24.6574 C   0  0  0  0  0  0  0  0  0  0  0  0
   11.3383   14.6670   22.6000 C   0  0  0  0  0  0  0  0  0  0  0  0
   10.5318   16.5314   21.0933 C   0  0  0  0  0  0  0  0  0  0  0  0
   12.8551   17.4519   21.3464 C   0  0  0  0  0  0  0  0  0  0  0  0
   12.3572   15.7972   19.5237 C   0  0  0  0  0  0  0  0  0  0  0  0
   12.0236   16.2340   20.9495 C   0  0  0  0  0  0  0  0  0  0  0  0
    6.7736   10.8823   25.4695 N   0  0  0  0  0  0  0  0  0  0  0  0
    7.4359   12.0288   25.2422 N   0  0  0  0  0  0  0  0  0  0  0  0
   11.1782   13.3135   22.3164 N   0  0  0  0  0  0  0  0  0  0  0  0
   10.6878   15.3398   23.3904 O   0  0  0  0  0  0  0  0  0  0  0  0
    6.9448    8.7427   24.6421 O   0  0  0  0  0  0  0  0  0  0  0  0
   12.3643   15.1687   21.8443 O   0  0  0  0  0  0  0  0  0  0  0  0
    9.3686    8.8860   22.5282 F   0  0  0  0  0  0  0  0  0  0  0  0
    9.3251   13.8947   24.1510 H   0  0  0  0  0  0  0  0  0  0  0  0
   10.9821   10.7505   21.6850 H   0  0  0  0  0  0  0  0  0  0  0  0
    9.9315   15.6596   20.8093 H   0  0  0  0  0  0  0  0  0  0  0  0
   10.2735   16.8120   22.1196 H   0  0  0  0  0  0  0  0  0  0  0  0
   10.2292   17.3459   20.4252 H   0  0  0  0  0  0  0  0  0  0  0  0
   13.9262   17.2430   21.2448 H   0  0  0  0  0  0  0  0  0  0  0  0
   12.6897   17.7114   22.3984 H   0  0  0  0  0  0  0  0  0  0  0  0
   12.6122   18.3247   20.7317 H   0  0  0  0  0  0  0  0  0  0  0  0
   13.4273   15.5838   19.4203 H   0  0  0  0  0  0  0  0  0  0  0  0
   11.7968   14.9022   19.2346 H   0  0  0  0  0  0  0  0  0  0  0  0
   12.1307   16.5961   18.8084 H   0  0  0  0  0  0  0  0  0  0  0  0
    7.1527   12.8547   25.7547 H   0  0  0  0  0  0  0  0  0  0  0  0
   11.8226   12.9257   21.6203 H   0  0  0  0  0  0  0  0  0  0  0  0
    6.2008    8.6119   25.2629 H   0  0  0  0  0  0  0  0  0  0  0  0
  1  4  2  0  0  0  0
  1  5  1  0  0  0  0
  2  5  2  0  0  0  0
  2  6  1  0  0  0  0
  3  4  1  0  0  0  0
  3  6  2  0  0  0  0
  3  7  1  0  0  0  0
  4 14  1  0  0  0  0
  5 15  1  0  0  0  0
  6 19  1  0  0  0  0
  7 13  2  0  0  0  0
  7 17  1  0  0  0  0
  8 15  1  0  0  0  0
  8 16  2  0  0  0  0
  8 18  1  0  0  0  0
  9 12  1  0  0  0  0
 10 12  1  0  0  0  0
 11 12  1  0  0  0  0
 12 18  1  0  0  0  0
 13 14  1  0  0  0  0
  1 20  1  0  0  0  0
  2 21  1  0  0  0  0
  9 22  1  0  0  0  0
  9 23  1  0  0  0  0
  9 24  1  0  0  0  0
 10 25  1  0  0  0  0
 10 26  1  0  0  0  0
 10 27  1  0  0  0  0
 11 28  1  0  0  0  0
 11 29  1  0  0  0  0
 11 30  1  0  0  0  0
 14 31  1  0  0  0  0
 15 32  1  0  0  0  0
 17 33  1  0  0  0  0
M  END
> <id>
EN300-12447381

> <smiles>
CC(C)(C)OC(=O)NC=1C=C(F)C=2C(O)=NNC2C1

> <MDLNUMBER>
MFCD20923496

> <IUPAC Name>
tert-butyl N-(4-fluoro-3-hydroxy-1H-indazol-6-yl)carbamate

> <CAS>
1352395-12-0

> <URL>
https://www.enaminestore.com/catalog/EN300-12447381

> <ROCS_ShapeQuery>
A71EV2A-x0451_0A_A71EV2A-x0310_0A_A71EV2A-x0416_0A_peptide

> <ROCS_TanimotoCombo>
0.516 

> <ROCS_ShapeTanimoto>
0.333 

> <ROCS_ColorTanimoto>
0.183 

> <ROCS_RefTversky>
0.293 

> <ROCS_RefColorTversky>
0.206 

> <ROCS_RefTverskyCombo>
0.499 

> <ROCS_FitTversky>
1.707 

> <ROCS_FitColorTversky>
0.619 

> <ROCS_FitTverskyCombo>
2.327 

> <ROCS_ColorScore>
-6.293

> <ROCS_Overlap>
2033.286

> <ROCS_Rank>
255                 

$$$$
untitled-dbase-176656_23
  -OEChem-11132313473D

 26 27  0     0  0  0  0  0  0999 V2000
    6.8923   10.2911   25.3755 C   0  0  0  0  0  0  0  0  0  0  0  0
    6.7461   12.6261   25.6701 C   0  0  0  0  0  0  0  0  0  0  0  0
    6.2160   11.3765   25.9065 C   0  0  0  0  0  0  0  0  0  0  0  0
    8.0596   10.4935   24.6320 C   0  0  0  0  0  0  0  0  0  0  0  0
    8.5432   11.7867   24.4387 C   0  0  0  0  0  0  0  0  0  0  0  0
    9.8395    9.4461   23.3441 C   0  0  0  0  0  0  0  0  0  0  0  0
    4.9996   11.2044   26.6791 C   0  0  0  0  0  0  0  0  0  0  0  0
   10.4089   13.2010   23.4800 C   0  0  0  0  0  0  0  0  0  0  0  0
   10.2971   10.8319   22.9646 C   0  0  0  0  0  0  0  0  0  0  0  0
   11.0835   13.4722   22.1588 C   0  0  0  0  0  0  0  0  0  0  0  0
    7.8761   12.8450   24.9590 N   0  0  0  0  0  0  0  0  0  0  0  0
    8.7171    9.3719   24.1216 N   0  0  0  0  0  0  0  0  0  0  0  0
    9.7447   11.9789   23.6805 N   0  0  0  0  0  0  0  0  0  0  0  0
   10.4092    8.4491   22.8981 O   0  0  0  0  0  0  0  0  0  0  0  0
    4.3360   12.1161   27.1870 O   0  0  0  0  0  0  0  0  0  0  0  0
   10.4516   14.0879   24.3425 O   0  0  0  0  0  0  0  0  0  0  0  0
    4.6373    9.8968   26.7996 O   0  0  0  0  0  0  0  0  0  0  0  0
   10.9274   12.4258   21.3316 F   0  0  0  0  0  0  0  0  0  0  0  0
   10.5523   14.5593   21.5759 F   0  0  0  0  0  0  0  0  0  0  0  0
   12.3981   13.6833   22.3358 F   0  0  0  0  0  0  0  0  0  0  0  0
    6.5145    9.2837   25.5371 H   0  0  0  0  0  0  0  0  0  0  0  0
    6.2724   13.5252   26.0528 H   0  0  0  0  0  0  0  0  0  0  0  0
   11.3838   10.8533   23.0902 H   0  0  0  0  0  0  0  0  0  0  0  0
   10.0702   10.9621   21.9022 H   0  0  0  0  0  0  0  0  0  0  0  0
    8.3414    8.4549   24.3402 H   0  0  0  0  0  0  0  0  0  0  0  0
    3.8153    9.7698   27.3197 H   0  0  0  0  0  0  0  0  0  0  0  0
  1  3  1  0  0  0  0
  1  4  2  0  0  0  0
  2  3  2  0  0  0  0
  2 11  1  0  0  0  0
  3  7  1  0  0  0  0
  4  5  1  0  0  0  0
  4 12  1  0  0  0  0
  5 11  2  0  0  0  0
  5 13  1  0  0  0  0
  6  9  1  0  0  0  0
  6 12  1  0  0  0  0
  6 14  2  0  0  0  0
  7 15  2  0  0  0  0
  7 17  1  0  0  0  0
  8 10  1  0  0  0  0
  8 13  1  0  0  0  0
  8 16  2  0  0  0  0
  9 13  1  0  0  0  0
 10 18  1  0  0  0  0
 10 19  1  0  0  0  0
 10 20  1  0  0  0  0
  1 21  1  0  0  0  0
  2 22  1  0  0  0  0
  9 23  1  0  0  0  0
  9 24  1  0  0  0  0
 12 25  1  0  0  0  0
 17 26  1  0  0  0  0
M  END
> <id>
EN300-39681082

> <smiles>
OC(=O)C=1C=NC=2N(CC(=O)NC2C1)C(=O)C(F)(F)F

> <IUPAC Name>
2-oxo-4-(2,2,2-trifluoroacetyl)-1H,2H,3H,4H-pyrido[2,3-b]pyrazine-7-carboxylic acid

> <URL>
https://www.enaminestore.com/catalog/EN300-39681082

> <ROCS_ShapeQuery>
A71EV2A-x0451_0A_A71EV2A-x0310_0A_A71EV2A-x0416_0A_peptide

> <ROCS_TanimotoCombo>
0.516 

> <ROCS_ShapeTanimoto>
0.356 

> <ROCS_ColorTanimoto>
0.160 

> <ROCS_RefTversky>
0.310 

> <ROCS_RefColorTversky>
0.184 

> <ROCS_RefTverskyCombo>
0.494 

> <ROCS_FitTversky>
1.713 

> <ROCS_FitColorTversky>
0.554 

> <ROCS_FitTverskyCombo>
2.267 

> <ROCS_ColorScore>
-5.629

> <ROCS_Overlap>
2151.412

> <ROCS_Rank>
256                 

$$$$
untitled-dbase-152410_92
  -OEChem-11132313473D

 33 34  0     0  0  0  0  0  0999 V2000
    7.5214   12.7155   25.1210 C   0  0  0  0  0  0  0  0  0  0  0  0
    5.9902   10.8658   25.5035 C   0  0  0  0  0  0  0  0  0  0  0  0
    9.0926    9.9432   23.5252 C   0  0  0  0  0  0  0  0  0  0  0  0
    8.0262   10.4859   24.2628 C   0  0  0  0  0  0  0  0  0  0  0  0
    6.3332   12.2070   25.6569 C   0  0  0  0  0  0  0  0  0  0  0  0
    8.3574   11.8305   24.4232 C   0  0  0  0  0  0  0  0  0  0  0  0
    6.8285    9.9900   24.8072 C   0  0  0  0  0  0  0  0  0  0  0  0
    5.4420   13.0960   26.3867 C   0  0  0  0  0  0  0  0  0  0  0  0
   10.3395   13.1608   23.6528 C   0  0  0  0  0  0  0  0  0  0  0  0
   12.1146   15.2427   22.9058 C   0  0  0  0  0  0  0  0  0  0  0  0
   12.1218   14.1692   20.6350 C   0  0  0  0  0  0  0  0  0  0  0  0
    9.9799   15.0753   21.5831 C   0  0  0  0  0  0  0  0  0  0  0  0
   11.3140   14.4056   21.9092 C   0  0  0  0  0  0  0  0  0  0  0  0
   10.0297   10.8414   23.2310 N   0  0  0  0  0  0  0  0  0  0  0  0
    9.5775   11.9966   23.7814 N   0  0  0  0  0  0  0  0  0  0  0  0
    5.3125   14.3066   26.1800 O   0  0  0  0  0  0  0  0  0  0  0  0
   10.3111   14.0329   24.5055 O   0  0  0  0  0  0  0  0  0  0  0  0
    4.7370   12.4466   27.3530 O   0  0  0  0  0  0  0  0  0  0  0  0
   11.0508   13.1277   22.4960 O   0  0  0  0  0  0  0  0  0  0  0  0
    6.4869    8.7023   24.6673 F   0  0  0  0  0  0  0  0  0  0  0  0
    7.7802   13.7616   25.2456 H   0  0  0  0  0  0  0  0  0  0  0  0
    5.0637   10.4827   25.9249 H   0  0  0  0  0  0  0  0  0  0  0  0
    9.2265    8.9249   23.1887 H   0  0  0  0  0  0  0  0  0  0  0  0
   11.5382   15.4146   23.8219 H   0  0  0  0  0  0  0  0  0  0  0  0
   13.0580   14.7565   23.1748 H   0  0  0  0  0  0  0  0  0  0  0  0
   12.3407   16.2323   22.4926 H   0  0  0  0  0  0  0  0  0  0  0  0
   11.5513   13.5690   19.9171 H   0  0  0  0  0  0  0  0  0  0  0  0
   13.0360   13.6047   20.8515 H   0  0  0  0  0  0  0  0  0  0  0  0
   12.4021   15.1116   20.1536 H   0  0  0  0  0  0  0  0  0  0  0  0
    9.4054   14.4751   20.8683 H   0  0  0  0  0  0  0  0  0  0  0  0
    9.3708   15.2195   22.4814 H   0  0  0  0  0  0  0  0  0  0  0  0
   10.1390   16.0511   21.1100 H   0  0  0  0  0  0  0  0  0  0  0  0
    4.1322   13.0375   27.8505 H   0  0  0  0  0  0  0  0  0  0  0  0
  1  5  1  0  0  0  0
  1  6  2  0  0  0  0
  2  5  2  0  0  0  0
  2  7  1  0  0  0  0
  3  4  1  0  0  0  0
  3 14  2  0  0  0  0
  4  6  1  0  0  0  0
  4  7  2  0  0  0  0
  5  8  1  0  0  0  0
  6 15  1  0  0  0  0
  7 20  1  0  0  0  0
  8 16  2  0  0  0  0
  8 18  1  0  0  0  0
  9 15  1  0  0  0  0
  9 17  2  0  0  0  0
  9 19  1  0  0  0  0
 10 13  1  0  0  0  0
 11 13  1  0  0  0  0
 12 13  1  0  0  0  0
 13 19  1  0  0  0  0
 14 15  1  0  0  0  0
  1 21  1  0  0  0  0
  2 22  1  0  0  0  0
  3 23  1  0  0  0  0
 10 24  1  0  0  0  0
 10 25  1  0  0  0  0
 10 26  1  0  0  0  0
 11 27  1  0  0  0  0
 11 28  1  0  0  0  0
 11 29  1  0  0  0  0
 12 30  1  0  0  0  0
 12 31  1  0  0  0  0
 12 32  1  0  0  0  0
 18 33  1  0  0  0  0
M  END
> <id>
EN300-28262937

> <smiles>
CC(C)(C)OC(=O)N1N=CC=2C(F)=CC(=CC12)C(=O)O

> <IUPAC Name>
1-[(tert-butoxy)carbonyl]-4-fluoro-1H-indazole-6-carboxylic acid

> <CAS>
2680808-51-7

> <URL>
https://www.enaminestore.com/catalog/EN300-28262937

> <ROCS_ShapeQuery>
A71EV2A-x0451_0A_A71EV2A-x0310_0A_A71EV2A-x0416_0A_peptide

> <ROCS_TanimotoCombo>
0.516 

> <ROCS_ShapeTanimoto>
0.357 

> <ROCS_ColorTanimoto>
0.159 

> <ROCS_RefTversky>
0.310 

> <ROCS_RefColorTversky>
0.178 

> <ROCS_RefTverskyCombo>
0.489 

> <ROCS_FitTversky>
1.737 

> <ROCS_FitColorTversky>
0.591 

> <ROCS_FitTverskyCombo>
2.328 

> <ROCS_ColorScore>
-5.447

> <ROCS_Overlap>
2153.188

> <ROCS_Rank>
257                 

$$$$
untitled-dbase-179052_20
  -OEChem-11132313473D

 33 34  0     0  0  0  0  0  0999 V2000
    6.9563   12.6893   25.7397 C   0  0  0  0  0  0  0  0  0  0  0  0
    6.4664   11.4385   26.1103 C   0  0  0  0  0  0  0  0  0  0  0  0
    8.0165   12.8034   24.8331 C   0  0  0  0  0  0  0  0  0  0  0  0
    7.0180   10.2649   25.5886 C   0  0  0  0  0  0  0  0  0  0  0  0
    9.7533   10.0164   23.2279 C   0  0  0  0  0  0  0  0  0  0  0  0
    8.5887   11.6341   24.2939 C   0  0  0  0  0  0  0  0  0  0  0  0
    8.0773   10.3943   24.6833 C   0  0  0  0  0  0  0  0  0  0  0  0
    9.6454   11.3801   23.3754 C   0  0  0  0  0  0  0  0  0  0  0  0
   10.8365   13.5811   23.1577 C   0  0  0  0  0  0  0  0  0  0  0  0
   11.0070   16.4123   22.7908 C   0  0  0  0  0  0  0  0  0  0  0  0
   12.1679   15.8764   20.6288 C   0  0  0  0  0  0  0  0  0  0  0  0
    9.7941   15.1395   20.9899 C   0  0  0  0  0  0  0  0  0  0  0  0
   11.1446   15.3979   21.6565 C   0  0  0  0  0  0  0  0  0  0  0  0
    8.8031    9.4304   24.0205 N   0  0  0  0  0  0  0  0  0  0  0  0
   10.4375   12.3040   22.7315 N   0  0  0  0  0  0  0  0  0  0  0  0
   10.5410   14.1227   24.2160 O   0  0  0  0  0  0  0  0  0  0  0  0
   11.6265   14.1650   22.2035 O   0  0  0  0  0  0  0  0  0  0  0  0
    6.5115   13.5881   26.1589 H   0  0  0  0  0  0  0  0  0  0  0  0
    5.6422   11.3730   26.8158 H   0  0  0  0  0  0  0  0  0  0  0  0
    8.3867   13.7857   24.5540 H   0  0  0  0  0  0  0  0  0  0  0  0
    6.6362    9.2914   25.8777 H   0  0  0  0  0  0  0  0  0  0  0  0
   10.4196    9.4085   22.6313 H   0  0  0  0  0  0  0  0  0  0  0  0
   10.2733   16.0725   23.5306 H   0  0  0  0  0  0  0  0  0  0  0  0
   11.9617   16.5803   23.2998 H   0  0  0  0  0  0  0  0  0  0  0  0
   10.6422   17.3743   22.4130 H   0  0  0  0  0  0  0  0  0  0  0  0
   12.2698   15.1516   19.8130 H   0  0  0  0  0  0  0  0  0  0  0  0
   13.1610   15.9723   21.0824 H   0  0  0  0  0  0  0  0  0  0  0  0
   11.8877   16.8440   20.1999 H   0  0  0  0  0  0  0  0  0  0  0  0
    9.8926   14.4119   20.1761 H   0  0  0  0  0  0  0  0  0  0  0  0
    9.0573   14.7602   21.7053 H   0  0  0  0  0  0  0  0  0  0  0  0
    9.4006   16.0572   20.5381 H   0  0  0  0  0  0  0  0  0  0  0  0
    8.6548    8.4345   24.1075 H   0  0  0  0  0  0  0  0  0  0  0  0
   10.7883   12.0167   21.8025 H   0  0  0  0  0  0  0  0  0  0  0  0
  1  2  2  0  0  0  0
  1  3  1  0  0  0  0
  2  4  1  0  0  0  0
  3  6  2  0  0  0  0
  4  7  2  0  0  0  0
  5  8  2  0  0  0  0
  5 14  1  0  0  0  0
  6  7  1  0  0  0  0
  6  8  1  0  0  0  0
  7 14  1  0  0  0  0
  8 15  1  0  0  0  0
  9 15  1  0  0  0  0
  9 16  2  0  0  0  0
  9 17  1  0  0  0  0
 10 13  1  0  0  0  0
 11 13  1  0  0  0  0
 12 13  1  0  0  0  0
 13 17  1  0  0  0  0
  1 18  1  0  0  0  0
  2 19  1  0  0  0  0
  3 20  1  0  0  0  0
  4 21  1  0  0  0  0
  5 22  1  0  0  0  0
 10 23  1  0  0  0  0
 10 24  1  0  0  0  0
 10 25  1  0  0  0  0
 11 26  1  0  0  0  0
 11 27  1  0  0  0  0
 11 28  1  0  0  0  0
 12 29  1  0  0  0  0
 12 30  1  0  0  0  0
 12 31  1  0  0  0  0
 14 32  1  0  0  0  0
 15 33  1  0  0  0  0
M  END
> <id>
EN300-7300454

> <smiles>
CC(C)(C)OC(=O)NC1=CNC=2C=CC=CC12

> <MDLNUMBER>
MFCD13248702

> <IUPAC Name>
tert-butyl N-(1H-indol-3-yl)carbamate

> <CAS>
1199215-71-8

> <Purity>
95

> <URL>
https://www.enaminestore.com/catalog/EN300-7300454

> <MP>
177-179

> <ROCS_ShapeQuery>
A71EV2A-x0451_0A_A71EV2A-x0310_0A_A71EV2A-x0416_0A_peptide

> <ROCS_TanimotoCombo>
0.516 

> <ROCS_ShapeTanimoto>
0.332 

> <ROCS_ColorTanimoto>
0.184 

> <ROCS_RefTversky>
0.289 

> <ROCS_RefColorTversky>
0.193 

> <ROCS_RefTverskyCombo>
0.481 

> <ROCS_FitTversky>
1.827 

> <ROCS_FitColorTversky>
0.803 

> <ROCS_FitTverskyCombo>
2.630 

> <ROCS_ColorScore>
-5.863

> <ROCS_Overlap>
2000.864

> <ROCS_Rank>
258                 

$$$$
untitled-dbase-148837_197
  -OEChem-11132313473D

 39 40  0     1  0  0  0  0  0999 V2000
   11.0421   13.4264   23.3934 C   0  0  0  0  0  0  0  0  0  0  0  0
    9.4727   11.1295   24.7948 C   0  0  0  0  0  0  0  0  0  0  0  0
    8.8147   10.5119   22.4243 C   0  0  0  0  0  0  0  0  0  0  0  0
    8.1349   12.6487   23.6282 C   0  0  0  0  0  0  0  0  0  0  0  0
    8.0148   10.9075   25.1741 C   0  0  2  0  0  0  0  0  0  0  0  0
    8.1448    9.3330   23.1481 C   0  0  2  0  0  0  0  0  0  0  0  0
    7.3421    9.7720   24.3808 C   0  0  1  0  0  0  0  0  0  0  0  0
    9.2751   11.6500   23.3779 C   0  0  1  0  0  0  0  0  0  0  0  0
   12.7088   15.6359   24.0933 C   0  0  0  0  0  0  0  0  0  0  0  0
   13.6606   15.4122   21.7796 C   0  0  0  0  0  0  0  0  0  0  0  0
   11.2291   15.9632   22.0838 C   0  0  0  0  0  0  0  0  0  0  0  0
   12.4265   15.2048   22.6548 C   0  0  0  0  0  0  0  0  0  0  0  0
   10.4523   12.3093   22.8315 N   0  0  0  0  0  0  0  0  0  0  0  0
   10.6594   14.0000   24.4079 O   0  0  0  0  0  0  0  0  0  0  0  0
    7.3788   12.1339   24.7416 O   0  0  0  0  0  0  0  0  0  0  0  0
    9.1787    8.4197   23.5328 O   0  0  0  0  0  0  0  0  0  0  0  0
    7.1231    8.6607   25.2450 O   0  0  0  0  0  0  0  0  0  0  0  0
   12.1242   13.8050   22.6497 O   0  0  0  0  0  0  0  0  0  0  0  0
    9.9123   11.9042   25.4356 H   0  0  0  0  0  0  0  0  0  0  0  0
   10.0948   10.2326   24.8607 H   0  0  0  0  0  0  0  0  0  0  0  0
    9.6758   10.1422   21.8420 H   0  0  0  0  0  0  0  0  0  0  0  0
    8.1089   10.9065   21.6749 H   0  0  0  0  0  0  0  0  0  0  0  0
    8.5115   13.6347   23.9289 H   0  0  0  0  0  0  0  0  0  0  0  0
    7.4759   12.7834   22.7628 H   0  0  0  0  0  0  0  0  0  0  0  0
    7.8789   10.7823   26.2449 H   0  0  0  0  0  0  0  0  0  0  0  0
    7.5045    8.8113   22.4536 H   0  0  0  0  0  0  0  0  0  0  0  0
    6.3360   10.1011   24.0381 H   0  0  0  0  0  0  0  0  0  0  0  0
   11.8254   15.4886   24.7248 H   0  0  0  0  0  0  0  0  0  0  0  0
   13.5433   15.0746   24.5262 H   0  0  0  0  0  0  0  0  0  0  0  0
   12.9485   16.7044   24.1414 H   0  0  0  0  0  0  0  0  0  0  0  0
   13.4625   15.1042   20.7466 H   0  0  0  0  0  0  0  0  0  0  0  0
   14.4961   14.7959   22.1306 H   0  0  0  0  0  0  0  0  0  0  0  0
   13.9805   16.4592   21.7738 H   0  0  0  0  0  0  0  0  0  0  0  0
   11.0264   15.6541   21.0520 H   0  0  0  0  0  0  0  0  0  0  0  0
   10.3252   15.7963   22.6785 H   0  0  0  0  0  0  0  0  0  0  0  0
   11.4300   17.0401   22.0502 H   0  0  0  0  0  0  0  0  0  0  0  0
   10.8663   11.9245   21.9843 H   0  0  0  0  0  0  0  0  0  0  0  0
    8.7438    7.6809   23.9881 H   0  0  0  0  0  0  0  0  0  0  0  0
    6.5466    8.9752   25.9586 H   0  0  0  0  0  0  0  0  0  0  0  0
  1 13  1  0  0  0  0
  1 14  2  0  0  0  0
  1 18  1  0  0  0  0
  2  5  1  0  0  0  0
  2  8  1  0  0  0  0
  3  6  1  0  0  0  0
  3  8  1  0  0  0  0
  4  8  1  0  0  0  0
  4 15  1  0  0  0  0
  5  7  1  0  0  0  0
  5 15  1  0  0  0  0
  6  7  1  0  0  0  0
  6 16  1  1  0  0  0
  7 17  1  1  0  0  0
  8 13  1  0  0  0  0
  9 12  1  0  0  0  0
 10 12  1  0  0  0  0
 11 12  1  0  0  0  0
 12 18  1  0  0  0  0
  2 19  1  0  0  0  0
  2 20  1  0  0  0  0
  3 21  1  0  0  0  0
  3 22  1  0  0  0  0
  4 23  1  0  0  0  0
  4 24  1  0  0  0  0
  5 25  1  0  0  0  0
  6 26  1  0  0  0  0
  7 27  1  0  0  0  0
  9 28  1  0  0  0  0
  9 29  1  0  0  0  0
  9 30  1  0  0  0  0
 10 31  1  0  0  0  0
 10 32  1  0  0  0  0
 10 33  1  0  0  0  0
 11 34  1  0  0  0  0
 11 35  1  0  0  0  0
 11 36  1  0  0  0  0
 13 37  1  0  0  0  0
 16 38  1  0  0  0  0
 17 39  1  0  0  0  0
M  END
> <id>
EN300-28228815

> <smiles>
CC(C)(C)OC(=O)NC1(COC2C1)C[C@@H](O)[C@H]2O |&1:14,16,r|

> <IUPAC Name>
rac-tert-butyl N-[(3R,4R)-3,4-dihydroxy-6-oxabicyclo[3.2.1]octan-1-yl]carbamate

> <CAS>
2731012-67-0

> <URL>
https://www.enaminestore.com/catalog/EN300-28228815

> <ROCS_ShapeQuery>
A71EV2A-x0451_0A_A71EV2A-x0310_0A_A71EV2A-x0416_0A_peptide

> <ROCS_TanimotoCombo>
0.516 

> <ROCS_ShapeTanimoto>
0.310 

> <ROCS_ColorTanimoto>
0.206 

> <ROCS_RefTversky>
0.275 

> <ROCS_RefColorTversky>
0.252 

> <ROCS_RefTverskyCombo>
0.527 

> <ROCS_FitTversky>
1.699 

> <ROCS_FitColorTversky>
0.526 

> <ROCS_FitTverskyCombo>
2.226 

> <ROCS_ColorScore>
-7.775

> <ROCS_Overlap>
1907.509

> <ROCS_Rank>
259                 

$$$$
untitled-dbase-153855_55
  -OEChem-11132313473D

 44 46  0     1  0  0  0  0  0999 V2000
    6.4513   10.7033   25.1428 C   0  0  0  0  0  0  0  0  0  0  0  0
    6.0576   11.8703   25.7940 C   0  0  0  0  0  0  0  0  0  0  0  0
    8.2092   12.8597   25.3156 C   0  0  0  0  0  0  0  0  0  0  0  0
    8.6196   11.6912   24.6556 C   0  0  0  0  0  0  0  0  0  0  0  0
    7.7228   10.6197   24.5709 C   0  0  0  0  0  0  0  0  0  0  0  0
    6.9355   12.9485   25.8799 C   0  0  0  0  0  0  0  0  0  0  0  0
   10.4610   13.8219   22.9765 C   0  0  0  0  0  0  0  0  0  0  0  0
    8.6651    8.2259   21.3662 C   0  0  0  0  0  0  0  0  0  0  0  0
    9.5773    7.9915   22.5829 C   0  0  0  0  0  0  0  0  0  0  0  0
    8.8721    9.7357   21.5792 C   0  0  0  0  0  0  0  0  0  0  0  0
   10.3714   10.1559   23.7129 C   0  0  0  0  0  0  0  0  0  0  0  0
   10.0005   11.6063   24.0532 C   0  0  1  0  0  0  0  0  0  0  0  0
    9.1915    9.4227   23.0755 C   0  0  0  0  0  0  0  0  0  0  0  0
   12.8746   14.1486   22.0208 C   0  0  0  0  0  0  0  0  0  0  0  0
   11.8641   14.7703   19.8068 C   0  0  0  0  0  0  0  0  0  0  0  0
   11.7858   16.3975   21.7184 C   0  0  0  0  0  0  0  0  0  0  0  0
   11.7569   14.9219   21.3227 C   0  0  0  0  0  0  0  0  0  0  0  0
   10.1280   12.4881   22.8897 N   0  0  0  0  0  0  0  0  0  0  0  0
   10.6907   14.4389   24.0115 O   0  0  0  0  0  0  0  0  0  0  0  0
    8.0457    9.4281   23.9681 O   0  0  0  0  0  0  0  0  0  0  0  0
   10.4993   14.3668   21.7239 O   0  0  0  0  0  0  0  0  0  0  0  0
    6.4019   14.5302   26.7661 Br  0  0  0  0  0  0  0  0  0  0  0  0
    5.7677    9.8597   25.0937 H   0  0  0  0  0  0  0  0  0  0  0  0
    5.0660   11.9195   26.2370 H   0  0  0  0  0  0  0  0  0  0  0  0
    8.8885   13.7036   25.3958 H   0  0  0  0  0  0  0  0  0  0  0  0
    9.0817    7.8522   20.4256 H   0  0  0  0  0  0  0  0  0  0  0  0
    7.6388    7.8697   21.4688 H   0  0  0  0  0  0  0  0  0  0  0  0
    9.2305    7.1901   23.2426 H   0  0  0  0  0  0  0  0  0  0  0  0
   10.6269    7.8181   22.3422 H   0  0  0  0  0  0  0  0  0  0  0  0
    9.6772   10.1806   20.9928 H   0  0  0  0  0  0  0  0  0  0  0  0
    7.9627   10.3269   21.4370 H   0  0  0  0  0  0  0  0  0  0  0  0
   11.2244   10.1353   23.0097 H   0  0  0  0  0  0  0  0  0  0  0  0
   10.7184    9.6405   24.6255 H   0  0  0  0  0  0  0  0  0  0  0  0
   10.7029   12.0031   24.8052 H   0  0  0  0  0  0  0  0  0  0  0  0
   12.8012   14.2549   23.1090 H   0  0  0  0  0  0  0  0  0  0  0  0
   12.8435   13.0826   21.7727 H   0  0  0  0  0  0  0  0  0  0  0  0
   13.8579   14.5413   21.7375 H   0  0  0  0  0  0  0  0  0  0  0  0
   11.0641   15.3236   19.3018 H   0  0  0  0  0  0  0  0  0  0  0  0
   11.7487   13.7215   19.5104 H   0  0  0  0  0  0  0  0  0  0  0  0
   12.8266   15.1328   19.4316 H   0  0  0  0  0  0  0  0  0  0  0  0
   10.9842   16.9524   21.2178 H   0  0  0  0  0  0  0  0  0  0  0  0
   11.6729   16.5274   22.7996 H   0  0  0  0  0  0  0  0  0  0  0  0
   12.7268   16.8659   21.4078 H   0  0  0  0  0  0  0  0  0  0  0  0
    9.9619   12.0947   21.9701 H   0  0  0  0  0  0  0  0  0  0  0  0
  1  2  1  0  0  0  0
  1  5  2  0  0  0  0
  2  6  2  0  0  0  0
  3  4  2  0  0  0  0
  3  6  1  0  0  0  0
  4  5  1  0  0  0  0
  4 12  1  0  0  0  0
  5 20  1  0  0  0  0
  6 22  1  0  0  0  0
  7 18  1  0  0  0  0
  7 19  2  0  0  0  0
  7 21  1  0  0  0  0
  8  9  1  0  0  0  0
  8 10  1  0  0  0  0
  9 13  1  0  0  0  0
 10 13  1  0  0  0  0
 11 12  1  0  0  0  0
 11 13  1  0  0  0  0
 12 18  1  0  0  0  0
 13 20  1  0  0  0  0
 14 17  1  0  0  0  0
 15 17  1  0  0  0  0
 16 17  1  0  0  0  0
 17 21  1  0  0  0  0
  1 23  1  0  0  0  0
  2 24  1  0  0  0  0
  3 25  1  0  0  0  0
  8 26  1  0  0  0  0
  8 27  1  0  0  0  0
  9 28  1  0  0  0  0
  9 29  1  0  0  0  0
 10 30  1  0  0  0  0
 10 31  1  0  0  0  0
 11 32  1  0  0  0  0
 11 33  1  0  0  0  0
 12 34  1  0  0  0  0
 14 35  1  0  0  0  0
 14 36  1  0  0  0  0
 14 37  1  0  0  0  0
 15 38  1  0  0  0  0
 15 39  1  0  0  0  0
 15 40  1  0  0  0  0
 16 41  1  0  0  0  0
 16 42  1  0  0  0  0
 16 43  1  0  0  0  0
 18 44  1  0  0  0  0
M  END
> <id>
EN300-28300670

> <smiles>
CC(C)(C)OC(=O)NC1CC2(CCC2)OC=3C=CC(Br)=CC13

> <IUPAC Name>
tert-butyl N-{6-bromo-3,4-dihydrospiro[1-benzopyran-2,1'-cyclobutan]-4-yl}carbamate

> <CAS>
2680834-06-2

> <URL>
https://www.enaminestore.com/catalog/EN300-28300670

> <ROCS_ShapeQuery>
A71EV2A-x0451_0A_A71EV2A-x0310_0A_A71EV2A-x0416_0A_peptide

> <ROCS_TanimotoCombo>
0.516 

> <ROCS_ShapeTanimoto>
0.358 

> <ROCS_ColorTanimoto>
0.158 

> <ROCS_RefTversky>
0.312 

> <ROCS_RefColorTversky>
0.177 

> <ROCS_RefTverskyCombo>
0.490 

> <ROCS_FitTversky>
1.683 

> <ROCS_FitColorTversky>
0.589 

> <ROCS_FitTverskyCombo>
2.272 

> <ROCS_ColorScore>
-5.413

> <ROCS_Overlap>
2169.746

> <ROCS_Rank>
260                 

$$$$
untitled-dbase-164650_76
  -OEChem-11132313473D

 40 42  0     1  0  0  0  0  0999 V2000
   10.2897   13.3504   23.5126 C   0  0  0  0  0  0  0  0  0  0  0  0
   11.2811   14.0805   19.4423 C   0  0  0  0  0  0  0  0  0  0  0  0
   10.8061   15.3115   20.2169 C   0  0  0  0  0  0  0  0  0  0  0  0
   12.3181   13.3985   20.3330 C   0  0  0  0  0  0  0  0  0  0  0  0
   11.5816   15.3045   21.5331 C   0  0  0  0  0  0  0  0  0  0  0  0
    7.2955   11.2767   23.4403 C   0  0  0  0  0  0  0  0  0  0  0  0
    8.2753   10.0478   25.4343 C   0  0  0  0  0  0  0  0  0  0  0  0
    9.5646   10.1791   23.1980 C   0  0  0  0  0  0  0  0  0  0  0  0
    8.4322   12.5475   25.0760 C   0  0  0  0  0  0  0  0  0  0  0  0
    7.5265   11.3115   24.9533 C   0  0  1  0  0  0  0  0  0  0  0  0
    8.7340   11.4553   22.9590 C   0  0  2  0  0  0  0  0  0  0  0  0
   11.9723   13.8448   21.7515 C   0  0  0  0  0  0  0  0  0  0  0  0
    9.0317    9.2754   24.3307 C   0  0  2  0  0  0  0  0  0  0  0  0
    9.2250   12.5177   23.8485 N   0  0  0  0  0  0  0  0  0  0  0  0
    8.1472    8.2487   23.7605 N   0  0  0  0  0  0  0  0  0  0  0  0
   10.8575   13.0866   22.2713 N   0  0  0  0  0  0  0  0  0  0  0  0
   10.6951   14.2474   24.2567 O   0  0  0  0  0  0  0  0  0  0  0  0
   10.4550   13.4034   19.2044 H   0  0  0  0  0  0  0  0  0  0  0  0
   11.7374   14.3901   18.4953 H   0  0  0  0  0  0  0  0  0  0  0  0
   11.0316   16.2198   19.6469 H   0  0  0  0  0  0  0  0  0  0  0  0
    9.7260   15.2923   20.3915 H   0  0  0  0  0  0  0  0  0  0  0  0
   12.2243   12.3051   20.2329 H   0  0  0  0  0  0  0  0  0  0  0  0
   13.3449   13.6678   20.0472 H   0  0  0  0  0  0  0  0  0  0  0  0
   12.4539   15.9726   21.4992 H   0  0  0  0  0  0  0  0  0  0  0  0
   10.9258   15.6602   22.3440 H   0  0  0  0  0  0  0  0  0  0  0  0
    6.8332   10.3487   23.0958 H   0  0  0  0  0  0  0  0  0  0  0  0
    6.6711   12.1181   23.1223 H   0  0  0  0  0  0  0  0  0  0  0  0
    8.9875   10.3266   26.2345 H   0  0  0  0  0  0  0  0  0  0  0  0
    7.5393    9.3771   25.9199 H   0  0  0  0  0  0  0  0  0  0  0  0
    9.6044    9.6066   22.2485 H   0  0  0  0  0  0  0  0  0  0  0  0
   10.6174   10.4524   23.4132 H   0  0  0  0  0  0  0  0  0  0  0  0
    7.8447   13.4716   25.0722 H   0  0  0  0  0  0  0  0  0  0  0  0
    9.0743   12.5314   25.9611 H   0  0  0  0  0  0  0  0  0  0  0  0
    6.5976   11.4433   25.5173 H   0  0  0  0  0  0  0  0  0  0  0  0
    8.8013   11.7746   21.9099 H   0  0  0  0  0  0  0  0  0  0  0  0
   12.7958   13.7453   22.4201 H   0  0  0  0  0  0  0  0  0  0  0  0
    9.8704    8.7525   24.7840 H   0  0  0  0  0  0  0  0  0  0  0  0
    8.6623    7.7368   23.0843 H   0  0  0  0  0  0  0  0  0  0  0  0
    7.8472    7.6552   24.4969 H   0  0  0  0  0  0  0  0  0  0  0  0
   10.5197   12.2986   21.7232 H   0  0  0  0  0  0  0  0  0  0  0  0
  1 14  1  0  0  0  0
  1 16  1  0  0  0  0
  1 17  2  0  0  0  0
  2  3  1  0  0  0  0
  2  4  1  0  0  0  0
  3  5  1  0  0  0  0
  4 12  1  0  0  0  0
  5 12  1  0  0  0  0
  6 10  1  0  0  0  0
  6 11  1  0  0  0  0
  7 10  1  0  0  0  0
  7 13  1  0  0  0  0
  8 11  1  0  0  0  0
  8 13  1  0  0  0  0
  9 10  1  0  0  0  0
  9 14  1  0  0  0  0
 11 14  1  0  0  0  0
 12 16  1  0  0  0  0
 13 15  1  0  0  0  0
  2 18  1  0  0  0  0
  2 19  1  0  0  0  0
  3 20  1  0  0  0  0
  3 21  1  0  0  0  0
  4 22  1  0  0  0  0
  4 23  1  0  0  0  0
  5 24  1  0  0  0  0
  5 25  1  0  0  0  0
  6 26  1  0  0  0  0
  6 27  1  0  0  0  0
  7 28  1  0  0  0  0
  7 29  1  0  0  0  0
  8 30  1  0  0  0  0
  8 31  1  0  0  0  0
  9 32  1  0  0  0  0
  9 33  1  0  0  0  0
 10 34  1  0  0  0  0
 11 35  1  0  0  0  0
 12 36  1  0  0  0  0
 13 37  1  0  0  0  0
 15 38  1  0  0  0  0
 15 39  1  0  0  0  0
 16 40  1  0  0  0  0
M  END
> <id>
EN300-784573

> <smiles>
NC1CC2CC(C1)N(C2)C(=O)NC3CCCC3

> <IUPAC Name>
3-amino-N-cyclopentyl-6-azabicyclo[3.2.1]octane-6-carboxamide

> <CAS>
2138001-27-9

> <URL>
https://www.enaminestore.com/catalog/EN300-784573

> <ROCS_ShapeQuery>
A71EV2A-x0451_0A_A71EV2A-x0310_0A_A71EV2A-x0416_0A_peptide

> <ROCS_TanimotoCombo>
0.516 

> <ROCS_ShapeTanimoto>
0.290 

> <ROCS_ColorTanimoto>
0.226 

> <ROCS_RefTversky>
0.260 

> <ROCS_RefColorTversky>
0.256 

> <ROCS_RefTverskyCombo>
0.515 

> <ROCS_FitTversky>
1.675 

> <ROCS_FitColorTversky>
0.659 

> <ROCS_FitTverskyCombo>
2.334 

> <ROCS_ColorScore>
-7.836

> <ROCS_Overlap>
1799.907

> <ROCS_Rank>
261                 

$$$$
untitled-dbase-104515_25
  -OEChem-11132313473D

 40 41  0     1  0  0  0  0  0999 V2000
    6.9867   12.1288   26.0333 C   0  0  0  0  0  0  0  0  0  0  0  0
    8.0836   12.6402   25.3329 C   0  0  0  0  0  0  0  0  0  0  0  0
    6.5330   10.8220   25.8030 C   0  0  0  0  0  0  0  0  0  0  0  0
    8.2597   10.5192   24.1810 C   0  0  0  0  0  0  0  0  0  0  0  0
    8.7154   11.8201   24.4106 C   0  0  0  0  0  0  0  0  0  0  0  0
    7.1688   10.0074   24.8661 C   0  0  0  0  0  0  0  0  0  0  0  0
   11.4586   10.3490   23.5038 C   0  0  0  0  0  0  0  0  0  0  0  0
   10.4365   13.3275   23.4164 C   0  0  0  0  0  0  0  0  0  0  0  0
    9.0487    9.8430   23.1003 C   0  0  0  0  0  0  0  0  0  0  0  0
   10.1901   10.8462   22.8716 C   0  0  1  0  0  0  0  0  0  0  0  0
   12.7555   14.8836   22.7834 C   0  0  0  0  0  0  0  0  0  0  0  0
   12.0099   14.6856   20.3930 C   0  0  0  0  0  0  0  0  0  0  0  0
   10.5483   15.8573   22.0660 C   0  0  0  0  0  0  0  0  0  0  0  0
   13.7024   10.9491   23.9389 C   0  0  0  0  0  0  0  0  0  0  0  0
   11.5555   14.7286   21.8503 C   0  0  0  0  0  0  0  0  0  0  0  0
    9.8280   12.0898   23.5865 N   0  0  0  0  0  0  0  0  0  0  0  0
   11.5724    9.2574   24.0449 O   0  0  0  0  0  0  0  0  0  0  0  0
   10.5472   14.1972   24.2761 O   0  0  0  0  0  0  0  0  0  0  0  0
    6.7175    8.7484   24.6328 O   0  0  0  0  0  0  0  0  0  0  0  0
   12.4327   11.2944   23.3760 O   0  0  0  0  0  0  0  0  0  0  0  0
   10.9120   13.4819   22.1387 O   0  0  0  0  0  0  0  0  0  0  0  0
    6.4786   12.7509   26.7655 H   0  0  0  0  0  0  0  0  0  0  0  0
    8.4129   13.6513   25.5388 H   0  0  0  0  0  0  0  0  0  0  0  0
    5.6757   10.4498   26.3581 H   0  0  0  0  0  0  0  0  0  0  0  0
    9.3988    8.8563   23.4189 H   0  0  0  0  0  0  0  0  0  0  0  0
    8.4292    9.7518   22.2020 H   0  0  0  0  0  0  0  0  0  0  0  0
   10.3777   11.0428   21.8116 H   0  0  0  0  0  0  0  0  0  0  0  0
   12.4336   14.9149   23.8304 H   0  0  0  0  0  0  0  0  0  0  0  0
   13.4687   14.0616   22.6633 H   0  0  0  0  0  0  0  0  0  0  0  0
   13.2797   15.8271   22.5928 H   0  0  0  0  0  0  0  0  0  0  0  0
   11.1520   14.5744   19.7200 H   0  0  0  0  0  0  0  0  0  0  0  0
   12.6584   13.8208   20.2118 H   0  0  0  0  0  0  0  0  0  0  0  0
   12.5551   15.5926   20.1128 H   0  0  0  0  0  0  0  0  0  0  0  0
    9.6874   15.7463   21.3968 H   0  0  0  0  0  0  0  0  0  0  0  0
   10.1832   15.8803   23.0979 H   0  0  0  0  0  0  0  0  0  0  0  0
   10.9972   16.8298   21.8337 H   0  0  0  0  0  0  0  0  0  0  0  0
   14.4064   11.7701   23.7828 H   0  0  0  0  0  0  0  0  0  0  0  0
   14.0769   10.0386   23.4644 H   0  0  0  0  0  0  0  0  0  0  0  0
   13.5806   10.7755   25.0107 H   0  0  0  0  0  0  0  0  0  0  0  0
    5.9463    8.5549   25.1915 H   0  0  0  0  0  0  0  0  0  0  0  0
  1  2  2  0  0  0  0
  1  3  1  0  0  0  0
  2  5  1  0  0  0  0
  3  6  2  0  0  0  0
  4  5  2  0  0  0  0
  4  6  1  0  0  0  0
  4  9  1  0  0  0  0
  5 16  1  0  0  0  0
  6 19  1  0  0  0  0
  7 10  1  0  0  0  0
  7 17  2  0  0  0  0
  7 20  1  0  0  0  0
  8 16  1  0  0  0  0
  8 18  2  0  0  0  0
  8 21  1  0  0  0  0
  9 10  1  0  0  0  0
 10 16  1  0  0  0  0
 11 15  1  0  0  0  0
 12 15  1  0  0  0  0
 13 15  1  0  0  0  0
 14 20  1  0  0  0  0
 15 21  1  0  0  0  0
  1 22  1  0  0  0  0
  2 23  1  0  0  0  0
  3 24  1  0  0  0  0
  9 25  1  0  0  0  0
  9 26  1  0  0  0  0
 10 27  1  0  0  0  0
 11 28  1  0  0  0  0
 11 29  1  0  0  0  0
 11 30  1  0  0  0  0
 12 31  1  0  0  0  0
 12 32  1  0  0  0  0
 12 33  1  0  0  0  0
 13 34  1  0  0  0  0
 13 35  1  0  0  0  0
 13 36  1  0  0  0  0
 14 37  1  0  0  0  0
 14 38  1  0  0  0  0
 14 39  1  0  0  0  0
 19 40  1  0  0  0  0
M  END
> <id>
EN300-26664938

> <smiles>
COC(=O)C1CC=2C(=CC=CC2O)N1C(=O)OC(C)(C)C

> <IUPAC Name>
1-tert-butyl 2-methyl 4-hydroxy-2,3-dihydro-1H-indole-1,2-dicarboxylate

> <CAS>
2413867-77-1

> <URL>
https://www.enaminestore.com/catalog/EN300-26664938

> <ROCS_ShapeQuery>
A71EV2A-x0451_0A_A71EV2A-x0310_0A_A71EV2A-x0416_0A_peptide

> <ROCS_TanimotoCombo>
0.516 

> <ROCS_ShapeTanimoto>
0.358 

> <ROCS_ColorTanimoto>
0.158 

> <ROCS_RefTversky>
0.312 

> <ROCS_RefColorTversky>
0.173 

> <ROCS_RefTverskyCombo>
0.485 

> <ROCS_FitTversky>
1.707 

> <ROCS_FitColorTversky>
0.639 

> <ROCS_FitTverskyCombo>
2.346 

> <ROCS_ColorScore>
-5.270

> <ROCS_Overlap>
2165.218

> <ROCS_Rank>
262                 

$$$$
untitled-dbase-117589_117
  -OEChem-11132313473D

 37 39  0     1  0  0  0  0  0999 V2000
    5.7345   12.6884   26.2950 C   0  0  0  0  0  0  0  0  0  0  0  0
   10.0392   13.0454   23.5691 C   0  0  0  0  0  0  0  0  0  0  0  0
    8.4608   10.1028   23.0245 C   0  0  0  0  0  0  0  0  0  0  0  0
    9.2927    9.8145   24.3219 C   0  0  0  0  0  0  0  0  0  0  0  0
    6.9520   12.5564   25.4850 C   0  0  0  0  0  0  0  0  0  0  0  0
    6.9644   11.5591   24.3457 C   0  0  2  0  0  0  0  0  0  0  0  0
    7.7626   11.2820   25.5906 C   0  0  1  0  0  0  0  0  0  0  0  0
    8.0095   11.5661   23.2331 C   0  0  1  0  0  0  0  0  0  0  0  0
    9.1982   11.1546   25.0863 C   0  0  2  0  0  0  0  0  0  0  0  0
   12.4445   13.8481   22.2536 C   0  0  0  0  0  0  0  0  0  0  0  0
   11.0302   14.0430   20.1869 C   0  0  0  0  0  0  0  0  0  0  0  0
   10.5435   15.4957   22.1771 C   0  0  0  0  0  0  0  0  0  0  0  0
   11.0438   14.1290   21.7116 C   0  0  0  0  0  0  0  0  0  0  0  0
    9.1693   12.0570   23.9493 N   0  0  0  0  0  0  0  0  0  0  0  0
    5.2652   11.8111   27.0046 O   0  0  0  0  0  0  0  0  0  0  0  0
   10.6448   13.7716   24.3532 O   0  0  0  0  0  0  0  0  0  0  0  0
    5.1934   13.9224   26.1483 O   0  0  0  0  0  0  0  0  0  0  0  0
   10.1530   13.1240   22.2083 O   0  0  0  0  0  0  0  0  0  0  0  0
    9.1044   10.0077   22.1429 H   0  0  0  0  0  0  0  0  0  0  0  0
    7.6208    9.4073   22.9296 H   0  0  0  0  0  0  0  0  0  0  0  0
    8.8732    8.9734   24.8830 H   0  0  0  0  0  0  0  0  0  0  0  0
   10.3296    9.5832   24.0535 H   0  0  0  0  0  0  0  0  0  0  0  0
    7.4893   13.4882   25.3486 H   0  0  0  0  0  0  0  0  0  0  0  0
    6.0830   10.9701   24.1371 H   0  0  0  0  0  0  0  0  0  0  0  0
    7.4456   10.4966   26.2615 H   0  0  0  0  0  0  0  0  0  0  0  0
    7.7453   12.1261   22.3347 H   0  0  0  0  0  0  0  0  0  0  0  0
    9.9776   11.3464   25.8249 H   0  0  0  0  0  0  0  0  0  0  0  0
   12.4585   13.9089   23.3477 H   0  0  0  0  0  0  0  0  0  0  0  0
   12.8009   12.8565   21.9558 H   0  0  0  0  0  0  0  0  0  0  0  0
   13.1604   14.5957   21.8933 H   0  0  0  0  0  0  0  0  0  0  0  0
   10.0271   14.2439   19.7937 H   0  0  0  0  0  0  0  0  0  0  0  0
   11.2974   13.0347   19.8505 H   0  0  0  0  0  0  0  0  0  0  0  0
   11.7285   14.7554   19.7358 H   0  0  0  0  0  0  0  0  0  0  0  0
    9.5387   15.6974   21.7885 H   0  0  0  0  0  0  0  0  0  0  0  0
   10.5114   15.5628   23.2694 H   0  0  0  0  0  0  0  0  0  0  0  0
   11.1883   16.2966   21.7978 H   0  0  0  0  0  0  0  0  0  0  0  0
    5.7175   14.4820   25.5363 H   0  0  0  0  0  0  0  0  0  0  0  0
  1  5  1  0  0  0  0
  1 15  2  0  0  0  0
  1 17  1  0  0  0  0
  2 14  1  0  0  0  0
  2 16  2  0  0  0  0
  2 18  1  0  0  0  0
  3  4  1  0  0  0  0
  3  8  1  1  0  0  0
  4  9  1  1  0  0  0
  5  6  1  0  0  0  0
  5  7  1  0  0  0  0
  6  7  1  0  0  0  0
  6  8  1  0  0  0  0
  7  9  1  0  0  0  0
  8 14  1  0  0  0  0
  9 14  1  0  0  0  0
 10 13  1  0  0  0  0
 11 13  1  0  0  0  0
 12 13  1  0  0  0  0
 13 18  1  0  0  0  0
  3 19  1  0  0  0  0
  3 20  1  0  0  0  0
  4 21  1  0  0  0  0
  4 22  1  0  0  0  0
  5 23  1  0  0  0  0
  6 24  1  0  0  0  0
  7 25  1  0  0  0  0
  8 26  1  0  0  0  0
  9 27  1  0  0  0  0
 10 28  1  0  0  0  0
 10 29  1  0  0  0  0
 10 30  1  0  0  0  0
 11 31  1  0  0  0  0
 11 32  1  0  0  0  0
 11 33  1  0  0  0  0
 12 34  1  0  0  0  0
 12 35  1  0  0  0  0
 12 36  1  0  0  0  0
 17 37  1  0  0  0  0
M  END
> <id>
EN300-1653065

> <smiles>
CC(C)(C)OC(=O)N1[C@H]2CC[C@@H]1C3C(C32)C(=O)O

> <IUPAC Name>
(1R,5S)-8-[(tert-butoxy)carbonyl]-8-azatricyclo[3.2.1.0,2,4]octane-3-carboxylic acid

> <CAS>
2171379-41-0

> <URL>
https://www.enaminestore.com/catalog/EN300-1653065

> <ROCS_ShapeQuery>
A71EV2A-x0451_0A_A71EV2A-x0310_0A_A71EV2A-x0416_0A_peptide

> <ROCS_TanimotoCombo>
0.516 

> <ROCS_ShapeTanimoto>
0.303 

> <ROCS_ColorTanimoto>
0.213 

> <ROCS_RefTversky>
0.270 

> <ROCS_RefColorTversky>
0.303 

> <ROCS_RefTverskyCombo>
0.574 

> <ROCS_FitTversky>
1.644 

> <ROCS_FitColorTversky>
0.417 

> <ROCS_FitTverskyCombo>
2.061 

> <ROCS_ColorScore>
-9.473

> <ROCS_Overlap>
1876.406

> <ROCS_Rank>
263                 

$$$$
untitled-dbase-156752_14
  -OEChem-11132313473D

 37 38  0     0  0  0  0  0  0999 V2000
    5.2786   12.1934   26.5082 C   0  0  0  0  0  0  0  0  0  0  0  0
    8.1348    9.3877   24.1186 C   0  0  0  0  0  0  0  0  0  0  0  0
    9.1358   10.1075   23.4693 C   0  0  0  0  0  0  0  0  0  0  0  0
    6.9676   13.6503   25.4394 C   0  0  0  0  0  0  0  0  0  0  0  0
    6.4281   12.4107   25.6949 C   0  0  0  0  0  0  0  0  0  0  0  0
    7.2194   11.4449   25.0121 C   0  0  0  0  0  0  0  0  0  0  0  0
    7.1698   10.0418   24.8933 C   0  0  0  0  0  0  0  0  0  0  0  0
    8.2339   12.1401   24.3504 C   0  0  0  0  0  0  0  0  0  0  0  0
    9.2051   11.4997   23.5726 C   0  0  0  0  0  0  0  0  0  0  0  0
   10.8124   13.4094   23.2886 C   0  0  0  0  0  0  0  0  0  0  0  0
    6.1248    9.2040   25.5615 C   0  0  0  0  0  0  0  0  0  0  0  0
   11.5518   16.1159   22.7342 C   0  0  0  0  0  0  0  0  0  0  0  0
   12.7143   15.1893   20.7096 C   0  0  0  0  0  0  0  0  0  0  0  0
   10.2252   14.9477   20.9426 C   0  0  0  0  0  0  0  0  0  0  0  0
   11.5575   15.0016   21.6888 C   0  0  0  0  0  0  0  0  0  0  0  0
    4.3424   12.0166   27.1706 N   0  0  0  0  0  0  0  0  0  0  0  0
    8.0562   13.4769   24.6274 N   0  0  0  0  0  0  0  0  0  0  0  0
   10.2116   12.2083   22.9176 N   0  0  0  0  0  0  0  0  0  0  0  0
   10.5646   14.0846   24.2802 O   0  0  0  0  0  0  0  0  0  0  0  0
   11.7567   13.7505   22.3573 O   0  0  0  0  0  0  0  0  0  0  0  0
    8.1109    8.3052   24.0161 H   0  0  0  0  0  0  0  0  0  0  0  0
    9.8703    9.5683   22.8746 H   0  0  0  0  0  0  0  0  0  0  0  0
    6.6787   14.6422   25.7598 H   0  0  0  0  0  0  0  0  0  0  0  0
    6.4647    8.9018   26.5576 H   0  0  0  0  0  0  0  0  0  0  0  0
    5.1838    9.7563   25.6628 H   0  0  0  0  0  0  0  0  0  0  0  0
    5.9084    8.3040   24.9748 H   0  0  0  0  0  0  0  0  0  0  0  0
   10.7229   15.9848   23.4390 H   0  0  0  0  0  0  0  0  0  0  0  0
   12.4886   16.1428   23.3003 H   0  0  0  0  0  0  0  0  0  0  0  0
   11.4044   17.0941   22.2623 H   0  0  0  0  0  0  0  0  0  0  0  0
   12.7222   14.3919   19.9577 H   0  0  0  0  0  0  0  0  0  0  0  0
   13.6780   15.1337   21.2286 H   0  0  0  0  0  0  0  0  0  0  0  0
   12.6539   16.1525   20.1928 H   0  0  0  0  0  0  0  0  0  0  0  0
   10.2291   14.1484   20.1927 H   0  0  0  0  0  0  0  0  0  0  0  0
    9.3870   14.7765   21.6258 H   0  0  0  0  0  0  0  0  0  0  0  0
   10.0455   15.8817   20.3981 H   0  0  0  0  0  0  0  0  0  0  0  0
    8.6449   14.2218   24.2812 H   0  0  0  0  0  0  0  0  0  0  0  0
   10.5557   11.7895   22.0468 H   0  0  0  0  0  0  0  0  0  0  0  0
  1  5  1  0  0  0  0
  1 16  3  0  0  0  0
  2  3  1  0  0  0  0
  2  7  2  0  0  0  0
  3  9  2  0  0  0  0
  4  5  2  0  0  0  0
  4 17  1  0  0  0  0
  5  6  1  0  0  0  0
  6  7  1  0  0  0  0
  6  8  2  0  0  0  0
  7 11  1  0  0  0  0
  8  9  1  0  0  0  0
  8 17  1  0  0  0  0
  9 18  1  0  0  0  0
 10 18  1  0  0  0  0
 10 19  2  0  0  0  0
 10 20  1  0  0  0  0
 12 15  1  0  0  0  0
 13 15  1  0  0  0  0
 14 15  1  0  0  0  0
 15 20  1  0  0  0  0
  2 21  1  0  0  0  0
  3 22  1  0  0  0  0
  4 23  1  0  0  0  0
 11 24  1  0  0  0  0
 11 25  1  0  0  0  0
 11 26  1  0  0  0  0
 12 27  1  0  0  0  0
 12 28  1  0  0  0  0
 12 29  1  0  0  0  0
 13 30  1  0  0  0  0
 13 31  1  0  0  0  0
 13 32  1  0  0  0  0
 14 33  1  0  0  0  0
 14 34  1  0  0  0  0
 14 35  1  0  0  0  0
 17 36  1  0  0  0  0
 18 37  1  0  0  0  0
M  END
> <id>
EN300-12453271

> <smiles>
CC=1C=CC(NC(=O)OC(C)(C)C)=C2NC=C(C#N)C12

> <MDLNUMBER>
MFCD24467410

> <IUPAC Name>
tert-butyl N-(3-cyano-4-methyl-1H-indol-7-yl)carbamate

> <CAS>
289483-86-9

> <URL>
https://www.enaminestore.com/catalog/EN300-12453271

> <ROCS_ShapeQuery>
A71EV2A-x0451_0A_A71EV2A-x0310_0A_A71EV2A-x0416_0A_peptide

> <ROCS_TanimotoCombo>
0.516 

> <ROCS_ShapeTanimoto>
0.357 

> <ROCS_ColorTanimoto>
0.158 

> <ROCS_RefTversky>
0.310 

> <ROCS_RefColorTversky>
0.174 

> <ROCS_RefTverskyCombo>
0.483 

> <ROCS_FitTversky>
1.757 

> <ROCS_FitColorTversky>
0.642 

> <ROCS_FitTverskyCombo>
2.399 

> <ROCS_ColorScore>
-5.296

> <ROCS_Overlap>
2148.328

> <ROCS_Rank>
264                 

$$$$
untitled-dbase-103932_494
  -OEChem-11132313473D

 38 39  0     1  0  0  0  0  0999 V2000
    6.4732   10.8236   25.6583 C   0  0  0  0  0  0  0  0  0  0  0  0
    5.9393   12.0231   26.1144 C   0  0  0  0  0  0  0  0  0  0  0  0
    7.6947   13.2256   24.9602 C   0  0  0  0  0  0  0  0  0  0  0  0
    8.2680   12.0269   24.5102 C   0  0  0  0  0  0  0  0  0  0  0  0
    7.6282   10.8235   24.8669 C   0  0  0  0  0  0  0  0  0  0  0  0
    6.5476   13.2220   25.7621 C   0  0  0  0  0  0  0  0  0  0  0  0
   10.3295   13.0090   23.3885 C   0  0  0  0  0  0  0  0  0  0  0  0
    9.6185   10.6858   22.9842 C   0  0  0  0  0  0  0  0  0  0  0  0
    9.3903    9.5522   23.9715 C   0  0  2  0  0  0  0  0  0  0  0  0
   12.1514   14.9883   22.4019 C   0  0  0  0  0  0  0  0  0  0  0  0
   11.6428   14.0513   20.1275 C   0  0  0  0  0  0  0  0  0  0  0  0
    9.8090   15.0976   21.4878 C   0  0  0  0  0  0  0  0  0  0  0  0
    9.6035    8.1990   23.3043 C   0  0  0  0  0  0  0  0  0  0  0  0
   11.1043   14.2885   21.5367 C   0  0  0  0  0  0  0  0  0  0  0  0
    9.4186   11.9719   23.6563 N   0  0  0  0  0  0  0  0  0  0  0  0
   10.6174   13.8864   24.2033 O   0  0  0  0  0  0  0  0  0  0  0  0
    8.0491    9.5801   24.4633 O   0  0  0  0  0  0  0  0  0  0  0  0
    8.4346    7.8637   22.5780 O   0  0  0  0  0  0  0  0  0  0  0  0
   10.8203   13.0073   22.1116 O   0  0  0  0  0  0  0  0  0  0  0  0
    5.8071   14.8581   26.3577 Br  0  0  0  0  0  0  0  0  0  0  0  0
    5.9922    9.8870   25.9296 H   0  0  0  0  0  0  0  0  0  0  0  0
    5.0505   12.0049   26.7397 H   0  0  0  0  0  0  0  0  0  0  0  0
    8.0990   14.1911   24.6848 H   0  0  0  0  0  0  0  0  0  0  0  0
   10.6260   10.6134   22.5743 H   0  0  0  0  0  0  0  0  0  0  0  0
    8.9017   10.6471   22.1601 H   0  0  0  0  0  0  0  0  0  0  0  0
   10.0861    9.6280   24.8213 H   0  0  0  0  0  0  0  0  0  0  0  0
   11.7687   15.1604   23.4142 H   0  0  0  0  0  0  0  0  0  0  0  0
   13.0730   14.4014   22.4736 H   0  0  0  0  0  0  0  0  0  0  0  0
   12.4001   15.9746   21.9937 H   0  0  0  0  0  0  0  0  0  0  0  0
   10.8948   13.5494   19.5033 H   0  0  0  0  0  0  0  0  0  0  0  0
   12.5183   13.3924   20.1501 H   0  0  0  0  0  0  0  0  0  0  0  0
   11.9275   14.9896   19.6406 H   0  0  0  0  0  0  0  0  0  0  0  0
    9.0577   14.5958   20.8673 H   0  0  0  0  0  0  0  0  0  0  0  0
    9.3882   15.2461   22.4876 H   0  0  0  0  0  0  0  0  0  0  0  0
    9.9800   16.0798   21.0326 H   0  0  0  0  0  0  0  0  0  0  0  0
    9.7884    7.4348   24.0600 H   0  0  0  0  0  0  0  0  0  0  0  0
   10.4503    8.2494   22.6190 H   0  0  0  0  0  0  0  0  0  0  0  0
    8.5951    6.9992   22.1629 H   0  0  0  0  0  0  0  0  0  0  0  0
  1  2  1  0  0  0  0
  1  5  2  0  0  0  0
  2  6  2  0  0  0  0
  3  4  2  0  0  0  0
  3  6  1  0  0  0  0
  4  5  1  0  0  0  0
  4 15  1  0  0  0  0
  5 17  1  0  0  0  0
  6 20  1  0  0  0  0
  7 15  1  0  0  0  0
  7 16  2  0  0  0  0
  7 19  1  0  0  0  0
  8  9  1  0  0  0  0
  8 15  1  0  0  0  0
  9 13  1  0  0  0  0
  9 17  1  0  0  0  0
 10 14  1  0  0  0  0
 11 14  1  0  0  0  0
 12 14  1  0  0  0  0
 13 18  1  0  0  0  0
 14 19  1  0  0  0  0
  1 21  1  0  0  0  0
  2 22  1  0  0  0  0
  3 23  1  0  0  0  0
  8 24  1  0  0  0  0
  8 25  1  0  0  0  0
  9 26  1  0  0  0  0
 10 27  1  0  0  0  0
 10 28  1  0  0  0  0
 10 29  1  0  0  0  0
 11 30  1  0  0  0  0
 11 31  1  0  0  0  0
 11 32  1  0  0  0  0
 12 33  1  0  0  0  0
 12 34  1  0  0  0  0
 12 35  1  0  0  0  0
 13 36  1  0  0  0  0
 13 37  1  0  0  0  0
 18 38  1  0  0  0  0
M  END
> <id>
EN300-26665970

> <smiles>
CC(C)(C)OC(=O)N1CC(CO)OC=2C=CC(Br)=CC12

> <IUPAC Name>
tert-butyl 6-bromo-2-(hydroxymethyl)-3,4-dihydro-2H-1,4-benzoxazine-4-carboxylate

> <CAS>
2413878-15-4

> <URL>
https://www.enaminestore.com/catalog/EN300-26665970

> <ROCS_ShapeQuery>
A71EV2A-x0451_0A_A71EV2A-x0310_0A_A71EV2A-x0416_0A_peptide

> <ROCS_TanimotoCombo>
0.516 

> <ROCS_ShapeTanimoto>
0.363 

> <ROCS_ColorTanimoto>
0.153 

> <ROCS_RefTversky>
0.312 

> <ROCS_RefColorTversky>
0.172 

> <ROCS_RefTverskyCombo>
0.485 

> <ROCS_FitTversky>
1.804 

> <ROCS_FitColorTversky>
0.572 

> <ROCS_FitTverskyCombo>
2.376 

> <ROCS_ColorScore>
-5.259

> <ROCS_Overlap>
2168.195

> <ROCS_Rank>
265                 

$$$$
untitled-dbase-178612_3
  -OEChem-11132313473D

 38 40  0     1  0  0  0  0  0999 V2000
   10.0965   13.1490   23.5173 C   0  0  0  0  0  0  0  0  0  0  0  0
    8.3967    9.8473   22.9721 C   0  0  0  0  0  0  0  0  0  0  0  0
    8.8255   11.2359   22.4594 C   0  0  0  0  0  0  0  0  0  0  0  0
    9.8304   10.8651   24.5897 C   0  0  0  0  0  0  0  0  0  0  0  0
    6.7771   13.0894   23.9688 C   0  0  0  0  0  0  0  0  0  0  0  0
    7.9064   13.2585   25.7115 C   0  0  0  0  0  0  0  0  0  0  0  0
    8.5946    9.9815   24.4836 C   0  0  1  0  0  0  0  0  0  0  0  0
    9.1996   11.9863   23.7561 C   0  0  1  0  0  0  0  0  0  0  0  0
    7.9107   12.2231   24.5583 C   0  0  0  0  0  0  0  0  0  0  0  0
   12.5608   14.1628   22.5194 C   0  0  0  0  0  0  0  0  0  0  0  0
   11.3990   14.2809   20.2956 C   0  0  0  0  0  0  0  0  0  0  0  0
   10.5514   15.6492   22.2236 C   0  0  0  0  0  0  0  0  0  0  0  0
   11.2183   14.3379   21.8109 C   0  0  0  0  0  0  0  0  0  0  0  0
    6.5341   13.6423   25.3177 N   0  0  0  0  0  0  0  0  0  0  0  0
   10.5167   13.8831   24.4014 O   0  0  0  0  0  0  0  0  0  0  0  0
    7.5502   10.8637   24.9612 O   0  0  0  0  0  0  0  0  0  0  0  0
   10.3617   13.2539   22.1840 O   0  0  0  0  0  0  0  0  0  0  0  0
    7.3551    9.6377   22.7088 H   0  0  0  0  0  0  0  0  0  0  0  0
    9.0410    9.0696   22.5494 H   0  0  0  0  0  0  0  0  0  0  0  0
    9.6853   11.1414   21.7857 H   0  0  0  0  0  0  0  0  0  0  0  0
    8.0205   11.7195   21.8987 H   0  0  0  0  0  0  0  0  0  0  0  0
   10.0423   11.1764   25.6187 H   0  0  0  0  0  0  0  0  0  0  0  0
   10.7297   10.4279   24.1431 H   0  0  0  0  0  0  0  0  0  0  0  0
    7.0578   13.8425   23.2262 H   0  0  0  0  0  0  0  0  0  0  0  0
    5.9273   12.5186   23.5737 H   0  0  0  0  0  0  0  0  0  0  0  0
    7.9622   12.8212   26.7159 H   0  0  0  0  0  0  0  0  0  0  0  0
    8.6375   14.0705   25.6523 H   0  0  0  0  0  0  0  0  0  0  0  0
    8.6133    9.0457   25.0440 H   0  0  0  0  0  0  0  0  0  0  0  0
   12.4354   14.2031   23.6074 H   0  0  0  0  0  0  0  0  0  0  0  0
   13.0332   13.2100   22.2589 H   0  0  0  0  0  0  0  0  0  0  0  0
   13.2499   14.9738   22.2575 H   0  0  0  0  0  0  0  0  0  0  0  0
   10.4383   14.4061   19.7832 H   0  0  0  0  0  0  0  0  0  0  0  0
   11.7893   13.3049   19.9855 H   0  0  0  0  0  0  0  0  0  0  0  0
   12.0848   15.0572   19.9410 H   0  0  0  0  0  0  0  0  0  0  0  0
    9.5885   15.7751   21.7156 H   0  0  0  0  0  0  0  0  0  0  0  0
   10.3802   15.6921   23.3042 H   0  0  0  0  0  0  0  0  0  0  0  0
   11.1681   16.5079   21.9345 H   0  0  0  0  0  0  0  0  0  0  0  0
    6.3881   14.6494   25.3148 H   0  0  0  0  0  0  0  0  0  0  0  0
  1  8  1  0  0  0  0
  1 15  2  0  0  0  0
  1 17  1  0  0  0  0
  2  3  1  0  0  0  0
  2  7  1  0  0  0  0
  3  8  1  0  0  0  0
  4  7  1  0  0  0  0
  4  8  1  0  0  0  0
  5  9  1  0  0  0  0
  5 14  1  0  0  0  0
  6  9  1  0  0  0  0
  6 14  1  0  0  0  0
  7 16  1  0  0  0  0
  8  9  1  0  0  0  0
  9 16  1  0  0  0  0
 10 13  1  0  0  0  0
 11 13  1  0  0  0  0
 12 13  1  0  0  0  0
 13 17  1  0  0  0  0
  2 18  1  0  0  0  0
  2 19  1  0  0  0  0
  3 20  1  0  0  0  0
  3 21  1  0  0  0  0
  4 22  1  0  0  0  0
  4 23  1  0  0  0  0
  5 24  1  0  0  0  0
  5 25  1  0  0  0  0
  6 26  1  0  0  0  0
  6 27  1  0  0  0  0
  7 28  1  0  0  0  0
 10 29  1  0  0  0  0
 10 30  1  0  0  0  0
 10 31  1  0  0  0  0
 11 32  1  0  0  0  0
 11 33  1  0  0  0  0
 11 34  1  0  0  0  0
 12 35  1  0  0  0  0
 12 36  1  0  0  0  0
 12 37  1  0  0  0  0
 14 38  1  0  0  0  0
M  END
> <id>
EN300-43381893

> <smiles>
CC(C)(C)OC(=O)C1(CCC2C1)C3(CNC3)O2

> <IUPAC Name>
tert-butyl 3'-oxaspiro[azetidine-3,2'-bicyclo[2.2.1]heptane]-1'-carboxylate

> <URL>
https://www.enaminestore.com/catalog/EN300-43381893

> <ROCS_ShapeQuery>
A71EV2A-x0451_0A_A71EV2A-x0310_0A_A71EV2A-x0416_0A_peptide

> <ROCS_TanimotoCombo>
0.515 

> <ROCS_ShapeTanimoto>
0.299 

> <ROCS_ColorTanimoto>
0.216 

> <ROCS_RefTversky>
0.267 

> <ROCS_RefColorTversky>
0.255 

> <ROCS_RefTverskyCombo>
0.522 

> <ROCS_FitTversky>
1.683 

> <ROCS_FitColorTversky>
0.587 

> <ROCS_FitTverskyCombo>
2.270 

> <ROCS_ColorScore>
-7.847

> <ROCS_Overlap>
1849.745

> <ROCS_Rank>
266                 

$$$$
untitled-dbase-146559_88
  -OEChem-11132313473D

 35 36  0     0  0  0  0  0  0999 V2000
    7.9007   12.9843   25.2148 C   0  0  0  0  0  0  0  0  0  0  0  0
    6.7533   12.6137   25.9146 C   0  0  0  0  0  0  0  0  0  0  0  0
    8.5310   12.0202   24.4514 C   0  0  0  0  0  0  0  0  0  0  0  0
    8.0028   10.7383   24.4130 C   0  0  0  0  0  0  0  0  0  0  0  0
    6.3002   11.2998   25.8116 C   0  0  0  0  0  0  0  0  0  0  0  0
    6.0711   13.6120   26.7265 C   0  0  0  0  0  0  0  0  0  0  0  0
   10.4709   13.2215   23.4527 C   0  0  0  0  0  0  0  0  0  0  0  0
    8.8174    9.8330   23.5352 C   0  0  0  0  0  0  0  0  0  0  0  0
    9.9268   10.7738   23.0500 C   0  0  0  0  0  0  0  0  0  0  0  0
   12.2553   15.2625   22.5335 C   0  0  0  0  0  0  0  0  0  0  0  0
   11.9729   14.2296   20.2613 C   0  0  0  0  0  0  0  0  0  0  0  0
    9.9869   15.2118   21.4442 C   0  0  0  0  0  0  0  0  0  0  0  0
   11.3164   14.4788   21.6175 C   0  0  0  0  0  0  0  0  0  0  0  0
    6.9004   10.3389   25.0707 N   0  0  0  0  0  0  0  0  0  0  0  0
    9.6827   12.0986   23.6530 N   0  0  0  0  0  0  0  0  0  0  0  0
    5.1707   14.3586   26.3327 O   0  0  0  0  0  0  0  0  0  0  0  0
   10.6411   14.1320   24.2586 O   0  0  0  0  0  0  0  0  0  0  0  0
    6.5344   13.6450   28.0052 O   0  0  0  0  0  0  0  0  0  0  0  0
   11.0589   13.2021   22.2133 O   0  0  0  0  0  0  0  0  0  0  0  0
    4.8941   10.7470   26.6376 Cl  0  0  0  0  0  0  0  0  0  0  0  0
    8.2717   14.0004   25.2797 H   0  0  0  0  0  0  0  0  0  0  0  0
    9.2228    8.9977   24.1135 H   0  0  0  0  0  0  0  0  0  0  0  0
    8.2148    9.4588   22.7026 H   0  0  0  0  0  0  0  0  0  0  0  0
   10.9192   10.4226   23.3553 H   0  0  0  0  0  0  0  0  0  0  0  0
    9.9260   10.8748   21.9587 H   0  0  0  0  0  0  0  0  0  0  0  0
   11.7877   15.4434   23.5080 H   0  0  0  0  0  0  0  0  0  0  0  0
   13.1989   14.7309   22.6940 H   0  0  0  0  0  0  0  0  0  0  0  0
   12.4809   16.2483   22.1111 H   0  0  0  0  0  0  0  0  0  0  0  0
   11.3028   13.6676   19.6008 H   0  0  0  0  0  0  0  0  0  0  0  0
   12.8784   13.6220   20.3718 H   0  0  0  0  0  0  0  0  0  0  0  0
   12.2430   15.1672   19.7648 H   0  0  0  0  0  0  0  0  0  0  0  0
    9.3133   14.6499   20.7872 H   0  0  0  0  0  0  0  0  0  0  0  0
    9.4837   15.3667   22.4041 H   0  0  0  0  0  0  0  0  0  0  0  0
   10.1391   16.1878   20.9693 H   0  0  0  0  0  0  0  0  0  0  0  0
    6.0804   14.3140   28.5608 H   0  0  0  0  0  0  0  0  0  0  0  0
  1  2  1  0  0  0  0
  1  3  2  0  0  0  0
  2  5  2  0  0  0  0
  2  6  1  0  0  0  0
  3  4  1  0  0  0  0
  3 15  1  0  0  0  0
  4  8  1  0  0  0  0
  4 14  2  0  0  0  0
  5 14  1  0  0  0  0
  5 20  1  0  0  0  0
  6 16  2  0  0  0  0
  6 18  1  0  0  0  0
  7 15  1  0  0  0  0
  7 17  2  0  0  0  0
  7 19  1  0  0  0  0
  8  9  1  0  0  0  0
  9 15  1  0  0  0  0
 10 13  1  0  0  0  0
 11 13  1  0  0  0  0
 12 13  1  0  0  0  0
 13 19  1  0  0  0  0
  1 21  1  0  0  0  0
  8 22  1  0  0  0  0
  8 23  1  0  0  0  0
  9 24  1  0  0  0  0
  9 25  1  0  0  0  0
 10 26  1  0  0  0  0
 10 27  1  0  0  0  0
 10 28  1  0  0  0  0
 11 29  1  0  0  0  0
 11 30  1  0  0  0  0
 11 31  1  0  0  0  0
 12 32  1  0  0  0  0
 12 33  1  0  0  0  0
 12 34  1  0  0  0  0
 18 35  1  0  0  0  0
M  END
> <id>
EN300-27782713

> <smiles>
CC(C)(C)OC(=O)N1CCC=2N=C(Cl)C(=CC12)C(=O)O

> <IUPAC Name>
1-[(tert-butoxy)carbonyl]-5-chloro-1H,2H,3H-pyrrolo[3,2-b]pyridine-6-carboxylic acid

> <CAS>
2639441-67-9

> <URL>
https://www.enaminestore.com/catalog/EN300-27782713

> <ROCS_ShapeQuery>
A71EV2A-x0451_0A_A71EV2A-x0310_0A_A71EV2A-x0416_0A_peptide

> <ROCS_TanimotoCombo>
0.515 

> <ROCS_ShapeTanimoto>
0.339 

> <ROCS_ColorTanimoto>
0.177 

> <ROCS_RefTversky>
0.297 

> <ROCS_RefColorTversky>
0.196 

> <ROCS_RefTverskyCombo>
0.493 

> <ROCS_FitTversky>
1.694 

> <ROCS_FitColorTversky>
0.648 

> <ROCS_FitTverskyCombo>
2.342 

> <ROCS_ColorScore>
-5.975

> <ROCS_Overlap>
2063.623

> <ROCS_Rank>
267                 

$$$$
untitled-dbase-105098_12
  -OEChem-11132313473D

 38 41  0     0  0  0  0  0  0999 V2000
    6.7703   12.9692   26.0552 C   0  0  0  0  0  0  0  0  0  0  0  0
   13.2692   16.1999   20.3432 C   0  0  0  0  0  0  0  0  0  0  0  0
    6.2124   11.7136   26.2616 C   0  0  0  0  0  0  0  0  0  0  0  0
   13.1917   15.9995   21.7141 C   0  0  0  0  0  0  0  0  0  0  0  0
    7.8412   13.1094   25.1772 C   0  0  0  0  0  0  0  0  0  0  0  0
   12.3061   15.6367   19.5139 C   0  0  0  0  0  0  0  0  0  0  0  0
    6.7264   10.6016   25.5899 C   0  0  0  0  0  0  0  0  0  0  0  0
   12.1565   15.2315   22.2572 C   0  0  0  0  0  0  0  0  0  0  0  0
    9.9225   10.9795   22.9608 C   0  0  0  0  0  0  0  0  0  0  0  0
    8.3579   11.9907   24.5017 C   0  0  0  0  0  0  0  0  0  0  0  0
    9.4353   12.1032   23.6125 C   0  0  0  0  0  0  0  0  0  0  0  0
   11.2663   14.8524   20.0459 C   0  0  0  0  0  0  0  0  0  0  0  0
    7.7964   10.7129   24.7063 C   0  0  0  0  0  0  0  0  0  0  0  0
   11.1809   14.6330   21.4402 C   0  0  0  0  0  0  0  0  0  0  0  0
    9.3083    9.7721   23.2250 C   0  0  0  0  0  0  0  0  0  0  0  0
   10.0980   13.3906   23.3233 C   0  0  0  0  0  0  0  0  0  0  0  0
   10.2460   14.3027   19.0832 C   0  0  0  0  0  0  0  0  0  0  0  0
    9.4897   13.1368   19.6899 C   0  0  0  0  0  0  0  0  0  0  0  0
    8.9880   13.5242   21.0700 C   0  0  0  0  0  0  0  0  0  0  0  0
    8.2672    9.6206   24.0753 N   0  0  0  0  0  0  0  0  0  0  0  0
   10.0949   13.8502   21.9905 N   0  0  0  0  0  0  0  0  0  0  0  0
   10.6088   13.9459   24.2946 O   0  0  0  0  0  0  0  0  0  0  0  0
    9.8352    8.3236   22.4713 Cl  0  0  0  0  0  0  0  0  0  0  0  0
    6.3730   13.8358   26.5748 H   0  0  0  0  0  0  0  0  0  0  0  0
   14.0687   16.8016   19.9222 H   0  0  0  0  0  0  0  0  0  0  0  0
    5.3771   11.5958   26.9456 H   0  0  0  0  0  0  0  0  0  0  0  0
   13.9304   16.4510   22.3705 H   0  0  0  0  0  0  0  0  0  0  0  0
    8.2584   14.1033   25.0354 H   0  0  0  0  0  0  0  0  0  0  0  0
   12.3653   15.8110   18.4419 H   0  0  0  0  0  0  0  0  0  0  0  0
    6.2713    9.6290   25.7683 H   0  0  0  0  0  0  0  0  0  0  0  0
   12.1401   15.1589   23.3380 H   0  0  0  0  0  0  0  0  0  0  0  0
   10.7563   11.0476   22.2688 H   0  0  0  0  0  0  0  0  0  0  0  0
    9.5472   15.1068   18.8216 H   0  0  0  0  0  0  0  0  0  0  0  0
   10.7332   13.9688   18.1595 H   0  0  0  0  0  0  0  0  0  0  0  0
    8.6477   12.8647   19.0437 H   0  0  0  0  0  0  0  0  0  0  0  0
   10.1367   12.2534   19.7639 H   0  0  0  0  0  0  0  0  0  0  0  0
    8.3296   14.4007   21.0242 H   0  0  0  0  0  0  0  0  0  0  0  0
    8.3940   12.6906   21.4558 H   0  0  0  0  0  0  0  0  0  0  0  0
  1  3  1  0  0  0  0
  1  5  2  0  0  0  0
  2  4  2  0  0  0  0
  2  6  1  0  0  0  0
  3  7  2  0  0  0  0
  4  8  1  0  0  0  0
  5 10  1  0  0  0  0
  6 12  2  0  0  0  0
  7 13  1  0  0  0  0
  8 14  2  0  0  0  0
  9 11  1  0  0  0  0
  9 15  2  0  0  0  0
 10 11  2  0  0  0  0
 10 13  1  0  0  0  0
 11 16  1  0  0  0  0
 12 14  1  0  0  0  0
 12 17  1  0  0  0  0
 13 20  2  0  0  0  0
 14 21  1  0  0  0  0
 15 20  1  0  0  0  0
 15 23  1  0  0  0  0
 16 21  1  0  0  0  0
 16 22  2  0  0  0  0
 17 18  1  0  0  0  0
 18 19  1  0  0  0  0
 19 21  1  0  0  0  0
  1 24  1  0  0  0  0
  2 25  1  0  0  0  0
  3 26  1  0  0  0  0
  4 27  1  0  0  0  0
  5 28  1  0  0  0  0
  6 29  1  0  0  0  0
  7 30  1  0  0  0  0
  8 31  1  0  0  0  0
  9 32  1  0  0  0  0
 17 33  1  0  0  0  0
 17 34  1  0  0  0  0
 18 35  1  0  0  0  0
 18 36  1  0  0  0  0
 19 37  1  0  0  0  0
 19 38  1  0  0  0  0
M  END
> <id>
EN300-26611930

> <smiles>
ClC=1C=C(C(=O)N2CCCC=3C=CC=CC23)C=4C=CC=CC4N1

> <IUPAC Name>
2-chloro-4-(1,2,3,4-tetrahydroquinoline-1-carbonyl)quinoline

> <CAS>
871797-73-8

> <URL>
https://www.enaminestore.com/catalog/EN300-26611930

> <ROCS_ShapeQuery>
A71EV2A-x0451_0A_A71EV2A-x0310_0A_A71EV2A-x0416_0A_peptide

> <ROCS_TanimotoCombo>
0.515 

> <ROCS_ShapeTanimoto>
0.359 

> <ROCS_ColorTanimoto>
0.156 

> <ROCS_RefTversky>
0.317 

> <ROCS_RefColorTversky>
0.168 

> <ROCS_RefTverskyCombo>
0.484 

> <ROCS_FitTversky>
1.601 

> <ROCS_FitColorTversky>
0.699 

> <ROCS_FitTverskyCombo>
2.299 

> <ROCS_ColorScore>
-5.097

> <ROCS_Overlap>
2199.890

> <ROCS_Rank>
268                 

$$$$
untitled-dbase-151718_24
  -OEChem-11132313473D

 35 36  0     0  0  0  0  0  0999 V2000
    8.0508   12.9667   24.9159 C   0  0  0  0  0  0  0  0  0  0  0  0
    7.0171   12.8879   25.8577 C   0  0  0  0  0  0  0  0  0  0  0  0
    6.8520   10.4758   25.5705 C   0  0  0  0  0  0  0  0  0  0  0  0
    8.4863   11.7831   24.2970 C   0  0  0  0  0  0  0  0  0  0  0  0
    7.8835   10.5764   24.6344 C   0  0  0  0  0  0  0  0  0  0  0  0
    6.4293   11.6627   26.1780 C   0  0  0  0  0  0  0  0  0  0  0  0
    9.4574   11.4320   23.3348 C   0  0  0  0  0  0  0  0  0  0  0  0
   10.8249   13.5351   23.2010 C   0  0  0  0  0  0  0  0  0  0  0  0
   11.2242   16.3598   22.9982 C   0  0  0  0  0  0  0  0  0  0  0  0
   12.2560   15.8671   20.7617 C   0  0  0  0  0  0  0  0  0  0  0  0
    9.8424   15.3092   21.1757 C   0  0  0  0  0  0  0  0  0  0  0  0
    8.2511    8.2117   23.8621 C   0  0  0  0  0  0  0  0  0  0  0  0
   11.2332   15.4114   21.8002 C   0  0  0  0  0  0  0  0  0  0  0  0
    9.4799   10.1229   23.0748 N   0  0  0  0  0  0  0  0  0  0  0  0
    8.5186    9.6315   23.8744 N   0  0  0  0  0  0  0  0  0  0  0  0
   10.3060   12.3288   22.7133 N   0  0  0  0  0  0  0  0  0  0  0  0
   10.6152   14.0313   24.3012 O   0  0  0  0  0  0  0  0  0  0  0  0
   11.6271   14.1104   22.2518 O   0  0  0  0  0  0  0  0  0  0  0  0
    5.0345   11.6031   27.4568 Br  0  0  0  0  0  0  0  0  0  0  0  0
    8.4990   13.9262   24.6763 H   0  0  0  0  0  0  0  0  0  0  0  0
    6.6803   13.8050   26.3362 H   0  0  0  0  0  0  0  0  0  0  0  0
    6.4033    9.5174   25.8106 H   0  0  0  0  0  0  0  0  0  0  0  0
   10.4913   16.0361   23.7459 H   0  0  0  0  0  0  0  0  0  0  0  0
   12.2075   16.4150   23.4764 H   0  0  0  0  0  0  0  0  0  0  0  0
   10.9298   17.3709   22.6943 H   0  0  0  0  0  0  0  0  0  0  0  0
   12.2659   15.1895   19.9004 H   0  0  0  0  0  0  0  0  0  0  0  0
   13.2694   15.8509   21.1788 H   0  0  0  0  0  0  0  0  0  0  0  0
   12.0445   16.8798   20.4037 H   0  0  0  0  0  0  0  0  0  0  0  0
    9.8486   14.6290   20.3163 H   0  0  0  0  0  0  0  0  0  0  0  0
    9.1020   14.9481   21.8969 H   0  0  0  0  0  0  0  0  0  0  0  0
    9.5130   16.2833   20.7965 H   0  0  0  0  0  0  0  0  0  0  0  0
    7.4889    8.0186   23.1026 H   0  0  0  0  0  0  0  0  0  0  0  0
    9.1713    7.6699   23.6267 H   0  0  0  0  0  0  0  0  0  0  0  0
    7.8960    7.9024   24.8491 H   0  0  0  0  0  0  0  0  0  0  0  0
   10.5977   12.0744   21.7574 H   0  0  0  0  0  0  0  0  0  0  0  0
  1  2  1  0  0  0  0
  1  4  2  0  0  0  0
  2  6  2  0  0  0  0
  3  5  2  0  0  0  0
  3  6  1  0  0  0  0
  4  5  1  0  0  0  0
  4  7  1  0  0  0  0
  5 15  1  0  0  0  0
  6 19  1  0  0  0  0
  7 14  2  0  0  0  0
  7 16  1  0  0  0  0
  8 16  1  0  0  0  0
  8 17  2  0  0  0  0
  8 18  1  0  0  0  0
  9 13  1  0  0  0  0
 10 13  1  0  0  0  0
 11 13  1  0  0  0  0
 12 15  1  0  0  0  0
 13 18  1  0  0  0  0
 14 15  1  0  0  0  0
  1 20  1  0  0  0  0
  2 21  1  0  0  0  0
  3 22  1  0  0  0  0
  9 23  1  0  0  0  0
  9 24  1  0  0  0  0
  9 25  1  0  0  0  0
 10 26  1  0  0  0  0
 10 27  1  0  0  0  0
 10 28  1  0  0  0  0
 11 29  1  0  0  0  0
 11 30  1  0  0  0  0
 11 31  1  0  0  0  0
 12 32  1  0  0  0  0
 12 33  1  0  0  0  0
 12 34  1  0  0  0  0
 16 35  1  0  0  0  0
M  END
> <id>
EN300-24295138

> <smiles>
CN1N=C(NC(=O)OC(C)(C)C)C=2C=CC(Br)=CC12

> <MDLNUMBER>
MFCD27993349

> <IUPAC Name>
tert-butyl N-(6-bromo-1-methyl-1H-indazol-3-yl)carbamate

> <CAS>
1214899-84-9

> <URL>
https://www.enaminestore.com/catalog/EN300-24295138

> <ROCS_ShapeQuery>
A71EV2A-x0451_0A_A71EV2A-x0310_0A_A71EV2A-x0416_0A_peptide

> <ROCS_TanimotoCombo>
0.515 

> <ROCS_ShapeTanimoto>
0.360 

> <ROCS_ColorTanimoto>
0.155 

> <ROCS_RefTversky>
0.310 

> <ROCS_RefColorTversky>
0.171 

> <ROCS_RefTverskyCombo>
0.480 

> <ROCS_FitTversky>
1.833 

> <ROCS_FitColorTversky>
0.630 

> <ROCS_FitTverskyCombo>
2.463 

> <ROCS_ColorScore>
-5.200

> <ROCS_Overlap>
2148.635

> <ROCS_Rank>
269                 

$$$$
untitled-dbase-136809_146
  -OEChem-11132313473D

 43 44  0     1  0  0  0  0  0999 V2000
    5.4508   12.8131   26.1717 C   0  0  0  0  0  0  0  0  0  0  0  0
   10.1573   13.2730   23.4508 C   0  0  0  0  0  0  0  0  0  0  0  0
    8.1876    9.4783   24.3165 C   0  0  0  0  0  0  0  0  0  0  0  0
    9.2176    9.7602   23.2345 C   0  0  0  0  0  0  0  0  0  0  0  0
    7.8823   12.9919   25.6019 C   0  0  0  0  0  0  0  0  0  0  0  0
    6.5092   12.5396   25.1559 C   0  0  1  0  0  0  0  0  0  0  0  0
    8.8116   11.8995   25.0852 C   0  0  1  0  0  0  0  0  0  0  0  0
    7.9087   10.6714   25.2229 C   0  0  1  0  0  0  0  0  0  0  0  0
    9.1215   11.1728   22.6654 C   0  0  1  0  0  0  0  0  0  0  0  0
    7.8424   11.4287   21.8704 C   0  0  0  0  0  0  0  0  0  0  0  0
   12.6405   14.3718   22.5461 C   0  0  0  0  0  0  0  0  0  0  0  0
   11.5978   14.3672   20.2609 C   0  0  0  0  0  0  0  0  0  0  0  0
   10.5917   15.7613   22.0918 C   0  0  0  0  0  0  0  0  0  0  0  0
   11.3327   14.4664   21.7616 C   0  0  0  0  0  0  0  0  0  0  0  0
    9.3223   12.1728   23.7253 N   0  0  0  0  0  0  0  0  0  0  0  0
    4.8107   11.9584   26.7659 O   0  0  0  0  0  0  0  0  0  0  0  0
   10.5302   14.0878   24.2934 O   0  0  0  0  0  0  0  0  0  0  0  0
    6.5575   11.1221   25.0029 O   0  0  0  0  0  0  0  0  0  0  0  0
    5.2897   14.1474   26.3479 O   0  0  0  0  0  0  0  0  0  0  0  0
   10.5010   13.3593   22.1269 O   0  0  0  0  0  0  0  0  0  0  0  0
    7.2402    9.1068   23.8647 H   0  0  0  0  0  0  0  0  0  0  0  0
    8.5240    8.6206   24.9408 H   0  0  0  0  0  0  0  0  0  0  0  0
   10.2267    9.6077   23.6532 H   0  0  0  0  0  0  0  0  0  0  0  0
    9.1143    9.0156   22.4287 H   0  0  0  0  0  0  0  0  0  0  0  0
    8.1118   13.9559   25.1271 H   0  0  0  0  0  0  0  0  0  0  0  0
    7.9634   13.1394   26.6888 H   0  0  0  0  0  0  0  0  0  0  0  0
    6.2078   12.9995   24.2086 H   0  0  0  0  0  0  0  0  0  0  0  0
    9.6325   11.7981   25.7616 H   0  0  0  0  0  0  0  0  0  0  0  0
    7.9443   10.3115   26.2885 H   0  0  0  0  0  0  0  0  0  0  0  0
    9.9595   11.2892   21.9620 H   0  0  0  0  0  0  0  0  0  0  0  0
    6.9807   11.3251   22.5247 H   0  0  0  0  0  0  0  0  0  0  0  0
    7.7683   10.7090   21.0593 H   0  0  0  0  0  0  0  0  0  0  0  0
    7.8648   12.4348   21.4595 H   0  0  0  0  0  0  0  0  0  0  0  0
   12.4544   14.4426   23.6237 H   0  0  0  0  0  0  0  0  0  0  0  0
   13.1645   13.4318   22.3447 H   0  0  0  0  0  0  0  0  0  0  0  0
   13.3094   15.2022   22.2927 H   0  0  0  0  0  0  0  0  0  0  0  0
   10.6622   14.4346   19.6941 H   0  0  0  0  0  0  0  0  0  0  0  0
   12.0437   13.3988   20.0065 H   0  0  0  0  0  0  0  0  0  0  0  0
   12.2699   15.1596   19.9161 H   0  0  0  0  0  0  0  0  0  0  0  0
    9.6536   15.8294   21.5292 H   0  0  0  0  0  0  0  0  0  0  0  0
   10.3602   15.8325   23.1595 H   0  0  0  0  0  0  0  0  0  0  0  0
   11.1880   16.6353   21.8057 H   0  0  0  0  0  0  0  0  0  0  0  0
    5.8966   14.6679   25.7795 H   0  0  0  0  0  0  0  0  0  0  0  0
  1  6  1  0  0  0  0
  1 16  2  0  0  0  0
  1 19  1  0  0  0  0
  2 15  1  0  0  0  0
  2 17  2  0  0  0  0
  2 20  1  0  0  0  0
  3  4  1  0  0  0  0
  3  8  1  0  0  0  0
  4  9  1  0  0  0  0
  5  6  1  0  0  0  0
  5  7  1  0  0  0  0
  6 18  1  0  0  0  0
  7  8  1  0  0  0  0
  7 15  1  0  0  0  0
  8 18  1  0  0  0  0
  9 10  1  0  0  0  0
  9 15  1  0  0  0  0
 11 14  1  0  0  0  0
 12 14  1  0  0  0  0
 13 14  1  0  0  0  0
 14 20  1  0  0  0  0
  3 21  1  0  0  0  0
  3 22  1  0  0  0  0
  4 23  1  0  0  0  0
  4 24  1  0  0  0  0
  5 25  1  0  0  0  0
  5 26  1  0  0  0  0
  6 27  1  0  0  0  0
  7 28  1  0  0  0  0
  8 29  1  0  0  0  0
  9 30  1  0  0  0  0
 10 31  1  0  0  0  0
 10 32  1  0  0  0  0
 10 33  1  0  0  0  0
 11 34  1  0  0  0  0
 11 35  1  0  0  0  0
 11 36  1  0  0  0  0
 12 37  1  0  0  0  0
 12 38  1  0  0  0  0
 12 39  1  0  0  0  0
 13 40  1  0  0  0  0
 13 41  1  0  0  0  0
 13 42  1  0  0  0  0
 19 43  1  0  0  0  0
M  END
> <id>
EN300-1071458

> <smiles>
CC1CCC2OC(CC2N1C(=O)OC(C)(C)C)C(=O)O

> <IUPAC Name>
4-[(tert-butoxy)carbonyl]-5-methyl-octahydrofuro[3,2-b]pyridine-2-carboxylic acid

> <CAS>
2248267-34-5

> <URL>
https://www.enaminestore.com/catalog/EN300-1071458

> <ROCS_ShapeQuery>
A71EV2A-x0451_0A_A71EV2A-x0310_0A_A71EV2A-x0416_0A_peptide

> <ROCS_TanimotoCombo>
0.515 

> <ROCS_ShapeTanimoto>
0.332 

> <ROCS_ColorTanimoto>
0.184 

> <ROCS_RefTversky>
0.292 

> <ROCS_RefColorTversky>
0.202 

> <ROCS_RefTverskyCombo>
0.494 

> <ROCS_FitTversky>
1.682 

> <ROCS_FitColorTversky>
0.669 

> <ROCS_FitTverskyCombo>
2.351 

> <ROCS_ColorScore>
-6.172

> <ROCS_Overlap>
2028.578

> <ROCS_Rank>
270                 

$$$$
untitled-dbase-154004_9
  -OEChem-11132313473D

 37 38  0     0  0  0  0  0  0999 V2000
    8.0692    8.4902   24.1692 C   0  0  0  0  0  0  0  0  0  0  0  0
    9.1834    8.2927   23.3457 C   0  0  0  0  0  0  0  0  0  0  0  0
    7.9907    9.8538   24.3373 C   0  0  0  0  0  0  0  0  0  0  0  0
    8.4206   12.5911   24.2492 C   0  0  0  0  0  0  0  0  0  0  0  0
    9.2637   11.7936   23.5730 C   0  0  0  0  0  0  0  0  0  0  0  0
    7.3178   11.9139   24.9936 C   0  0  0  0  0  0  0  0  0  0  0  0
   10.9785   13.4601   23.1756 C   0  0  0  0  0  0  0  0  0  0  0  0
    9.7318    7.0191   22.8442 C   0  0  0  0  0  0  0  0  0  0  0  0
    6.3629   12.7978   25.7564 C   0  0  0  0  0  0  0  0  0  0  0  0
   11.9163   16.0732   22.5086 C   0  0  0  0  0  0  0  0  0  0  0  0
   13.0732   14.9630   20.5751 C   0  0  0  0  0  0  0  0  0  0  0  0
   10.5676   14.8997   20.7370 C   0  0  0  0  0  0  0  0  0  0  0  0
   11.8776   14.9057   21.5235 C   0  0  0  0  0  0  0  0  0  0  0  0
    9.7828    9.4314   23.0035 N   0  0  0  0  0  0  0  0  0  0  0  0
    7.1166   10.6300   25.0341 N   0  0  0  0  0  0  0  0  0  0  0  0
    9.0504   10.4059   23.6142 N   0  0  0  0  0  0  0  0  0  0  0  0
   10.3105   12.2954   22.8561 N   0  0  0  0  0  0  0  0  0  0  0  0
   10.7334   14.1952   24.1271 O   0  0  0  0  0  0  0  0  0  0  0  0
   11.9714   13.6827   22.2625 O   0  0  0  0  0  0  0  0  0  0  0  0
    6.9546    7.1668   24.8693 Br  0  0  0  0  0  0  0  0  0  0  0  0
    8.5081   13.6701   24.2742 H   0  0  0  0  0  0  0  0  0  0  0  0
    9.2782    6.7426   21.8778 H   0  0  0  0  0  0  0  0  0  0  0  0
   10.8251    7.0664   22.6985 H   0  0  0  0  0  0  0  0  0  0  0  0
    9.5553    6.1857   23.5466 H   0  0  0  0  0  0  0  0  0  0  0  0
    5.5383   13.0722   25.1071 H   0  0  0  0  0  0  0  0  0  0  0  0
    6.8889   13.6884   26.0849 H   0  0  0  0  0  0  0  0  0  0  0  0
    5.9912   12.2561   26.6201 H   0  0  0  0  0  0  0  0  0  0  0  0
   11.0598   16.0357   23.1911 H   0  0  0  0  0  0  0  0  0  0  0  0
   12.8355   16.0687   23.1035 H   0  0  0  0  0  0  0  0  0  0  0  0
   11.8499   17.0319   21.9815 H   0  0  0  0  0  0  0  0  0  0  0  0
   13.0495   14.1272   19.8665 H   0  0  0  0  0  0  0  0  0  0  0  0
   14.0150   14.8720   21.1283 H   0  0  0  0  0  0  0  0  0  0  0  0
   13.0939   15.8986   20.0070 H   0  0  0  0  0  0  0  0  0  0  0  0
   10.5396   14.0624   20.0303 H   0  0  0  0  0  0  0  0  0  0  0  0
    9.6997   14.8218   21.3997 H   0  0  0  0  0  0  0  0  0  0  0  0
   10.4682   15.8127   20.1387 H   0  0  0  0  0  0  0  0  0  0  0  0
   10.6170   11.7801   22.0369 H   0  0  0  0  0  0  0  0  0  0  0  0
  1  2  1  0  0  0  0
  1  3  2  0  0  0  0
  1 20  1  0  0  0  0
  2  8  1  0  0  0  0
  2 14  2  0  0  0  0
  3 15  1  0  0  0  0
  3 16  1  0  0  0  0
  4  5  2  0  0  0  0
  4  6  1  0  0  0  0
  5 16  1  0  0  0  0
  5 17  1  0  0  0  0
  6  9  1  0  0  0  0
  6 15  2  0  0  0  0
  7 17  1  0  0  0  0
  7 18  2  0  0  0  0
  7 19  1  0  0  0  0
 10 13  1  0  0  0  0
 11 13  1  0  0  0  0
 12 13  1  0  0  0  0
 13 19  1  0  0  0  0
 14 16  1  0  0  0  0
  4 21  1  0  0  0  0
  8 22  1  0  0  0  0
  8 23  1  0  0  0  0
  8 24  1  0  0  0  0
  9 25  1  0  0  0  0
  9 26  1  0  0  0  0
  9 27  1  0  0  0  0
 10 28  1  0  0  0  0
 10 29  1  0  0  0  0
 10 30  1  0  0  0  0
 11 31  1  0  0  0  0
 11 32  1  0  0  0  0
 11 33  1  0  0  0  0
 12 34  1  0  0  0  0
 12 35  1  0  0  0  0
 12 36  1  0  0  0  0
 17 37  1  0  0  0  0
M  END
> <id>
EN300-28297179

> <smiles>
CC1=NN2C(NC(=O)OC(C)(C)C)=CC(C)=NC2=C1Br

> <IUPAC Name>
tert-butyl N-{3-bromo-2,5-dimethylpyrazolo[1,5-a]pyrimidin-7-yl}carbamate

> <CAS>
2680875-91-4

> <URL>
https://www.enaminestore.com/catalog/EN300-28297179

> <ROCS_ShapeQuery>
A71EV2A-x0451_0A_A71EV2A-x0310_0A_A71EV2A-x0416_0A_peptide

> <ROCS_TanimotoCombo>
0.515 

> <ROCS_ShapeTanimoto>
0.367 

> <ROCS_ColorTanimoto>
0.149 

> <ROCS_RefTversky>
0.315 

> <ROCS_RefColorTversky>
0.169 

> <ROCS_RefTverskyCombo>
0.484 

> <ROCS_FitTversky>
1.795 

> <ROCS_FitColorTversky>
0.559 

> <ROCS_FitTverskyCombo>
2.354 

> <ROCS_ColorScore>
-5.147

> <ROCS_Overlap>
2188.892

> <ROCS_Rank>
271                 

$$$$
untitled-dbase-35965_92
  -OEChem-11132313473D

 41 43  0     0  0  0  0  0  0999 V2000
    6.2323   13.3991   26.1895 C   0  0  0  0  0  0  0  0  0  0  0  0
    4.8836   11.4972   26.3314 C   0  0  0  0  0  0  0  0  0  0  0  0
    4.2190   13.4709   27.2425 C   0  0  0  0  0  0  0  0  0  0  0  0
    6.0625   12.0627   25.8903 C   0  0  0  0  0  0  0  0  0  0  0  0
    8.2699   11.6644   24.6425 C   0  0  0  0  0  0  0  0  0  0  0  0
    7.0511   11.3063   25.1643 C   0  0  0  0  0  0  0  0  0  0  0  0
    8.7614   10.4765   24.0541 C   0  0  0  0  0  0  0  0  0  0  0  0
   10.6212   13.9643   22.9908 C   0  0  0  0  0  0  0  0  0  0  0  0
    8.9977   12.9555   24.6485 C   0  0  0  0  0  0  0  0  0  0  0  0
   10.0647   10.4036   23.3514 C   0  0  0  0  0  0  0  0  0  0  0  0
   10.9359   11.6108   23.7373 C   0  0  0  0  0  0  0  0  0  0  0  0
   12.7514   15.4236   21.7559 C   0  0  0  0  0  0  0  0  0  0  0  0
   12.2979   14.0097   19.7300 C   0  0  0  0  0  0  0  0  0  0  0  0
   10.5175   15.5510   20.6035 C   0  0  0  0  0  0  0  0  0  0  0  0
   11.6904   14.6462   20.9782 C   0  0  0  0  0  0  0  0  0  0  0  0
    5.3277   14.1365   26.8665 N   0  0  0  0  0  0  0  0  0  0  0  0
    3.9363   12.1744   27.0130 N   0  0  0  0  0  0  0  0  0  0  0  0
    7.9241    9.4457   24.1834 N   0  0  0  0  0  0  0  0  0  0  0  0
    6.8938    9.9818   24.8654 N   0  0  0  0  0  0  0  0  0  0  0  0
   10.1655   12.8721   23.7395 N   0  0  0  0  0  0  0  0  0  0  0  0
   10.5143   15.1384   23.3403 O   0  0  0  0  0  0  0  0  0  0  0  0
   11.2017   13.5865   21.8087 O   0  0  0  0  0  0  0  0  0  0  0  0
    7.1237   13.9418   25.8895 H   0  0  0  0  0  0  0  0  0  0  0  0
    4.6494   10.4524   26.1504 H   0  0  0  0  0  0  0  0  0  0  0  0
    3.4758   14.0389   27.7883 H   0  0  0  0  0  0  0  0  0  0  0  0
    8.3340   13.7713   24.3485 H   0  0  0  0  0  0  0  0  0  0  0  0
    9.3847   13.1724   25.6502 H   0  0  0  0  0  0  0  0  0  0  0  0
   10.5904    9.4755   23.6021 H   0  0  0  0  0  0  0  0  0  0  0  0
    9.8913   10.4079   22.2688 H   0  0  0  0  0  0  0  0  0  0  0  0
   11.3295   11.4844   24.7537 H   0  0  0  0  0  0  0  0  0  0  0  0
   11.7952   11.6782   23.0625 H   0  0  0  0  0  0  0  0  0  0  0  0
   12.3193   15.8820   22.6527 H   0  0  0  0  0  0  0  0  0  0  0  0
   13.5816   14.7783   22.0609 H   0  0  0  0  0  0  0  0  0  0  0  0
   13.1549   16.2449   21.1527 H   0  0  0  0  0  0  0  0  0  0  0  0
   11.5402   13.4509   19.1689 H   0  0  0  0  0  0  0  0  0  0  0  0
   13.0770   13.2876   19.9998 H   0  0  0  0  0  0  0  0  0  0  0  0
   12.7367   14.7614   19.0659 H   0  0  0  0  0  0  0  0  0  0  0  0
    9.7564   14.9936   20.0456 H   0  0  0  0  0  0  0  0  0  0  0  0
   10.0458   15.9877   21.4897 H   0  0  0  0  0  0  0  0  0  0  0  0
   10.8473   16.3649   19.9477 H   0  0  0  0  0  0  0  0  0  0  0  0
    6.1112    9.3812   25.0938 H   0  0  0  0  0  0  0  0  0  0  0  0
  1  4  2  0  0  0  0
  1 16  1  0  0  0  0
  2  4  1  0  0  0  0
  2 17  2  0  0  0  0
  3 16  2  0  0  0  0
  3 17  1  0  0  0  0
  4  6  1  0  0  0  0
  5  6  2  0  0  0  0
  5  7  1  0  0  0  0
  5  9  1  0  0  0  0
  6 19  1  0  0  0  0
  7 10  1  0  0  0  0
  7 18  2  0  0  0  0
  8 20  1  0  0  0  0
  8 21  2  0  0  0  0
  8 22  1  0  0  0  0
  9 20  1  0  0  0  0
 10 11  1  0  0  0  0
 11 20  1  0  0  0  0
 12 15  1  0  0  0  0
 13 15  1  0  0  0  0
 14 15  1  0  0  0  0
 15 22  1  0  0  0  0
 18 19  1  0  0  0  0
  1 23  1  0  0  0  0
  2 24  1  0  0  0  0
  3 25  1  0  0  0  0
  9 26  1  0  0  0  0
  9 27  1  0  0  0  0
 10 28  1  0  0  0  0
 10 29  1  0  0  0  0
 11 30  1  0  0  0  0
 11 31  1  0  0  0  0
 12 32  1  0  0  0  0
 12 33  1  0  0  0  0
 12 34  1  0  0  0  0
 13 35  1  0  0  0  0
 13 36  1  0  0  0  0
 13 37  1  0  0  0  0
 14 38  1  0  0  0  0
 14 39  1  0  0  0  0
 14 40  1  0  0  0  0
 19 41  1  0  0  0  0
M  END
> <id>
EN300-784377

> <smiles>
CC(C)(C)OC(=O)N1CCC2=NNC(=C2C1)C=3C=NC=NC3

> <IUPAC Name>
tert-butyl 3-(pyrimidin-5-yl)-2H,4H,5H,6H,7H-pyrazolo[4,3-c]pyridine-5-carboxylate

> <CAS>
2138131-45-8

> <URL>
https://www.enaminestore.com/catalog/EN300-784377

> <ROCS_ShapeQuery>
A71EV2A-x0451_0A_A71EV2A-x0310_0A_A71EV2A-x0416_0A_peptide

> <ROCS_TanimotoCombo>
0.515 

> <ROCS_ShapeTanimoto>
0.352 

> <ROCS_ColorTanimoto>
0.163 

> <ROCS_RefTversky>
0.310 

> <ROCS_RefColorTversky>
0.187 

> <ROCS_RefTverskyCombo>
0.497 

> <ROCS_FitTversky>
1.625 

> <ROCS_FitColorTversky>
0.562 

> <ROCS_FitTverskyCombo>
2.187 

> <ROCS_ColorScore>
-5.708

> <ROCS_Overlap>
2155.299

> <ROCS_Rank>
272                 

$$$$
untitled-dbase-104066_85
  -OEChem-11132313473D

 39 40  0     0  0  0  0  0  0999 V2000
    6.8872   10.5377   25.4929 C   0  0  0  0  0  0  0  0  0  0  0  0
    6.3988   11.6050   26.2393 C   0  0  0  0  0  0  0  0  0  0  0  0
    8.0345   13.0584   25.2093 C   0  0  0  0  0  0  0  0  0  0  0  0
    7.9552   10.7312   24.6039 C   0  0  0  0  0  0  0  0  0  0  0  0
    6.9713   12.8628   26.0971 C   0  0  0  0  0  0  0  0  0  0  0  0
    8.5531   11.9978   24.4481 C   0  0  0  0  0  0  0  0  0  0  0  0
    8.4773    9.5510   23.8737 C   0  0  0  0  0  0  0  0  0  0  0  0
   10.4882   13.2961   23.5292 C   0  0  0  0  0  0  0  0  0  0  0  0
    9.7027    9.7547   23.0293 C   0  0  0  0  0  0  0  0  0  0  0  0
    9.7311   11.1564   22.4570 C   0  0  0  0  0  0  0  0  0  0  0  0
   12.5428   15.2696   23.1972 C   0  0  0  0  0  0  0  0  0  0  0  0
   12.8826   14.2656   20.9200 C   0  0  0  0  0  0  0  0  0  0  0  0
   10.6819   15.3260   21.5036 C   0  0  0  0  0  0  0  0  0  0  0  0
    6.4398   14.0133   26.8854 C   0  0  0  0  0  0  0  0  0  0  0  0
   11.8754   14.5342   22.0360 C   0  0  0  0  0  0  0  0  0  0  0  0
    9.6229   12.1846   23.5028 N   0  0  0  0  0  0  0  0  0  0  0  0
    7.9629    8.4448   24.0033 O   0  0  0  0  0  0  0  0  0  0  0  0
   10.4724   14.2010   24.3604 O   0  0  0  0  0  0  0  0  0  0  0  0
    5.2055   14.4399   26.3229 O   0  0  0  0  0  0  0  0  0  0  0  0
   11.4067   13.2656   22.5089 O   0  0  0  0  0  0  0  0  0  0  0  0
    6.4299    9.5605   25.6235 H   0  0  0  0  0  0  0  0  0  0  0  0
    5.5722   11.4462   26.9263 H   0  0  0  0  0  0  0  0  0  0  0  0
    8.4063   14.0723   25.1009 H   0  0  0  0  0  0  0  0  0  0  0  0
   10.5888    9.5572   23.6420 H   0  0  0  0  0  0  0  0  0  0  0  0
    9.6819    9.0310   22.2071 H   0  0  0  0  0  0  0  0  0  0  0  0
   10.6490   11.2745   21.8740 H   0  0  0  0  0  0  0  0  0  0  0  0
    8.8908   11.3140   21.7685 H   0  0  0  0  0  0  0  0  0  0  0  0
   11.8231   15.4642   24.0004 H   0  0  0  0  0  0  0  0  0  0  0  0
   13.3787   14.6959   23.6108 H   0  0  0  0  0  0  0  0  0  0  0  0
   12.9195   16.2474   22.8760 H   0  0  0  0  0  0  0  0  0  0  0  0
   12.4080   13.7381   20.0847 H   0  0  0  0  0  0  0  0  0  0  0  0
   13.6932   13.6181   21.2733 H   0  0  0  0  0  0  0  0  0  0  0  0
   13.3212   15.1938   20.5396 H   0  0  0  0  0  0  0  0  0  0  0  0
   10.2030   14.7988   20.6706 H   0  0  0  0  0  0  0  0  0  0  0  0
    9.9312   15.4964   22.2821 H   0  0  0  0  0  0  0  0  0  0  0  0
   11.0029   16.2976   21.1108 H   0  0  0  0  0  0  0  0  0  0  0  0
    6.2707   13.7351   27.9343 H   0  0  0  0  0  0  0  0  0  0  0  0
    7.1427   14.8570   26.8772 H   0  0  0  0  0  0  0  0  0  0  0  0
    5.3921   14.7044   25.4077 H   0  0  0  0  0  0  0  0  0  0  0  0
  1  2  1  0  0  0  0
  1  4  2  0  0  0  0
  2  5  2  0  0  0  0
  3  5  1  0  0  0  0
  3  6  2  0  0  0  0
  4  6  1  0  0  0  0
  4  7  1  0  0  0  0
  5 14  1  0  0  0  0
  6 16  1  0  0  0  0
  7  9  1  0  0  0  0
  7 17  2  0  0  0  0
  8 16  1  0  0  0  0
  8 18  2  0  0  0  0
  8 20  1  0  0  0  0
  9 10  1  0  0  0  0
 10 16  1  0  0  0  0
 11 15  1  0  0  0  0
 12 15  1  0  0  0  0
 13 15  1  0  0  0  0
 14 19  1  0  0  0  0
 15 20  1  0  0  0  0
  1 21  1  0  0  0  0
  2 22  1  0  0  0  0
  3 23  1  0  0  0  0
  9 24  1  0  0  0  0
  9 25  1  0  0  0  0
 10 26  1  0  0  0  0
 10 27  1  0  0  0  0
 11 28  1  0  0  0  0
 11 29  1  0  0  0  0
 11 30  1  0  0  0  0
 12 31  1  0  0  0  0
 12 32  1  0  0  0  0
 12 33  1  0  0  0  0
 13 34  1  0  0  0  0
 13 35  1  0  0  0  0
 13 36  1  0  0  0  0
 14 37  1  0  0  0  0
 14 38  1  0  0  0  0
 19 39  1  0  0  0  0
M  END
> <id>
EN300-26665977

> <smiles>
CC(C)(C)OC(=O)N1CCC(=O)C=2C=CC(CO)=CC12

> <IUPAC Name>
tert-butyl 7-(hydroxymethyl)-4-oxo-1,2,3,4-tetrahydroquinoline-1-carboxylate

> <CAS>
2413900-67-9

> <URL>
https://www.enaminestore.com/catalog/EN300-26665977

> <ROCS_ShapeQuery>
A71EV2A-x0451_0A_A71EV2A-x0310_0A_A71EV2A-x0416_0A_peptide

> <ROCS_TanimotoCombo>
0.515 

> <ROCS_ShapeTanimoto>
0.359 

> <ROCS_ColorTanimoto>
0.156 

> <ROCS_RefTversky>
0.310 

> <ROCS_RefColorTversky>
0.172 

> <ROCS_RefTverskyCombo>
0.482 

> <ROCS_FitTversky>
1.777 

> <ROCS_FitColorTversky>
0.635 

> <ROCS_FitTverskyCombo>
2.412 

> <ROCS_ColorScore>
-5.235

> <ROCS_Overlap>
2153.258

> <ROCS_Rank>
273                 

$$$$
untitled-dbase-16042_7
  -OEChem-11132313473D

 25 26  0     0  0  0  0  0  0999 V2000
    9.9255   10.7385   23.0078 C   0  0  0  0  0  0  0  0  0  0  0  0
    8.5046   11.8852   24.5430 C   0  0  0  0  0  0  0  0  0  0  0  0
    9.6017   11.9196   23.6744 C   0  0  0  0  0  0  0  0  0  0  0  0
    9.1539    9.6051   23.2367 C   0  0  0  0  0  0  0  0  0  0  0  0
    7.8197   12.7679   25.3966 C   0  0  0  0  0  0  0  0  0  0  0  0
    7.8179   10.6888   24.6819 C   0  0  0  0  0  0  0  0  0  0  0  0
   10.3796   13.1267   23.4668 C   0  0  0  0  0  0  0  0  0  0  0  0
    9.5127    8.3457   22.5150 C   0  0  0  0  0  0  0  0  0  0  0  0
    8.1042   14.1886   25.6590 C   0  0  0  0  0  0  0  0  0  0  0  0
    8.0860    9.5229   24.0655 N   0  0  0  0  0  0  0  0  0  0  0  0
    6.7933   12.1789   26.0168 N   0  0  0  0  0  0  0  0  0  0  0  0
   11.7092   14.4068   21.9246 N   0  0  0  0  0  0  0  0  0  0  0  0
   10.9730   13.2710   22.2083 N   0  0  0  0  0  0  0  0  0  0  0  0
   10.5050   14.0069   24.3361 O   0  0  0  0  0  0  0  0  0  0  0  0
    6.7942   10.8659   25.5640 O   0  0  0  0  0  0  0  0  0  0  0  0
   10.7666   10.7061   22.3208 H   0  0  0  0  0  0  0  0  0  0  0  0
   10.2250    7.7604   23.1070 H   0  0  0  0  0  0  0  0  0  0  0  0
    8.6241    7.7315   22.3274 H   0  0  0  0  0  0  0  0  0  0  0  0
    9.9630    8.5645   21.5396 H   0  0  0  0  0  0  0  0  0  0  0  0
    7.5607   14.8428   24.9557 H   0  0  0  0  0  0  0  0  0  0  0  0
    7.8167   14.4898   26.6824 H   0  0  0  0  0  0  0  0  0  0  0  0
    9.1800   14.4228   25.5668 H   0  0  0  0  0  0  0  0  0  0  0  0
   11.5718   14.6072   20.9348 H   0  0  0  0  0  0  0  0  0  0  0  0
   11.2709   15.1755   22.4301 H   0  0  0  0  0  0  0  0  0  0  0  0
   10.8638   12.5462   21.5072 H   0  0  0  0  0  0  0  0  0  0  0  0
  1  3  1  0  0  0  0
  1  4  2  0  0  0  0
  2  3  2  0  0  0  0
  2  5  1  0  0  0  0
  2  6  1  0  0  0  0
  3  7  1  0  0  0  0
  4  8  1  0  0  0  0
  4 10  1  0  0  0  0
  5  9  1  0  0  0  0
  5 11  2  0  0  0  0
  6 10  2  0  0  0  0
  6 15  1  0  0  0  0
  7 13  1  0  0  0  0
  7 14  2  0  0  0  0
 11 15  1  0  0  0  0
 12 13  1  0  0  0  0
  1 16  1  0  0  0  0
  8 17  1  0  0  0  0
  8 18  1  0  0  0  0
  8 19  1  0  0  0  0
  9 20  1  0  0  0  0
  9 21  1  0  0  0  0
  9 22  1  0  0  0  0
 12 23  1  0  0  0  0
 12 24  1  0  0  0  0
 13 25  1  0  0  0  0
M  END
> <id>
EN300-230874

> <smiles>
CC1=NOC=2N=C(C)C=C(C(=O)NN)C12

> <MDLNUMBER>
MFCD08558471

> <IUPAC Name>
3,6-dimethyl-[1,2]oxazolo[5,4-b]pyridine-4-carbohydrazide

> <CAS>
938022-08-3

> <Purity>
95

> <URL>
https://www.enaminestore.com/catalog/EN300-230874

> <ROCS_ShapeQuery>
A71EV2A-x0451_0A_A71EV2A-x0310_0A_A71EV2A-x0416_0A_peptide

> <ROCS_TanimotoCombo>
0.515 

> <ROCS_ShapeTanimoto>
0.312 

> <ROCS_ColorTanimoto>
0.203 

> <ROCS_RefTversky>
0.273 

> <ROCS_RefColorTversky>
0.216 

> <ROCS_RefTverskyCombo>
0.489 

> <ROCS_FitTversky>
1.858 

> <ROCS_FitColorTversky>
0.771 

> <ROCS_FitTverskyCombo>
2.629 

> <ROCS_ColorScore>
-6.586

> <ROCS_Overlap>
1891.227

> <ROCS_Rank>
274                 

$$$$
untitled-dbase-104262_89
  -OEChem-11132313473D

 37 38  0     1  0  0  0  0  0999 V2000
   10.6488   13.5761   23.1165 C   0  0  0  0  0  0  0  0  0  0  0  0
    8.3987   10.5032   25.3162 C   0  0  0  0  0  0  0  0  0  0  0  0
    9.1074   10.1605   23.0599 C   0  0  0  0  0  0  0  0  0  0  0  0
    6.9901   11.3849   23.6120 C   0  0  0  0  0  0  0  0  0  0  0  0
    7.8414   10.1434   23.9395 C   0  0  2  0  0  0  0  0  0  0  0  0
    9.0366   11.8091   24.8186 C   0  0  1  0  0  0  0  0  0  0  0  0
    9.9649   11.2580   23.7161 C   0  0  2  0  0  0  0  0  0  0  0  0
    7.8137   12.5326   24.2195 C   0  0  2  0  0  0  0  0  0  0  0  0
   13.4019   13.7775   22.3888 C   0  0  0  0  0  0  0  0  0  0  0  0
   12.6595   15.5784   20.8029 C   0  0  0  0  0  0  0  0  0  0  0  0
   12.3386   15.8793   23.2757 C   0  0  0  0  0  0  0  0  0  0  0  0
   12.3697   14.8731   22.1261 C   0  0  0  0  0  0  0  0  0  0  0  0
   10.4225   12.2506   22.7866 N   0  0  0  0  0  0  0  0  0  0  0  0
   10.4905   14.0684   24.2288 O   0  0  0  0  0  0  0  0  0  0  0  0
    7.0622   13.1689   25.2451 O   0  0  0  0  0  0  0  0  0  0  0  0
   11.0777   14.2652   22.0171 O   0  0  0  0  0  0  0  0  0  0  0  0
    7.6211   10.6564   26.0718 H   0  0  0  0  0  0  0  0  0  0  0  0
    9.1305    9.7784   25.6889 H   0  0  0  0  0  0  0  0  0  0  0  0
    9.6304    9.1986   23.1146 H   0  0  0  0  0  0  0  0  0  0  0  0
    8.8740   10.3583   22.0081 H   0  0  0  0  0  0  0  0  0  0  0  0
    6.8595   11.5063   22.5317 H   0  0  0  0  0  0  0  0  0  0  0  0
    5.9992   11.3119   24.0742 H   0  0  0  0  0  0  0  0  0  0  0  0
    7.2849    9.2059   23.8836 H   0  0  0  0  0  0  0  0  0  0  0  0
    9.5530   12.3708   25.6009 H   0  0  0  0  0  0  0  0  0  0  0  0
   10.8598   10.8096   24.1638 H   0  0  0  0  0  0  0  0  0  0  0  0
    8.0752   13.2876   23.4722 H   0  0  0  0  0  0  0  0  0  0  0  0
   13.1974   13.2689   23.3377 H   0  0  0  0  0  0  0  0  0  0  0  0
   13.4098   13.0304   21.5884 H   0  0  0  0  0  0  0  0  0  0  0  0
   14.4088   14.2017   22.4761 H   0  0  0  0  0  0  0  0  0  0  0  0
   11.9213   16.3653   20.6104 H   0  0  0  0  0  0  0  0  0  0  0  0
   12.5893   14.8772   19.9634 H   0  0  0  0  0  0  0  0  0  0  0  0
   13.6570   16.0294   20.7954 H   0  0  0  0  0  0  0  0  0  0  0  0
   11.5982   16.6652   23.0875 H   0  0  0  0  0  0  0  0  0  0  0  0
   12.0955   15.3964   24.2277 H   0  0  0  0  0  0  0  0  0  0  0  0
   13.3061   16.3840   23.3781 H   0  0  0  0  0  0  0  0  0  0  0  0
   10.5916   11.9619   21.8230 H   0  0  0  0  0  0  0  0  0  0  0  0
    7.6183   13.8823   25.5975 H   0  0  0  0  0  0  0  0  0  0  0  0
  1 13  1  0  0  0  0
  1 14  2  0  0  0  0
  1 16  1  0  0  0  0
  2  5  1  0  0  0  0
  2  6  1  6  0  0  0
  3  5  1  1  0  0  0
  3  7  1  0  0  0  0
  4  5  1  0  0  0  0
  4  8  1  0  0  0  0
  6  7  1  0  0  0  0
  6  8  1  0  0  0  0
  7 13  1  1  0  0  0
  8 15  1  6  0  0  0
  9 12  1  0  0  0  0
 10 12  1  0  0  0  0
 11 12  1  0  0  0  0
 12 16  1  0  0  0  0
  2 17  1  0  0  0  0
  2 18  1  0  0  0  0
  3 19  1  0  0  0  0
  3 20  1  0  0  0  0
  4 21  1  0  0  0  0
  4 22  1  0  0  0  0
  5 23  1  0  0  0  0
  6 24  1  0  0  0  0
  7 25  1  0  0  0  0
  8 26  1  0  0  0  0
  9 27  1  0  0  0  0
  9 28  1  0  0  0  0
  9 29  1  0  0  0  0
 10 30  1  0  0  0  0
 10 31  1  0  0  0  0
 10 32  1  0  0  0  0
 11 33  1  0  0  0  0
 11 34  1  0  0  0  0
 11 35  1  0  0  0  0
 13 36  1  0  0  0  0
 15 37  1  0  0  0  0
M  END
> <id>
EN300-26666099

> <smiles>
CC(C)(C)OC(=O)N[C@@H]1C[C@@H]2C[C@@H](O)[C@H]1C2 |&1:8,12,&2:10,14,r|

> <IUPAC Name>
tert-butyl N-[(1RS,2RS&,4SR,6RS&)-6-hydroxybicyclo[2.2.1]heptan-2-yl]carbamate

> <CAS>
2413846-52-1

> <URL>
https://www.enaminestore.com/catalog/EN300-26666099

> <ROCS_ShapeQuery>
A71EV2A-x0451_0A_A71EV2A-x0310_0A_A71EV2A-x0416_0A_peptide

> <ROCS_TanimotoCombo>
0.515 

> <ROCS_ShapeTanimoto>
0.289 

> <ROCS_ColorTanimoto>
0.227 

> <ROCS_RefTversky>
0.257 

> <ROCS_RefColorTversky>
0.259 

> <ROCS_RefTverskyCombo>
0.516 

> <ROCS_FitTversky>
1.728 

> <ROCS_FitColorTversky>
0.645 

> <ROCS_FitTverskyCombo>
2.373 

> <ROCS_ColorScore>
-7.944

> <ROCS_Overlap>
1783.916

> <ROCS_Rank>
275                 

$$$$
untitled-dbase-148371_19
  -OEChem-11132313473D

 30 31  0     0  0  0  0  0  0999 V2000
    9.9645   10.7428   23.0168 C   0  0  0  0  0  0  0  0  0  0  0  0
    9.7561   12.0171   23.5821 C   0  0  0  0  0  0  0  0  0  0  0  0
    8.6287   11.8737   24.3579 C   0  0  0  0  0  0  0  0  0  0  0  0
    6.8756   12.1584   25.7296 C   0  0  0  0  0  0  0  0  0  0  0  0
    7.1348   10.0372   24.8518 C   0  0  0  0  0  0  0  0  0  0  0  0
   10.5192   13.2167   23.4146 C   0  0  0  0  0  0  0  0  0  0  0  0
   12.2378   15.3821   22.5641 C   0  0  0  0  0  0  0  0  0  0  0  0
   12.0310   14.3884   20.2665 C   0  0  0  0  0  0  0  0  0  0  0  0
    9.9904   15.2685   21.4368 C   0  0  0  0  0  0  0  0  0  0  0  0
   11.3442   14.5831   21.6166 C   0  0  0  0  0  0  0  0  0  0  0  0
    9.0450    9.8509   23.3978 N   0  0  0  0  0  0  0  0  0  0  0  0
    7.9089   12.7018   25.1519 N   0  0  0  0  0  0  0  0  0  0  0  0
    6.4535   10.8466   25.6119 N   0  0  0  0  0  0  0  0  0  0  0  0
    8.2485   10.5672   24.2112 N   0  0  0  0  0  0  0  0  0  0  0  0
    6.8382    8.7179   24.6402 N   0  0  0  0  0  0  0  0  0  0  0  0
   10.6428   14.1205   24.2709 O   0  0  0  0  0  0  0  0  0  0  0  0
   11.1268   13.2855   22.1811 O   0  0  0  0  0  0  0  0  0  0  0  0
   10.7472   10.4242   22.3429 H   0  0  0  0  0  0  0  0  0  0  0  0
    6.2617   12.7979   26.3851 H   0  0  0  0  0  0  0  0  0  0  0  0
   11.7484   15.5241   23.5343 H   0  0  0  0  0  0  0  0  0  0  0  0
   13.1986   14.8835   22.7290 H   0  0  0  0  0  0  0  0  0  0  0  0
   12.4320   16.3847   22.1662 H   0  0  0  0  0  0  0  0  0  0  0  0
   11.3934   13.8156   19.5835 H   0  0  0  0  0  0  0  0  0  0  0  0
   12.9573   13.8135   20.3792 H   0  0  0  0  0  0  0  0  0  0  0  0
   12.2726   15.3460   19.7942 H   0  0  0  0  0  0  0  0  0  0  0  0
    9.3492   14.6956   20.7572 H   0  0  0  0  0  0  0  0  0  0  0  0
    9.4666   15.3834   22.3913 H   0  0  0  0  0  0  0  0  0  0  0  0
   10.1123   16.2596   20.9850 H   0  0  0  0  0  0  0  0  0  0  0  0
    7.4291    8.1912   24.0379 H   0  0  0  0  0  0  0  0  0  0  0  0
    6.0425    8.3330   25.0962 H   0  0  0  0  0  0  0  0  0  0  0  0
  1  2  1  0  0  0  0
  1 11  2  0  0  0  0
  2  3  2  0  0  0  0
  2  6  1  0  0  0  0
  3 12  1  0  0  0  0
  3 14  1  0  0  0  0
  4 12  2  0  0  0  0
  4 13  1  0  0  0  0
  5 13  2  0  0  0  0
  5 14  1  0  0  0  0
  5 15  1  0  0  0  0
  6 16  2  0  0  0  0
  6 17  1  0  0  0  0
  7 10  1  0  0  0  0
  8 10  1  0  0  0  0
  9 10  1  0  0  0  0
 10 17  1  0  0  0  0
 11 14  1  0  0  0  0
  1 18  1  0  0  0  0
  4 19  1  0  0  0  0
  7 20  1  0  0  0  0
  7 21  1  0  0  0  0
  7 22  1  0  0  0  0
  8 23  1  0  0  0  0
  8 24  1  0  0  0  0
  8 25  1  0  0  0  0
  9 26  1  0  0  0  0
  9 27  1  0  0  0  0
  9 28  1  0  0  0  0
 15 29  1  0  0  0  0
 15 30  1  0  0  0  0
M  END
> <id>
EN300-27732735

> <smiles>
CC(C)(C)OC(=O)C=1C=NN2C(N)=NC=NC12

> <IUPAC Name>
tert-butyl 4-aminopyrazolo[1,5-a][1,3,5]triazine-8-carboxylate

> <CAS>
2639424-14-7

> <URL>
https://www.enaminestore.com/catalog/EN300-27732735

> <ROCS_ShapeQuery>
A71EV2A-x0451_0A_A71EV2A-x0310_0A_A71EV2A-x0416_0A_peptide

> <ROCS_TanimotoCombo>
0.515 

> <ROCS_ShapeTanimoto>
0.338 

> <ROCS_ColorTanimoto>
0.177 

> <ROCS_RefTversky>
0.293 

> <ROCS_RefColorTversky>
0.201 

> <ROCS_RefTverskyCombo>
0.494 

> <ROCS_FitTversky>
1.824 

> <ROCS_FitColorTversky>
0.603 

> <ROCS_FitTverskyCombo>
2.427 

> <ROCS_ColorScore>
-6.131

> <ROCS_Overlap>
2034.277

> <ROCS_Rank>
276                 

$$$$
untitled-dbase-142039_282
  -OEChem-11132313473D

 47 49  0     1  0  0  0  0  0999 V2000
    5.8196   12.9554   26.4472 C   0  0  0  0  0  0  0  0  0  0  0  0
    5.9300   10.8145   27.5614 C   0  0  0  0  0  0  0  0  0  0  0  0
    4.9818   13.4359   27.4534 C   0  0  0  0  0  0  0  0  0  0  0  0
    5.0921   11.2950   28.5677 C   0  0  0  0  0  0  0  0  0  0  0  0
    6.2937   11.6446   26.5011 C   0  0  0  0  0  0  0  0  0  0  0  0
    4.6180   12.6058   28.5137 C   0  0  0  0  0  0  0  0  0  0  0  0
    9.8736   13.3571   23.5532 C   0  0  0  0  0  0  0  0  0  0  0  0
    8.4732   10.1290   22.7438 C   0  0  0  0  0  0  0  0  0  0  0  0
    9.5305    9.7916   23.8128 C   0  0  0  0  0  0  0  0  0  0  0  0
    6.9671   11.7788   23.9968 C   0  0  0  0  0  0  0  0  0  0  0  0
    8.7299   11.2006   25.7936 C   0  0  0  0  0  0  0  0  0  0  0  0
    8.1231   11.5999   22.9900 C   0  0  1  0  0  0  0  0  0  0  0  0
    9.7112   11.0889   24.6067 C   0  0  2  0  0  0  0  0  0  0  0  0
    7.2170   11.1160   25.3950 C   0  0  0  0  0  0  0  0  0  0  0  0
   11.9416   14.1174   21.7330 C   0  0  0  0  0  0  0  0  0  0  0  0
   10.1486   15.3870   20.5154 C   0  0  0  0  0  0  0  0  0  0  0  0
   10.7331   16.0047   22.8786 C   0  0  0  0  0  0  0  0  0  0  0  0
   10.6143   14.8616   21.8716 C   0  0  0  0  0  0  0  0  0  0  0  0
    9.3189   12.0959   23.6447 N   0  0  0  0  0  0  0  0  0  0  0  0
   10.5152   13.8963   24.4519 O   0  0  0  0  0  0  0  0  0  0  0  0
    6.8954    9.7193   25.2753 O   0  0  0  0  0  0  0  0  0  0  0  0
    9.6229   13.9415   22.3413 O   0  0  0  0  0  0  0  0  0  0  0  0
    3.5846   13.1989   29.7551 Cl  0  0  0  0  0  0  0  0  0  0  0  0
    6.0983   13.6083   25.6242 H   0  0  0  0  0  0  0  0  0  0  0  0
    6.2953    9.7921   27.6109 H   0  0  0  0  0  0  0  0  0  0  0  0
    4.6204   14.4596   27.3983 H   0  0  0  0  0  0  0  0  0  0  0  0
    4.8170   10.6367   29.3877 H   0  0  0  0  0  0  0  0  0  0  0  0
    8.9184   10.0083   21.7489 H   0  0  0  0  0  0  0  0  0  0  0  0
    7.6043    9.4662   22.7974 H   0  0  0  0  0  0  0  0  0  0  0  0
    9.2299    8.9450   24.4373 H   0  0  0  0  0  0  0  0  0  0  0  0
   10.4687    9.5183   23.3154 H   0  0  0  0  0  0  0  0  0  0  0  0
    6.8020   12.8573   24.1284 H   0  0  0  0  0  0  0  0  0  0  0  0
    6.0470   11.3711   23.5575 H   0  0  0  0  0  0  0  0  0  0  0  0
    8.9652   10.4152   26.5235 H   0  0  0  0  0  0  0  0  0  0  0  0
    8.9210   12.1609   26.2931 H   0  0  0  0  0  0  0  0  0  0  0  0
    7.9072   12.1346   22.0602 H   0  0  0  0  0  0  0  0  0  0  0  0
   10.7413   11.2315   24.9480 H   0  0  0  0  0  0  0  0  0  0  0  0
   12.2793   13.7388   22.7043 H   0  0  0  0  0  0  0  0  0  0  0  0
   11.8605   13.2737   21.0399 H   0  0  0  0  0  0  0  0  0  0  0  0
   12.7298   14.7877   21.3715 H   0  0  0  0  0  0  0  0  0  0  0  0
    9.1965   15.9217   20.6101 H   0  0  0  0  0  0  0  0  0  0  0  0
    9.9707   14.5612   19.8171 H   0  0  0  0  0  0  0  0  0  0  0  0
   10.8841   16.0649   20.0704 H   0  0  0  0  0  0  0  0  0  0  0  0
    9.7811   16.5386   22.9782 H   0  0  0  0  0  0  0  0  0  0  0  0
   11.0307   15.6415   23.8677 H   0  0  0  0  0  0  0  0  0  0  0  0
   11.4689   16.7445   22.5433 H   0  0  0  0  0  0  0  0  0  0  0  0
    7.0762    9.3215   26.1403 H   0  0  0  0  0  0  0  0  0  0  0  0
  1  3  1  0  0  0  0
  1  5  2  0  0  0  0
  2  4  2  0  0  0  0
  2  5  1  0  0  0  0
  3  6  2  0  0  0  0
  4  6  1  0  0  0  0
  5 14  1  0  0  0  0
  6 23  1  0  0  0  0
  7 19  1  0  0  0  0
  7 20  2  0  0  0  0
  7 22  1  0  0  0  0
  8  9  1  0  0  0  0
  8 12  1  1  0  0  0
  9 13  1  1  0  0  0
 10 12  1  0  0  0  0
 10 14  1  0  0  0  0
 11 13  1  0  0  0  0
 11 14  1  0  0  0  0
 12 19  1  0  0  0  0
 13 19  1  0  0  0  0
 14 21  1  1  0  0  0
 15 18  1  0  0  0  0
 16 18  1  0  0  0  0
 17 18  1  0  0  0  0
 18 22  1  0  0  0  0
  1 24  1  0  0  0  0
  2 25  1  0  0  0  0
  3 26  1  0  0  0  0
  4 27  1  0  0  0  0
  8 28  1  0  0  0  0
  8 29  1  0  0  0  0
  9 30  1  0  0  0  0
  9 31  1  0  0  0  0
 10 32  1  0  0  0  0
 10 33  1  0  0  0  0
 11 34  1  0  0  0  0
 11 35  1  0  0  0  0
 12 36  1  0  0  0  0
 13 37  1  0  0  0  0
 15 38  1  0  0  0  0
 15 39  1  0  0  0  0
 15 40  1  0  0  0  0
 16 41  1  0  0  0  0
 16 42  1  0  0  0  0
 16 43  1  0  0  0  0
 17 44  1  0  0  0  0
 17 45  1  0  0  0  0
 17 46  1  0  0  0  0
 21 47  1  0  0  0  0
M  END
> <id>
EN300-27718632

> <smiles>
CC(C)(C)OC(=O)N1[C@H]2CC[C@@H]1C[C@](O)(C2)C=3C=CC(Cl)=CC3

> <IUPAC Name>
tert-butyl (1R,3R,5S)-3-(4-chlorophenyl)-3-hydroxy-8-azabicyclo[3.2.1]octane-8-carboxylate

> <CAS>
2648851-69-6

> <URL>
https://www.enaminestore.com/catalog/EN300-27718632

> <ROCS_ShapeQuery>
A71EV2A-x0451_0A_A71EV2A-x0310_0A_A71EV2A-x0416_0A_peptide

> <ROCS_TanimotoCombo>
0.515 

> <ROCS_ShapeTanimoto>
0.318 

> <ROCS_ColorTanimoto>
0.197 

> <ROCS_RefTversky>
0.288 

> <ROCS_RefColorTversky>
0.228 

> <ROCS_RefTverskyCombo>
0.516 

> <ROCS_FitTversky>
1.492 

> <ROCS_FitColorTversky>
0.591 

> <ROCS_FitTverskyCombo>
2.083 

> <ROCS_ColorScore>
-7.001

> <ROCS_Overlap>
1999.777

> <ROCS_Rank>
277                 

$$$$
untitled-dbase-94138_15
  -OEChem-11132313473D

 28 30  0     1  0  0  0  0  0999 V2000
   11.0013   13.6736   23.4098 C   0  0  0  0  0  0  0  0  0  0  0  0
   11.8882   14.7626   22.8409 C   0  0  0  0  0  0  0  0  0  0  0  0
    6.6566   10.5003   24.6116 C   0  0  0  0  0  0  0  0  0  0  0  0
   10.3654   10.7393   23.8665 C   0  0  0  0  0  0  0  0  0  0  0  0
    8.0663    9.9941   24.4598 C   0  0  1  0  0  0  0  0  0  0  0  0
    7.4823   10.8782   23.4104 C   0  0  2  0  0  0  0  0  0  0  0  0
    9.7557   11.6291   22.7540 C   0  0  1  0  0  0  0  0  0  0  0  0
    9.2670   10.7786   24.9379 C   0  0  2  0  0  0  0  0  0  0  0  0
    8.4266   12.0627   23.4029 C   0  0  2  0  0  0  0  0  0  0  0  0
   13.9332   15.1123   21.7399 C   0  0  0  0  0  0  0  0  0  0  0  0
   10.6028   12.7548   22.4583 N   0  0  0  0  0  0  0  0  0  0  0  0
   10.7183   13.6864   24.5978 O   0  0  0  0  0  0  0  0  0  0  0  0
   11.5822   15.9389   22.8859 O   0  0  0  0  0  0  0  0  0  0  0  0
    8.8359   12.1553   24.7930 O   0  0  0  0  0  0  0  0  0  0  0  0
   12.9958   14.1987   22.3180 O   0  0  0  0  0  0  0  0  0  0  0  0
    5.8513    9.7907   24.4637 H   0  0  0  0  0  0  0  0  0  0  0  0
    6.4481   11.2539   25.3605 H   0  0  0  0  0  0  0  0  0  0  0  0
   10.5810    9.7256   23.5146 H   0  0  0  0  0  0  0  0  0  0  0  0
   11.2917   11.1777   24.2560 H   0  0  0  0  0  0  0  0  0  0  0  0
    8.2444    8.9521   24.2438 H   0  0  0  0  0  0  0  0  0  0  0  0
    7.2373   10.4709   22.4416 H   0  0  0  0  0  0  0  0  0  0  0  0
    9.6063   11.0784   21.8197 H   0  0  0  0  0  0  0  0  0  0  0  0
    9.5912   10.5512   25.9553 H   0  0  0  0  0  0  0  0  0  0  0  0
    7.9852   12.9920   23.0353 H   0  0  0  0  0  0  0  0  0  0  0  0
   14.7890   14.5577   21.3474 H   0  0  0  0  0  0  0  0  0  0  0  0
   14.2645   15.8250   22.4993 H   0  0  0  0  0  0  0  0  0  0  0  0
   13.4466   15.6521   20.9241 H   0  0  0  0  0  0  0  0  0  0  0  0
   10.9104   12.8805   21.4959 H   0  0  0  0  0  0  0  0  0  0  0  0
  1  2  1  0  0  0  0
  1 11  1  0  0  0  0
  1 12  2  0  0  0  0
  2 13  2  0  0  0  0
  2 15  1  0  0  0  0
  3  5  1  0  0  0  0
  3  6  1  0  0  0  0
  4  7  1  0  0  0  0
  4  8  1  0  0  0  0
  5  6  1  0  0  0  0
  5  8  1  0  0  0  0
  6  9  1  0  0  0  0
  7  9  1  0  0  0  0
  7 11  1  0  0  0  0
  8 14  1  0  0  0  0
  9 14  1  0  0  0  0
 10 15  1  0  0  0  0
  3 16  1  0  0  0  0
  3 17  1  0  0  0  0
  4 18  1  0  0  0  0
  4 19  1  0  0  0  0
  5 20  1  0  0  0  0
  6 21  1  0  0  0  0
  7 22  1  0  0  0  0
  8 23  1  0  0  0  0
  9 24  1  0  0  0  0
 10 25  1  0  0  0  0
 10 26  1  0  0  0  0
 10 27  1  0  0  0  0
 11 28  1  0  0  0  0
M  END
> <id>
EN300-740763

> <smiles>
COC(=O)C(=O)NC1CC2OC1C3CC32

> <IUPAC Name>
methyl ({8-oxatricyclo[3.2.1.0,2,4]octan-6-yl}carbamoyl)formate

> <CAS>
2137896-68-3

> <URL>
https://www.enaminestore.com/catalog/EN300-740763

> <ROCS_ShapeQuery>
A71EV2A-x0451_0A_A71EV2A-x0310_0A_A71EV2A-x0416_0A_peptide

> <ROCS_TanimotoCombo>
0.515 

> <ROCS_ShapeTanimoto>
0.262 

> <ROCS_ColorTanimoto>
0.253 

> <ROCS_RefTversky>
0.238 

> <ROCS_RefColorTversky>
0.342 

> <ROCS_RefTverskyCombo>
0.581 

> <ROCS_FitTversky>
1.627 

> <ROCS_FitColorTversky>
0.492 

> <ROCS_FitTverskyCombo>
2.119 

> <ROCS_ColorScore>
-10.674

> <ROCS_Overlap>
1651.107

> <ROCS_Rank>
278                 

$$$$
untitled-dbase-131814_2
  -OEChem-11132313473D

 23 25  0     0  0  0  0  0  0999 V2000
   11.3169   14.9578   23.7307 C   0  0  0  0  0  0  0  0  0  0  0  0
   11.1416   13.3433   22.2483 C   0  0  0  0  0  0  0  0  0  0  0  0
    7.0017   12.3010   25.6593 C   0  0  0  0  0  0  0  0  0  0  0  0
   11.7174   14.5760   22.4363 C   0  0  0  0  0  0  0  0  0  0  0  0
    7.8635   10.7216   24.5777 C   0  0  0  0  0  0  0  0  0  0  0  0
   10.1273   10.7717   22.9570 C   0  0  0  0  0  0  0  0  0  0  0  0
    9.7476   11.9071   23.5668 C   0  0  0  0  0  0  0  0  0  0  0  0
    9.2724    9.5739   23.2182 C   0  0  0  0  0  0  0  0  0  0  0  0
    9.6771    8.2869   22.5430 C   0  0  0  0  0  0  0  0  0  0  0  0
   10.5461   14.0419   24.3232 N   0  0  0  0  0  0  0  0  0  0  0  0
    6.8531   10.9806   25.3833 N   0  0  0  0  0  0  0  0  0  0  0  0
    8.0388   12.9012   25.0836 N   0  0  0  0  0  0  0  0  0  0  0  0
    8.2159    9.5510   23.9761 N   0  0  0  0  0  0  0  0  0  0  0  0
   10.4576   13.0724   23.3968 N   0  0  0  0  0  0  0  0  0  0  0  0
    8.6107   11.8874   24.3834 N   0  0  0  0  0  0  0  0  0  0  0  0
   12.7866   15.5633   21.2758 Br  0  0  0  0  0  0  0  0  0  0  0  0
   11.5516   15.8639   24.2716 H   0  0  0  0  0  0  0  0  0  0  0  0
   11.1636   12.6587   21.4098 H   0  0  0  0  0  0  0  0  0  0  0  0
    6.3300   12.8491   26.3028 H   0  0  0  0  0  0  0  0  0  0  0  0
   10.9910   10.6934   22.3092 H   0  0  0  0  0  0  0  0  0  0  0  0
   10.3558    7.7444   23.1924 H   0  0  0  0  0  0  0  0  0  0  0  0
   10.1678    8.5184   21.6032 H   0  0  0  0  0  0  0  0  0  0  0  0
    8.7897    7.6922   22.3529 H   0  0  0  0  0  0  0  0  0  0  0  0
  1  4  1  0  0  0  0
  1 10  2  0  0  0  0
  2  4  2  0  0  0  0
  2 14  1  0  0  0  0
  3 11  1  0  0  0  0
  3 12  2  0  0  0  0
  4 16  1  0  0  0  0
  5 11  2  0  0  0  0
  5 13  1  0  0  0  0
  5 15  1  0  0  0  0
  6  7  2  0  0  0  0
  6  8  1  0  0  0  0
  7 14  1  0  0  0  0
  7 15  1  0  0  0  0
  8  9  1  0  0  0  0
  8 13  2  0  0  0  0
 10 14  1  0  0  0  0
 12 15  1  0  0  0  0
  1 17  1  0  0  0  0
  2 18  1  0  0  0  0
  3 19  1  0  0  0  0
  6 20  1  0  0  0  0
  9 21  1  0  0  0  0
  9 22  1  0  0  0  0
  9 23  1  0  0  0  0
M  END
> <id>
EN300-182236

> <smiles>
CC=1C=C(N2C=C(Br)C=N2)N3N=CN=C3N1

> <MDLNUMBER>
MFCD12780087

> <IUPAC Name>
4-bromo-1-{5-methyl-[1,2,4]triazolo[1,5-a]pyrimidin-7-yl}-1H-pyrazole

> <CAS>
1183375-09-8

> <Purity>
95

> <URL>
https://www.enaminestore.com/catalog/EN300-182236

> <ROCS_ShapeQuery>
A71EV2A-x0451_0A_A71EV2A-x0310_0A_A71EV2A-x0416_0A_peptide

> <ROCS_TanimotoCombo>
0.515 

> <ROCS_ShapeTanimoto>
0.339 

> <ROCS_ColorTanimoto>
0.176 

> <ROCS_RefTversky>
0.293 

> <ROCS_RefColorTversky>
0.195 

> <ROCS_RefTverskyCombo>
0.488 

> <ROCS_FitTversky>
1.873 

> <ROCS_FitColorTversky>
0.645 

> <ROCS_FitTverskyCombo>
2.517 

> <ROCS_ColorScore>
-5.949

> <ROCS_Overlap>
2030.231

> <ROCS_Rank>
279                 

$$$$
untitled-dbase-147038_194
  -OEChem-11132313473D

 45 46  0     0  0  0  0  0  0999 V2000
    8.5374   11.7051   24.5272 C   0  0  0  0  0  0  0  0  0  0  0  0
    9.5034   12.7384   24.3888 C   0  0  0  0  0  0  0  0  0  0  0  0
   10.8363   11.2444   23.0009 C   0  0  0  0  0  0  0  0  0  0  0  0
    9.9258   10.2661   23.1292 C   0  0  0  0  0  0  0  0  0  0  0  0
   10.6240   12.5401   23.6557 C   0  0  0  0  0  0  0  0  0  0  0  0
   11.2018   14.7545   22.8956 C   0  0  0  0  0  0  0  0  0  0  0  0
   12.9074   13.2536   23.9509 C   0  0  0  0  0  0  0  0  0  0  0  0
   11.9531   14.7991   20.3748 C   0  0  0  0  0  0  0  0  0  0  0  0
    9.6181   14.1511   19.7133 C   0  0  0  0  0  0  0  0  0  0  0  0
   10.0947   16.4928   20.4864 C   0  0  0  0  0  0  0  0  0  0  0  0
   14.7459   12.6525   26.0652 C   0  0  0  0  0  0  0  0  0  0  0  0
   14.2667   10.2421   25.5460 C   0  0  0  0  0  0  0  0  0  0  0  0
   15.3247   11.7102   23.8043 C   0  0  0  0  0  0  0  0  0  0  0  0
   10.4647   15.0185   20.6423 C   0  0  0  0  0  0  0  0  0  0  0  0
   14.3465   11.6571   24.9769 C   0  0  0  0  0  0  0  0  0  0  0  0
    7.3898   11.6262   25.1628 N   0  0  0  0  0  0  0  0  0  0  0  0
    6.9119   10.3636   24.9231 N   0  0  0  0  0  0  0  0  0  0  0  0
    7.7416    9.6704   24.1555 N   0  0  0  0  0  0  0  0  0  0  0  0
    8.7829   10.4920   23.8867 N   0  0  0  0  0  0  0  0  0  0  0  0
   11.5871   13.5252   23.4994 N   0  0  0  0  0  0  0  0  0  0  0  0
   11.7114   15.8472   23.1392 O   0  0  0  0  0  0  0  0  0  0  0  0
   13.8499   14.0417   23.8701 O   0  0  0  0  0  0  0  0  0  0  0  0
   10.1792   14.6164   21.9875 O   0  0  0  0  0  0  0  0  0  0  0  0
   13.0417   12.0040   24.4984 O   0  0  0  0  0  0  0  0  0  0  0  0
    9.3187   13.6866   24.8842 H   0  0  0  0  0  0  0  0  0  0  0  0
   11.7359   11.0912   22.4146 H   0  0  0  0  0  0  0  0  0  0  0  0
   10.0375    9.2939   22.6655 H   0  0  0  0  0  0  0  0  0  0  0  0
   12.5642   15.4200   21.0397 H   0  0  0  0  0  0  0  0  0  0  0  0
   12.2384   13.7517   20.5174 H   0  0  0  0  0  0  0  0  0  0  0  0
   12.2138   15.0927   19.3515 H   0  0  0  0  0  0  0  0  0  0  0  0
    8.5495   14.3054   19.9018 H   0  0  0  0  0  0  0  0  0  0  0  0
    9.8121   13.0868   19.8887 H   0  0  0  0  0  0  0  0  0  0  0  0
    9.8197   14.3713   18.6600 H   0  0  0  0  0  0  0  0  0  0  0  0
    9.0272   16.6505   20.6783 H   0  0  0  0  0  0  0  0  0  0  0  0
   10.6663   17.1268   21.1719 H   0  0  0  0  0  0  0  0  0  0  0  0
   10.2783   16.8343   19.4613 H   0  0  0  0  0  0  0  0  0  0  0  0
   14.8043   13.6694   25.6608 H   0  0  0  0  0  0  0  0  0  0  0  0
   14.0330   12.6492   26.8962 H   0  0  0  0  0  0  0  0  0  0  0  0
   15.7408   12.4200   26.4618 H   0  0  0  0  0  0  0  0  0  0  0  0
   13.9804    9.5245   24.7685 H   0  0  0  0  0  0  0  0  0  0  0  0
   13.4977   10.1772   26.3242 H   0  0  0  0  0  0  0  0  0  0  0  0
   15.2224    9.9249   25.9756 H   0  0  0  0  0  0  0  0  0  0  0  0
   15.0385   10.9963   23.0236 H   0  0  0  0  0  0  0  0  0  0  0  0
   15.3674   12.7098   23.3597 H   0  0  0  0  0  0  0  0  0  0  0  0
   16.3340   11.4287   24.1258 H   0  0  0  0  0  0  0  0  0  0  0  0
  1  2  1  0  0  0  0
  1 16  2  0  0  0  0
  1 19  1  0  0  0  0
  2  5  2  0  0  0  0
  3  4  2  0  0  0  0
  3  5  1  0  0  0  0
  4 19  1  0  0  0  0
  5 20  1  0  0  0  0
  6 20  1  0  0  0  0
  6 21  2  0  0  0  0
  6 23  1  0  0  0  0
  7 20  1  0  0  0  0
  7 22  2  0  0  0  0
  7 24  1  0  0  0  0
  8 14  1  0  0  0  0
  9 14  1  0  0  0  0
 10 14  1  0  0  0  0
 11 15  1  0  0  0  0
 12 15  1  0  0  0  0
 13 15  1  0  0  0  0
 14 23  1  0  0  0  0
 15 24  1  0  0  0  0
 16 17  1  0  0  0  0
 17 18  2  0  0  0  0
 18 19  1  0  0  0  0
  2 25  1  0  0  0  0
  3 26  1  0  0  0  0
  4 27  1  0  0  0  0
  8 28  1  0  0  0  0
  8 29  1  0  0  0  0
  8 30  1  0  0  0  0
  9 31  1  0  0  0  0
  9 32  1  0  0  0  0
  9 33  1  0  0  0  0
 10 34  1  0  0  0  0
 10 35  1  0  0  0  0
 10 36  1  0  0  0  0
 11 37  1  0  0  0  0
 11 38  1  0  0  0  0
 11 39  1  0  0  0  0
 12 40  1  0  0  0  0
 12 41  1  0  0  0  0
 12 42  1  0  0  0  0
 13 43  1  0  0  0  0
 13 44  1  0  0  0  0
 13 45  1  0  0  0  0
M  END
> <id>
EN300-27101483

> <smiles>
CC(C)(C)OC(=O)N(C(=O)OC(C)(C)C)C=1C=CN2N=NN=C2C1

> <IUPAC Name>
tert-butyl N-[(tert-butoxy)carbonyl]-N-{[1,2,3,4]tetrazolo[1,5-a]pyridin-7-yl}carbamate

> <CAS>
2470439-34-8

> <URL>
https://www.enaminestore.com/catalog/EN300-27101483

> <ROCS_ShapeQuery>
A71EV2A-x0451_0A_A71EV2A-x0310_0A_A71EV2A-x0416_0A_peptide

> <ROCS_TanimotoCombo>
0.515 

> <ROCS_ShapeTanimoto>
0.349 

> <ROCS_ColorTanimoto>
0.166 

> <ROCS_RefTversky>
0.311 

> <ROCS_RefColorTversky>
0.193 

> <ROCS_RefTverskyCombo>
0.504 

> <ROCS_FitTversky>
1.534 

> <ROCS_FitColorTversky>
0.546 

> <ROCS_FitTverskyCombo>
2.080 

> <ROCS_ColorScore>
-5.892

> <ROCS_Overlap>
2163.586

> <ROCS_Rank>
280                 

$$$$
untitled-dbase-90695_51
  -OEChem-11132313473D

 41 42  0     1  0  0  0  0  0999 V2000
    6.2653   11.5818   26.0797 C   0  0  0  0  0  0  0  0  0  0  0  0
    6.8285   10.4913   25.4198 C   0  0  0  0  0  0  0  0  0  0  0  0
    7.8848   13.0194   25.0357 C   0  0  0  0  0  0  0  0  0  0  0  0
    6.7930   12.8458   25.8857 C   0  0  0  0  0  0  0  0  0  0  0  0
    7.9414   10.6263   24.5592 C   0  0  0  0  0  0  0  0  0  0  0  0
    8.4811   11.9304   24.3698 C   0  0  0  0  0  0  0  0  0  0  0  0
    6.1958   13.9928   26.5519 C   0  0  0  0  0  0  0  0  0  0  0  0
   10.3521   13.3044   23.3917 C   0  0  0  0  0  0  0  0  0  0  0  0
    9.8870   10.9896   22.5756 C   0  0  0  0  0  0  0  0  0  0  0  0
    9.7949    9.6624   23.2990 C   0  0  0  0  0  0  0  0  0  0  0  0
   12.8557   14.6064   22.8732 C   0  0  0  0  0  0  0  0  0  0  0  0
   12.0805   14.7433   20.4879 C   0  0  0  0  0  0  0  0  0  0  0  0
   10.7919   15.9243   22.2915 C   0  0  0  0  0  0  0  0  0  0  0  0
    7.9832    8.1685   24.1338 C   0  0  0  0  0  0  0  0  0  0  0  0
   11.6418   14.7012   21.9501 C   0  0  0  0  0  0  0  0  0  0  0  0
    9.5933   12.1181   23.4671 N   0  0  0  0  0  0  0  0  0  0  0  0
    8.4877    9.5160   23.9132 N   0  0  1  0  0  0  0  0  0  0  0  0
    5.0287   14.3729   26.4138 O   0  0  0  0  0  0  0  0  0  0  0  0
   10.5891   14.0741   24.3191 O   0  0  0  0  0  0  0  0  0  0  0  0
    7.0730   14.6322   27.3731 O   0  0  0  0  0  0  0  0  0  0  0  0
   10.8416   13.5260   22.1270 O   0  0  0  0  0  0  0  0  0  0  0  0
    5.4113   11.4277   26.7338 H   0  0  0  0  0  0  0  0  0  0  0  0
    6.3750    9.5198   25.6030 H   0  0  0  0  0  0  0  0  0  0  0  0
    8.2215   14.0383   24.8779 H   0  0  0  0  0  0  0  0  0  0  0  0
   10.8913   11.0788   22.1497 H   0  0  0  0  0  0  0  0  0  0  0  0
    9.1775   11.0366   21.7397 H   0  0  0  0  0  0  0  0  0  0  0  0
    9.9758    8.8565   22.5780 H   0  0  0  0  0  0  0  0  0  0  0  0
   10.5759    9.5883   24.0664 H   0  0  0  0  0  0  0  0  0  0  0  0
   12.5450   14.5760   23.9237 H   0  0  0  0  0  0  0  0  0  0  0  0
   13.4546   13.7146   22.6617 H   0  0  0  0  0  0  0  0  0  0  0  0
   13.4981   15.4880   22.7663 H   0  0  0  0  0  0  0  0  0  0  0  0
   11.2126   14.8114   19.8220 H   0  0  0  0  0  0  0  0  0  0  0  0
   12.6095   13.8238   20.2125 H   0  0  0  0  0  0  0  0  0  0  0  0
   12.7386   15.5951   20.2879 H   0  0  0  0  0  0  0  0  0  0  0  0
    9.9211   15.9925   21.6295 H   0  0  0  0  0  0  0  0  0  0  0  0
   10.4373   15.8928   23.3269 H   0  0  0  0  0  0  0  0  0  0  0  0
   11.3632   16.8484   22.1471 H   0  0  0  0  0  0  0  0  0  0  0  0
    8.5596    7.4564   23.5250 H   0  0  0  0  0  0  0  0  0  0  0  0
    8.0858    7.9083   25.1976 H   0  0  0  0  0  0  0  0  0  0  0  0
    6.9226    8.1225   23.8456 H   0  0  0  0  0  0  0  0  0  0  0  0
    6.6793   15.4071   27.8280 H   0  0  0  0  0  0  0  0  0  0  0  0
  1  2  1  0  0  0  0
  1  4  2  0  0  0  0
  2  5  2  0  0  0  0
  3  4  1  0  0  0  0
  3  6  2  0  0  0  0
  4  7  1  0  0  0  0
  5  6  1  0  0  0  0
  5 17  1  0  0  0  0
  6 16  1  0  0  0  0
  7 18  2  0  0  0  0
  7 20  1  0  0  0  0
  8 16  1  0  0  0  0
  8 19  2  0  0  0  0
  8 21  1  0  0  0  0
  9 10  1  0  0  0  0
  9 16  1  0  0  0  0
 10 17  1  0  0  0  0
 11 15  1  0  0  0  0
 12 15  1  0  0  0  0
 13 15  1  0  0  0  0
 14 17  1  0  0  0  0
 15 21  1  0  0  0  0
  1 22  1  0  0  0  0
  2 23  1  0  0  0  0
  3 24  1  0  0  0  0
  9 25  1  0  0  0  0
  9 26  1  0  0  0  0
 10 27  1  0  0  0  0
 10 28  1  0  0  0  0
 11 29  1  0  0  0  0
 11 30  1  0  0  0  0
 11 31  1  0  0  0  0
 12 32  1  0  0  0  0
 12 33  1  0  0  0  0
 12 34  1  0  0  0  0
 13 35  1  0  0  0  0
 13 36  1  0  0  0  0
 13 37  1  0  0  0  0
 14 38  1  0  0  0  0
 14 39  1  0  0  0  0
 14 40  1  0  0  0  0
 20 41  1  0  0  0  0
M  END
> <id>
EN300-7426760

> <smiles>
CN1CCN(C(=O)OC(C)(C)C)C=2C=C(C=CC12)C(=O)O

> <MDLNUMBER>
MFCD31924055

> <IUPAC Name>
4-[(tert-butoxy)carbonyl]-1-methyl-1,2,3,4-tetrahydroquinoxaline-6-carboxylic acid

> <CAS>
1894021-54-5

> <Purity>
95

> <URL>
https://www.enaminestore.com/catalog/EN300-7426760

> <ROCS_ShapeQuery>
A71EV2A-x0451_0A_A71EV2A-x0310_0A_A71EV2A-x0416_0A_peptide

> <ROCS_TanimotoCombo>
0.515 

> <ROCS_ShapeTanimoto>
0.365 

> <ROCS_ColorTanimoto>
0.150 

> <ROCS_RefTversky>
0.316 

> <ROCS_RefColorTversky>
0.166 

> <ROCS_RefTverskyCombo>
0.482 

> <ROCS_FitTversky>
1.740 

> <ROCS_FitColorTversky>
0.611 

> <ROCS_FitTverskyCombo>
2.352 

> <ROCS_ColorScore>
-5.043

> <ROCS_Overlap>
2195.031

> <ROCS_Rank>
281                 

$$$$
untitled-dbase-82661_0
  -OEChem-11132313473D

 40 43  0     0  0  0  0  0  0999 V2000
    5.6152   11.9021   26.1570 C   0  0  0  0  0  0  0  0  0  0  0  0
   10.4345    9.0320   22.6461 C   0  0  0  0  0  0  0  0  0  0  0  0
   12.3051   14.6368   23.0365 C   0  0  0  0  0  0  0  0  0  0  0  0
   13.3812   15.1757   22.3274 C   0  0  0  0  0  0  0  0  0  0  0  0
   10.8798   14.7819   21.0679 C   0  0  0  0  0  0  0  0  0  0  0  0
    6.7261   11.4786   25.3545 C   0  0  0  0  0  0  0  0  0  0  0  0
    8.6333   11.9565   24.0270 C   0  0  0  0  0  0  0  0  0  0  0  0
   11.0615   14.4409   22.4104 C   0  0  0  0  0  0  0  0  0  0  0  0
    7.5806   12.4226   24.7870 C   0  0  0  0  0  0  0  0  0  0  0  0
   13.1754   15.5039   21.0031 C   0  0  0  0  0  0  0  0  0  0  0  0
   11.9583   15.3122   20.3902 C   0  0  0  0  0  0  0  0  0  0  0  0
    8.7971   10.5819   23.8595 C   0  0  0  0  0  0  0  0  0  0  0  0
    6.9742   10.1224   25.1287 C   0  0  0  0  0  0  0  0  0  0  0  0
    9.9727   10.3132   23.0206 C   0  0  0  0  0  0  0  0  0  0  0  0
    9.7249   12.5779   23.2810 C   0  0  0  0  0  0  0  0  0  0  0  0
   10.5176   11.5003   22.6815 C   0  0  0  0  0  0  0  0  0  0  0  0
    9.9724   13.8881   23.1572 C   0  0  0  0  0  0  0  0  0  0  0  0
   13.3300   16.1582   18.9464 C   0  0  0  0  0  0  0  0  0  0  0  0
    7.3498   13.8806   25.0037 C   0  0  0  0  0  0  0  0  0  0  0  0
   11.7247   11.7477   21.8400 C   0  0  0  0  0  0  0  0  0  0  0  0
    4.7164   12.2447   26.8063 N   0  0  0  0  0  0  0  0  0  0  0  0
   10.8138    7.9798   22.3382 N   0  0  0  0  0  0  0  0  0  0  0  0
    8.0001    9.6387   24.3864 N   0  0  0  0  0  0  0  0  0  0  0  0
    6.0962    9.1712   25.7111 N   0  0  0  0  0  0  0  0  0  0  0  0
   14.1010   16.0358   20.1592 O   0  0  0  0  0  0  0  0  0  0  0  0
   11.9694   15.7003   19.0859 O   0  0  0  0  0  0  0  0  0  0  0  0
   12.4445   14.3702   24.0821 H   0  0  0  0  0  0  0  0  0  0  0  0
   14.3415   15.3289   22.8065 H   0  0  0  0  0  0  0  0  0  0  0  0
    9.9277   14.6380   20.5674 H   0  0  0  0  0  0  0  0  0  0  0  0
    9.3126   14.5738   23.6845 H   0  0  0  0  0  0  0  0  0  0  0  0
   13.3167   17.2115   18.6436 H   0  0  0  0  0  0  0  0  0  0  0  0
   13.8184   15.5717   18.1598 H   0  0  0  0  0  0  0  0  0  0  0  0
    7.8829   14.2222   25.8991 H   0  0  0  0  0  0  0  0  0  0  0  0
    7.6967   14.4703   24.1455 H   0  0  0  0  0  0  0  0  0  0  0  0
    6.2816   14.0999   25.1293 H   0  0  0  0  0  0  0  0  0  0  0  0
   11.4342   11.8409   20.7933 H   0  0  0  0  0  0  0  0  0  0  0  0
   12.4266   10.9196   21.9450 H   0  0  0  0  0  0  0  0  0  0  0  0
   12.2170   12.6672   22.1589 H   0  0  0  0  0  0  0  0  0  0  0  0
    5.3612    9.4952   26.2992 H   0  0  0  0  0  0  0  0  0  0  0  0
    6.2940    8.2025   25.5936 H   0  0  0  0  0  0  0  0  0  0  0  0
  1  6  1  0  0  0  0
  1 21  3  0  0  0  0
  2 14  1  0  0  0  0
  2 22  3  0  0  0  0
  3  4  1  0  0  0  0
  3  8  2  0  0  0  0
  4 10  2  0  0  0  0
  5  8  1  0  0  0  0
  5 11  2  0  0  0  0
  6  9  1  0  0  0  0
  6 13  2  0  0  0  0
  7  9  2  0  0  0  0
  7 12  1  0  0  0  0
  7 15  1  0  0  0  0
  8 17  1  0  0  0  0
  9 19  1  0  0  0  0
 10 11  1  0  0  0  0
 10 25  1  0  0  0  0
 11 26  1  0  0  0  0
 12 14  1  0  0  0  0
 12 23  2  0  0  0  0
 13 23  1  0  0  0  0
 13 24  1  0  0  0  0
 14 16  2  0  0  0  0
 15 16  1  0  0  0  0
 15 17  2  3  0  0  0
 16 20  1  0  0  0  0
 18 25  1  0  0  0  0
 18 26  1  0  0  0  0
  3 27  1  0  0  0  0
  4 28  1  0  0  0  0
  5 29  1  0  0  0  0
 17 30  1  0  0  0  0
 18 31  1  0  0  0  0
 18 32  1  0  0  0  0
 19 33  1  0  0  0  0
 19 34  1  0  0  0  0
 19 35  1  0  0  0  0
 20 36  1  0  0  0  0
 20 37  1  0  0  0  0
 20 38  1  0  0  0  0
 24 39  1  0  0  0  0
 24 40  1  0  0  0  0
M  END
> <id>
EN300-18215325

> <smiles>
CC1=C(C#N)C=2N=C(N)C(C#N)=C(C)C2C1=CC=3C=CC=4OCOC4C3

> <IUPAC Name>
2-amino-5-[(1,3-dioxaindan-5-yl)methylidene]-4,6-dimethyl-5H-cyclopenta[b]pyridine-3,7-dicarbonitrile

> <CAS>
309949-25-5

> <URL>
https://www.enaminestore.com/catalog/EN300-18215325

> <ROCS_ShapeQuery>
A71EV2A-x0451_0A_A71EV2A-x0310_0A_A71EV2A-x0416_0A_peptide

> <ROCS_TanimotoCombo>
0.515 

> <ROCS_ShapeTanimoto>
0.400 

> <ROCS_ColorTanimoto>
0.115 

> <ROCS_RefTversky>
0.348 

> <ROCS_RefColorTversky>
0.144 

> <ROCS_RefTverskyCombo>
0.492 

> <ROCS_FitTversky>
1.589 

> <ROCS_FitColorTversky>
0.366 

> <ROCS_FitTverskyCombo>
1.955 

> <ROCS_ColorScore>
-4.425

> <ROCS_Overlap>
2421.349

> <ROCS_Rank>
282                 

$$$$
untitled-dbase-118972_68
  -OEChem-11132313473D

 44 45  0     1  0  0  0  0  0999 V2000
   10.3411   13.3157   23.3786 C   0  0  0  0  0  0  0  0  0  0  0  0
    6.5677   11.0158   26.2566 C   0  0  0  0  0  0  0  0  0  0  0  0
    6.4493   12.4368   25.6984 C   0  0  0  0  0  0  0  0  0  0  0  0
    7.0532   10.0293   25.2021 C   0  0  0  0  0  0  0  0  0  0  0  0
    7.4134   12.7319   24.5444 C   0  0  0  0  0  0  0  0  0  0  0  0
    9.8151   10.9230   22.7857 C   0  0  0  0  0  0  0  0  0  0  0  0
    8.4453   10.4151   24.6897 C   0  0  1  0  0  0  0  0  0  0  0  0
    8.6806   10.0029   23.2240 C   0  0  2  0  0  0  0  0  0  0  0  0
    8.7102   11.9332   24.6851 C   0  0  1  0  0  0  0  0  0  0  0  0
   12.7522   14.6527   22.6229 C   0  0  0  0  0  0  0  0  0  0  0  0
   11.8104   14.6426   20.2943 C   0  0  0  0  0  0  0  0  0  0  0  0
   10.6105   15.8767   22.1234 C   0  0  0  0  0  0  0  0  0  0  0  0
    9.0117    8.5291   23.0549 C   0  0  0  0  0  0  0  0  0  0  0  0
   11.4751   14.6634   21.7841 C   0  0  0  0  0  0  0  0  0  0  0  0
    9.6298   12.1396   23.5680 N   0  0  0  0  0  0  0  0  0  0  0  0
    7.9132    7.7289   23.4878 N   0  0  0  0  0  0  0  0  0  0  0  0
   10.5998   14.1204   24.2707 O   0  0  0  0  0  0  0  0  0  0  0  0
   10.7290   13.4763   22.0749 O   0  0  0  0  0  0  0  0  0  0  0  0
    7.2649   11.0171   27.1057 H   0  0  0  0  0  0  0  0  0  0  0  0
    5.5951   10.6942   26.6544 H   0  0  0  0  0  0  0  0  0  0  0  0
    5.4107   12.6085   25.3564 H   0  0  0  0  0  0  0  0  0  0  0  0
    6.6176   13.1690   26.5126 H   0  0  0  0  0  0  0  0  0  0  0  0
    7.1193    9.0462   25.6577 H   0  0  0  0  0  0  0  0  0  0  0  0
    6.3436    9.9743   24.3878 H   0  0  0  0  0  0  0  0  0  0  0  0
    6.9083   12.4887   23.6049 H   0  0  0  0  0  0  0  0  0  0  0  0
    7.6299   13.8024   24.5221 H   0  0  0  0  0  0  0  0  0  0  0  0
   10.8058   10.5197   23.0267 H   0  0  0  0  0  0  0  0  0  0  0  0
    9.7817   11.1541   21.7157 H   0  0  0  0  0  0  0  0  0  0  0  0
    9.1787    9.9180   25.3153 H   0  0  0  0  0  0  0  0  0  0  0  0
    7.7834   10.2267   22.6219 H   0  0  0  0  0  0  0  0  0  0  0  0
    9.2041   12.2252   25.6315 H   0  0  0  0  0  0  0  0  0  0  0  0
   12.5157   14.6676   23.6929 H   0  0  0  0  0  0  0  0  0  0  0  0
   13.3644   13.7693   22.4143 H   0  0  0  0  0  0  0  0  0  0  0  0
   13.3560   15.5463   22.4273 H   0  0  0  0  0  0  0  0  0  0  0  0
   10.8970   14.6502   19.6887 H   0  0  0  0  0  0  0  0  0  0  0  0
   12.3495   13.7262   20.0284 H   0  0  0  0  0  0  0  0  0  0  0  0
   12.4244   15.5020   20.0064 H   0  0  0  0  0  0  0  0  0  0  0  0
    9.6944   15.8846   21.5218 H   0  0  0  0  0  0  0  0  0  0  0  0
   10.3293   15.8884   23.1814 H   0  0  0  0  0  0  0  0  0  0  0  0
   11.1395   16.8087   21.8933 H   0  0  0  0  0  0  0  0  0  0  0  0
    9.2134    8.3564   21.9972 H   0  0  0  0  0  0  0  0  0  0  0  0
    9.8954    8.3190   23.6585 H   0  0  0  0  0  0  0  0  0  0  0  0
    7.0904    7.9589   22.9610 H   0  0  0  0  0  0  0  0  0  0  0  0
    8.1225    6.7563   23.3548 H   0  0  0  0  0  0  0  0  0  0  0  0
  1 15  1  0  0  0  0
  1 17  2  0  0  0  0
  1 18  1  0  0  0  0
  2  3  1  0  0  0  0
  2  4  1  0  0  0  0
  3  5  1  0  0  0  0
  4  7  1  0  0  0  0
  5  9  1  0  0  0  0
  6  8  1  0  0  0  0
  6 15  1  0  0  0  0
  7  8  1  0  0  0  0
  7  9  1  0  0  0  0
  8 13  1  0  0  0  0
  9 15  1  0  0  0  0
 10 14  1  0  0  0  0
 11 14  1  0  0  0  0
 12 14  1  0  0  0  0
 13 16  1  0  0  0  0
 14 18  1  0  0  0  0
  2 19  1  0  0  0  0
  2 20  1  0  0  0  0
  3 21  1  0  0  0  0
  3 22  1  0  0  0  0
  4 23  1  0  0  0  0
  4 24  1  0  0  0  0
  5 25  1  0  0  0  0
  5 26  1  0  0  0  0
  6 27  1  0  0  0  0
  6 28  1  0  0  0  0
  7 29  1  0  0  0  0
  8 30  1  0  0  0  0
  9 31  1  0  0  0  0
 10 32  1  0  0  0  0
 10 33  1  0  0  0  0
 10 34  1  0  0  0  0
 11 35  1  0  0  0  0
 11 36  1  0  0  0  0
 11 37  1  0  0  0  0
 12 38  1  0  0  0  0
 12 39  1  0  0  0  0
 12 40  1  0  0  0  0
 13 41  1  0  0  0  0
 13 42  1  0  0  0  0
 16 43  1  0  0  0  0
 16 44  1  0  0  0  0
M  END
> <id>
EN300-7456855

> <smiles>
CC(C)(C)OC(=O)N1CC(CN)C2CCCCC21

> <MDLNUMBER>
MFCD28633344

> <IUPAC Name>
tert-butyl 3-(aminomethyl)-octahydro-1H-indole-1-carboxylate

> <CAS>
1782249-46-0

> <URL>
https://www.enaminestore.com/catalog/EN300-7456855

> <ROCS_ShapeQuery>
A71EV2A-x0451_0A_A71EV2A-x0310_0A_A71EV2A-x0416_0A_peptide

> <ROCS_TanimotoCombo>
0.515 

> <ROCS_ShapeTanimoto>
0.338 

> <ROCS_ColorTanimoto>
0.177 

> <ROCS_RefTversky>
0.293 

> <ROCS_RefColorTversky>
0.186 

> <ROCS_RefTverskyCombo>
0.479 

> <ROCS_FitTversky>
1.841 

> <ROCS_FitColorTversky>
0.776 

> <ROCS_FitTverskyCombo>
2.616 

> <ROCS_ColorScore>
-5.673

> <ROCS_Overlap>
2030.255

> <ROCS_Rank>
283                 

$$$$
untitled-dbase-119133_68
  -OEChem-11132313473D

 44 45  0     1  0  0  0  0  0999 V2000
   10.3411   13.3157   23.3786 C   0  0  0  0  0  0  0  0  0  0  0  0
    6.5677   11.0158   26.2566 C   0  0  0  0  0  0  0  0  0  0  0  0
    6.4493   12.4368   25.6984 C   0  0  0  0  0  0  0  0  0  0  0  0
    7.0532   10.0293   25.2021 C   0  0  0  0  0  0  0  0  0  0  0  0
    7.4134   12.7319   24.5444 C   0  0  0  0  0  0  0  0  0  0  0  0
    9.8151   10.9230   22.7857 C   0  0  0  0  0  0  0  0  0  0  0  0
    8.4453   10.4151   24.6897 C   0  0  1  0  0  0  0  0  0  0  0  0
    8.6806   10.0029   23.2240 C   0  0  2  0  0  0  0  0  0  0  0  0
    8.7102   11.9332   24.6851 C   0  0  1  0  0  0  0  0  0  0  0  0
   12.7522   14.6527   22.6229 C   0  0  0  0  0  0  0  0  0  0  0  0
   11.8104   14.6426   20.2943 C   0  0  0  0  0  0  0  0  0  0  0  0
   10.6105   15.8767   22.1234 C   0  0  0  0  0  0  0  0  0  0  0  0
    9.0117    8.5291   23.0549 C   0  0  0  0  0  0  0  0  0  0  0  0
   11.4751   14.6634   21.7841 C   0  0  0  0  0  0  0  0  0  0  0  0
    9.6298   12.1396   23.5680 N   0  0  0  0  0  0  0  0  0  0  0  0
    7.9132    7.7289   23.4878 N   0  0  0  0  0  0  0  0  0  0  0  0
   10.5998   14.1204   24.2707 O   0  0  0  0  0  0  0  0  0  0  0  0
   10.7290   13.4763   22.0749 O   0  0  0  0  0  0  0  0  0  0  0  0
    7.2649   11.0171   27.1057 H   0  0  0  0  0  0  0  0  0  0  0  0
    5.5951   10.6942   26.6544 H   0  0  0  0  0  0  0  0  0  0  0  0
    5.4107   12.6085   25.3564 H   0  0  0  0  0  0  0  0  0  0  0  0
    6.6176   13.1690   26.5126 H   0  0  0  0  0  0  0  0  0  0  0  0
    7.1193    9.0462   25.6577 H   0  0  0  0  0  0  0  0  0  0  0  0
    6.3436    9.9743   24.3878 H   0  0  0  0  0  0  0  0  0  0  0  0
    6.9083   12.4887   23.6049 H   0  0  0  0  0  0  0  0  0  0  0  0
    7.6299   13.8024   24.5221 H   0  0  0  0  0  0  0  0  0  0  0  0
   10.8058   10.5197   23.0267 H   0  0  0  0  0  0  0  0  0  0  0  0
    9.7817   11.1541   21.7157 H   0  0  0  0  0  0  0  0  0  0  0  0
    9.1787    9.9180   25.3153 H   0  0  0  0  0  0  0  0  0  0  0  0
    7.7834   10.2267   22.6219 H   0  0  0  0  0  0  0  0  0  0  0  0
    9.2041   12.2252   25.6315 H   0  0  0  0  0  0  0  0  0  0  0  0
   12.5157   14.6676   23.6929 H   0  0  0  0  0  0  0  0  0  0  0  0
   13.3644   13.7693   22.4143 H   0  0  0  0  0  0  0  0  0  0  0  0
   13.3560   15.5463   22.4273 H   0  0  0  0  0  0  0  0  0  0  0  0
   10.8970   14.6502   19.6887 H   0  0  0  0  0  0  0  0  0  0  0  0
   12.3495   13.7262   20.0284 H   0  0  0  0  0  0  0  0  0  0  0  0
   12.4244   15.5020   20.0064 H   0  0  0  0  0  0  0  0  0  0  0  0
    9.6944   15.8846   21.5218 H   0  0  0  0  0  0  0  0  0  0  0  0
   10.3293   15.8884   23.1814 H   0  0  0  0  0  0  0  0  0  0  0  0
   11.1395   16.8087   21.8933 H   0  0  0  0  0  0  0  0  0  0  0  0
    9.2134    8.3564   21.9972 H   0  0  0  0  0  0  0  0  0  0  0  0
    9.8954    8.3190   23.6585 H   0  0  0  0  0  0  0  0  0  0  0  0
    7.0904    7.9589   22.9610 H   0  0  0  0  0  0  0  0  0  0  0  0
    8.1225    6.7563   23.3548 H   0  0  0  0  0  0  0  0  0  0  0  0
  1 15  1  0  0  0  0
  1 17  2  0  0  0  0
  1 18  1  0  0  0  0
  2  3  1  0  0  0  0
  2  4  1  0  0  0  0
  3  5  1  0  0  0  0
  4  7  1  0  0  0  0
  5  9  1  0  0  0  0
  6  8  1  0  0  0  0
  6 15  1  0  0  0  0
  7  8  1  0  0  0  0
  7  9  1  0  0  0  0
  8 13  1  0  0  0  0
  9 15  1  0  0  0  0
 10 14  1  0  0  0  0
 11 14  1  0  0  0  0
 12 14  1  0  0  0  0
 13 16  1  0  0  0  0
 14 18  1  0  0  0  0
  2 19  1  0  0  0  0
  2 20  1  0  0  0  0
  3 21  1  0  0  0  0
  3 22  1  0  0  0  0
  4 23  1  0  0  0  0
  4 24  1  0  0  0  0
  5 25  1  0  0  0  0
  5 26  1  0  0  0  0
  6 27  1  0  0  0  0
  6 28  1  0  0  0  0
  7 29  1  0  0  0  0
  8 30  1  0  0  0  0
  9 31  1  0  0  0  0
 10 32  1  0  0  0  0
 10 33  1  0  0  0  0
 10 34  1  0  0  0  0
 11 35  1  0  0  0  0
 11 36  1  0  0  0  0
 11 37  1  0  0  0  0
 12 38  1  0  0  0  0
 12 39  1  0  0  0  0
 12 40  1  0  0  0  0
 13 41  1  0  0  0  0
 13 42  1  0  0  0  0
 16 43  1  0  0  0  0
 16 44  1  0  0  0  0
M  END
> <id>
EN300-7456854

> <smiles>
Cl.CC(C)(C)OC(=O)N1CC(CN)C2CCCCC21

> <MDLNUMBER>
MFCD32200067

> <IUPAC Name>
tert-butyl 3-(aminomethyl)-octahydro-1H-indole-1-carboxylate hydrochloride

> <CAS>
2377034-31-4

> <Purity>
93

> <URL>
https://www.enaminestore.com/catalog/EN300-7456854

> <Saltdate>
Cl

> <ROCS_ShapeQuery>
A71EV2A-x0451_0A_A71EV2A-x0310_0A_A71EV2A-x0416_0A_peptide

> <ROCS_TanimotoCombo>
0.515 

> <ROCS_ShapeTanimoto>
0.338 

> <ROCS_ColorTanimoto>
0.177 

> <ROCS_RefTversky>
0.293 

> <ROCS_RefColorTversky>
0.186 

> <ROCS_RefTverskyCombo>
0.479 

> <ROCS_FitTversky>
1.841 

> <ROCS_FitColorTversky>
0.776 

> <ROCS_FitTverskyCombo>
2.616 

> <ROCS_ColorScore>
-5.673

> <ROCS_Overlap>
2030.255

> <ROCS_Rank>
284                 

$$$$
untitled-dbase-154096_93
  -OEChem-11132313473D

 30 31  0     0  0  0  0  0  0999 V2000
    7.6093   12.7273   24.8793 C   0  0  0  0  0  0  0  0  0  0  0  0
    6.2702   10.8507   25.6018 C   0  0  0  0  0  0  0  0  0  0  0  0
    6.5281   12.2149   25.6023 C   0  0  0  0  0  0  0  0  0  0  0  0
    8.1777   10.5014   24.1347 C   0  0  0  0  0  0  0  0  0  0  0  0
    8.4706   11.8849   24.1595 C   0  0  0  0  0  0  0  0  0  0  0  0
    7.0833    9.9994   24.8614 C   0  0  0  0  0  0  0  0  0  0  0  0
    5.6805   13.1099   26.3748 C   0  0  0  0  0  0  0  0  0  0  0  0
   10.2259   13.6226   23.5660 C   0  0  0  0  0  0  0  0  0  0  0  0
    8.9722    9.5235   23.3036 C   0  0  0  0  0  0  0  0  0  0  0  0
   10.2827   10.1129   22.8074 C   0  0  0  0  0  0  0  0  0  0  0  0
   10.0477   11.5268   22.3049 C   0  0  0  0  0  0  0  0  0  0  0  0
   10.7083   14.3590   22.3387 C   0  0  0  0  0  0  0  0  0  0  0  0
    9.5827   12.3909   23.3989 N   0  0  0  0  0  0  0  0  0  0  0  0
    5.4508   14.2920   26.1009 O   0  0  0  0  0  0  0  0  0  0  0  0
   10.3447   14.1812   24.6628 O   0  0  0  0  0  0  0  0  0  0  0  0
    6.7936    8.6655   24.8677 O   0  0  0  0  0  0  0  0  0  0  0  0
    5.1425   12.5016   27.4669 O   0  0  0  0  0  0  0  0  0  0  0  0
   10.4175   13.6593   21.2297 F   0  0  0  0  0  0  0  0  0  0  0  0
   10.1167   15.5617   22.2509 F   0  0  0  0  0  0  0  0  0  0  0  0
   12.0380   14.5416   22.3908 F   0  0  0  0  0  0  0  0  0  0  0  0
    7.7719   13.7978   24.9364 H   0  0  0  0  0  0  0  0  0  0  0  0
    5.4470   10.4449   26.1853 H   0  0  0  0  0  0  0  0  0  0  0  0
    9.1724    8.6284   23.9134 H   0  0  0  0  0  0  0  0  0  0  0  0
    8.3936    9.1982   22.4254 H   0  0  0  0  0  0  0  0  0  0  0  0
   11.0177   10.1161   23.6203 H   0  0  0  0  0  0  0  0  0  0  0  0
   10.6999    9.4961   22.0010 H   0  0  0  0  0  0  0  0  0  0  0  0
   10.9614   11.9629   21.9011 H   0  0  0  0  0  0  0  0  0  0  0  0
    9.3100   11.4764   21.5089 H   0  0  0  0  0  0  0  0  0  0  0  0
    6.0162    8.4969   25.4210 H   0  0  0  0  0  0  0  0  0  0  0  0
    5.4130   11.5629   27.5567 H   0  0  0  0  0  0  0  0  0  0  0  0
  1  3  1  0  0  0  0
  1  5  2  0  0  0  0
  2  3  2  0  0  0  0
  2  6  1  0  0  0  0
  3  7  1  0  0  0  0
  4  5  1  0  0  0  0
  4  6  2  0  0  0  0
  4  9  1  0  0  0  0
  5 13  1  0  0  0  0
  6 16  1  0  0  0  0
  7 14  2  0  0  0  0
  7 17  1  0  0  0  0
  8 12  1  0  0  0  0
  8 13  1  0  0  0  0
  8 15  2  0  0  0  0
  9 10  1  0  0  0  0
 10 11  1  0  0  0  0
 11 13  1  0  0  0  0
 12 18  1  0  0  0  0
 12 19  1  0  0  0  0
 12 20  1  0  0  0  0
  1 21  1  0  0  0  0
  2 22  1  0  0  0  0
  9 23  1  0  0  0  0
  9 24  1  0  0  0  0
 10 25  1  0  0  0  0
 10 26  1  0  0  0  0
 11 27  1  0  0  0  0
 11 28  1  0  0  0  0
 16 29  1  0  0  0  0
 17 30  1  0  0  0  0
M  END
> <id>
EN300-28287773

> <smiles>
OC(=O)C=1C=C(O)C=2CCCN(C(=O)C(F)(F)F)C2C1

> <IUPAC Name>
5-hydroxy-1-(2,2,2-trifluoroacetyl)-1,2,3,4-tetrahydroquinoline-7-carboxylic acid

> <CAS>
2680903-36-8

> <URL>
https://www.enaminestore.com/catalog/EN300-28287773

> <ROCS_ShapeQuery>
A71EV2A-x0451_0A_A71EV2A-x0310_0A_A71EV2A-x0416_0A_peptide

> <ROCS_TanimotoCombo>
0.515 

> <ROCS_ShapeTanimoto>
0.353 

> <ROCS_ColorTanimoto>
0.162 

> <ROCS_RefTversky>
0.307 

> <ROCS_RefColorTversky>
0.181 

> <ROCS_RefTverskyCombo>
0.489 

> <ROCS_FitTversky>
1.723 

> <ROCS_FitColorTversky>
0.602 

> <ROCS_FitTverskyCombo>
2.325 

> <ROCS_ColorScore>
-5.540

> <ROCS_Overlap>
2133.236

> <ROCS_Rank>
285                 

$$$$
untitled-dbase-154846_9
  -OEChem-11132313473D

 34 35  0     0  0  0  0  0  0999 V2000
    9.8004    8.0741   22.9115 C   0  0  0  0  0  0  0  0  0  0  0  0
    8.7378    7.5405   23.6302 C   0  0  0  0  0  0  0  0  0  0  0  0
    9.9862    9.4532   22.8820 C   0  0  0  0  0  0  0  0  0  0  0  0
    7.8640    8.3866   24.3174 C   0  0  0  0  0  0  0  0  0  0  0  0
    8.3858   12.5090   24.2537 C   0  0  0  0  0  0  0  0  0  0  0  0
    9.1072   10.3041   23.5734 C   0  0  0  0  0  0  0  0  0  0  0  0
    8.0263    9.7693   24.3053 C   0  0  0  0  0  0  0  0  0  0  0  0
    9.2709   11.6958   23.5607 C   0  0  0  0  0  0  0  0  0  0  0  0
    7.3589   11.8943   24.9410 C   0  0  0  0  0  0  0  0  0  0  0  0
   10.9662   13.5046   23.1541 C   0  0  0  0  0  0  0  0  0  0  0  0
   11.8322   16.1293   22.4190 C   0  0  0  0  0  0  0  0  0  0  0  0
   12.9534   15.0125   20.4683 C   0  0  0  0  0  0  0  0  0  0  0  0
   10.4554   14.9036   20.7054 C   0  0  0  0  0  0  0  0  0  0  0  0
   11.7875   14.9466   21.4525 C   0  0  0  0  0  0  0  0  0  0  0  0
    7.1657   10.5559   24.9787 N   0  0  0  0  0  0  0  0  0  0  0  0
   10.3146   12.3125   22.8608 N   0  0  0  0  0  0  0  0  0  0  0  0
   10.7486   14.2572   24.0959 O   0  0  0  0  0  0  0  0  0  0  0  0
   11.9269   13.7366   22.2062 O   0  0  0  0  0  0  0  0  0  0  0  0
    6.2113   12.8096   25.8295 Cl  0  0  0  0  0  0  0  0  0  0  0  0
   10.4816    7.4198   22.3759 H   0  0  0  0  0  0  0  0  0  0  0  0
    8.5849    6.4655   23.6570 H   0  0  0  0  0  0  0  0  0  0  0  0
   10.8257    9.8431   22.3115 H   0  0  0  0  0  0  0  0  0  0  0  0
    7.0393    7.9435   24.8727 H   0  0  0  0  0  0  0  0  0  0  0  0
    8.4978   13.5888   24.2543 H   0  0  0  0  0  0  0  0  0  0  0  0
   10.9970   16.0856   23.1271 H   0  0  0  0  0  0  0  0  0  0  0  0
   12.7684   16.1513   22.9864 H   0  0  0  0  0  0  0  0  0  0  0  0
   11.7315   17.0785   21.8804 H   0  0  0  0  0  0  0  0  0  0  0  0
   12.9253   14.1658   19.7729 H   0  0  0  0  0  0  0  0  0  0  0  0
   13.9126   14.9479   20.9946 H   0  0  0  0  0  0  0  0  0  0  0  0
   12.9389   15.9397   19.8864 H   0  0  0  0  0  0  0  0  0  0  0  0
   10.4230   14.0554   20.0120 H   0  0  0  0  0  0  0  0  0  0  0  0
    9.6089   14.8190   21.3946 H   0  0  0  0  0  0  0  0  0  0  0  0
   10.3204   15.8054   20.0972 H   0  0  0  0  0  0  0  0  0  0  0  0
   10.6404   11.8216   22.0242 H   0  0  0  0  0  0  0  0  0  0  0  0
  1  2  2  0  0  0  0
  1  3  1  0  0  0  0
  2  4  1  0  0  0  0
  3  6  2  0  0  0  0
  4  7  2  0  0  0  0
  5  8  2  0  0  0  0
  5  9  1  0  0  0  0
  6  7  1  0  0  0  0
  6  8  1  0  0  0  0
  7 15  1  0  0  0  0
  8 16  1  0  0  0  0
  9 15  2  0  0  0  0
  9 19  1  0  0  0  0
 10 16  1  0  0  0  0
 10 17  2  0  0  0  0
 10 18  1  0  0  0  0
 11 14  1  0  0  0  0
 12 14  1  0  0  0  0
 13 14  1  0  0  0  0
 14 18  1  0  0  0  0
  1 20  1  0  0  0  0
  2 21  1  0  0  0  0
  3 22  1  0  0  0  0
  4 23  1  0  0  0  0
  5 24  1  0  0  0  0
 11 25  1  0  0  0  0
 11 26  1  0  0  0  0
 11 27  1  0  0  0  0
 12 28  1  0  0  0  0
 12 29  1  0  0  0  0
 12 30  1  0  0  0  0
 13 31  1  0  0  0  0
 13 32  1  0  0  0  0
 13 33  1  0  0  0  0
 16 34  1  0  0  0  0
M  END
> <id>
EN300-12578104

> <smiles>
CC(C)(C)OC(=O)NC=1C=C(Cl)N=C2C=CC=CC12

> <MDLNUMBER>
MFCD27923216

> <IUPAC Name>
tert-butyl N-(2-chloroquinolin-4-yl)carbamate

> <CAS>
1823510-39-9

> <URL>
https://www.enaminestore.com/catalog/EN300-12578104

> <ROCS_ShapeQuery>
A71EV2A-x0451_0A_A71EV2A-x0310_0A_A71EV2A-x0416_0A_peptide

> <ROCS_TanimotoCombo>
0.515 

> <ROCS_ShapeTanimoto>
0.361 

> <ROCS_ColorTanimoto>
0.154 

> <ROCS_RefTversky>
0.310 

> <ROCS_RefColorTversky>
0.166 

> <ROCS_RefTverskyCombo>
0.476 

> <ROCS_FitTversky>
1.831 

> <ROCS_FitColorTversky>
0.691 

> <ROCS_FitTverskyCombo>
2.522 

> <ROCS_ColorScore>
-5.038

> <ROCS_Overlap>
2150.383

> <ROCS_Rank>
286                 

$$$$
untitled-dbase-175437_26
  -OEChem-11132313473D

 37 39  0     1  0  0  0  0  0999 V2000
   10.0864   13.3367   23.5420 C   0  0  0  0  0  0  0  0  0  0  0  0
    6.7375   10.3139   24.9631 C   0  0  0  0  0  0  0  0  0  0  0  0
    7.2824   11.4113   25.9858 C   0  0  0  0  0  0  0  0  0  0  0  0
    8.8069    9.7966   23.0156 C   0  0  0  0  0  0  0  0  0  0  0  0
    7.9794   10.2877   24.1483 C   0  0  1  0  0  0  0  0  0  0  0  0
    8.2599   12.3329   25.1942 C   0  0  2  0  0  0  0  0  0  0  0  0
    8.1023   11.7669   23.8901 C   0  0  1  0  0  0  0  0  0  0  0  0
   10.0696   10.7373   23.3227 C   0  0  1  0  0  0  0  0  0  0  0  0
    9.5028   12.0542   23.9908 C   0  0  1  0  0  0  0  0  0  0  0  0
   12.2249   14.0580   22.2393 C   0  0  0  0  0  0  0  0  0  0  0  0
   10.9812   13.6972   20.0870 C   0  0  0  0  0  0  0  0  0  0  0  0
   10.4715   15.7072   21.5042 C   0  0  0  0  0  0  0  0  0  0  0  0
   10.8931   14.2385   21.5123 C   0  0  0  0  0  0  0  0  0  0  0  0
   11.0714   10.1347   24.1965 N   0  0  0  0  0  0  0  0  0  0  0  0
   10.6513   14.1292   24.2837 O   0  0  0  0  0  0  0  0  0  0  0  0
    9.8925   13.4810   22.2002 O   0  0  0  0  0  0  0  0  0  0  0  0
    6.4916    9.3760   25.4669 H   0  0  0  0  0  0  0  0  0  0  0  0
    5.8655   10.6865   24.4146 H   0  0  0  0  0  0  0  0  0  0  0  0
    6.4478   11.9860   26.4004 H   0  0  0  0  0  0  0  0  0  0  0  0
    7.8256   10.9371   26.8117 H   0  0  0  0  0  0  0  0  0  0  0  0
    9.0560    8.7325   23.0551 H   0  0  0  0  0  0  0  0  0  0  0  0
    8.3768   10.0363   22.0369 H   0  0  0  0  0  0  0  0  0  0  0  0
    8.6327    9.9030   24.9584 H   0  0  0  0  0  0  0  0  0  0  0  0
    8.0234   13.3792   25.3582 H   0  0  0  0  0  0  0  0  0  0  0  0
    7.4666   12.2013   23.1363 H   0  0  0  0  0  0  0  0  0  0  0  0
   10.5467   10.9801   22.3656 H   0  0  0  0  0  0  0  0  0  0  0  0
   12.1659   14.4454   23.2627 H   0  0  0  0  0  0  0  0  0  0  0  0
   12.5214   13.0049   22.2826 H   0  0  0  0  0  0  0  0  0  0  0  0
   13.0220   14.6217   21.7409 H   0  0  0  0  0  0  0  0  0  0  0  0
   10.0277   13.8246   19.5617 H   0  0  0  0  0  0  0  0  0  0  0  0
   11.1903   12.6213   20.0904 H   0  0  0  0  0  0  0  0  0  0  0  0
   11.7643   14.2008   19.5112 H   0  0  0  0  0  0  0  0  0  0  0  0
    9.5162   15.8369   20.9828 H   0  0  0  0  0  0  0  0  0  0  0  0
   10.3673   16.1025   22.5198 H   0  0  0  0  0  0  0  0  0  0  0  0
   11.2035   16.3197   20.9654 H   0  0  0  0  0  0  0  0  0  0  0  0
   11.1572   10.6998   25.0083 H   0  0  0  0  0  0  0  0  0  0  0  0
   10.7654    9.2212   24.4367 H   0  0  0  0  0  0  0  0  0  0  0  0
  1  9  1  1  0  0  0
  1 15  2  0  0  0  0
  1 16  1  0  0  0  0
  2  3  1  0  0  0  0
  2  5  1  1  0  0  0
  3  6  1  6  0  0  0
  4  5  1  0  0  0  0
  4  8  1  0  0  0  0
  5  7  1  0  0  0  0
  6  7  1  0  0  0  0
  6  9  1  0  0  0  0
  7  9  1  0  0  0  0
  8  9  1  0  0  0  0
  8 14  1  6  0  0  0
 10 13  1  0  0  0  0
 11 13  1  0  0  0  0
 12 13  1  0  0  0  0
 13 16  1  0  0  0  0
  2 17  1  0  0  0  0
  2 18  1  0  0  0  0
  3 19  1  0  0  0  0
  3 20  1  0  0  0  0
  4 21  1  0  0  0  0
  4 22  1  0  0  0  0
  5 23  1  0  0  0  0
  6 24  1  0  0  0  0
  7 25  1  0  0  0  0
  8 26  1  0  0  0  0
 10 27  1  0  0  0  0
 10 28  1  0  0  0  0
 10 29  1  0  0  0  0
 11 30  1  0  0  0  0
 11 31  1  0  0  0  0
 11 32  1  0  0  0  0
 12 33  1  0  0  0  0
 12 34  1  0  0  0  0
 12 35  1  0  0  0  0
 14 36  1  0  0  0  0
 14 37  1  0  0  0  0
M  END
> <id>
EN300-45377092

> <smiles>
CC(C)(C)OC(=O)[C@@]1([C@@H]2CC[C@H]3C[C@@H]1N)C23 |&1:7,8,11,13,r|

> <IUPAC Name>
rac-tert-butyl (2R,3R,5R,8S)-3-aminotricyclo[3.3.0.0,2,8]octane-2-carboxylate

> <URL>
https://www.enaminestore.com/catalog/EN300-45377092

> <ROCS_ShapeQuery>
A71EV2A-x0451_0A_A71EV2A-x0310_0A_A71EV2A-x0416_0A_peptide

> <ROCS_TanimotoCombo>
0.515 

> <ROCS_ShapeTanimoto>
0.297 

> <ROCS_ColorTanimoto>
0.218 

> <ROCS_RefTversky>
0.263 

> <ROCS_RefColorTversky>
0.288 

> <ROCS_RefTverskyCombo>
0.551 

> <ROCS_FitTversky>
1.755 

> <ROCS_FitColorTversky>
0.473 

> <ROCS_FitTverskyCombo>
2.228 

> <ROCS_ColorScore>
-8.938

> <ROCS_Overlap>
1823.894

> <ROCS_Rank>
287                 

$$$$
untitled-dbase-154590_5
  -OEChem-11132313473D

 38 39  0     1  0  0  0  0  0999 V2000
    6.9695   12.0341   25.7924 C   0  0  0  0  0  0  0  0  0  0  0  0
    8.0389   12.7906   25.2744 C   0  0  0  0  0  0  0  0  0  0  0  0
    8.6503   11.9632   24.3559 C   0  0  0  0  0  0  0  0  0  0  0  0
   10.4059   13.3293   23.4069 C   0  0  0  0  0  0  0  0  0  0  0  0
    9.6797    9.6208   23.1515 C   0  0  0  0  0  0  0  0  0  0  0  0
   10.0825   10.9800   22.5832 C   0  0  0  0  0  0  0  0  0  0  0  0
    8.2093    9.6124   23.5885 C   0  0  1  0  0  0  0  0  0  0  0  0
   12.7803   14.8357   22.8456 C   0  0  0  0  0  0  0  0  0  0  0  0
   11.9447   14.9225   20.4784 C   0  0  0  0  0  0  0  0  0  0  0  0
   10.6023   15.9814   22.3182 C   0  0  0  0  0  0  0  0  0  0  0  0
    7.8786    8.2913   24.2854 C   0  0  0  0  0  0  0  0  0  0  0  0
   11.5429   14.8351   21.9492 C   0  0  0  0  0  0  0  0  0  0  0  0
    6.8935   10.8157   25.2567 N   0  0  0  0  0  0  0  0  0  0  0  0
    7.9408   10.7854   24.4125 N   0  0  0  0  0  0  0  0  0  0  0  0
    9.7317   12.0975   23.4794 N   0  0  0  0  0  0  0  0  0  0  0  0
    8.3318   14.1097   25.6564 N   0  3  0  0  0  0  0  0  0  0  0  0
    9.1310   14.3201   26.6110 O   0  5  0  0  0  0  0  0  0  0  0  0
   10.5958   14.1069   24.3390 O   0  0  0  0  0  0  0  0  0  0  0  0
    7.7923   15.0719   25.0419 O   0  0  0  0  0  0  0  0  0  0  0  0
   10.8470   13.5966   22.1336 O   0  0  0  0  0  0  0  0  0  0  0  0
    8.1355    7.2624   23.4642 F   0  0  0  0  0  0  0  0  0  0  0  0
    8.6211    8.1591   25.3945 F   0  0  0  0  0  0  0  0  0  0  0  0
    6.5810    8.2639   24.6244 F   0  0  0  0  0  0  0  0  0  0  0  0
    6.2385   12.3188   26.5368 H   0  0  0  0  0  0  0  0  0  0  0  0
    9.8247    8.8626   22.3739 H   0  0  0  0  0  0  0  0  0  0  0  0
   10.3326    9.3512   23.9855 H   0  0  0  0  0  0  0  0  0  0  0  0
   11.1635   11.0283   22.4124 H   0  0  0  0  0  0  0  0  0  0  0  0
    9.5898   11.1106   21.6141 H   0  0  0  0  0  0  0  0  0  0  0  0
    7.5896    9.6990   22.6838 H   0  0  0  0  0  0  0  0  0  0  0  0
   12.4961   14.7731   23.9021 H   0  0  0  0  0  0  0  0  0  0  0  0
   13.4463   13.9979   22.6144 H   0  0  0  0  0  0  0  0  0  0  0  0
   13.3450   15.7681   22.7321 H   0  0  0  0  0  0  0  0  0  0  0  0
   11.0600   14.9224   19.8316 H   0  0  0  0  0  0  0  0  0  0  0  0
   12.5420   14.0517   20.1846 H   0  0  0  0  0  0  0  0  0  0  0  0
   12.5255   15.8271   20.2713 H   0  0  0  0  0  0  0  0  0  0  0  0
    9.7146   15.9812   21.6753 H   0  0  0  0  0  0  0  0  0  0  0  0
   10.2741   15.9141   23.3605 H   0  0  0  0  0  0  0  0  0  0  0  0
   11.0919   16.9506   22.1691 H   0  0  0  0  0  0  0  0  0  0  0  0
  1  2  1  0  0  0  0
  1 13  2  0  0  0  0
  2  3  2  0  0  0  0
  2 16  1  0  0  0  0
  3 14  1  0  0  0  0
  3 15  1  0  0  0  0
  4 15  1  0  0  0  0
  4 18  2  0  0  0  0
  4 20  1  0  0  0  0
  5  6  1  0  0  0  0
  5  7  1  0  0  0  0
  6 15  1  0  0  0  0
  7 11  1  0  0  0  0
  7 14  1  0  0  0  0
  8 12  1  0  0  0  0
  9 12  1  0  0  0  0
 10 12  1  0  0  0  0
 11 21  1  0  0  0  0
 11 22  1  0  0  0  0
 11 23  1  0  0  0  0
 12 20  1  0  0  0  0
 13 14  1  0  0  0  0
 16 17  1  0  0  0  0
 16 19  2  0  0  0  0
  1 24  1  0  0  0  0
  5 25  1  0  0  0  0
  5 26  1  0  0  0  0
  6 27  1  0  0  0  0
  6 28  1  0  0  0  0
  7 29  1  0  0  0  0
  8 30  1  0  0  0  0
  8 31  1  0  0  0  0
  8 32  1  0  0  0  0
  9 33  1  0  0  0  0
  9 34  1  0  0  0  0
  9 35  1  0  0  0  0
 10 36  1  0  0  0  0
 10 37  1  0  0  0  0
 10 38  1  0  0  0  0
M  CHG  2  16   1  17  -1
M  END
> <id>
EN300-28296452

> <smiles>
CC(C)(C)OC(=O)N1CCC(N2N=CC([N+](=O)[O-])=C12)C(F)(F)F

> <IUPAC Name>
tert-butyl 3-nitro-7-(trifluoromethyl)-4H,5H,6H,7H-pyrazolo[1,5-a]pyrimidine-4-carboxylate

> <CAS>
2680788-09-2

> <URL>
https://www.enaminestore.com/catalog/EN300-28296452

> <ROCS_ShapeQuery>
A71EV2A-x0451_0A_A71EV2A-x0310_0A_A71EV2A-x0416_0A_peptide

> <ROCS_TanimotoCombo>
0.515 

> <ROCS_ShapeTanimoto>
0.365 

> <ROCS_ColorTanimoto>
0.149 

> <ROCS_RefTversky>
0.321 

> <ROCS_RefColorTversky>
0.165 

> <ROCS_RefTverskyCombo>
0.486 

> <ROCS_FitTversky>
1.611 

> <ROCS_FitColorTversky>
0.609 

> <ROCS_FitTverskyCombo>
2.219 

> <ROCS_ColorScore>
-5.037

> <ROCS_Overlap>
2229.799

> <ROCS_Rank>
288                 

$$$$
untitled-dbase-107014_400
  -OEChem-11132313473D

 47 49  0     1  0  0  0  0  0999 V2000
    5.4647   10.9073   28.2330 C   0  0  0  0  0  0  0  0  0  0  0  0
    6.3294   10.3717   27.2786 C   0  0  0  0  0  0  0  0  0  0  0  0
    4.7869   12.0978   27.9702 C   0  0  0  0  0  0  0  0  0  0  0  0
    5.8389   12.2172   25.7985 C   0  0  0  0  0  0  0  0  0  0  0  0
    6.5166   11.0267   26.0614 C   0  0  0  0  0  0  0  0  0  0  0  0
    4.9741   12.7528   26.7529 C   0  0  0  0  0  0  0  0  0  0  0  0
   10.6176   13.1484   23.6293 C   0  0  0  0  0  0  0  0  0  0  0  0
    9.9924   10.0372   24.5001 C   0  0  0  0  0  0  0  0  0  0  0  0
    8.9202   10.3187   25.5714 C   0  0  0  0  0  0  0  0  0  0  0  0
    8.3982   10.4444   22.6369 C   0  0  0  0  0  0  0  0  0  0  0  0
    8.1557   12.5516   23.6850 C   0  0  0  0  0  0  0  0  0  0  0  0
    7.4717   11.1706   23.6282 C   0  0  2  0  0  0  0  0  0  0  0  0
    9.7577   10.8284   23.2068 C   0  0  1  0  0  0  0  0  0  0  0  0
    7.4675   10.4373   25.0125 C   0  0  2  0  0  0  0  0  0  0  0  0
   12.4336   15.0819   22.5666 C   0  0  0  0  0  0  0  0  0  0  0  0
   13.2367   13.2327   21.0683 C   0  0  0  0  0  0  0  0  0  0  0  0
   10.8580   14.0241   20.9134 C   0  0  0  0  0  0  0  0  0  0  0  0
   12.0466   13.7918   21.8451 C   0  0  0  0  0  0  0  0  0  0  0  0
    9.5755   12.2474   23.5099 N   0  0  0  0  0  0  0  0  0  0  0  0
   10.6018   14.1298   24.3685 O   0  0  0  0  0  0  0  0  0  0  0  0
    6.9519    9.1126   24.7884 O   0  0  0  0  0  0  0  0  0  0  0  0
   11.6741   12.8161   22.8246 O   0  0  0  0  0  0  0  0  0  0  0  0
    4.0555   14.3659   26.3975 Br  0  0  0  0  0  0  0  0  0  0  0  0
    5.3191   10.3973   29.1808 H   0  0  0  0  0  0  0  0  0  0  0  0
    6.8532    9.4438   27.4921 H   0  0  0  0  0  0  0  0  0  0  0  0
    4.1167   12.5016   28.7247 H   0  0  0  0  0  0  0  0  0  0  0  0
    5.9898   12.7223   24.8471 H   0  0  0  0  0  0  0  0  0  0  0  0
   10.9816   10.2686   24.9129 H   0  0  0  0  0  0  0  0  0  0  0  0
    9.9934    8.9646   24.2695 H   0  0  0  0  0  0  0  0  0  0  0  0
    8.9689    9.5308   26.3340 H   0  0  0  0  0  0  0  0  0  0  0  0
    9.1931   11.2537   26.0800 H   0  0  0  0  0  0  0  0  0  0  0  0
    8.2341    9.3647   22.5859 H   0  0  0  0  0  0  0  0  0  0  0  0
    8.2735   10.8508   21.6252 H   0  0  0  0  0  0  0  0  0  0  0  0
    7.8495   13.1809   22.8415 H   0  0  0  0  0  0  0  0  0  0  0  0
    7.9900   13.1065   24.6126 H   0  0  0  0  0  0  0  0  0  0  0  0
    6.4546   11.2367   23.2253 H   0  0  0  0  0  0  0  0  0  0  0  0
   10.5780   10.6783   22.4983 H   0  0  0  0  0  0  0  0  0  0  0  0
   11.5821   15.4864   23.1254 H   0  0  0  0  0  0  0  0  0  0  0  0
   13.2623   14.9211   23.2639 H   0  0  0  0  0  0  0  0  0  0  0  0
   12.7295   15.8569   21.8503 H   0  0  0  0  0  0  0  0  0  0  0  0
   12.9635   12.3070   20.5490 H   0  0  0  0  0  0  0  0  0  0  0  0
   14.0589   12.9755   21.7458 H   0  0  0  0  0  0  0  0  0  0  0  0
   13.6083   13.9487   20.3281 H   0  0  0  0  0  0  0  0  0  0  0  0
   10.5802   13.0988   20.3957 H   0  0  0  0  0  0  0  0  0  0  0  0
    9.9829   14.3905   21.4597 H   0  0  0  0  0  0  0  0  0  0  0  0
   11.1109   14.7510   20.1330 H   0  0  0  0  0  0  0  0  0  0  0  0
    6.0436    9.2219   24.4679 H   0  0  0  0  0  0  0  0  0  0  0  0
  1  2  1  0  0  0  0
  1  3  2  0  0  0  0
  2  5  2  0  0  0  0
  3  6  1  0  0  0  0
  4  5  1  0  0  0  0
  4  6  2  0  0  0  0
  5 14  1  0  0  0  0
  6 23  1  0  0  0  0
  7 19  1  0  0  0  0
  7 20  2  0  0  0  0
  7 22  1  0  0  0  0
  8  9  1  0  0  0  0
  8 13  1  0  0  0  0
  9 14  1  0  0  0  0
 10 12  1  0  0  0  0
 10 13  1  0  0  0  0
 11 12  1  0  0  0  0
 11 19  1  0  0  0  0
 12 14  1  0  0  0  0
 13 19  1  0  0  0  0
 14 21  1  0  0  0  0
 15 18  1  0  0  0  0
 16 18  1  0  0  0  0
 17 18  1  0  0  0  0
 18 22  1  0  0  0  0
  1 24  1  0  0  0  0
  2 25  1  0  0  0  0
  3 26  1  0  0  0  0
  4 27  1  0  0  0  0
  8 28  1  0  0  0  0
  8 29  1  0  0  0  0
  9 30  1  0  0  0  0
  9 31  1  0  0  0  0
 10 32  1  0  0  0  0
 10 33  1  0  0  0  0
 11 34  1  0  0  0  0
 11 35  1  0  0  0  0
 12 36  1  0  0  0  0
 13 37  1  0  0  0  0
 15 38  1  0  0  0  0
 15 39  1  0  0  0  0
 15 40  1  0  0  0  0
 16 41  1  0  0  0  0
 16 42  1  0  0  0  0
 16 43  1  0  0  0  0
 17 44  1  0  0  0  0
 17 45  1  0  0  0  0
 17 46  1  0  0  0  0
 21 47  1  0  0  0  0
M  END
> <id>
EN300-7428885

> <smiles>
CC(C)(C)OC(=O)N1CC2CC1CCC2(O)C=3C=CC=C(Br)C3

> <IUPAC Name>
tert-butyl 2-(3-bromophenyl)-2-hydroxy-6-azabicyclo[3.2.1]octane-6-carboxylate

> <CAS>
2309474-03-9

> <URL>
https://www.enaminestore.com/catalog/EN300-7428885

> <ROCS_ShapeQuery>
A71EV2A-x0451_0A_A71EV2A-x0310_0A_A71EV2A-x0416_0A_peptide

> <ROCS_TanimotoCombo>
0.515 

> <ROCS_ShapeTanimoto>
0.332 

> <ROCS_ColorTanimoto>
0.183 

> <ROCS_RefTversky>
0.297 

> <ROCS_RefColorTversky>
0.219 

> <ROCS_RefTverskyCombo>
0.516 

> <ROCS_FitTversky>
1.544 

> <ROCS_FitColorTversky>
0.525 

> <ROCS_FitTverskyCombo>
2.069 

> <ROCS_ColorScore>
-6.735

> <ROCS_Overlap>
2063.270

> <ROCS_Rank>
289                 

$$$$
untitled-dbase-174630_11
  -OEChem-11132313473D

 37 38  0     0  0  0  0  0  0999 V2000
    8.3341    9.6215   24.0671 C   0  0  0  0  0  0  0  0  0  0  0  0
    8.4180   12.4132   24.1789 C   0  0  0  0  0  0  0  0  0  0  0  0
    7.3629   10.3149   24.7971 C   0  0  0  0  0  0  0  0  0  0  0  0
    7.4132   11.7136   24.8512 C   0  0  0  0  0  0  0  0  0  0  0  0
    9.3898   11.7122   23.4653 C   0  0  0  0  0  0  0  0  0  0  0  0
    9.3496   10.3190   23.4115 C   0  0  0  0  0  0  0  0  0  0  0  0
    5.4898   11.8310   26.3791 C   0  0  0  0  0  0  0  0  0  0  0  0
   10.9759   13.6318   23.1330 C   0  0  0  0  0  0  0  0  0  0  0  0
    6.2076    9.5954   25.4311 C   0  0  0  0  0  0  0  0  0  0  0  0
    5.6983   10.3535   26.6478 C   0  0  0  0  0  0  0  0  0  0  0  0
   11.6891   16.3227   22.4777 C   0  0  0  0  0  0  0  0  0  0  0  0
   12.9085   15.3273   20.5203 C   0  0  0  0  0  0  0  0  0  0  0  0
   10.4186   15.0586   20.7106 C   0  0  0  0  0  0  0  0  0  0  0  0
   11.7334   15.1646   21.4819 C   0  0  0  0  0  0  0  0  0  0  0  0
    6.4311   12.4268   25.5617 N   0  0  0  0  0  0  0  0  0  0  0  0
   10.4012   12.4074   22.8013 N   0  0  0  0  0  0  0  0  0  0  0  0
    4.5920   12.4615   26.9374 O   0  0  0  0  0  0  0  0  0  0  0  0
   10.6970   14.3452   24.0889 O   0  0  0  0  0  0  0  0  0  0  0  0
   11.9355   13.9466   22.2081 O   0  0  0  0  0  0  0  0  0  0  0  0
   10.2751    9.6385   22.7201 F   0  0  0  0  0  0  0  0  0  0  0  0
    8.3007    8.5375   23.9968 H   0  0  0  0  0  0  0  0  0  0  0  0
    8.4474   13.5000   24.2155 H   0  0  0  0  0  0  0  0  0  0  0  0
    5.4084    9.5050   24.6852 H   0  0  0  0  0  0  0  0  0  0  0  0
    6.5011    8.5836   25.7333 H   0  0  0  0  0  0  0  0  0  0  0  0
    6.4169   10.2739   27.4733 H   0  0  0  0  0  0  0  0  0  0  0  0
    4.7518    9.9165   26.9844 H   0  0  0  0  0  0  0  0  0  0  0  0
   10.8469   16.2096   23.1697 H   0  0  0  0  0  0  0  0  0  0  0  0
   12.6128   16.3880   23.0618 H   0  0  0  0  0  0  0  0  0  0  0  0
   11.5383   17.2773   21.9607 H   0  0  0  0  0  0  0  0  0  0  0  0
   12.9442   14.4985   19.8040 H   0  0  0  0  0  0  0  0  0  0  0  0
   13.8613   15.3086   21.0617 H   0  0  0  0  0  0  0  0  0  0  0  0
   12.8459   16.2664   19.9610 H   0  0  0  0  0  0  0  0  0  0  0  0
   10.4501   14.2279   19.9963 H   0  0  0  0  0  0  0  0  0  0  0  0
    9.5681   14.9044   21.3825 H   0  0  0  0  0  0  0  0  0  0  0  0
   10.2378   15.9655   20.1224 H   0  0  0  0  0  0  0  0  0  0  0  0
    6.4128   13.4385   25.4685 H   0  0  0  0  0  0  0  0  0  0  0  0
   10.7701   11.9572   21.9573 H   0  0  0  0  0  0  0  0  0  0  0  0
  1  3  1  0  0  0  0
  1  6  2  0  0  0  0
  2  4  1  0  0  0  0
  2  5  2  0  0  0  0
  3  4  2  0  0  0  0
  3  9  1  0  0  0  0
  4 15  1  0  0  0  0
  5  6  1  0  0  0  0
  5 16  1  0  0  0  0
  6 20  1  0  0  0  0
  7 10  1  0  0  0  0
  7 15  1  0  0  0  0
  7 17  2  0  0  0  0
  8 16  1  0  0  0  0
  8 18  2  0  0  0  0
  8 19  1  0  0  0  0
  9 10  1  0  0  0  0
 11 14  1  0  0  0  0
 12 14  1  0  0  0  0
 13 14  1  0  0  0  0
 14 19  1  0  0  0  0
  1 21  1  0  0  0  0
  2 22  1  0  0  0  0
  9 23  1  0  0  0  0
  9 24  1  0  0  0  0
 10 25  1  0  0  0  0
 10 26  1  0  0  0  0
 11 27  1  0  0  0  0
 11 28  1  0  0  0  0
 11 29  1  0  0  0  0
 12 30  1  0  0  0  0
 12 31  1  0  0  0  0
 12 32  1  0  0  0  0
 13 33  1  0  0  0  0
 13 34  1  0  0  0  0
 13 35  1  0  0  0  0
 15 36  1  0  0  0  0
 16 37  1  0  0  0  0
M  END
> <id>
EN300-12420143

> <smiles>
CC(C)(C)OC(=O)NC=1C=C2NC(=O)CCC2=CC1F

> <MDLNUMBER>
MFCD21170115

> <IUPAC Name>
tert-butyl N-(6-fluoro-2-oxo-1,2,3,4-tetrahydroquinolin-7-yl)carbamate

> <CAS>
1483232-22-9

> <URL>
https://www.enaminestore.com/catalog/EN300-12420143

> <ROCS_ShapeQuery>
A71EV2A-x0451_0A_A71EV2A-x0310_0A_A71EV2A-x0416_0A_peptide

> <ROCS_TanimotoCombo>
0.515 

> <ROCS_ShapeTanimoto>
0.356 

> <ROCS_ColorTanimoto>
0.158 

> <ROCS_RefTversky>
0.309 

> <ROCS_RefColorTversky>
0.174 

> <ROCS_RefTverskyCombo>
0.482 

> <ROCS_FitTversky>
1.760 

> <ROCS_FitColorTversky>
0.642 

> <ROCS_FitTverskyCombo>
2.402 

> <ROCS_ColorScore>
-5.290

> <ROCS_Overlap>
2143.710

> <ROCS_Rank>
290                 

$$$$
untitled-dbase-152020_10
  -OEChem-11132313473D

 33 34  0     0  0  0  0  0  0999 V2000
    5.5761   11.7240   26.4259 C   0  0  0  0  0  0  0  0  0  0  0  0
    5.4794   10.3428   26.3458 C   0  0  0  0  0  0  0  0  0  0  0  0
    6.5800   12.3850   25.7202 C   0  0  0  0  0  0  0  0  0  0  0  0
    6.3876    9.6344   25.5611 C   0  0  0  0  0  0  0  0  0  0  0  0
    7.4926   11.6865   24.9331 C   0  0  0  0  0  0  0  0  0  0  0  0
    7.3945   10.2852   24.8520 C   0  0  0  0  0  0  0  0  0  0  0  0
    9.3068   11.6226   23.5166 C   0  0  0  0  0  0  0  0  0  0  0  0
    9.2115   10.2587   23.4378 C   0  0  0  0  0  0  0  0  0  0  0  0
   10.9459   13.4889   23.1409 C   0  0  0  0  0  0  0  0  0  0  0  0
   11.7257   16.1674   22.5110 C   0  0  0  0  0  0  0  0  0  0  0  0
   12.7931   15.1788   20.4635 C   0  0  0  0  0  0  0  0  0  0  0  0
   10.3093   14.9991   20.7896 C   0  0  0  0  0  0  0  0  0  0  0  0
   11.6686   15.0351   21.4866 C   0  0  0  0  0  0  0  0  0  0  0  0
    8.4523   12.3467   24.2616 N   0  0  0  0  0  0  0  0  0  0  0  0
    8.2588    9.5796   24.1017 N   0  0  0  0  0  0  0  0  0  0  0  0
   10.3091   12.2983   22.8110 N   0  0  0  0  0  0  0  0  0  0  0  0
   10.7494   14.1869   24.1282 O   0  0  0  0  0  0  0  0  0  0  0  0
   11.8635   13.7917   22.1704 O   0  0  0  0  0  0  0  0  0  0  0  0
   10.2640    9.2718   22.5095 Cl  0  0  0  0  0  0  0  0  0  0  0  0
    4.8750   12.2879   27.0334 H   0  0  0  0  0  0  0  0  0  0  0  0
    4.7010    9.8161   26.8892 H   0  0  0  0  0  0  0  0  0  0  0  0
    6.6448   13.4689   25.7929 H   0  0  0  0  0  0  0  0  0  0  0  0
    6.2997    8.5511   25.5060 H   0  0  0  0  0  0  0  0  0  0  0  0
   10.9201   16.0679   23.2473 H   0  0  0  0  0  0  0  0  0  0  0  0
   12.6827   16.1825   23.0427 H   0  0  0  0  0  0  0  0  0  0  0  0
   11.5835   17.1403   22.0268 H   0  0  0  0  0  0  0  0  0  0  0  0
   12.7559   14.3684   19.7265 H   0  0  0  0  0  0  0  0  0  0  0  0
   13.7734   15.1099   20.9487 H   0  0  0  0  0  0  0  0  0  0  0  0
   12.7358   16.1340   19.9316 H   0  0  0  0  0  0  0  0  0  0  0  0
   10.2680   14.1870   20.0548 H   0  0  0  0  0  0  0  0  0  0  0  0
    9.4926   14.8594   21.5053 H   0  0  0  0  0  0  0  0  0  0  0  0
   10.1312   15.9274   20.2348 H   0  0  0  0  0  0  0  0  0  0  0  0
   10.6126   11.8583   21.9384 H   0  0  0  0  0  0  0  0  0  0  0  0
  1  2  2  0  0  0  0
  1  3  1  0  0  0  0
  2  4  1  0  0  0  0
  3  5  2  0  0  0  0
  4  6  2  0  0  0  0
  5  6  1  0  0  0  0
  5 14  1  0  0  0  0
  6 15  1  0  0  0  0
  7  8  1  0  0  0  0
  7 14  2  0  0  0  0
  7 16  1  0  0  0  0
  8 15  2  0  0  0  0
  8 19  1  0  0  0  0
  9 16  1  0  0  0  0
  9 17  2  0  0  0  0
  9 18  1  0  0  0  0
 10 13  1  0  0  0  0
 11 13  1  0  0  0  0
 12 13  1  0  0  0  0
 13 18  1  0  0  0  0
  1 20  1  0  0  0  0
  2 21  1  0  0  0  0
  3 22  1  0  0  0  0
  4 23  1  0  0  0  0
 10 24  1  0  0  0  0
 10 25  1  0  0  0  0
 10 26  1  0  0  0  0
 11 27  1  0  0  0  0
 11 28  1  0  0  0  0
 11 29  1  0  0  0  0
 12 30  1  0  0  0  0
 12 31  1  0  0  0  0
 12 32  1  0  0  0  0
 16 33  1  0  0  0  0
M  END
> <id>
EN300-4489687

> <smiles>
CC(C)(C)OC(=O)NC=1N=C2C=CC=CC2=NC1Cl

> <IUPAC Name>
tert-butyl N-(3-chloroquinoxalin-2-yl)carbamate

> <CAS>
1878047-70-1

> <URL>
https://www.enaminestore.com/catalog/EN300-4489687

> <ROCS_ShapeQuery>
A71EV2A-x0451_0A_A71EV2A-x0310_0A_A71EV2A-x0416_0A_peptide

> <ROCS_TanimotoCombo>
0.515 

> <ROCS_ShapeTanimoto>
0.351 

> <ROCS_ColorTanimoto>
0.164 

> <ROCS_RefTversky>
0.304 

> <ROCS_RefColorTversky>
0.179 

> <ROCS_RefTverskyCombo>
0.483 

> <ROCS_FitTversky>
1.786 

> <ROCS_FitColorTversky>
0.661 

> <ROCS_FitTverskyCombo>
2.447 

> <ROCS_ColorScore>
-5.453

> <ROCS_Overlap>
2108.167

> <ROCS_Rank>
291                 

$$$$
untitled-dbase-143466_17
  -OEChem-11132313473D

 36 37  0     0  0  0  0  0  0999 V2000
   10.8776   10.0545   22.5416 C   0  0  0  0  0  0  0  0  0  0  0  0
    5.9689   10.7053   26.1702 C   0  0  0  0  0  0  0  0  0  0  0  0
    5.9180   12.0909   26.0823 C   0  0  0  0  0  0  0  0  0  0  0  0
    6.9624   10.0096   25.4872 C   0  0  0  0  0  0  0  0  0  0  0  0
    6.8600   12.7774   25.3120 C   0  0  0  0  0  0  0  0  0  0  0  0
    9.8409   10.7359   23.2585 C   0  0  0  0  0  0  0  0  0  0  0  0
    7.9097   10.7003   24.7126 C   0  0  0  0  0  0  0  0  0  0  0  0
    7.8642   12.1071   24.6189 C   0  0  0  0  0  0  0  0  0  0  0  0
    8.9203   10.0250   24.0148 C   0  0  0  0  0  0  0  0  0  0  0  0
    9.7160   12.1101   23.2274 C   0  0  0  0  0  0  0  0  0  0  0  0
   11.0787   14.1535   22.7002 C   0  0  0  0  0  0  0  0  0  0  0  0
   11.4809   16.8497   21.8351 C   0  0  0  0  0  0  0  0  0  0  0  0
   12.7298   15.8473   19.9000 C   0  0  0  0  0  0  0  0  0  0  0  0
   10.2902   15.3384   20.2124 C   0  0  0  0  0  0  0  0  0  0  0  0
   11.6125   15.6339   20.9189 C   0  0  0  0  0  0  0  0  0  0  0  0
   11.7172    9.5026   21.9608 N   0  0  0  0  0  0  0  0  0  0  0  0
    8.7562   12.7997   23.8857 N   0  0  0  0  0  0  0  0  0  0  0  0
   10.6308   12.8606   22.4718 N   0  0  0  0  0  0  0  0  0  0  0  0
   10.7595   14.9012   23.6166 O   0  0  0  0  0  0  0  0  0  0  0  0
    9.0065    8.6613   24.0741 O   0  0  0  0  0  0  0  0  0  0  0  0
   11.9671   14.4983   21.7166 O   0  0  0  0  0  0  0  0  0  0  0  0
    5.2387   10.1684   26.7679 H   0  0  0  0  0  0  0  0  0  0  0  0
    5.1461   12.6418   26.6118 H   0  0  0  0  0  0  0  0  0  0  0  0
    6.9828    8.9255   25.5706 H   0  0  0  0  0  0  0  0  0  0  0  0
    6.7982   13.8629   25.2594 H   0  0  0  0  0  0  0  0  0  0  0  0
   10.6799   16.7004   22.5680 H   0  0  0  0  0  0  0  0  0  0  0  0
   12.4123   17.0512   22.3742 H   0  0  0  0  0  0  0  0  0  0  0  0
   11.2124   17.7442   21.2616 H   0  0  0  0  0  0  0  0  0  0  0  0
   12.8278   14.9774   19.2405 H   0  0  0  0  0  0  0  0  0  0  0  0
   13.6975   15.9655   20.4009 H   0  0  0  0  0  0  0  0  0  0  0  0
   12.5491   16.7325   19.2817 H   0  0  0  0  0  0  0  0  0  0  0  0
   10.3844   14.4663   19.5552 H   0  0  0  0  0  0  0  0  0  0  0  0
    9.4846   15.1461   20.9284 H   0  0  0  0  0  0  0  0  0  0  0  0
    9.9944   16.1774   19.5724 H   0  0  0  0  0  0  0  0  0  0  0  0
   11.0160   12.3949   21.6484 H   0  0  0  0  0  0  0  0  0  0  0  0
    9.7539    8.3547   23.5406 H   0  0  0  0  0  0  0  0  0  0  0  0
  1  6  1  0  0  0  0
  1 16  3  0  0  0  0
  2  3  2  0  0  0  0
  2  4  1  0  0  0  0
  3  5  1  0  0  0  0
  4  7  2  0  0  0  0
  5  8  2  0  0  0  0
  6  9  2  0  0  0  0
  6 10  1  0  0  0  0
  7  8  1  0  0  0  0
  7  9  1  0  0  0  0
  8 17  1  0  0  0  0
  9 20  1  0  0  0  0
 10 17  2  0  0  0  0
 10 18  1  0  0  0  0
 11 18  1  0  0  0  0
 11 19  2  0  0  0  0
 11 21  1  0  0  0  0
 12 15  1  0  0  0  0
 13 15  1  0  0  0  0
 14 15  1  0  0  0  0
 15 21  1  0  0  0  0
  2 22  1  0  0  0  0
  3 23  1  0  0  0  0
  4 24  1  0  0  0  0
  5 25  1  0  0  0  0
 12 26  1  0  0  0  0
 12 27  1  0  0  0  0
 12 28  1  0  0  0  0
 13 29  1  0  0  0  0
 13 30  1  0  0  0  0
 13 31  1  0  0  0  0
 14 32  1  0  0  0  0
 14 33  1  0  0  0  0
 14 34  1  0  0  0  0
 18 35  1  0  0  0  0
 20 36  1  0  0  0  0
M  END
> <id>
EN300-27718642

> <smiles>
CC(C)(C)OC(=O)NC=1N=C2C=CC=CC2=C(O)C1C#N

> <IUPAC Name>
tert-butyl N-(3-cyano-4-hydroxyquinolin-2-yl)carbamate

> <CAS>
2580250-82-2

> <URL>
https://www.enaminestore.com/catalog/EN300-27718642

> <ROCS_ShapeQuery>
A71EV2A-x0451_0A_A71EV2A-x0310_0A_A71EV2A-x0416_0A_peptide

> <ROCS_TanimotoCombo>
0.515 

> <ROCS_ShapeTanimoto>
0.361 

> <ROCS_ColorTanimoto>
0.153 

> <ROCS_RefTversky>
0.314 

> <ROCS_RefColorTversky>
0.177 

> <ROCS_RefTverskyCombo>
0.491 

> <ROCS_FitTversky>
1.713 

> <ROCS_FitColorTversky>
0.533 

> <ROCS_FitTverskyCombo>
2.246 

> <ROCS_ColorScore>
-5.408

> <ROCS_Overlap>
2181.684

> <ROCS_Rank>
292                 

$$$$
untitled-dbase-145044_130
  -OEChem-11132313473D

 40 41  0     1  0  0  0  0  0999 V2000
   10.7302   13.6605   23.0975 C   0  0  0  0  0  0  0  0  0  0  0  0
    7.9641    9.7615   25.0778 C   0  0  0  0  0  0  0  0  0  0  0  0
    8.7203   10.8967   25.7811 C   0  0  0  0  0  0  0  0  0  0  0  0
    9.0924   10.3057   22.9060 C   0  0  0  0  0  0  0  0  0  0  0  0
    6.9461   11.4367   23.5276 C   0  0  0  0  0  0  0  0  0  0  0  0
    7.7300   10.1127   23.5995 C   0  0  2  0  0  0  0  0  0  0  0  0
    9.0714   12.0084   24.7684 C   0  0  1  0  0  0  0  0  0  0  0  0
    9.9281   11.3688   23.6506 C   0  0  2  0  0  0  0  0  0  0  0  0
    7.7619   12.5703   24.1704 C   0  0  2  0  0  0  0  0  0  0  0  0
   13.5038   13.7437   22.4267 C   0  0  0  0  0  0  0  0  0  0  0  0
   12.8773   15.5979   20.8524 C   0  0  0  0  0  0  0  0  0  0  0  0
   12.5207   15.8805   23.3224 C   0  0  0  0  0  0  0  0  0  0  0  0
   12.5287   14.8893   22.1595 C   0  0  0  0  0  0  0  0  0  0  0  0
   10.4527   12.3570   22.7392 N   0  0  0  0  0  0  0  0  0  0  0  0
   10.5723   14.1447   24.2133 O   0  0  0  0  0  0  0  0  0  0  0  0
    6.9772   13.1945   25.1818 O   0  0  0  0  0  0  0  0  0  0  0  0
   11.2125   14.3435   22.0166 O   0  0  0  0  0  0  0  0  0  0  0  0
    8.5357    8.8291   25.1583 H   0  0  0  0  0  0  0  0  0  0  0  0
    7.0064    9.5867   25.5826 H   0  0  0  0  0  0  0  0  0  0  0  0
    8.1131   11.2984   26.6008 H   0  0  0  0  0  0  0  0  0  0  0  0
    9.6345   10.5014   26.2406 H   0  0  0  0  0  0  0  0  0  0  0  0
    9.6431    9.3571   22.8889 H   0  0  0  0  0  0  0  0  0  0  0  0
    8.9298   10.5873   21.8579 H   0  0  0  0  0  0  0  0  0  0  0  0
    6.7486   11.6844   22.4773 H   0  0  0  0  0  0  0  0  0  0  0  0
    5.9688   11.3248   24.0125 H   0  0  0  0  0  0  0  0  0  0  0  0
    7.1662    9.3140   23.1055 H   0  0  0  0  0  0  0  0  0  0  0  0
    9.6270   12.7958   25.2917 H   0  0  0  0  0  0  0  0  0  0  0  0
   10.8080   10.8884   24.0955 H   0  0  0  0  0  0  0  0  0  0  0  0
    7.9792   13.3375   23.4187 H   0  0  0  0  0  0  0  0  0  0  0  0
   13.2569   13.2325   23.3641 H   0  0  0  0  0  0  0  0  0  0  0  0
   13.4933   13.0077   21.6162 H   0  0  0  0  0  0  0  0  0  0  0  0
   14.5271   14.1195   22.5398 H   0  0  0  0  0  0  0  0  0  0  0  0
   12.1802   16.4207   20.6566 H   0  0  0  0  0  0  0  0  0  0  0  0
   12.7919   14.9120   20.0018 H   0  0  0  0  0  0  0  0  0  0  0  0
   13.8945   16.0023   20.8709 H   0  0  0  0  0  0  0  0  0  0  0  0
   11.8214   16.7023   23.1310 H   0  0  0  0  0  0  0  0  0  0  0  0
   12.2365   15.3968   24.2626 H   0  0  0  0  0  0  0  0  0  0  0  0
   13.5082   16.3383   23.4509 H   0  0  0  0  0  0  0  0  0  0  0  0
   10.6278   12.0769   21.7783 H   0  0  0  0  0  0  0  0  0  0  0  0
    7.5243   13.9001   25.5610 H   0  0  0  0  0  0  0  0  0  0  0  0
  1 14  1  0  0  0  0
  1 15  2  0  0  0  0
  1 17  1  0  0  0  0
  2  3  1  0  0  0  0
  2  6  1  0  0  0  0
  3  7  1  0  0  0  0
  4  6  1  0  0  0  0
  4  8  1  0  0  0  0
  5  6  1  0  0  0  0
  5  9  1  0  0  0  0
  7  8  1  0  0  0  0
  7  9  1  0  0  0  0
  8 14  1  0  0  0  0
  9 16  1  0  0  0  0
 10 13  1  0  0  0  0
 11 13  1  0  0  0  0
 12 13  1  0  0  0  0
 13 17  1  0  0  0  0
  2 18  1  0  0  0  0
  2 19  1  0  0  0  0
  3 20  1  0  0  0  0
  3 21  1  0  0  0  0
  4 22  1  0  0  0  0
  4 23  1  0  0  0  0
  5 24  1  0  0  0  0
  5 25  1  0  0  0  0
  6 26  1  0  0  0  0
  7 27  1  0  0  0  0
  8 28  1  0  0  0  0
  9 29  1  0  0  0  0
 10 30  1  0  0  0  0
 10 31  1  0  0  0  0
 10 32  1  0  0  0  0
 11 33  1  0  0  0  0
 11 34  1  0  0  0  0
 11 35  1  0  0  0  0
 12 36  1  0  0  0  0
 12 37  1  0  0  0  0
 12 38  1  0  0  0  0
 14 39  1  0  0  0  0
 16 40  1  0  0  0  0
M  END
> <id>
EN300-26977780

> <smiles>
CC(C)(C)OC(=O)NC1CC2CCC1C(O)C2

> <IUPAC Name>
tert-butyl N-{6-hydroxybicyclo[2.2.2]octan-2-yl}carbamate

> <CAS>
2580217-74-7

> <URL>
https://www.enaminestore.com/catalog/EN300-26977780

> <ROCS_ShapeQuery>
A71EV2A-x0451_0A_A71EV2A-x0310_0A_A71EV2A-x0416_0A_peptide

> <ROCS_TanimotoCombo>
0.515 

> <ROCS_ShapeTanimoto>
0.291 

> <ROCS_ColorTanimoto>
0.224 

> <ROCS_RefTversky>
0.260 

> <ROCS_RefColorTversky>
0.255 

> <ROCS_RefTverskyCombo>
0.515 

> <ROCS_FitTversky>
1.690 

> <ROCS_FitColorTversky>
0.650 

> <ROCS_FitTverskyCombo>
2.340 

> <ROCS_ColorScore>
-7.816

> <ROCS_Overlap>
1800.604

> <ROCS_Rank>
293                 

$$$$
untitled-dbase-107161_41
  -OEChem-11132313473D

 35 36  0     0  0  0  0  0  0999 V2000
    6.1537   12.3505   26.2292 C   0  0  0  0  0  0  0  0  0  0  0  0
    7.1514   13.0393   25.5547 C   0  0  0  0  0  0  0  0  0  0  0  0
    9.1002   13.0124   24.0703 C   0  0  0  0  0  0  0  0  0  0  0  0
    9.8974   10.9151   23.2088 C   0  0  0  0  0  0  0  0  0  0  0  0
    6.1188   10.9780   26.0886 C   0  0  0  0  0  0  0  0  0  0  0  0
    8.0781   12.3444   24.7658 C   0  0  0  0  0  0  0  0  0  0  0  0
    7.9605   10.9410   24.6843 C   0  0  0  0  0  0  0  0  0  0  0  0
   10.0074   12.2975   23.2937 C   0  0  0  0  0  0  0  0  0  0  0  0
    8.8811   10.2511   23.9003 C   0  0  0  0  0  0  0  0  0  0  0  0
   11.2910   14.3305   22.5658 C   0  0  0  0  0  0  0  0  0  0  0  0
   10.6977   15.8334   20.6200 C   0  0  0  0  0  0  0  0  0  0  0  0
   13.0840   16.6041   20.7647 C   0  0  0  0  0  0  0  0  0  0  0  0
   12.4988   14.6026   19.3649 C   0  0  0  0  0  0  0  0  0  0  0  0
   12.1614   15.3949   20.6270 C   0  0  0  0  0  0  0  0  0  0  0  0
    6.9932   10.2699   25.3377 N   0  0  0  0  0  0  0  0  0  0  0  0
   11.0204   12.9647   22.6051 N   0  0  0  0  0  0  0  0  0  0  0  0
   10.6782   15.2227   23.1395 O   0  0  0  0  0  0  0  0  0  0  0  0
    8.8057    8.8905   23.7918 O   0  0  0  0  0  0  0  0  0  0  0  0
   12.3797   14.5537   21.7656 O   0  0  0  0  0  0  0  0  0  0  0  0
    5.4291   12.8720   26.8434 H   0  0  0  0  0  0  0  0  0  0  0  0
    7.2022   14.1217   25.6479 H   0  0  0  0  0  0  0  0  0  0  0  0
    9.1856   14.0958   24.1373 H   0  0  0  0  0  0  0  0  0  0  0  0
   10.5999   10.3446   22.6053 H   0  0  0  0  0  0  0  0  0  0  0  0
    5.3615   10.3863   26.5923 H   0  0  0  0  0  0  0  0  0  0  0  0
   10.0322   14.9683   20.5214 H   0  0  0  0  0  0  0  0  0  0  0  0
   10.4337   16.3725   21.5357 H   0  0  0  0  0  0  0  0  0  0  0  0
   10.4884   16.4838   19.7630 H   0  0  0  0  0  0  0  0  0  0  0  0
   14.1352   16.2941   20.7702 H   0  0  0  0  0  0  0  0  0  0  0  0
   12.9099   17.1217   21.7150 H   0  0  0  0  0  0  0  0  0  0  0  0
   12.9376   17.3190   19.9486 H   0  0  0  0  0  0  0  0  0  0  0  0
   13.5487   14.2879   19.3696 H   0  0  0  0  0  0  0  0  0  0  0  0
   11.8712   13.7107   19.2687 H   0  0  0  0  0  0  0  0  0  0  0  0
   12.3653   15.2205   18.4695 H   0  0  0  0  0  0  0  0  0  0  0  0
   11.6496   12.3708   22.0546 H   0  0  0  0  0  0  0  0  0  0  0  0
    8.0625    8.5579   24.3161 H   0  0  0  0  0  0  0  0  0  0  0  0
  1  2  2  0  0  0  0
  1  5  1  0  0  0  0
  2  6  1  0  0  0  0
  3  6  2  0  0  0  0
  3  8  1  0  0  0  0
  4  8  2  0  0  0  0
  4  9  1  0  0  0  0
  5 15  2  0  0  0  0
  6  7  1  0  0  0  0
  7  9  2  0  0  0  0
  7 15  1  0  0  0  0
  8 16  1  0  0  0  0
  9 18  1  0  0  0  0
 10 16  1  0  0  0  0
 10 17  2  0  0  0  0
 10 19  1  0  0  0  0
 11 14  1  0  0  0  0
 12 14  1  0  0  0  0
 13 14  1  0  0  0  0
 14 19  1  0  0  0  0
  1 20  1  0  0  0  0
  2 21  1  0  0  0  0
  3 22  1  0  0  0  0
  4 23  1  0  0  0  0
  5 24  1  0  0  0  0
 11 25  1  0  0  0  0
 11 26  1  0  0  0  0
 11 27  1  0  0  0  0
 12 28  1  0  0  0  0
 12 29  1  0  0  0  0
 12 30  1  0  0  0  0
 13 31  1  0  0  0  0
 13 32  1  0  0  0  0
 13 33  1  0  0  0  0
 16 34  1  0  0  0  0
 18 35  1  0  0  0  0
M  END
> <id>
EN300-26664671

> <smiles>
CC(C)(C)OC(=O)NC=1C=C(O)C=2N=CC=CC2C1

> <IUPAC Name>
tert-butyl N-(8-hydroxyquinolin-6-yl)carbamate

> <CAS>
2413897-23-9

> <URL>
https://www.enaminestore.com/catalog/EN300-26664671

> <ROCS_ShapeQuery>
A71EV2A-x0451_0A_A71EV2A-x0310_0A_A71EV2A-x0416_0A_peptide

> <ROCS_TanimotoCombo>
0.514 

> <ROCS_ShapeTanimoto>
0.350 

> <ROCS_ColorTanimoto>
0.165 

> <ROCS_RefTversky>
0.303 

> <ROCS_RefColorTversky>
0.184 

> <ROCS_RefTverskyCombo>
0.487 

> <ROCS_FitTversky>
1.778 

> <ROCS_FitColorTversky>
0.611 

> <ROCS_FitTverskyCombo>
2.388 

> <ROCS_ColorScore>
-5.615

> <ROCS_Overlap>
2105.029

> <ROCS_Rank>
294                 

$$$$
untitled-dbase-87377_362
  -OEChem-11132313473D

 37 38  0     1  0  0  0  0  0999 V2000
    8.0543   13.0344   25.3251 C   0  0  0  0  0  0  0  0  0  0  0  0
    6.9140   12.9308   26.1320 C   0  0  0  0  0  0  0  0  0  0  0  0
    6.6716   10.6257   25.5102 C   0  0  0  0  0  0  0  0  0  0  0  0
    8.5257   11.9378   24.5876 C   0  0  0  0  0  0  0  0  0  0  0  0
    7.8010   10.7323   24.6891 C   0  0  0  0  0  0  0  0  0  0  0  0
    6.2249   11.7281   26.2274 C   0  0  0  0  0  0  0  0  0  0  0  0
    9.3747    8.4713   22.4312 C   0  0  0  0  0  0  0  0  0  0  0  0
   10.4851   13.1345   23.5468 C   0  0  0  0  0  0  0  0  0  0  0  0
   10.1450   10.6765   23.2417 C   0  0  0  0  0  0  0  0  0  0  0  0
    8.9442    9.8284   22.8827 C   0  0  2  0  0  0  0  0  0  0  0  0
   12.2380   15.2046   22.6091 C   0  0  0  0  0  0  0  0  0  0  0  0
   12.1567   14.0175   20.3970 C   0  0  0  0  0  0  0  0  0  0  0  0
   10.0536   14.9760   21.3800 C   0  0  0  0  0  0  0  0  0  0  0  0
   11.3989   14.3202   21.6879 C   0  0  0  0  0  0  0  0  0  0  0  0
    9.7177   11.9767   23.7798 N   0  0  0  0  0  0  0  0  0  0  0  0
   10.4019    8.2297   21.8149 O   0  0  0  0  0  0  0  0  0  0  0  0
   10.5763   14.1111   24.2851 O   0  0  0  0  0  0  0  0  0  0  0  0
    8.1412    9.5776   24.0267 O   0  0  0  0  0  0  0  0  0  0  0  0
    8.4657    7.5345   22.7966 O   0  0  0  0  0  0  0  0  0  0  0  0
   11.1575   13.0725   22.3494 O   0  0  0  0  0  0  0  0  0  0  0  0
    5.1403   11.6319   27.0065 F   0  0  0  0  0  0  0  0  0  0  0  0
    8.5521   13.9960   25.3306 H   0  0  0  0  0  0  0  0  0  0  0  0
    6.5730   13.7950   26.6954 H   0  0  0  0  0  0  0  0  0  0  0  0
    6.1323    9.6849   25.5846 H   0  0  0  0  0  0  0  0  0  0  0  0
   10.7582   10.2029   24.0197 H   0  0  0  0  0  0  0  0  0  0  0  0
   10.7786   10.8071   22.3583 H   0  0  0  0  0  0  0  0  0  0  0  0
    8.3382   10.2761   22.0848 H   0  0  0  0  0  0  0  0  0  0  0  0
   11.6976   15.4242   23.5368 H   0  0  0  0  0  0  0  0  0  0  0  0
   13.1908   14.7302   22.8657 H   0  0  0  0  0  0  0  0  0  0  0  0
   12.4485   16.1714   22.1378 H   0  0  0  0  0  0  0  0  0  0  0  0
   11.5584   13.3832   19.7330 H   0  0  0  0  0  0  0  0  0  0  0  0
   13.0782   13.4623   20.6064 H   0  0  0  0  0  0  0  0  0  0  0  0
   12.4187   14.9336   19.8580 H   0  0  0  0  0  0  0  0  0  0  0  0
    9.4515   14.3418   20.7192 H   0  0  0  0  0  0  0  0  0  0  0  0
    9.4798   15.1670   22.2926 H   0  0  0  0  0  0  0  0  0  0  0  0
   10.1949   15.9261   20.8522 H   0  0  0  0  0  0  0  0  0  0  0  0
    8.7298    6.6352   22.5072 H   0  0  0  0  0  0  0  0  0  0  0  0
  1  2  1  0  0  0  0
  1  4  2  0  0  0  0
  2  6  2  0  0  0  0
  3  5  2  0  0  0  0
  3  6  1  0  0  0  0
  4  5  1  0  0  0  0
  4 15  1  0  0  0  0
  5 18  1  0  0  0  0
  6 21  1  0  0  0  0
  7 10  1  0  0  0  0
  7 16  2  0  0  0  0
  7 19  1  0  0  0  0
  8 15  1  0  0  0  0
  8 17  2  0  0  0  0
  8 20  1  0  0  0  0
  9 10  1  0  0  0  0
  9 15  1  0  0  0  0
 10 18  1  0  0  0  0
 11 14  1  0  0  0  0
 12 14  1  0  0  0  0
 13 14  1  0  0  0  0
 14 20  1  0  0  0  0
  1 22  1  0  0  0  0
  2 23  1  0  0  0  0
  3 24  1  0  0  0  0
  9 25  1  0  0  0  0
  9 26  1  0  0  0  0
 10 27  1  0  0  0  0
 11 28  1  0  0  0  0
 11 29  1  0  0  0  0
 11 30  1  0  0  0  0
 12 31  1  0  0  0  0
 12 32  1  0  0  0  0
 12 33  1  0  0  0  0
 13 34  1  0  0  0  0
 13 35  1  0  0  0  0
 13 36  1  0  0  0  0
 19 37  1  0  0  0  0
M  END
> <id>
EN300-6509716

> <smiles>
CC(C)(C)OC(=O)N1CC(OC=2C=C(F)C=CC12)C(=O)O

> <IUPAC Name>
4-[(tert-butoxy)carbonyl]-7-fluoro-3,4-dihydro-2H-1,4-benzoxazine-2-carboxylic acid

> <CAS>
2248402-68-6

> <URL>
https://www.enaminestore.com/catalog/EN300-6509716

> <ROCS_ShapeQuery>
A71EV2A-x0451_0A_A71EV2A-x0310_0A_A71EV2A-x0416_0A_peptide

> <ROCS_TanimotoCombo>
0.514 

> <ROCS_ShapeTanimoto>
0.370 

> <ROCS_ColorTanimoto>
0.145 

> <ROCS_RefTversky>
0.319 

> <ROCS_RefColorTversky>
0.164 

> <ROCS_RefTverskyCombo>
0.484 

> <ROCS_FitTversky>
1.745 

> <ROCS_FitColorTversky>
0.545 

> <ROCS_FitTverskyCombo>
2.290 

> <ROCS_ColorScore>
-5.017

> <ROCS_Overlap>
2217.974

> <ROCS_Rank>
295                 

$$$$
untitled-dbase-174936_211
  -OEChem-11132313473D

 37 38  0     1  0  0  0  0  0999 V2000
    8.1655   12.8890   24.9823 C   0  0  0  0  0  0  0  0  0  0  0  0
    6.9439   12.8976   25.6595 C   0  0  0  0  0  0  0  0  0  0  0  0
    6.7250   10.4906   25.3905 C   0  0  0  0  0  0  0  0  0  0  0  0
    8.6459   11.6810   24.4997 C   0  0  0  0  0  0  0  0  0  0  0  0
    7.9306   10.4909   24.7070 C   0  0  0  0  0  0  0  0  0  0  0  0
    6.2287   11.7075   25.8614 C   0  0  0  0  0  0  0  0  0  0  0  0
   10.5841   13.6976   23.0208 C   0  0  0  0  0  0  0  0  0  0  0  0
    9.6323   10.0233   23.1685 C   0  0  0  0  0  0  0  0  0  0  0  0
    9.9418   11.3992   23.7907 C   0  0  1  0  0  0  0  0  0  0  0  0
    8.6828    9.3185   24.1504 C   0  0  2  0  0  0  0  0  0  0  0  0
   13.2293   13.8263   21.9547 C   0  0  0  0  0  0  0  0  0  0  0  0
   12.3227   15.5895   20.4126 C   0  0  0  0  0  0  0  0  0  0  0  0
   12.3129   15.9737   22.8946 C   0  0  0  0  0  0  0  0  0  0  0  0
   12.1881   14.9316   21.7842 C   0  0  0  0  0  0  0  0  0  0  0  0
   10.3002   12.3665   22.7658 N   0  0  0  0  0  0  0  0  0  0  0  0
   10.5710   14.2274   24.1270 O   0  0  0  0  0  0  0  0  0  0  0  0
    7.8337    8.4137   23.4732 O   0  0  0  0  0  0  0  0  0  0  0  0
   10.8841   14.3440   21.8547 O   0  0  0  0  0  0  0  0  0  0  0  0
    4.5828   11.7512   26.7926 Br  0  0  0  0  0  0  0  0  0  0  0  0
    8.7209   13.8107   24.8445 H   0  0  0  0  0  0  0  0  0  0  0  0
    6.5601   13.8433   26.0352 H   0  0  0  0  0  0  0  0  0  0  0  0
    6.1885    9.5611   25.5545 H   0  0  0  0  0  0  0  0  0  0  0  0
    9.1363   10.1345   22.1927 H   0  0  0  0  0  0  0  0  0  0  0  0
   10.5401    9.4367   22.9893 H   0  0  0  0  0  0  0  0  0  0  0  0
   10.7642   11.3323   24.5036 H   0  0  0  0  0  0  0  0  0  0  0  0
    9.2279    8.8025   24.9484 H   0  0  0  0  0  0  0  0  0  0  0  0
   13.1360   13.3515   22.9380 H   0  0  0  0  0  0  0  0  0  0  0  0
   13.1280   13.0544   21.1849 H   0  0  0  0  0  0  0  0  0  0  0  0
   14.2451   14.2347   21.9038 H   0  0  0  0  0  0  0  0  0  0  0  0
   11.5775   16.3832   20.2859 H   0  0  0  0  0  0  0  0  0  0  0  0
   12.1398   14.8638   19.6119 H   0  0  0  0  0  0  0  0  0  0  0  0
   13.3179   16.0220   20.2679 H   0  0  0  0  0  0  0  0  0  0  0  0
   11.5662   16.7666   22.7725 H   0  0  0  0  0  0  0  0  0  0  0  0
   12.1822   15.5255   23.8849 H   0  0  0  0  0  0  0  0  0  0  0  0
   13.2927   16.4638   22.8608 H   0  0  0  0  0  0  0  0  0  0  0  0
   10.3452   12.0445   21.7988 H   0  0  0  0  0  0  0  0  0  0  0  0
    8.3913    7.6872   23.1441 H   0  0  0  0  0  0  0  0  0  0  0  0
  1  2  1  0  0  0  0
  1  4  2  0  0  0  0
  2  6  2  0  0  0  0
  3  5  2  0  0  0  0
  3  6  1  0  0  0  0
  4  5  1  0  0  0  0
  4  9  1  0  0  0  0
  5 10  1  0  0  0  0
  6 19  1  0  0  0  0
  7 15  1  0  0  0  0
  7 16  2  0  0  0  0
  7 18  1  0  0  0  0
  8  9  1  0  0  0  0
  8 10  1  0  0  0  0
  9 15  1  0  0  0  0
 10 17  1  0  0  0  0
 11 14  1  0  0  0  0
 12 14  1  0  0  0  0
 13 14  1  0  0  0  0
 14 18  1  0  0  0  0
  1 20  1  0  0  0  0
  2 21  1  0  0  0  0
  3 22  1  0  0  0  0
  8 23  1  0  0  0  0
  8 24  1  0  0  0  0
  9 25  1  0  0  0  0
 10 26  1  0  0  0  0
 11 27  1  0  0  0  0
 11 28  1  0  0  0  0
 11 29  1  0  0  0  0
 12 30  1  0  0  0  0
 12 31  1  0  0  0  0
 12 32  1  0  0  0  0
 13 33  1  0  0  0  0
 13 34  1  0  0  0  0
 13 35  1  0  0  0  0
 15 36  1  0  0  0  0
 17 37  1  0  0  0  0
M  END
> <id>
EN300-43356334

> <smiles>
CC(C)(C)OC(=O)NC1CC(O)C=2C=C(Br)C=CC12

> <IUPAC Name>
tert-butyl N-(5-bromo-3-hydroxy-2,3-dihydro-1H-inden-1-yl)carbamate

> <URL>
https://www.enaminestore.com/catalog/EN300-43356334

> <ROCS_ShapeQuery>
A71EV2A-x0451_0A_A71EV2A-x0310_0A_A71EV2A-x0416_0A_peptide

> <ROCS_TanimotoCombo>
0.514 

> <ROCS_ShapeTanimoto>
0.353 

> <ROCS_ColorTanimoto>
0.161 

> <ROCS_RefTversky>
0.304 

> <ROCS_RefColorTversky>
0.181 

> <ROCS_RefTverskyCombo>
0.485 

> <ROCS_FitTversky>
1.832 

> <ROCS_FitColorTversky>
0.600 

> <ROCS_FitTverskyCombo>
2.432 

> <ROCS_ColorScore>
-5.518

> <ROCS_Overlap>
2109.904

> <ROCS_Rank>
296                 

$$$$
untitled-dbase-153324_115
  -OEChem-11132313473D

 34 35  0     0  0  0  0  0  0999 V2000
    6.4815   12.8809   25.9198 C   0  0  0  0  0  0  0  0  0  0  0  0
    7.6710   13.1569   25.2367 C   0  0  0  0  0  0  0  0  0  0  0  0
    6.6693   10.5164   25.4136 C   0  0  0  0  0  0  0  0  0  0  0  0
    7.8662   10.7776   24.7237 C   0  0  0  0  0  0  0  0  0  0  0  0
    5.9866   11.5820   26.0079 C   0  0  0  0  0  0  0  0  0  0  0  0
    8.3502   12.0823   24.6426 C   0  0  0  0  0  0  0  0  0  0  0  0
    8.8071   10.0056   24.0205 C   0  0  0  0  0  0  0  0  0  0  0  0
    4.7469   11.3290   26.7260 C   0  0  0  0  0  0  0  0  0  0  0  0
   10.3956   13.0347   23.5464 C   0  0  0  0  0  0  0  0  0  0  0  0
   12.3176   14.7523   22.3636 C   0  0  0  0  0  0  0  0  0  0  0  0
   12.0310   13.3469   20.3016 C   0  0  0  0  0  0  0  0  0  0  0  0
   10.0793   14.6346   21.2186 C   0  0  0  0  0  0  0  0  0  0  0  0
   11.3562   13.8712   21.5673 C   0  0  0  0  0  0  0  0  0  0  0  0
    9.8082   10.7308   23.5275 N   0  0  0  0  0  0  0  0  0  0  0  0
    9.5266   12.0024   23.9091 N   0  0  0  0  0  0  0  0  0  0  0  0
    4.0589   12.1860   27.2898 O   0  0  0  0  0  0  0  0  0  0  0  0
   10.5276   14.0255   24.2459 O   0  0  0  0  0  0  0  0  0  0  0  0
    8.8074    8.6829   23.8023 O   0  0  0  0  0  0  0  0  0  0  0  0
    4.4008   10.0127   26.7184 O   0  0  0  0  0  0  0  0  0  0  0  0
   11.0056   12.7395   22.3692 O   0  0  0  0  0  0  0  0  0  0  0  0
    5.9435   13.7039   26.3858 H   0  0  0  0  0  0  0  0  0  0  0  0
    8.0402   14.1745   25.1790 H   0  0  0  0  0  0  0  0  0  0  0  0
    6.2846    9.5024   25.4819 H   0  0  0  0  0  0  0  0  0  0  0  0
   11.8369   15.1306   23.2729 H   0  0  0  0  0  0  0  0  0  0  0  0
   13.2222   14.2060   22.6500 H   0  0  0  0  0  0  0  0  0  0  0  0
   12.6144   15.6324   21.7818 H   0  0  0  0  0  0  0  0  0  0  0  0
   11.3448   12.7141   19.7271 H   0  0  0  0  0  0  0  0  0  0  0  0
   12.8942   12.7191   20.5509 H   0  0  0  0  0  0  0  0  0  0  0  0
   12.3711   14.1638   19.6570 H   0  0  0  0  0  0  0  0  0  0  0  0
    9.3896   14.0028   20.6474 H   0  0  0  0  0  0  0  0  0  0  0  0
    9.5619   14.9868   22.1169 H   0  0  0  0  0  0  0  0  0  0  0  0
   10.3036   15.4997   20.5842 H   0  0  0  0  0  0  0  0  0  0  0  0
    9.5868    8.4076   23.2799 H   0  0  0  0  0  0  0  0  0  0  0  0
    3.5653    9.8317   27.1996 H   0  0  0  0  0  0  0  0  0  0  0  0
  1  2  1  0  0  0  0
  1  5  2  0  0  0  0
  2  6  2  0  0  0  0
  3  4  2  0  0  0  0
  3  5  1  0  0  0  0
  4  6  1  0  0  0  0
  4  7  1  0  0  0  0
  5  8  1  0  0  0  0
  6 15  1  0  0  0  0
  7 14  2  0  0  0  0
  7 18  1  0  0  0  0
  8 16  2  0  0  0  0
  8 19  1  0  0  0  0
  9 15  1  0  0  0  0
  9 17  2  0  0  0  0
  9 20  1  0  0  0  0
 10 13  1  0  0  0  0
 11 13  1  0  0  0  0
 12 13  1  0  0  0  0
 13 20  1  0  0  0  0
 14 15  1  0  0  0  0
  1 21  1  0  0  0  0
  2 22  1  0  0  0  0
  3 23  1  0  0  0  0
 10 24  1  0  0  0  0
 10 25  1  0  0  0  0
 10 26  1  0  0  0  0
 11 27  1  0  0  0  0
 11 28  1  0  0  0  0
 11 29  1  0  0  0  0
 12 30  1  0  0  0  0
 12 31  1  0  0  0  0
 12 32  1  0  0  0  0
 18 33  1  0  0  0  0
 19 34  1  0  0  0  0
M  END
> <id>
EN300-28262797

> <smiles>
CC(C)(C)OC(=O)N1N=C(O)C=2C=C(C=CC12)C(=O)O

> <IUPAC Name>
1-[(tert-butoxy)carbonyl]-3-hydroxy-1H-indazole-5-carboxylic acid

> <CAS>
2680808-71-1

> <URL>
https://www.enaminestore.com/catalog/EN300-28262797

> <ROCS_ShapeQuery>
A71EV2A-x0451_0A_A71EV2A-x0310_0A_A71EV2A-x0416_0A_peptide

> <ROCS_TanimotoCombo>
0.514 

> <ROCS_ShapeTanimoto>
0.345 

> <ROCS_ColorTanimoto>
0.169 

> <ROCS_RefTversky>
0.302 

> <ROCS_RefColorTversky>
0.197 

> <ROCS_RefTverskyCombo>
0.500 

> <ROCS_FitTversky>
1.692 

> <ROCS_FitColorTversky>
0.544 

> <ROCS_FitTverskyCombo>
2.236 

> <ROCS_ColorScore>
-6.046

> <ROCS_Overlap>
2097.825

> <ROCS_Rank>
297                 

$$$$
untitled-dbase-144228_55
  -OEChem-11132313473D

 38 39  0     0  0  0  0  0  0999 V2000
    6.8710   10.5804   25.4890 C   0  0  0  0  0  0  0  0  0  0  0  0
    6.2917   11.6690   26.1323 C   0  0  0  0  0  0  0  0  0  0  0  0
    7.8485   13.1435   25.0139 C   0  0  0  0  0  0  0  0  0  0  0  0
    7.9450   10.7741   24.6073 C   0  0  0  0  0  0  0  0  0  0  0  0
    6.7795   12.9479   25.8947 C   0  0  0  0  0  0  0  0  0  0  0  0
    8.4579   12.0624   24.3557 C   0  0  0  0  0  0  0  0  0  0  0  0
    8.5654    9.5769   23.9903 C   0  0  0  0  0  0  0  0  0  0  0  0
    6.1631   14.0898   26.5523 C   0  0  0  0  0  0  0  0  0  0  0  0
   10.3213   13.4130   23.3670 C   0  0  0  0  0  0  0  0  0  0  0  0
    9.7946    9.7956   23.1552 C   0  0  0  0  0  0  0  0  0  0  0  0
    9.7406   11.1431   22.4663 C   0  0  0  0  0  0  0  0  0  0  0  0
   12.8384   14.6704   22.8102 C   0  0  0  0  0  0  0  0  0  0  0  0
   11.9687   14.9564   20.4712 C   0  0  0  0  0  0  0  0  0  0  0  0
   10.7925   16.0742   22.3882 C   0  0  0  0  0  0  0  0  0  0  0  0
   11.5904   14.8481   21.9467 C   0  0  0  0  0  0  0  0  0  0  0  0
    9.5356   12.2448   23.4186 N   0  0  0  0  0  0  0  0  0  0  0  0
    8.1253    8.4518   24.2036 O   0  0  0  0  0  0  0  0  0  0  0  0
    4.9815   14.4303   26.4365 O   0  0  0  0  0  0  0  0  0  0  0  0
   10.6184   14.1237   24.3244 O   0  0  0  0  0  0  0  0  0  0  0  0
    7.0400   14.7737   27.3372 O   0  0  0  0  0  0  0  0  0  0  0  0
   10.7635   13.6877   22.0963 O   0  0  0  0  0  0  0  0  0  0  0  0
    6.4785    9.5876   25.6930 H   0  0  0  0  0  0  0  0  0  0  0  0
    5.4603   11.5079   26.8135 H   0  0  0  0  0  0  0  0  0  0  0  0
    8.1533   14.1681   24.8245 H   0  0  0  0  0  0  0  0  0  0  0  0
   10.6764    9.7130   23.7998 H   0  0  0  0  0  0  0  0  0  0  0  0
    9.8446    9.0060   22.3974 H   0  0  0  0  0  0  0  0  0  0  0  0
   10.6625   11.2763   21.8931 H   0  0  0  0  0  0  0  0  0  0  0  0
    8.9087   11.1828   21.7512 H   0  0  0  0  0  0  0  0  0  0  0  0
   12.5710   14.5923   23.8701 H   0  0  0  0  0  0  0  0  0  0  0  0
   13.4010   13.7749   22.5266 H   0  0  0  0  0  0  0  0  0  0  0  0
   13.5018   15.5383   22.7219 H   0  0  0  0  0  0  0  0  0  0  0  0
   11.0763   15.0840   19.8479 H   0  0  0  0  0  0  0  0  0  0  0  0
   12.4580   14.0386   20.1254 H   0  0  0  0  0  0  0  0  0  0  0  0
   12.6431   15.7991   20.2878 H   0  0  0  0  0  0  0  0  0  0  0  0
    9.8972   16.2019   21.7690 H   0  0  0  0  0  0  0  0  0  0  0  0
   10.4806   15.9970   23.4348 H   0  0  0  0  0  0  0  0  0  0  0  0
   11.3847   16.9886   22.2678 H   0  0  0  0  0  0  0  0  0  0  0  0
    6.6335   15.5455   27.7861 H   0  0  0  0  0  0  0  0  0  0  0  0
  1  2  1  0  0  0  0
  1  4  2  0  0  0  0
  2  5  2  0  0  0  0
  3  5  1  0  0  0  0
  3  6  2  0  0  0  0
  4  6  1  0  0  0  0
  4  7  1  0  0  0  0
  5  8  1  0  0  0  0
  6 16  1  0  0  0  0
  7 10  1  0  0  0  0
  7 17  2  0  0  0  0
  8 18  2  0  0  0  0
  8 20  1  0  0  0  0
  9 16  1  0  0  0  0
  9 19  2  0  0  0  0
  9 21  1  0  0  0  0
 10 11  1  0  0  0  0
 11 16  1  0  0  0  0
 12 15  1  0  0  0  0
 13 15  1  0  0  0  0
 14 15  1  0  0  0  0
 15 21  1  0  0  0  0
  1 22  1  0  0  0  0
  2 23  1  0  0  0  0
  3 24  1  0  0  0  0
 10 25  1  0  0  0  0
 10 26  1  0  0  0  0
 11 27  1  0  0  0  0
 11 28  1  0  0  0  0
 12 29  1  0  0  0  0
 12 30  1  0  0  0  0
 12 31  1  0  0  0  0
 13 32  1  0  0  0  0
 13 33  1  0  0  0  0
 13 34  1  0  0  0  0
 14 35  1  0  0  0  0
 14 36  1  0  0  0  0
 14 37  1  0  0  0  0
 20 38  1  0  0  0  0
M  END
> <id>
EN300-6508747

> <smiles>
CC(C)(C)OC(=O)N1CCC(=O)C=2C=CC(=CC12)C(=O)O

> <IUPAC Name>
1-[(tert-butoxy)carbonyl]-4-oxo-1,2,3,4-tetrahydroquinoline-7-carboxylic acid

> <CAS>
2248411-90-5

> <URL>
https://www.enaminestore.com/catalog/EN300-6508747

> <ROCS_ShapeQuery>
A71EV2A-x0451_0A_A71EV2A-x0310_0A_A71EV2A-x0416_0A_peptide

> <ROCS_TanimotoCombo>
0.514 

> <ROCS_ShapeTanimoto>
0.360 

> <ROCS_ColorTanimoto>
0.154 

> <ROCS_RefTversky>
0.313 

> <ROCS_RefColorTversky>
0.174 

> <ROCS_RefTverskyCombo>
0.487 

> <ROCS_FitTversky>
1.717 

> <ROCS_FitColorTversky>
0.578 

> <ROCS_FitTverskyCombo>
2.295 

> <ROCS_ColorScore>
-5.314

> <ROCS_Overlap>
2171.143

> <ROCS_Rank>
298                 

$$$$
untitled-dbase-164241_516
  -OEChem-11132313473D

 44 46  0     1  0  0  0  0  0999 V2000
    5.6687   11.1370   26.6247 C   0  0  0  0  0  0  0  0  0  0  0  0
    4.8382   11.3941   27.8183 C   0  0  0  0  0  0  0  0  0  0  0  0
   10.3232   13.1666   23.3508 C   0  0  0  0  0  0  0  0  0  0  0  0
    6.1937   12.2468   25.8094 C   0  0  0  0  0  0  0  0  0  0  0  0
    9.5783    9.7132   24.0947 C   0  0  0  0  0  0  0  0  0  0  0  0
    8.7660    9.9750   22.8104 C   0  0  0  0  0  0  0  0  0  0  0  0
    8.6319   11.4780   25.6882 C   0  0  0  0  0  0  0  0  0  0  0  0
    7.2610   11.9150   23.5310 C   0  0  0  0  0  0  0  0  0  0  0  0
    9.7763   11.0961   24.7253 C   0  0  2  0  0  0  0  0  0  0  0  0
    8.5447   11.4907   22.7867 C   0  0  1  0  0  0  0  0  0  0  0  0
    7.2277   11.4569   25.0133 C   0  0  0  0  0  0  0  0  0  0  0  0
   12.9216   13.4029   22.1845 C   0  0  0  0  0  0  0  0  0  0  0  0
   11.7299   14.2960   20.1617 C   0  0  0  0  0  0  0  0  0  0  0  0
   11.5875   15.5312   22.3440 C   0  0  0  0  0  0  0  0  0  0  0  0
   11.6918   14.1579   21.6821 C   0  0  0  0  0  0  0  0  0  0  0  0
    5.9355    9.9442   26.2221 N   0  0  0  0  0  0  0  0  0  0  0  0
    9.6613   11.9752   23.5741 N   0  0  0  0  0  0  0  0  0  0  0  0
    5.1336   11.0418   28.9388 O   0  0  0  0  0  0  0  0  0  0  0  0
   10.6924   13.9289   24.2412 O   0  0  0  0  0  0  0  0  0  0  0  0
    6.7246   10.0975   25.0549 O   0  0  0  0  0  0  0  0  0  0  0  0
    3.7326   12.0665   27.4497 O   0  0  0  0  0  0  0  0  0  0  0  0
   10.5238   13.4004   22.0173 O   0  0  0  0  0  0  0  0  0  0  0  0
    5.4250   12.7230   25.1975 H   0  0  0  0  0  0  0  0  0  0  0  0
    6.6433   12.9832   26.4833 H   0  0  0  0  0  0  0  0  0  0  0  0
    9.0815    9.0031   24.7626 H   0  0  0  0  0  0  0  0  0  0  0  0
   10.5490    9.2819   23.8214 H   0  0  0  0  0  0  0  0  0  0  0  0
    9.3627    9.6681   21.9430 H   0  0  0  0  0  0  0  0  0  0  0  0
    7.8338    9.4030   22.7848 H   0  0  0  0  0  0  0  0  0  0  0  0
    8.6429   10.7950   26.5446 H   0  0  0  0  0  0  0  0  0  0  0  0
    8.8325   12.4867   26.0691 H   0  0  0  0  0  0  0  0  0  0  0  0
    7.1964   13.0114   23.4836 H   0  0  0  0  0  0  0  0  0  0  0  0
    6.3929   11.5190   22.9867 H   0  0  0  0  0  0  0  0  0  0  0  0
   10.7458   11.1993   25.2193 H   0  0  0  0  0  0  0  0  0  0  0  0
    8.5481   11.8938   21.7683 H   0  0  0  0  0  0  0  0  0  0  0  0
   12.8980   13.3017   23.2754 H   0  0  0  0  0  0  0  0  0  0  0  0
   12.9889   12.4029   21.7438 H   0  0  0  0  0  0  0  0  0  0  0  0
   13.8409   13.9494   21.9446 H   0  0  0  0  0  0  0  0  0  0  0  0
   10.8494   14.8371   19.7969 H   0  0  0  0  0  0  0  0  0  0  0  0
   11.7091   13.3119   19.6798 H   0  0  0  0  0  0  0  0  0  0  0  0
   12.6267   14.8272   19.8267 H   0  0  0  0  0  0  0  0  0  0  0  0
   10.7054   16.0729   21.9838 H   0  0  0  0  0  0  0  0  0  0  0  0
   11.5219   15.4497   23.4338 H   0  0  0  0  0  0  0  0  0  0  0  0
   12.4554   16.1517   22.0928 H   0  0  0  0  0  0  0  0  0  0  0  0
    3.1539   12.2560   28.2188 H   0  0  0  0  0  0  0  0  0  0  0  0
  1  2  1  0  0  0  0
  1  4  1  0  0  0  0
  1 16  2  0  0  0  0
  2 18  2  0  0  0  0
  2 21  1  0  0  0  0
  3 17  1  0  0  0  0
  3 19  2  0  0  0  0
  3 22  1  0  0  0  0
  4 11  1  0  0  0  0
  5  6  1  0  0  0  0
  5  9  1  0  0  0  0
  6 10  1  0  0  0  0
  7  9  1  0  0  0  0
  7 11  1  0  0  0  0
  8 10  1  0  0  0  0
  8 11  1  0  0  0  0
  9 17  1  0  0  0  0
 10 17  1  0  0  0  0
 11 20  1  0  0  0  0
 12 15  1  0  0  0  0
 13 15  1  0  0  0  0
 14 15  1  0  0  0  0
 15 22  1  0  0  0  0
 16 20  1  0  0  0  0
  4 23  1  0  0  0  0
  4 24  1  0  0  0  0
  5 25  1  0  0  0  0
  5 26  1  0  0  0  0
  6 27  1  0  0  0  0
  6 28  1  0  0  0  0
  7 29  1  0  0  0  0
  7 30  1  0  0  0  0
  8 31  1  0  0  0  0
  8 32  1  0  0  0  0
  9 33  1  0  0  0  0
 10 34  1  0  0  0  0
 12 35  1  0  0  0  0
 12 36  1  0  0  0  0
 12 37  1  0  0  0  0
 13 38  1  0  0  0  0
 13 39  1  0  0  0  0
 13 40  1  0  0  0  0
 14 41  1  0  0  0  0
 14 42  1  0  0  0  0
 14 43  1  0  0  0  0
 21 44  1  0  0  0  0
M  END
> <id>
EN300-1083180

> <smiles>
CC(C)(C)OC(=O)N1C2CCC1CC3(CC(=NO3)C(=O)O)C2

> <IUPAC Name>
8-[(tert-butoxy)carbonyl]-3'H-8-azaspiro[bicyclo[3.2.1]octane-3,2'-[1,5]oxazole]-4'-carboxylic acid

> <CAS>
2649078-07-7

> <URL>
https://www.enaminestore.com/catalog/EN300-1083180

> <ROCS_ShapeQuery>
A71EV2A-x0451_0A_A71EV2A-x0310_0A_A71EV2A-x0416_0A_peptide

> <ROCS_TanimotoCombo>
0.514 

> <ROCS_ShapeTanimoto>
0.330 

> <ROCS_ColorTanimoto>
0.184 

> <ROCS_RefTversky>
0.295 

> <ROCS_RefColorTversky>
0.225 

> <ROCS_RefTverskyCombo>
0.520 

> <ROCS_FitTversky>
1.555 

> <ROCS_FitColorTversky>
0.503 

> <ROCS_FitTverskyCombo>
2.058 

> <ROCS_ColorScore>
-6.929

> <ROCS_Overlap>
2049.979

> <ROCS_Rank>
299                 

$$$$
untitled-dbase-154420_23
  -OEChem-11132313473D

 32 33  0     0  0  0  0  0  0999 V2000
    7.0059   10.2942   25.6053 C   0  0  0  0  0  0  0  0  0  0  0  0
    6.4720   11.4773   26.1265 C   0  0  0  0  0  0  0  0  0  0  0  0
    8.0322   12.8298   24.8384 C   0  0  0  0  0  0  0  0  0  0  0  0
    8.5791   11.6503   24.3060 C   0  0  0  0  0  0  0  0  0  0  0  0
    8.0592   10.4214   24.6971 C   0  0  0  0  0  0  0  0  0  0  0  0
    6.9750   12.7245   25.7509 C   0  0  0  0  0  0  0  0  0  0  0  0
    9.6078   11.3217   23.3971 C   0  0  0  0  0  0  0  0  0  0  0  0
   10.8127   13.5150   23.1775 C   0  0  0  0  0  0  0  0  0  0  0  0
   10.9997   16.3457   22.8152 C   0  0  0  0  0  0  0  0  0  0  0  0
   12.1449   15.8066   20.6456 C   0  0  0  0  0  0  0  0  0  0  0  0
    9.7684   15.0845   21.0186 C   0  0  0  0  0  0  0  0  0  0  0  0
   11.1243   15.3328   21.6781 C   0  0  0  0  0  0  0  0  0  0  0  0
    9.7400   10.0055   23.2177 N   0  0  0  0  0  0  0  0  0  0  0  0
    8.7916    9.4871   24.0156 N   0  0  0  0  0  0  0  0  0  0  0  0
   10.4060   12.2450   22.7485 N   0  0  0  0  0  0  0  0  0  0  0  0
   10.5267   14.0563   24.2384 O   0  0  0  0  0  0  0  0  0  0  0  0
   11.6011   14.0956   22.2200 O   0  0  0  0  0  0  0  0  0  0  0  0
    6.2189   14.2973   26.4835 Br  0  0  0  0  0  0  0  0  0  0  0  0
    6.6167    9.3248   25.8956 H   0  0  0  0  0  0  0  0  0  0  0  0
    5.6502   11.4053   26.8360 H   0  0  0  0  0  0  0  0  0  0  0  0
    8.4259   13.7986   24.5444 H   0  0  0  0  0  0  0  0  0  0  0  0
   10.2680   16.0093   23.5584 H   0  0  0  0  0  0  0  0  0  0  0  0
   11.9584   16.5065   23.3191 H   0  0  0  0  0  0  0  0  0  0  0  0
   10.6391   17.3109   22.4414 H   0  0  0  0  0  0  0  0  0  0  0  0
   12.2375   15.0828   19.8279 H   0  0  0  0  0  0  0  0  0  0  0  0
   13.1412   15.8951   21.0938 H   0  0  0  0  0  0  0  0  0  0  0  0
   11.8687   16.7768   20.2202 H   0  0  0  0  0  0  0  0  0  0  0  0
    9.8575   14.3579   20.2029 H   0  0  0  0  0  0  0  0  0  0  0  0
    9.0331   14.7087   21.7374 H   0  0  0  0  0  0  0  0  0  0  0  0
    9.3784   16.0057   20.5709 H   0  0  0  0  0  0  0  0  0  0  0  0
    8.6941    8.4800   24.0499 H   0  0  0  0  0  0  0  0  0  0  0  0
   10.7501   11.9591   21.8193 H   0  0  0  0  0  0  0  0  0  0  0  0
  1  2  1  0  0  0  0
  1  5  2  0  0  0  0
  2  6  2  0  0  0  0
  3  4  2  0  0  0  0
  3  6  1  0  0  0  0
  4  5  1  0  0  0  0
  4  7  1  0  0  0  0
  5 14  1  0  0  0  0
  6 18  1  0  0  0  0
  7 13  2  0  0  0  0
  7 15  1  0  0  0  0
  8 15  1  0  0  0  0
  8 16  2  0  0  0  0
  8 17  1  0  0  0  0
  9 12  1  0  0  0  0
 10 12  1  0  0  0  0
 11 12  1  0  0  0  0
 12 17  1  0  0  0  0
 13 14  1  0  0  0  0
  1 19  1  0  0  0  0
  2 20  1  0  0  0  0
  3 21  1  0  0  0  0
  9 22  1  0  0  0  0
  9 23  1  0  0  0  0
  9 24  1  0  0  0  0
 10 25  1  0  0  0  0
 10 26  1  0  0  0  0
 10 27  1  0  0  0  0
 11 28  1  0  0  0  0
 11 29  1  0  0  0  0
 11 30  1  0  0  0  0
 14 31  1  0  0  0  0
 15 32  1  0  0  0  0
M  END
> <id>
EN300-28292381

> <smiles>
CC(C)(C)OC(=O)NC1=NNC=2C=CC(Br)=CC12

> <IUPAC Name>
tert-butyl N-(5-bromo-1H-indazol-3-yl)carbamate

> <CAS>
2680706-65-2

> <URL>
https://www.enaminestore.com/catalog/EN300-28292381

> <ROCS_ShapeQuery>
A71EV2A-x0451_0A_A71EV2A-x0310_0A_A71EV2A-x0416_0A_peptide

> <ROCS_TanimotoCombo>
0.514 

> <ROCS_ShapeTanimoto>
0.341 

> <ROCS_ColorTanimoto>
0.173 

> <ROCS_RefTversky>
0.295 

> <ROCS_RefColorTversky>
0.192 

> <ROCS_RefTverskyCombo>
0.488 

> <ROCS_FitTversky>
1.813 

> <ROCS_FitColorTversky>
0.638 

> <ROCS_FitTverskyCombo>
2.451 

> <ROCS_ColorScore>
-5.873

> <ROCS_Overlap>
2049.198

> <ROCS_Rank>
300                 

$$$$
untitled-dbase-146871_62
  -OEChem-11132313473D

 36 37  0     0  0  0  0  0  0999 V2000
    7.9560   13.0042   25.2491 C   0  0  0  0  0  0  0  0  0  0  0  0
    6.8215   12.3537   25.7782 C   0  0  0  0  0  0  0  0  0  0  0  0
    8.5467   12.0731   24.4210 C   0  0  0  0  0  0  0  0  0  0  0  0
    5.8324   12.8626   26.6902 C   0  0  0  0  0  0  0  0  0  0  0  0
   10.4460   13.2254   23.4681 C   0  0  0  0  0  0  0  0  0  0  0  0
    9.4365    9.5660   23.4485 C   0  0  0  0  0  0  0  0  0  0  0  0
    7.9638    9.7225   23.8010 C   0  0  0  0  0  0  0  0  0  0  0  0
    9.9877   10.8426   22.8126 C   0  0  0  0  0  0  0  0  0  0  0  0
   13.2626   13.3045   22.9380 C   0  0  0  0  0  0  0  0  0  0  0  0
   12.6211   14.0697   20.6332 C   0  0  0  0  0  0  0  0  0  0  0  0
   12.0252   15.4742   22.6282 C   0  0  0  0  0  0  0  0  0  0  0  0
   12.2205   14.0513   22.1067 C   0  0  0  0  0  0  0  0  0  0  0  0
    6.6871   11.1041   25.3300 N   0  0  0  0  0  0  0  0  0  0  0  0
    7.7473   10.9617   24.5185 N   0  0  0  0  0  0  0  0  0  0  0  0
    9.6766   12.0561   23.5966 N   0  0  0  0  0  0  0  0  0  0  0  0
    5.5642   12.3976   27.8132 O   0  0  0  0  0  0  0  0  0  0  0  0
   10.6443   14.0615   24.3463 O   0  0  0  0  0  0  0  0  0  0  0  0
    5.1707   13.9577   26.2076 O   0  0  0  0  0  0  0  0  0  0  0  0
   10.9731   13.3538   22.2061 O   0  0  0  0  0  0  0  0  0  0  0  0
    8.2802   14.8020   25.6817 Br  0  0  0  0  0  0  0  0  0  0  0  0
   10.0105    9.3449   24.3578 H   0  0  0  0  0  0  0  0  0  0  0  0
    9.5717    8.7169   22.7697 H   0  0  0  0  0  0  0  0  0  0  0  0
    7.3416    9.7648   22.9005 H   0  0  0  0  0  0  0  0  0  0  0  0
    7.6264    8.8933   24.4312 H   0  0  0  0  0  0  0  0  0  0  0  0
   11.0714   10.7324   22.6939 H   0  0  0  0  0  0  0  0  0  0  0  0
    9.5553   10.9887   21.8151 H   0  0  0  0  0  0  0  0  0  0  0  0
   12.9787   13.2891   23.9964 H   0  0  0  0  0  0  0  0  0  0  0  0
   13.3867   12.2718   22.5962 H   0  0  0  0  0  0  0  0  0  0  0  0
   14.2361   13.8055   22.8864 H   0  0  0  0  0  0  0  0  0  0  0  0
   11.8762   14.6045   20.0330 H   0  0  0  0  0  0  0  0  0  0  0  0
   12.6700   13.0520   20.2293 H   0  0  0  0  0  0  0  0  0  0  0  0
   13.5944   14.5486   20.4851 H   0  0  0  0  0  0  0  0  0  0  0  0
   11.2777   16.0100   22.0321 H   0  0  0  0  0  0  0  0  0  0  0  0
   11.7016   15.4795   23.6741 H   0  0  0  0  0  0  0  0  0  0  0  0
   12.9547   16.0494   22.5484 H   0  0  0  0  0  0  0  0  0  0  0  0
    4.4943   14.3131   26.8229 H   0  0  0  0  0  0  0  0  0  0  0  0
  1  2  1  0  0  0  0
  1  3  2  0  0  0  0
  1 20  1  0  0  0  0
  2  4  1  0  0  0  0
  2 13  2  0  0  0  0
  3 14  1  0  0  0  0
  3 15  1  0  0  0  0
  4 16  2  0  0  0  0
  4 18  1  0  0  0  0
  5 15  1  0  0  0  0
  5 17  2  0  0  0  0
  5 19  1  0  0  0  0
  6  7  1  0  0  0  0
  6  8  1  0  0  0  0
  7 14  1  0  0  0  0
  8 15  1  0  0  0  0
  9 12  1  0  0  0  0
 10 12  1  0  0  0  0
 11 12  1  0  0  0  0
 12 19  1  0  0  0  0
 13 14  1  0  0  0  0
  6 21  1  0  0  0  0
  6 22  1  0  0  0  0
  7 23  1  0  0  0  0
  7 24  1  0  0  0  0
  8 25  1  0  0  0  0
  8 26  1  0  0  0  0
  9 27  1  0  0  0  0
  9 28  1  0  0  0  0
  9 29  1  0  0  0  0
 10 30  1  0  0  0  0
 10 31  1  0  0  0  0
 10 32  1  0  0  0  0
 11 33  1  0  0  0  0
 11 34  1  0  0  0  0
 11 35  1  0  0  0  0
 18 36  1  0  0  0  0
M  END
> <id>
EN300-27782990

> <smiles>
CC(C)(C)OC(=O)N1CCCN2N=C(C(=O)O)C(Br)=C12

> <IUPAC Name>
3-bromo-4-[(tert-butoxy)carbonyl]-4H,5H,6H,7H-pyrazolo[1,5-a]pyrimidine-2-carboxylic acid

> <CAS>
2639452-12-1

> <URL>
https://www.enaminestore.com/catalog/EN300-27782990

> <ROCS_ShapeQuery>
A71EV2A-x0451_0A_A71EV2A-x0310_0A_A71EV2A-x0416_0A_peptide

> <ROCS_TanimotoCombo>
0.514 

> <ROCS_ShapeTanimoto>
0.350 

> <ROCS_ColorTanimoto>
0.164 

> <ROCS_RefTversky>
0.305 

> <ROCS_RefColorTversky>
0.188 

> <ROCS_RefTverskyCombo>
0.492 

> <ROCS_FitTversky>
1.738 

> <ROCS_FitColorTversky>
0.565 

> <ROCS_FitTverskyCombo>
2.303 

> <ROCS_ColorScore>
-5.743

> <ROCS_Overlap>
2114.534

> <ROCS_Rank>
301                 

$$$$
untitled-dbase-180727_0
  -OEChem-11132313473D

 31 34  0     0  0  0  0  0  0999 V2000
   12.8389   16.4713   22.3882 C   0  0  0  0  0  0  0  0  0  0  0  0
   12.6937   14.3301   20.5933 C   0  0  0  0  0  0  0  0  0  0  0  0
    8.0980    7.8546   23.8393 C   0  0  0  0  0  0  0  0  0  0  0  0
   12.0466   15.3577   22.6800 C   0  0  0  0  0  0  0  0  0  0  0  0
   11.9683   14.2822   21.7869 C   0  0  0  0  0  0  0  0  0  0  0  0
   13.5582   16.5081   21.1938 C   0  0  0  0  0  0  0  0  0  0  0  0
   13.4862   15.4406   20.2986 C   0  0  0  0  0  0  0  0  0  0  0  0
    7.9658    9.9129   24.3217 C   0  0  0  0  0  0  0  0  0  0  0  0
    9.0938    9.7768   23.5532 C   0  0  0  0  0  0  0  0  0  0  0  0
    9.9717   10.8026   23.1728 C   0  0  0  0  0  0  0  0  0  0  0  0
   11.2641   15.2788   23.9435 C   0  0  0  0  0  0  0  0  0  0  0  0
    7.5912   11.2186   24.8194 C   0  0  0  0  0  0  0  0  0  0  0  0
    9.6179   12.0172   23.6391 C   0  0  0  0  0  0  0  0  0  0  0  0
   10.4678   13.1862   23.3044 C   0  0  0  0  0  0  0  0  0  0  0  0
    7.3422    8.7124   24.5015 N   0  0  0  0  0  0  0  0  0  0  0  0
   10.4946   14.1546   24.1840 N   0  0  0  0  0  0  0  0  0  0  0  0
    9.1817    8.4583   23.2421 N   0  0  0  0  0  0  0  0  0  0  0  0
   11.1651   13.1883   22.1153 N   0  0  0  0  0  0  0  0  0  0  0  0
    8.4861   12.2307   24.4249 N   0  0  0  0  0  0  0  0  0  0  0  0
   11.3284   16.2173   24.7316 O   0  0  0  0  0  0  0  0  0  0  0  0
    6.5961   11.4063   25.5108 O   0  0  0  0  0  0  0  0  0  0  0  0
   14.3330   17.5890   20.9020 O   0  0  0  0  0  0  0  0  0  0  0  0
   14.1778   15.4753   19.1510 F   0  0  0  0  0  0  0  0  0  0  0  0
   12.9043   17.3096   23.0765 H   0  0  0  0  0  0  0  0  0  0  0  0
   12.6475   13.5061   19.8860 H   0  0  0  0  0  0  0  0  0  0  0  0
    7.9222    6.7919   23.7506 H   0  0  0  0  0  0  0  0  0  0  0  0
   10.8466   10.6173   22.5618 H   0  0  0  0  0  0  0  0  0  0  0  0
    9.8933    8.0012   22.6864 H   0  0  0  0  0  0  0  0  0  0  0  0
   11.1144   12.4146   21.4628 H   0  0  0  0  0  0  0  0  0  0  0  0
    8.2947   13.1798   24.7331 H   0  0  0  0  0  0  0  0  0  0  0  0
   14.7680   17.4683   20.0430 H   0  0  0  0  0  0  0  0  0  0  0  0
  1  4  1  0  0  0  0
  1  6  2  0  0  0  0
  2  5  1  0  0  0  0
  2  7  2  0  0  0  0
  3 15  2  0  0  0  0
  3 17  1  0  0  0  0
  4  5  2  0  0  0  0
  4 11  1  0  0  0  0
  5 18  1  0  0  0  0
  6  7  1  0  0  0  0
  6 22  1  0  0  0  0
  7 23  1  0  0  0  0
  8  9  2  0  0  0  0
  8 12  1  0  0  0  0
  8 15  1  0  0  0  0
  9 10  1  0  0  0  0
  9 17  1  0  0  0  0
 10 13  2  0  0  0  0
 11 16  1  0  0  0  0
 11 20  2  0  0  0  0
 12 19  1  0  0  0  0
 12 21  2  0  0  0  0
 13 14  1  0  0  0  0
 13 19  1  0  0  0  0
 14 16  2  0  0  0  0
 14 18  1  0  0  0  0
  1 24  1  0  0  0  0
  2 25  1  0  0  0  0
  3 26  1  0  0  0  0
 10 27  1  0  0  0  0
 17 28  1  0  0  0  0
 18 29  1  0  0  0  0
 19 30  1  0  0  0  0
 22 31  1  0  0  0  0
M  END
> <id>
EN300-39855650

> <smiles>
Cl.OC=1C=C2C(=O)N=C(NC2=CC1F)C3=CC=4NC=NC4C(=O)N3

> <IUPAC Name>
7-fluoro-6-hydroxy-2-{4-oxo-1H,4H,5H-imidazo[4,5-c]pyridin-6-yl}-1,4-dihydroquinazolin-4-one hydrochloride

> <Purity>
95

> <URL>
https://www.enaminestore.com/catalog/EN300-39855650

> <Saltdate>
Cl

> <ROCS_ShapeQuery>
A71EV2A-x0451_0A_A71EV2A-x0310_0A_A71EV2A-x0416_0A_peptide

> <ROCS_TanimotoCombo>
0.514 

> <ROCS_ShapeTanimoto>
0.363 

> <ROCS_ColorTanimoto>
0.151 

> <ROCS_RefTversky>
0.321 

> <ROCS_RefColorTversky>
0.199 

> <ROCS_RefTverskyCombo>
0.519 

> <ROCS_FitTversky>
1.573 

> <ROCS_FitColorTversky>
0.386 

> <ROCS_FitTverskyCombo>
1.959 

> <ROCS_ColorScore>
-6.132

> <ROCS_Overlap>
2228.978

> <ROCS_Rank>
302                 

$$$$
untitled-dbase-155090_18
  -OEChem-11132313473D

 35 36  0     0  0  0  0  0  0999 V2000
   10.9973   10.1444   22.0207 C   0  0  0  0  0  0  0  0  0  0  0  0
    7.8229   13.0724   24.3820 C   0  0  0  0  0  0  0  0  0  0  0  0
    6.7518   13.2046   25.2610 C   0  0  0  0  0  0  0  0  0  0  0  0
    6.7043   10.8068   25.5298 C   0  0  0  0  0  0  0  0  0  0  0  0
    9.2849    9.3003   23.5252 C   0  0  0  0  0  0  0  0  0  0  0  0
    9.9009   10.3713   22.9102 C   0  0  0  0  0  0  0  0  0  0  0  0
    8.3379   11.8016   24.0747 C   0  0  0  0  0  0  0  0  0  0  0  0
    7.7745   10.6454   24.6541 C   0  0  0  0  0  0  0  0  0  0  0  0
    9.4154   11.6397   23.1933 C   0  0  0  0  0  0  0  0  0  0  0  0
    6.1921   12.0702   25.8354 C   0  0  0  0  0  0  0  0  0  0  0  0
   10.6417   13.8322   23.1929 C   0  0  0  0  0  0  0  0  0  0  0  0
   13.2173   13.6849   22.7246 C   0  0  0  0  0  0  0  0  0  0  0  0
   12.9015   15.2171   20.7594 C   0  0  0  0  0  0  0  0  0  0  0  0
   12.8021   16.1397   23.0933 C   0  0  0  0  0  0  0  0  0  0  0  0
   12.5032   14.9323   22.2059 C   0  0  0  0  0  0  0  0  0  0  0  0
   11.8871    9.9603   21.2989 N   0  0  0  0  0  0  0  0  0  0  0  0
    8.2436    9.4132   24.3813 N   0  0  0  0  0  0  0  0  0  0  0  0
   10.0185   12.7520   22.5851 N   0  0  0  0  0  0  0  0  0  0  0  0
   10.7883   14.0284   24.3932 O   0  0  0  0  0  0  0  0  0  0  0  0
   11.0915   14.6905   22.2252 O   0  0  0  0  0  0  0  0  0  0  0  0
    4.5916   12.2513   27.1485 I   0  0  0  0  0  0  0  0  0  0  0  0
    8.2394   13.9779   23.9471 H   0  0  0  0  0  0  0  0  0  0  0  0
    6.3705   14.1982   25.4814 H   0  0  0  0  0  0  0  0  0  0  0  0
    6.2629    9.9195   25.9826 H   0  0  0  0  0  0  0  0  0  0  0  0
    9.6113    8.2786   23.3522 H   0  0  0  0  0  0  0  0  0  0  0  0
   12.9340   13.4770   23.7626 H   0  0  0  0  0  0  0  0  0  0  0  0
   12.9834   12.8044   22.1173 H   0  0  0  0  0  0  0  0  0  0  0  0
   14.3040   13.8274   22.7233 H   0  0  0  0  0  0  0  0  0  0  0  0
   12.3915   16.1113   20.3832 H   0  0  0  0  0  0  0  0  0  0  0  0
   12.6028   14.3921   20.1026 H   0  0  0  0  0  0  0  0  0  0  0  0
   13.9815   15.3662   20.6596 H   0  0  0  0  0  0  0  0  0  0  0  0
   12.2901   17.0346   22.7215 H   0  0  0  0  0  0  0  0  0  0  0  0
   12.4889   15.9672   24.1281 H   0  0  0  0  0  0  0  0  0  0  0  0
   13.8733   16.3717   23.0878 H   0  0  0  0  0  0  0  0  0  0  0  0
    9.9955   12.7680   21.5641 H   0  0  0  0  0  0  0  0  0  0  0  0
  1  6  1  0  0  0  0
  1 16  3  0  0  0  0
  2  3  1  0  0  0  0
  2  7  2  0  0  0  0
  3 10  2  0  0  0  0
  4  8  2  0  0  0  0
  4 10  1  0  0  0  0
  5  6  1  0  0  0  0
  5 17  2  0  0  0  0
  6  9  2  0  0  0  0
  7  8  1  0  0  0  0
  7  9  1  0  0  0  0
  8 17  1  0  0  0  0
  9 18  1  0  0  0  0
 10 21  1  0  0  0  0
 11 18  1  0  0  0  0
 11 19  2  0  0  0  0
 11 20  1  0  0  0  0
 12 15  1  0  0  0  0
 13 15  1  0  0  0  0
 14 15  1  0  0  0  0
 15 20  1  0  0  0  0
  2 22  1  0  0  0  0
  3 23  1  0  0  0  0
  4 24  1  0  0  0  0
  5 25  1  0  0  0  0
 12 26  1  0  0  0  0
 12 27  1  0  0  0  0
 12 28  1  0  0  0  0
 13 29  1  0  0  0  0
 13 30  1  0  0  0  0
 13 31  1  0  0  0  0
 14 32  1  0  0  0  0
 14 33  1  0  0  0  0
 14 34  1  0  0  0  0
 18 35  1  0  0  0  0
M  END
> <id>
EN300-28302951

> <smiles>
CC(C)(C)OC(=O)NC=1C(C#N)=CN=C2C=C(I)C=CC12

> <IUPAC Name>
tert-butyl N-(3-cyano-7-iodoquinolin-4-yl)carbamate

> <CAS>
2680784-13-6

> <URL>
https://www.enaminestore.com/catalog/EN300-28302951

> <ROCS_ShapeQuery>
A71EV2A-x0451_0A_A71EV2A-x0310_0A_A71EV2A-x0416_0A_peptide

> <ROCS_TanimotoCombo>
0.514 

> <ROCS_ShapeTanimoto>
0.360 

> <ROCS_ColorTanimoto>
0.154 

> <ROCS_RefTversky>
0.313 

> <ROCS_RefColorTversky>
0.174 

> <ROCS_RefTverskyCombo>
0.486 

> <ROCS_FitTversky>
1.730 

> <ROCS_FitColorTversky>
0.577 

> <ROCS_FitTverskyCombo>
2.306 

> <ROCS_ColorScore>
-5.299

> <ROCS_Overlap>
2169.974

> <ROCS_Rank>
303                 

$$$$
untitled-dbase-104420_18
  -OEChem-11132313473D

 33 33  0     0  0  0  0  0  0999 V2000
    9.1481   11.4961   23.5953 C   0  0  0  0  0  0  0  0  0  0  0  0
    8.9483   10.1374   23.5805 C   0  0  0  0  0  0  0  0  0  0  0  0
    8.1391   11.9911   24.4430 C   0  0  0  0  0  0  0  0  0  0  0  0
   10.7606   13.3951   23.2712 C   0  0  0  0  0  0  0  0  0  0  0  0
   11.5063   16.0990   22.7128 C   0  0  0  0  0  0  0  0  0  0  0  0
   12.6008   15.1763   20.6488 C   0  0  0  0  0  0  0  0  0  0  0  0
   10.1177   14.9538   20.9535 C   0  0  0  0  0  0  0  0  0  0  0  0
    7.2730    8.6325   24.6963 C   0  0  0  0  0  0  0  0  0  0  0  0
    9.6673    9.0523   22.8851 C   0  0  0  0  0  0  0  0  0  0  0  0
   11.4718   14.9916   21.6605 C   0  0  0  0  0  0  0  0  0  0  0  0
    7.3562   11.0253   24.9313 N   0  0  0  0  0  0  0  0  0  0  0  0
    7.8733    9.9099   24.3885 N   0  0  0  0  0  0  0  0  0  0  0  0
   10.1523   12.2107   22.9032 N   0  0  0  0  0  0  0  0  0  0  0  0
   10.5501   14.0659   24.2743 O   0  0  0  0  0  0  0  0  0  0  0  0
    7.8884   13.2596   24.7971 O   0  0  0  0  0  0  0  0  0  0  0  0
   11.6794   13.7383   22.3128 O   0  0  0  0  0  0  0  0  0  0  0  0
   10.7224    9.4775   22.1175 F   0  0  0  0  0  0  0  0  0  0  0  0
   10.2115    8.1113   23.7226 F   0  0  0  0  0  0  0  0  0  0  0  0
    8.8712    8.3402   22.0255 F   0  0  0  0  0  0  0  0  0  0  0  0
   10.6975   15.9700   23.4408 H   0  0  0  0  0  0  0  0  0  0  0  0
   12.4596   16.1143   23.2511 H   0  0  0  0  0  0  0  0  0  0  0  0
   11.3534   17.0815   22.2517 H   0  0  0  0  0  0  0  0  0  0  0  0
   12.5799   14.3839   19.8919 H   0  0  0  0  0  0  0  0  0  0  0  0
   13.5789   15.1092   21.1389 H   0  0  0  0  0  0  0  0  0  0  0  0
   12.5334   16.1435   20.1402 H   0  0  0  0  0  0  0  0  0  0  0  0
   10.0927   14.1596   20.1987 H   0  0  0  0  0  0  0  0  0  0  0  0
    9.2985   14.7850   21.6600 H   0  0  0  0  0  0  0  0  0  0  0  0
    9.9300   15.8930   20.4206 H   0  0  0  0  0  0  0  0  0  0  0  0
    7.7683    8.2324   25.5849 H   0  0  0  0  0  0  0  0  0  0  0  0
    6.2040    8.7680   24.8829 H   0  0  0  0  0  0  0  0  0  0  0  0
    7.4054    7.9569   23.8467 H   0  0  0  0  0  0  0  0  0  0  0  0
   10.4658   11.8023   22.0259 H   0  0  0  0  0  0  0  0  0  0  0  0
    7.1218   13.3165   25.4012 H   0  0  0  0  0  0  0  0  0  0  0  0
  1  2  2  0  0  0  0
  1  3  1  0  0  0  0
  1 13  1  0  0  0  0
  2  9  1  0  0  0  0
  2 12  1  0  0  0  0
  3 11  2  0  0  0  0
  3 15  1  0  0  0  0
  4 13  1  0  0  0  0
  4 14  2  0  0  0  0
  4 16  1  0  0  0  0
  5 10  1  0  0  0  0
  6 10  1  0  0  0  0
  7 10  1  0  0  0  0
  8 12  1  0  0  0  0
  9 17  1  0  0  0  0
  9 18  1  0  0  0  0
  9 19  1  0  0  0  0
 10 16  1  0  0  0  0
 11 12  1  0  0  0  0
  5 20  1  0  0  0  0
  5 21  1  0  0  0  0
  5 22  1  0  0  0  0
  6 23  1  0  0  0  0
  6 24  1  0  0  0  0
  6 25  1  0  0  0  0
  7 26  1  0  0  0  0
  7 27  1  0  0  0  0
  7 28  1  0  0  0  0
  8 29  1  0  0  0  0
  8 30  1  0  0  0  0
  8 31  1  0  0  0  0
 13 32  1  0  0  0  0
 15 33  1  0  0  0  0
M  END
> <id>
EN300-26664898

> <smiles>
CN1N=C(O)C(NC(=O)OC(C)(C)C)=C1C(F)(F)F

> <IUPAC Name>
tert-butyl N-[3-hydroxy-1-methyl-5-(trifluoromethyl)-1H-pyrazol-4-yl]carbamate

> <CAS>
2413900-03-3

> <URL>
https://www.enaminestore.com/catalog/EN300-26664898

> <ROCS_ShapeQuery>
A71EV2A-x0451_0A_A71EV2A-x0310_0A_A71EV2A-x0416_0A_peptide

> <ROCS_TanimotoCombo>
0.514 

> <ROCS_ShapeTanimoto>
0.351 

> <ROCS_ColorTanimoto>
0.163 

> <ROCS_RefTversky>
0.304 

> <ROCS_RefColorTversky>
0.178 

> <ROCS_RefTverskyCombo>
0.482 

> <ROCS_FitTversky>
1.784 

> <ROCS_FitColorTversky>
0.659 

> <ROCS_FitTverskyCombo>
2.443 

> <ROCS_ColorScore>
-5.432

> <ROCS_Overlap>
2107.981

> <ROCS_Rank>
304                 

$$$$
untitled-dbase-2206_1
  -OEChem-11132313473D

 26 28  0     0  0  0  0  0  0999 V2000
    6.7317   12.3199   25.4060 C   0  0  0  0  0  0  0  0  0  0  0  0
    7.7904   10.7227   24.5502 C   0  0  0  0  0  0  0  0  0  0  0  0
    9.4303    9.5738   23.5057 C   0  0  0  0  0  0  0  0  0  0  0  0
   10.2951   10.7700   23.3300 C   0  0  0  0  0  0  0  0  0  0  0  0
    9.7902   11.9193   23.8050 C   0  0  0  0  0  0  0  0  0  0  0  0
   10.6251   13.1464   23.6978 C   0  0  0  0  0  0  0  0  0  0  0  0
    5.6906   13.0428   26.0719 C   0  0  0  0  0  0  0  0  0  0  0  0
   11.5986   10.6594   22.6286 C   0  0  0  0  0  0  0  0  0  0  0  0
   11.8766   11.9898   21.9609 C   0  0  0  0  0  0  0  0  0  0  0  0
    3.5264   12.8438   27.0997 C   0  0  0  0  0  0  0  0  0  0  0  0
    6.6561   10.9865   25.1666 N   0  0  0  0  0  0  0  0  0  0  0  0
    7.8379   12.9240   24.9835 N   0  0  0  0  0  0  0  0  0  0  0  0
    8.2633    9.5367   24.0715 N   0  0  0  0  0  0  0  0  0  0  0  0
    8.5361   11.9019   24.4262 N   0  0  0  0  0  0  0  0  0  0  0  0
   10.3576   14.1680   24.3214 O   0  0  0  0  0  0  0  0  0  0  0  0
    5.7060   14.2691   26.3189 O   0  0  0  0  0  0  0  0  0  0  0  0
   11.7254   13.0744   22.8972 O   0  0  0  0  0  0  0  0  0  0  0  0
    4.6336   12.2351   26.4264 O   0  0  0  0  0  0  0  0  0  0  0  0
    9.8422    8.6326   23.1050 H   0  0  0  0  0  0  0  0  0  0  0  0
   12.4128   10.4164   23.3193 H   0  0  0  0  0  0  0  0  0  0  0  0
   11.5330    9.8592   21.8827 H   0  0  0  0  0  0  0  0  0  0  0  0
   12.8885   12.0372   21.5409 H   0  0  0  0  0  0  0  0  0  0  0  0
   11.1696   12.1574   21.1423 H   0  0  0  0  0  0  0  0  0  0  0  0
    2.7695   12.0860   27.3163 H   0  0  0  0  0  0  0  0  0  0  0  0
    3.1016   13.6284   26.4686 H   0  0  0  0  0  0  0  0  0  0  0  0
    3.8778   13.2827   28.0365 H   0  0  0  0  0  0  0  0  0  0  0  0
  1  7  1  0  0  0  0
  1 11  1  0  0  0  0
  1 12  2  0  0  0  0
  2 11  2  0  0  0  0
  2 13  1  0  0  0  0
  2 14  1  0  0  0  0
  3  4  1  0  0  0  0
  3 13  2  0  0  0  0
  4  5  2  0  0  0  0
  4  8  1  0  0  0  0
  5  6  1  0  0  0  0
  5 14  1  0  0  0  0
  6 15  2  0  0  0  0
  6 17  1  0  0  0  0
  7 16  2  0  0  0  0
  7 18  1  0  0  0  0
  8  9  1  0  0  0  0
  9 17  1  0  0  0  0
 10 18  1  0  0  0  0
 12 14  1  0  0  0  0
  3 19  1  0  0  0  0
  8 20  1  0  0  0  0
  8 21  1  0  0  0  0
  9 22  1  0  0  0  0
  9 23  1  0  0  0  0
 10 24  1  0  0  0  0
 10 25  1  0  0  0  0
 10 26  1  0  0  0  0
M  END
> <id>
EN300-37525

> <smiles>
COC(=O)C=1N=C2N=CC=3CCOC(=O)C3N2N1

> <MDLNUMBER>
MFCD11099562

> <IUPAC Name>
methyl 13-oxo-12-oxa-2,3,5,7-tetraazatricyclo[7.4.0.0,2,6]trideca-1(9),3,5,7-tetraene-4-carboxylate

> <CAS>
1087792-34-4

> <Purity>
95

> <URL>
https://www.enaminestore.com/catalog/EN300-37525

> <ROCS_ShapeQuery>
A71EV2A-x0451_0A_A71EV2A-x0310_0A_A71EV2A-x0416_0A_peptide

> <ROCS_TanimotoCombo>
0.514 

> <ROCS_ShapeTanimoto>
0.321 

> <ROCS_ColorTanimoto>
0.193 

> <ROCS_RefTversky>
0.284 

> <ROCS_RefColorTversky>
0.211 

> <ROCS_RefTverskyCombo>
0.495 

> <ROCS_FitTversky>
1.674 

> <ROCS_FitColorTversky>
0.697 

> <ROCS_FitTverskyCombo>
2.371 

> <ROCS_ColorScore>
-6.434

> <ROCS_Overlap>
1970.893

> <ROCS_Rank>
305                 

$$$$
untitled-dbase-139006_168
  -OEChem-11132313473D

 39 40  0     0  0  0  0  0  0999 V2000
    6.1548   11.0810   26.4800 C   0  0  0  0  0  0  0  0  0  0  0  0
    6.9422   10.1428   25.8165 C   0  0  0  0  0  0  0  0  0  0  0  0
    6.8829   12.7883   24.9303 C   0  0  0  0  0  0  0  0  0  0  0  0
    6.1287   12.4031   26.0407 C   0  0  0  0  0  0  0  0  0  0  0  0
    7.6813   11.8575   24.2512 C   0  0  0  0  0  0  0  0  0  0  0  0
    7.7163   10.5350   24.7218 C   0  0  0  0  0  0  0  0  0  0  0  0
    5.3035   13.3810   26.7320 C   0  0  0  0  0  0  0  0  0  0  0  0
   10.7785   13.0531   23.5980 C   0  0  0  0  0  0  0  0  0  0  0  0
    8.4490   12.2768   23.0241 C   0  0  0  0  0  0  0  0  0  0  0  0
   10.3529   10.6732   23.0371 C   0  0  0  0  0  0  0  0  0  0  0  0
    9.8598    9.8067   24.1905 C   0  0  0  0  0  0  0  0  0  0  0  0
   12.5559   15.2389   23.0941 C   0  0  0  0  0  0  0  0  0  0  0  0
   13.9198   13.5865   21.7831 C   0  0  0  0  0  0  0  0  0  0  0  0
   11.5757   14.1263   21.0604 C   0  0  0  0  0  0  0  0  0  0  0  0
   12.5166   13.9637   22.2534 C   0  0  0  0  0  0  0  0  0  0  0  0
    9.8891   12.0540   23.1825 N   0  0  0  0  0  0  0  0  0  0  0  0
    5.2368   14.5660   26.3936 O   0  0  0  0  0  0  0  0  0  0  0  0
   10.4776   13.9828   24.3445 O   0  0  0  0  0  0  0  0  0  0  0  0
    8.4512    9.5595   24.0960 O   0  0  0  0  0  0  0  0  0  0  0  0
   12.0336   12.8926   23.0723 O   0  0  0  0  0  0  0  0  0  0  0  0
    5.5633   10.7701   27.3374 H   0  0  0  0  0  0  0  0  0  0  0  0
    6.9561    9.1122   26.1607 H   0  0  0  0  0  0  0  0  0  0  0  0
    6.8434   13.8199   24.5860 H   0  0  0  0  0  0  0  0  0  0  0  0
    4.7124   13.0262   27.6042 H   0  0  0  0  0  0  0  0  0  0  0  0
    8.0971   11.7083   22.1545 H   0  0  0  0  0  0  0  0  0  0  0  0
    8.2620   13.3314   22.7957 H   0  0  0  0  0  0  0  0  0  0  0  0
   11.4471   10.6526   23.0099 H   0  0  0  0  0  0  0  0  0  0  0  0
    9.9818   10.2969   22.0772 H   0  0  0  0  0  0  0  0  0  0  0  0
   10.3460    8.8271   24.1213 H   0  0  0  0  0  0  0  0  0  0  0  0
   10.1380   10.2226   25.1687 H   0  0  0  0  0  0  0  0  0  0  0  0
   11.5506   15.5130   23.4336 H   0  0  0  0  0  0  0  0  0  0  0  0
   13.2000   15.1237   23.9720 H   0  0  0  0  0  0  0  0  0  0  0  0
   12.9242   16.0855   22.5034 H   0  0  0  0  0  0  0  0  0  0  0  0
   13.8963   12.6720   21.1795 H   0  0  0  0  0  0  0  0  0  0  0  0
   14.5741   13.3762   22.6368 H   0  0  0  0  0  0  0  0  0  0  0  0
   14.3739   14.3842   21.1864 H   0  0  0  0  0  0  0  0  0  0  0  0
   11.5473   13.2117   20.4572 H   0  0  0  0  0  0  0  0  0  0  0  0
   10.5554   14.3609   21.3806 H   0  0  0  0  0  0  0  0  0  0  0  0
   11.9242   14.9247   20.3953 H   0  0  0  0  0  0  0  0  0  0  0  0
  1  2  1  0  0  0  0
  1  4  2  0  0  0  0
  2  6  2  0  0  0  0
  3  4  1  0  0  0  0
  3  5  2  0  0  0  0
  4  7  1  0  0  0  0
  5  6  1  0  0  0  0
  5  9  1  0  0  0  0
  6 19  1  0  0  0  0
  7 17  2  0  0  0  0
  8 16  1  0  0  0  0
  8 18  2  0  0  0  0
  8 20  1  0  0  0  0
  9 16  1  0  0  0  0
 10 11  1  0  0  0  0
 10 16  1  0  0  0  0
 11 19  1  0  0  0  0
 12 15  1  0  0  0  0
 13 15  1  0  0  0  0
 14 15  1  0  0  0  0
 15 20  1  0  0  0  0
  1 21  1  0  0  0  0
  2 22  1  0  0  0  0
  3 23  1  0  0  0  0
  7 24  1  0  0  0  0
  9 25  1  0  0  0  0
  9 26  1  0  0  0  0
 10 27  1  0  0  0  0
 10 28  1  0  0  0  0
 11 29  1  0  0  0  0
 11 30  1  0  0  0  0
 12 31  1  0  0  0  0
 12 32  1  0  0  0  0
 12 33  1  0  0  0  0
 13 34  1  0  0  0  0
 13 35  1  0  0  0  0
 13 36  1  0  0  0  0
 14 37  1  0  0  0  0
 14 38  1  0  0  0  0
 14 39  1  0  0  0  0
M  END
> <id>
EN300-1128962

> <smiles>
CC(C)(C)OC(=O)N1CCOC=2C=CC(C=O)=CC2C1

> <MDLNUMBER>
MFCD29055387

> <IUPAC Name>
tert-butyl 7-formyl-2,3,4,5-tetrahydro-1,4-benzoxazepine-4-carboxylate

> <CAS>
1251165-23-7

> <URL>
https://www.enaminestore.com/catalog/EN300-1128962

> <ROCS_ShapeQuery>
A71EV2A-x0451_0A_A71EV2A-x0310_0A_A71EV2A-x0416_0A_peptide

> <ROCS_TanimotoCombo>
0.514 

> <ROCS_ShapeTanimoto>
0.333 

> <ROCS_ColorTanimoto>
0.181 

> <ROCS_RefTversky>
0.293 

> <ROCS_RefColorTversky>
0.190 

> <ROCS_RefTverskyCombo>
0.483 

> <ROCS_FitTversky>
1.678 

> <ROCS_FitColorTversky>
0.793 

> <ROCS_FitTverskyCombo>
2.472 

> <ROCS_ColorScore>
-5.783

> <ROCS_Overlap>
2034.849

> <ROCS_Rank>
306                 

$$$$
untitled-dbase-153207_15
  -OEChem-11132313473D

 35 36  0     0  0  0  0  0  0999 V2000
    6.1539   10.9277   26.4914 C   0  0  0  0  0  0  0  0  0  0  0  0
    7.5041   12.8709   25.5681 C   0  0  0  0  0  0  0  0  0  0  0  0
    7.1270   11.5253   25.6457 C   0  0  0  0  0  0  0  0  0  0  0  0
    7.9098   10.8841   24.7130 C   0  0  0  0  0  0  0  0  0  0  0  0
    9.7423   10.2640   22.7274 C   0  0  0  0  0  0  0  0  0  0  0  0
    9.6392   11.5445   23.1193 C   0  0  0  0  0  0  0  0  0  0  0  0
    8.8452    9.2854   23.4105 C   0  0  0  0  0  0  0  0  0  0  0  0
   10.8061   13.6655   23.2436 C   0  0  0  0  0  0  0  0  0  0  0  0
    8.9515    7.8434   22.9809 C   0  0  0  0  0  0  0  0  0  0  0  0
   12.9268   15.3300   24.1841 C   0  0  0  0  0  0  0  0  0  0  0  0
   12.8643   16.3819   21.9040 C   0  0  0  0  0  0  0  0  0  0  0  0
   10.8530   16.5223   23.4017 C   0  0  0  0  0  0  0  0  0  0  0  0
   12.0486   15.6692   22.9806 C   0  0  0  0  0  0  0  0  0  0  0  0
    5.3591   10.4398   27.1822 N   0  0  0  0  0  0  0  0  0  0  0  0
    8.4541   13.0909   24.6614 N   0  0  0  0  0  0  0  0  0  0  0  0
    7.9863    9.5769   24.3420 N   0  0  0  0  0  0  0  0  0  0  0  0
    8.7123   11.8643   24.1250 N   0  0  0  0  0  0  0  0  0  0  0  0
   10.4062   12.5297   22.5692 N   0  0  0  0  0  0  0  0  0  0  0  0
   10.5360   13.9470   24.4071 O   0  0  0  0  0  0  0  0  0  0  0  0
   11.5604   14.4479   22.4142 O   0  0  0  0  0  0  0  0  0  0  0  0
    7.1287   13.7113   26.1350 H   0  0  0  0  0  0  0  0  0  0  0  0
   10.4282    9.9261   21.9610 H   0  0  0  0  0  0  0  0  0  0  0  0
    9.6946    7.3447   23.5940 H   0  0  0  0  0  0  0  0  0  0  0  0
    9.2450    7.8048   21.9368 H   0  0  0  0  0  0  0  0  0  0  0  0
    7.9857    7.3644   23.1047 H   0  0  0  0  0  0  0  0  0  0  0  0
   12.3451   14.8183   24.9592 H   0  0  0  0  0  0  0  0  0  0  0  0
   13.7687   14.6896   23.9015 H   0  0  0  0  0  0  0  0  0  0  0  0
   13.3247   16.2405   24.6468 H   0  0  0  0  0  0  0  0  0  0  0  0
   12.2381   16.6271   21.0386 H   0  0  0  0  0  0  0  0  0  0  0  0
   13.6672   15.7358   21.5309 H   0  0  0  0  0  0  0  0  0  0  0  0
   13.3111   17.3071   22.2819 H   0  0  0  0  0  0  0  0  0  0  0  0
   10.2229   16.7657   22.5386 H   0  0  0  0  0  0  0  0  0  0  0  0
   10.2353   16.0110   24.1472 H   0  0  0  0  0  0  0  0  0  0  0  0
   11.1852   17.4786   23.8215 H   0  0  0  0  0  0  0  0  0  0  0  0
   10.7011   12.4205   21.6039 H   0  0  0  0  0  0  0  0  0  0  0  0
  1  3  1  0  0  0  0
  1 14  3  0  0  0  0
  2  3  1  0  0  0  0
  2 15  2  0  0  0  0
  3  4  2  0  0  0  0
  4 16  1  0  0  0  0
  4 17  1  0  0  0  0
  5  6  2  0  0  0  0
  5  7  1  0  0  0  0
  6 17  1  0  0  0  0
  6 18  1  0  0  0  0
  7  9  1  0  0  0  0
  7 16  2  0  0  0  0
  8 18  1  0  0  0  0
  8 19  2  0  0  0  0
  8 20  1  0  0  0  0
 10 13  1  0  0  0  0
 11 13  1  0  0  0  0
 12 13  1  0  0  0  0
 13 20  1  0  0  0  0
 15 17  1  0  0  0  0
  2 21  1  0  0  0  0
  5 22  1  0  0  0  0
  9 23  1  0  0  0  0
  9 24  1  0  0  0  0
  9 25  1  0  0  0  0
 10 26  1  0  0  0  0
 10 27  1  0  0  0  0
 10 28  1  0  0  0  0
 11 29  1  0  0  0  0
 11 30  1  0  0  0  0
 11 31  1  0  0  0  0
 12 32  1  0  0  0  0
 12 33  1  0  0  0  0
 12 34  1  0  0  0  0
 18 35  1  0  0  0  0
M  END
> <id>
EN300-28283968

> <smiles>
CC=1C=C(NC(=O)OC(C)(C)C)N2N=CC(C#N)=C2N1

> <IUPAC Name>
tert-butyl N-{3-cyano-5-methylpyrazolo[1,5-a]pyrimidin-7-yl}carbamate

> <CAS>
2680844-46-4

> <URL>
https://www.enaminestore.com/catalog/EN300-28283968

> <ROCS_ShapeQuery>
A71EV2A-x0451_0A_A71EV2A-x0310_0A_A71EV2A-x0416_0A_peptide

> <ROCS_TanimotoCombo>
0.514 

> <ROCS_ShapeTanimoto>
0.349 

> <ROCS_ColorTanimoto>
0.164 

> <ROCS_RefTversky>
0.305 

> <ROCS_RefColorTversky>
0.184 

> <ROCS_RefTverskyCombo>
0.489 

> <ROCS_FitTversky>
1.716 

> <ROCS_FitColorTversky>
0.609 

> <ROCS_FitTverskyCombo>
2.325 

> <ROCS_ColorScore>
-5.607

> <ROCS_Overlap>
2116.531

> <ROCS_Rank>
307                 

$$$$
untitled-dbase-154807_9
  -OEChem-11132313473D

 33 34  0     0  0  0  0  0  0999 V2000
    8.9627   10.4237   23.6816 C   0  0  0  0  0  0  0  0  0  0  0  0
    7.8823    8.6354   24.3133 C   0  0  0  0  0  0  0  0  0  0  0  0
    8.3818   12.6460   24.2872 C   0  0  0  0  0  0  0  0  0  0  0  0
    9.1999   11.8156   23.6259 C   0  0  0  0  0  0  0  0  0  0  0  0
    7.2573   12.0301   25.0498 C   0  0  0  0  0  0  0  0  0  0  0  0
   10.9629   13.4210   23.1897 C   0  0  0  0  0  0  0  0  0  0  0  0
    6.8791    7.7758   24.9676 C   0  0  0  0  0  0  0  0  0  0  0  0
   11.9770   15.9903   22.4664 C   0  0  0  0  0  0  0  0  0  0  0  0
   13.0937   14.8061   20.5533 C   0  0  0  0  0  0  0  0  0  0  0  0
   10.5879   14.8219   20.7229 C   0  0  0  0  0  0  0  0  0  0  0  0
   11.9000   14.8045   21.5058 C   0  0  0  0  0  0  0  0  0  0  0  0
    9.5674    9.3776   23.1563 N   0  0  0  0  0  0  0  0  0  0  0  0
    8.8835    8.2481   23.5565 N   0  0  0  0  0  0  0  0  0  0  0  0
    7.0066   10.7577   25.1248 N   0  0  0  0  0  0  0  0  0  0  0  0
    7.8850    9.9949   24.4254 N   0  0  0  0  0  0  0  0  0  0  0  0
   10.2582   12.2703   22.8967 N   0  0  0  0  0  0  0  0  0  0  0  0
   10.7432   14.1826   24.1265 O   0  0  0  0  0  0  0  0  0  0  0  0
   11.9591   13.5946   22.2697 O   0  0  0  0  0  0  0  0  0  0  0  0
    6.1735   13.0591   25.9198 Cl  0  0  0  0  0  0  0  0  0  0  0  0
    8.4993   13.7229   24.2909 H   0  0  0  0  0  0  0  0  0  0  0  0
    7.2089    7.4738   25.9758 H   0  0  0  0  0  0  0  0  0  0  0  0
    5.9036    8.2819   25.0734 H   0  0  0  0  0  0  0  0  0  0  0  0
    6.6817    6.8548   24.3913 H   0  0  0  0  0  0  0  0  0  0  0  0
   11.1219   15.9927   23.1518 H   0  0  0  0  0  0  0  0  0  0  0  0
   12.8975   15.9703   23.0589 H   0  0  0  0  0  0  0  0  0  0  0  0
   11.9378   16.9395   21.9198 H   0  0  0  0  0  0  0  0  0  0  0  0
   13.0425   13.9569   19.8623 H   0  0  0  0  0  0  0  0  0  0  0  0
   14.0341   14.6981   21.1059 H   0  0  0  0  0  0  0  0  0  0  0  0
   13.1407   15.7288   19.9660 H   0  0  0  0  0  0  0  0  0  0  0  0
   10.5324   13.9714   20.0338 H   0  0  0  0  0  0  0  0  0  0  0  0
    9.7201   14.7839   21.3893 H   0  0  0  0  0  0  0  0  0  0  0  0
   10.5141   15.7249   20.1062 H   0  0  0  0  0  0  0  0  0  0  0  0
   10.5464   11.7287   22.0872 H   0  0  0  0  0  0  0  0  0  0  0  0
  1  4  1  0  0  0  0
  1 12  2  0  0  0  0
  1 15  1  0  0  0  0
  2  7  1  0  0  0  0
  2 13  2  0  0  0  0
  2 15  1  0  0  0  0
  3  4  2  0  0  0  0
  3  5  1  0  0  0  0
  4 16  1  0  0  0  0
  5 14  2  0  0  0  0
  5 19  1  0  0  0  0
  6 16  1  0  0  0  0
  6 17  2  0  0  0  0
  6 18  1  0  0  0  0
  8 11  1  0  0  0  0
  9 11  1  0  0  0  0
 10 11  1  0  0  0  0
 11 18  1  0  0  0  0
 12 13  1  0  0  0  0
 14 15  1  0  0  0  0
  3 20  1  0  0  0  0
  7 21  1  0  0  0  0
  7 22  1  0  0  0  0
  7 23  1  0  0  0  0
  8 24  1  0  0  0  0
  8 25  1  0  0  0  0
  8 26  1  0  0  0  0
  9 27  1  0  0  0  0
  9 28  1  0  0  0  0
  9 29  1  0  0  0  0
 10 30  1  0  0  0  0
 10 31  1  0  0  0  0
 10 32  1  0  0  0  0
 16 33  1  0  0  0  0
M  END
> <id>
EN300-25962006

> <smiles>
CC1=NN=C2C(NC(=O)OC(C)(C)C)=CC(Cl)=NN12

> <MDLNUMBER>
MFCD30530819

> <IUPAC Name>
tert-butyl N-{6-chloro-3-methyl-[1,2,4]triazolo[4,3-b]pyridazin-8-yl}carbamate

> <CAS>
1639116-75-8

> <URL>
https://www.enaminestore.com/catalog/EN300-25962006

> <ROCS_ShapeQuery>
A71EV2A-x0451_0A_A71EV2A-x0310_0A_A71EV2A-x0416_0A_peptide

> <ROCS_TanimotoCombo>
0.513 

> <ROCS_ShapeTanimoto>
0.364 

> <ROCS_ColorTanimoto>
0.150 

> <ROCS_RefTversky>
0.312 

> <ROCS_RefColorTversky>
0.171 

> <ROCS_RefTverskyCombo>
0.483 

> <ROCS_FitTversky>
1.825 

> <ROCS_FitColorTversky>
0.549 

> <ROCS_FitTverskyCombo>
2.373 

> <ROCS_ColorScore>
-5.210

> <ROCS_Overlap>
2168.311

> <ROCS_Rank>
308                 

$$$$
untitled-dbase-153691_30
  -OEChem-11132313473D

 28 29  0     0  0  0  0  0  0999 V2000
    7.8670   13.2796   24.6080 C   0  0  0  0  0  0  0  0  0  0  0  0
    6.2339   11.9215   25.6958 C   0  0  0  0  0  0  0  0  0  0  0  0
    6.6977   13.1811   25.3666 C   0  0  0  0  0  0  0  0  0  0  0  0
    8.5617   12.1354   24.1964 C   0  0  0  0  0  0  0  0  0  0  0  0
    7.9734   10.9380   24.5888 C   0  0  0  0  0  0  0  0  0  0  0  0
    5.9967   14.3721   25.8147 C   0  0  0  0  0  0  0  0  0  0  0  0
   10.5375   13.3683   23.3307 C   0  0  0  0  0  0  0  0  0  0  0  0
   10.1185   10.9761   22.6468 C   0  0  0  0  0  0  0  0  0  0  0  0
   10.2378    9.7676   23.5518 C   0  0  0  0  0  0  0  0  0  0  0  0
   11.3132   13.5941   22.0536 C   0  0  0  0  0  0  0  0  0  0  0  0
    6.8470   10.7838   25.3220 N   0  0  0  0  0  0  0  0  0  0  0  0
    9.7576   12.1986   23.3919 N   0  0  0  0  0  0  0  0  0  0  0  0
    4.9594   14.3839   26.4871 O   0  0  0  0  0  0  0  0  0  0  0  0
   10.6513   14.2011   24.2339 O   0  0  0  0  0  0  0  0  0  0  0  0
    8.8965    8.7139   25.5198 O   0  0  0  0  0  0  0  0  0  0  0  0
    7.8456    8.7691   23.2137 O   0  0  0  0  0  0  0  0  0  0  0  0
    6.6091   15.5204   25.4132 O   0  0  0  0  0  0  0  0  0  0  0  0
   11.0958   12.5886   21.1890 F   0  0  0  0  0  0  0  0  0  0  0  0
   10.9353   14.7444   21.4706 F   0  0  0  0  0  0  0  0  0  0  0  0
   12.6315   13.6595   22.3060 F   0  0  0  0  0  0  0  0  0  0  0  0
    8.6634    9.3695   24.2485 S   0  0  0  0  0  0  0  0  0  0  0  0
    8.2381   14.2771   24.3915 H   0  0  0  0  0  0  0  0  0  0  0  0
    5.3357   11.7837   26.2894 H   0  0  0  0  0  0  0  0  0  0  0  0
   11.0593   11.1808   22.1209 H   0  0  0  0  0  0  0  0  0  0  0  0
    9.3730   10.7414   21.8852 H   0  0  0  0  0  0  0  0  0  0  0  0
   10.6040    8.8954   23.0005 H   0  0  0  0  0  0  0  0  0  0  0  0
   10.9212    9.9637   24.3835 H   0  0  0  0  0  0  0  0  0  0  0  0
    6.1438   16.3308   25.7116 H   0  0  0  0  0  0  0  0  0  0  0  0
  1  3  1  0  0  0  0
  1  4  2  0  0  0  0
  2  3  2  0  0  0  0
  2 11  1  0  0  0  0
  3  6  1  0  0  0  0
  4  5  1  0  0  0  0
  4 12  1  0  0  0  0
  5 11  2  0  0  0  0
  5 21  1  0  0  0  0
  6 13  2  0  0  0  0
  6 17  1  0  0  0  0
  7 10  1  0  0  0  0
  7 12  1  0  0  0  0
  7 14  2  0  0  0  0
  8  9  1  0  0  0  0
  8 12  1  0  0  0  0
  9 21  1  0  0  0  0
 10 18  1  0  0  0  0
 10 19  1  0  0  0  0
 10 20  1  0  0  0  0
 15 21  2  0  0  0  0
 16 21  2  0  0  0  0
  1 22  1  0  0  0  0
  2 23  1  0  0  0  0
  8 24  1  0  0  0  0
  8 25  1  0  0  0  0
  9 26  1  0  0  0  0
  9 27  1  0  0  0  0
 17 28  1  0  0  0  0
M  END
> <id>
EN300-28294471

> <smiles>
OC(=O)C=1C=NC2=C(C1)N(CCS2(=O)=O)C(=O)C(F)(F)F

> <IUPAC Name>
4,4-dioxo-1-(2,2,2-trifluoroacetyl)-1H,2H,3H-4lambda6-pyrido[2,3-b][1,4]thiazine-7-carboxylic acid

> <CAS>
2680741-24-4

> <URL>
https://www.enaminestore.com/catalog/EN300-28294471

> <ROCS_ShapeQuery>
A71EV2A-x0451_0A_A71EV2A-x0310_0A_A71EV2A-x0416_0A_peptide

> <ROCS_TanimotoCombo>
0.513 

> <ROCS_ShapeTanimoto>
0.347 

> <ROCS_ColorTanimoto>
0.166 

> <ROCS_RefTversky>
0.305 

> <ROCS_RefColorTversky>
0.190 

> <ROCS_RefTverskyCombo>
0.495 

> <ROCS_FitTversky>
1.668 

> <ROCS_FitColorTversky>
0.572 

> <ROCS_FitTverskyCombo>
2.240 

> <ROCS_ColorScore>
-5.809

> <ROCS_Overlap>
2115.735

> <ROCS_Rank>
309                 

$$$$
untitled-dbase-104768_13
  -OEChem-11132313473D

 36 37  0     0  0  0  0  0  0999 V2000
    8.3979   12.6876   24.1602 C   0  0  0  0  0  0  0  0  0  0  0  0
    9.1176   10.4668   23.7175 C   0  0  0  0  0  0  0  0  0  0  0  0
    9.3193   11.8242   23.5720 C   0  0  0  0  0  0  0  0  0  0  0  0
    8.0070   10.0201   24.4254 C   0  0  0  0  0  0  0  0  0  0  0  0
    7.3175   12.1416   24.8537 C   0  0  0  0  0  0  0  0  0  0  0  0
   11.0897   13.5273   23.0464 C   0  0  0  0  0  0  0  0  0  0  0  0
    9.9117    9.3268   23.1744 C   0  0  0  0  0  0  0  0  0  0  0  0
    7.9422    8.5197   24.4203 C   0  0  0  0  0  0  0  0  0  0  0  0
    9.3870    8.1667   24.0365 C   0  0  0  0  0  0  0  0  0  0  0  0
   12.0726   16.0297   22.0712 C   0  0  0  0  0  0  0  0  0  0  0  0
   13.2312   14.6748   20.3017 C   0  0  0  0  0  0  0  0  0  0  0  0
   10.7235   14.6660   20.4418 C   0  0  0  0  0  0  0  0  0  0  0  0
   12.0259   14.7507   21.2364 C   0  0  0  0  0  0  0  0  0  0  0  0
    7.0893   10.8143   25.0008 N   0  0  0  0  0  0  0  0  0  0  0  0
   10.4053   12.3278   22.8585 N   0  0  0  0  0  0  0  0  0  0  0  0
   10.8608   14.3839   23.8916 O   0  0  0  0  0  0  0  0  0  0  0  0
    6.4074   12.9927   25.4267 O   0  0  0  0  0  0  0  0  0  0  0  0
   12.0944   13.6263   22.1211 O   0  0  0  0  0  0  0  0  0  0  0  0
    8.5122   13.7647   24.0792 H   0  0  0  0  0  0  0  0  0  0  0  0
    9.6772    9.1698   22.1168 H   0  0  0  0  0  0  0  0  0  0  0  0
   10.9895    9.4590   23.3057 H   0  0  0  0  0  0  0  0  0  0  0  0
    7.6675    8.1127   25.3968 H   0  0  0  0  0  0  0  0  0  0  0  0
    7.2343    8.1808   23.6576 H   0  0  0  0  0  0  0  0  0  0  0  0
    9.4599    7.2008   23.5266 H   0  0  0  0  0  0  0  0  0  0  0  0
    9.9935    8.0958   24.9504 H   0  0  0  0  0  0  0  0  0  0  0  0
   11.2091   16.0879   22.7435 H   0  0  0  0  0  0  0  0  0  0  0  0
   12.9858   16.0858   22.6725 H   0  0  0  0  0  0  0  0  0  0  0  0
   12.0254   16.9172   21.4298 H   0  0  0  0  0  0  0  0  0  0  0  0
   13.2018   13.7587   19.7008 H   0  0  0  0  0  0  0  0  0  0  0  0
   14.1662   14.6396   20.8725 H   0  0  0  0  0  0  0  0  0  0  0  0
   13.2711   15.5332   19.6234 H   0  0  0  0  0  0  0  0  0  0  0  0
   10.6898   13.7486   19.8429 H   0  0  0  0  0  0  0  0  0  0  0  0
    9.8482   14.6818   21.0992 H   0  0  0  0  0  0  0  0  0  0  0  0
   10.6433   15.4998   19.7350 H   0  0  0  0  0  0  0  0  0  0  0  0
   10.7466   11.7366   22.0925 H   0  0  0  0  0  0  0  0  0  0  0  0
    5.7175   12.4811   25.8709 H   0  0  0  0  0  0  0  0  0  0  0  0
  1  3  2  0  0  0  0
  1  5  1  0  0  0  0
  2  3  1  0  0  0  0
  2  4  2  0  0  0  0
  2  7  1  0  0  0  0
  3 15  1  0  0  0  0
  4  8  1  0  0  0  0
  4 14  1  0  0  0  0
  5 14  2  0  0  0  0
  5 17  1  0  0  0  0
  6 15  1  0  0  0  0
  6 16  2  0  0  0  0
  6 18  1  0  0  0  0
  7  9  1  0  0  0  0
  8  9  1  0  0  0  0
 10 13  1  0  0  0  0
 11 13  1  0  0  0  0
 12 13  1  0  0  0  0
 13 18  1  0  0  0  0
  1 19  1  0  0  0  0
  7 20  1  0  0  0  0
  7 21  1  0  0  0  0
  8 22  1  0  0  0  0
  8 23  1  0  0  0  0
  9 24  1  0  0  0  0
  9 25  1  0  0  0  0
 10 26  1  0  0  0  0
 10 27  1  0  0  0  0
 10 28  1  0  0  0  0
 11 29  1  0  0  0  0
 11 30  1  0  0  0  0
 11 31  1  0  0  0  0
 12 32  1  0  0  0  0
 12 33  1  0  0  0  0
 12 34  1  0  0  0  0
 15 35  1  0  0  0  0
 17 36  1  0  0  0  0
M  END
> <id>
EN300-26665259

> <smiles>
CC(C)(C)OC(=O)NC=1C=C(O)N=C2CCCC21

> <IUPAC Name>
tert-butyl N-{2-hydroxy-5H,6H,7H-cyclopenta[b]pyridin-4-yl}carbamate

> <CAS>
2413886-37-8

> <URL>
https://www.enaminestore.com/catalog/EN300-26665259

> <ROCS_ShapeQuery>
A71EV2A-x0451_0A_A71EV2A-x0310_0A_A71EV2A-x0416_0A_peptide

> <ROCS_TanimotoCombo>
0.513 

> <ROCS_ShapeTanimoto>
0.346 

> <ROCS_ColorTanimoto>
0.168 

> <ROCS_RefTversky>
0.299 

> <ROCS_RefColorTversky>
0.187 

> <ROCS_RefTverskyCombo>
0.486 

> <ROCS_FitTversky>
1.833 

> <ROCS_FitColorTversky>
0.619 

> <ROCS_FitTverskyCombo>
2.452 

> <ROCS_ColorScore>
-5.702

> <ROCS_Overlap>
2073.302

> <ROCS_Rank>
310                 

$$$$
untitled-dbase-100053_120
  -OEChem-11132313473D

 36 37  0     0  0  0  0  0  0999 V2000
    6.9890   12.2320   25.7276 C   0  0  0  0  0  0  0  0  0  0  0  0
    8.5840   12.0102   24.3785 C   0  0  0  0  0  0  0  0  0  0  0  0
   10.3753   13.2973   23.4525 C   0  0  0  0  0  0  0  0  0  0  0  0
    9.5664    9.5862   23.2936 C   0  0  0  0  0  0  0  0  0  0  0  0
    8.0987    9.6528   23.7043 C   0  0  0  0  0  0  0  0  0  0  0  0
   10.0415   10.9136   22.6941 C   0  0  0  0  0  0  0  0  0  0  0  0
   12.7818   14.7682   22.9529 C   0  0  0  0  0  0  0  0  0  0  0  0
   12.0450   14.8017   20.5518 C   0  0  0  0  0  0  0  0  0  0  0  0
   10.6371   15.9166   22.3077 C   0  0  0  0  0  0  0  0  0  0  0  0
    6.0926   12.8528   26.7092 C   0  0  0  0  0  0  0  0  0  0  0  0
   11.5823   14.7544   22.0064 C   0  0  0  0  0  0  0  0  0  0  0  0
    8.0531   12.9025   25.1889 N   0  0  0  0  0  0  0  0  0  0  0  0
    6.8184   10.9764   25.3066 N   0  0  0  0  0  0  0  0  0  0  0  0
    7.8474   10.8601   24.4572 N   0  0  0  0  0  0  0  0  0  0  0  0
    9.6893   12.0774   23.5317 N   0  0  0  0  0  0  0  0  0  0  0  0
   10.5290   14.0919   24.3782 O   0  0  0  0  0  0  0  0  0  0  0  0
    5.4717   14.0140   26.1502 O   0  0  0  0  0  0  0  0  0  0  0  0
   10.8690   13.5263   22.1926 O   0  0  0  0  0  0  0  0  0  0  0  0
   10.1855    9.3185   24.1566 H   0  0  0  0  0  0  0  0  0  0  0  0
    9.7000    8.7938   22.5455 H   0  0  0  0  0  0  0  0  0  0  0  0
    7.4480    9.6496   22.8240 H   0  0  0  0  0  0  0  0  0  0  0  0
    7.8303    8.8116   24.3522 H   0  0  0  0  0  0  0  0  0  0  0  0
   11.1332   10.9176   22.5898 H   0  0  0  0  0  0  0  0  0  0  0  0
    9.6147   11.0363   21.6929 H   0  0  0  0  0  0  0  0  0  0  0  0
   12.4539   14.7344   23.9980 H   0  0  0  0  0  0  0  0  0  0  0  0
   13.4495   13.9200   22.7703 H   0  0  0  0  0  0  0  0  0  0  0  0
   13.3586   15.6933   22.8397 H   0  0  0  0  0  0  0  0  0  0  0  0
   11.1876   14.7920   19.8692 H   0  0  0  0  0  0  0  0  0  0  0  0
   12.6464   13.9194   20.3046 H   0  0  0  0  0  0  0  0  0  0  0  0
   12.6415   15.6965   20.3465 H   0  0  0  0  0  0  0  0  0  0  0  0
    9.7767   15.9069   21.6289 H   0  0  0  0  0  0  0  0  0  0  0  0
   10.2658   15.8780   23.3369 H   0  0  0  0  0  0  0  0  0  0  0  0
   11.1407   16.8780   22.1549 H   0  0  0  0  0  0  0  0  0  0  0  0
    5.2858   12.1695   27.0398 H   0  0  0  0  0  0  0  0  0  0  0  0
    6.6264   13.1665   27.6275 H   0  0  0  0  0  0  0  0  0  0  0  0
    4.9742   13.7096   25.3773 H   0  0  0  0  0  0  0  0  0  0  0  0
  1 10  1  0  0  0  0
  1 12  1  0  0  0  0
  1 13  2  0  0  0  0
  2 12  2  0  0  0  0
  2 14  1  0  0  0  0
  2 15  1  0  0  0  0
  3 15  1  0  0  0  0
  3 16  2  0  0  0  0
  3 18  1  0  0  0  0
  4  5  1  0  0  0  0
  4  6  1  0  0  0  0
  5 14  1  0  0  0  0
  6 15  1  0  0  0  0
  7 11  1  0  0  0  0
  8 11  1  0  0  0  0
  9 11  1  0  0  0  0
 10 17  1  0  0  0  0
 11 18  1  0  0  0  0
 13 14  1  0  0  0  0
  4 19  1  0  0  0  0
  4 20  1  0  0  0  0
  5 21  1  0  0  0  0
  5 22  1  0  0  0  0
  6 23  1  0  0  0  0
  6 24  1  0  0  0  0
  7 25  1  0  0  0  0
  7 26  1  0  0  0  0
  7 27  1  0  0  0  0
  8 28  1  0  0  0  0
  8 29  1  0  0  0  0
  8 30  1  0  0  0  0
  9 31  1  0  0  0  0
  9 32  1  0  0  0  0
  9 33  1  0  0  0  0
 10 34  1  0  0  0  0
 10 35  1  0  0  0  0
 17 36  1  0  0  0  0
M  END
> <id>
EN300-37100309

> <smiles>
CC(C)(C)OC(=O)N1CCCN2N=C(CO)N=C12

> <IUPAC Name>
tert-butyl 2-(hydroxymethyl)-4H,5H,6H,7H-[1,2,4]triazolo[1,5-a]pyrimidine-4-carboxylate

> <CAS>
2757955-26-1

> <URL>
https://www.enaminestore.com/catalog/EN300-37100309

> <ROCS_ShapeQuery>
A71EV2A-x0451_0A_A71EV2A-x0310_0A_A71EV2A-x0416_0A_peptide

> <ROCS_TanimotoCombo>
0.513 

> <ROCS_ShapeTanimoto>
0.344 

> <ROCS_ColorTanimoto>
0.169 

> <ROCS_RefTversky>
0.298 

> <ROCS_RefColorTversky>
0.188 

> <ROCS_RefTverskyCombo>
0.487 

> <ROCS_FitTversky>
1.813 

> <ROCS_FitColorTversky>
0.623 

> <ROCS_FitTverskyCombo>
2.437 

> <ROCS_ColorScore>
-5.748

> <ROCS_Overlap>
2068.975

> <ROCS_Rank>
311                 

$$$$
untitled-dbase-118001_185
  -OEChem-11132313473D

 38 39  0     0  0  0  0  0  0999 V2000
    7.9852   13.1703   24.8665 C   0  0  0  0  0  0  0  0  0  0  0  0
    6.3064   11.7815   25.8183 C   0  0  0  0  0  0  0  0  0  0  0  0
    6.8253   13.0437   25.6294 C   0  0  0  0  0  0  0  0  0  0  0  0
    8.6117   12.0475   24.3104 C   0  0  0  0  0  0  0  0  0  0  0  0
    7.9807   10.8154   24.5492 C   0  0  0  0  0  0  0  0  0  0  0  0
    6.1760   14.2095   26.2039 C   0  0  0  0  0  0  0  0  0  0  0  0
   10.6287   13.2744   23.4363 C   0  0  0  0  0  0  0  0  0  0  0  0
    8.5441    9.5366   24.0029 C   0  0  0  0  0  0  0  0  0  0  0  0
    9.2263    9.8097   22.6807 C   0  0  0  0  0  0  0  0  0  0  0  0
   10.2888   10.8786   22.8682 C   0  0  0  0  0  0  0  0  0  0  0  0
   12.5247   15.3395   22.8166 C   0  0  0  0  0  0  0  0  0  0  0  0
   12.5596   14.3595   20.5041 C   0  0  0  0  0  0  0  0  0  0  0  0
   10.4289   15.3204   21.4231 C   0  0  0  0  0  0  0  0  0  0  0  0
   11.7217   14.5797   21.7617 C   0  0  0  0  0  0  0  0  0  0  0  0
    6.8548   10.6684   25.2975 N   0  0  0  0  0  0  0  0  0  0  0  0
    9.8206   12.1157   23.5218 N   0  0  0  0  0  0  0  0  0  0  0  0
    4.9641   14.3217   26.4210 O   0  0  0  0  0  0  0  0  0  0  0  0
   10.7061   14.1777   24.2639 O   0  0  0  0  0  0  0  0  0  0  0  0
    7.0563   15.2069   26.4949 O   0  0  0  0  0  0  0  0  0  0  0  0
   11.3844   13.2900   22.2870 O   0  0  0  0  0  0  0  0  0  0  0  0
    8.3542   14.1764   24.7073 H   0  0  0  0  0  0  0  0  0  0  0  0
    5.4069   11.6171   26.4030 H   0  0  0  0  0  0  0  0  0  0  0  0
    9.2533    9.1221   24.7288 H   0  0  0  0  0  0  0  0  0  0  0  0
    7.7453    8.8001   23.8592 H   0  0  0  0  0  0  0  0  0  0  0  0
    9.6848    8.8909   22.2979 H   0  0  0  0  0  0  0  0  0  0  0  0
    8.4957   10.1409   21.9314 H   0  0  0  0  0  0  0  0  0  0  0  0
   11.1165   10.4924   23.4769 H   0  0  0  0  0  0  0  0  0  0  0  0
   10.7029   11.1264   21.8840 H   0  0  0  0  0  0  0  0  0  0  0  0
   11.9267   15.4996   23.7209 H   0  0  0  0  0  0  0  0  0  0  0  0
   13.4372   14.8016   23.0938 H   0  0  0  0  0  0  0  0  0  0  0  0
   12.8064   16.3341   22.4522 H   0  0  0  0  0  0  0  0  0  0  0  0
   11.9874   13.8147   19.7445 H   0  0  0  0  0  0  0  0  0  0  0  0
   13.4412   13.7468   20.7248 H   0  0  0  0  0  0  0  0  0  0  0  0
   12.8956   15.3073   20.0713 H   0  0  0  0  0  0  0  0  0  0  0  0
    9.8527   14.7756   20.6665 H   0  0  0  0  0  0  0  0  0  0  0  0
    9.7977   15.4549   22.3075 H   0  0  0  0  0  0  0  0  0  0  0  0
   10.6451   16.3065   20.9963 H   0  0  0  0  0  0  0  0  0  0  0  0
    6.6276   15.9987   26.8844 H   0  0  0  0  0  0  0  0  0  0  0  0
  1  3  1  0  0  0  0
  1  4  2  0  0  0  0
  2  3  2  0  0  0  0
  2 15  1  0  0  0  0
  3  6  1  0  0  0  0
  4  5  1  0  0  0  0
  4 16  1  0  0  0  0
  5  8  1  0  0  0  0
  5 15  2  0  0  0  0
  6 17  2  0  0  0  0
  6 19  1  0  0  0  0
  7 16  1  0  0  0  0
  7 18  2  0  0  0  0
  7 20  1  0  0  0  0
  8  9  1  0  0  0  0
  9 10  1  0  0  0  0
 10 16  1  0  0  0  0
 11 14  1  0  0  0  0
 12 14  1  0  0  0  0
 13 14  1  0  0  0  0
 14 20  1  0  0  0  0
  1 21  1  0  0  0  0
  2 22  1  0  0  0  0
  8 23  1  0  0  0  0
  8 24  1  0  0  0  0
  9 25  1  0  0  0  0
  9 26  1  0  0  0  0
 10 27  1  0  0  0  0
 10 28  1  0  0  0  0
 11 29  1  0  0  0  0
 11 30  1  0  0  0  0
 11 31  1  0  0  0  0
 12 32  1  0  0  0  0
 12 33  1  0  0  0  0
 12 34  1  0  0  0  0
 13 35  1  0  0  0  0
 13 36  1  0  0  0  0
 13 37  1  0  0  0  0
 19 38  1  0  0  0  0
M  END
> <id>
EN300-636788

> <smiles>
CC(C)(C)OC(=O)N1CCCC=2N=CC(=CC12)C(=O)O

> <MDLNUMBER>
MFCD22548072

> <IUPAC Name>
5-[(tert-butoxy)carbonyl]-5,6,7,8-tetrahydro-1,5-naphthyridine-3-carboxylic acid

> <CAS>
1393544-49-4

> <URL>
https://www.enaminestore.com/catalog/EN300-636788

> <ROCS_ShapeQuery>
A71EV2A-x0451_0A_A71EV2A-x0310_0A_A71EV2A-x0416_0A_peptide

> <ROCS_TanimotoCombo>
0.513 

> <ROCS_ShapeTanimoto>
0.346 

> <ROCS_ColorTanimoto>
0.168 

> <ROCS_RefTversky>
0.302 

> <ROCS_RefColorTversky>
0.187 

> <ROCS_RefTverskyCombo>
0.489 

> <ROCS_FitTversky>
1.720 

> <ROCS_FitColorTversky>
0.620 

> <ROCS_FitTverskyCombo>
2.340 

> <ROCS_ColorScore>
-5.703

> <ROCS_Overlap>
2096.221

> <ROCS_Rank>
312                 

$$$$
untitled-dbase-154663_2
  -OEChem-11132313473D

 32 33  0     0  0  0  0  0  0999 V2000
    6.9523    9.9158   24.9789 C   0  0  0  0  0  0  0  0  0  0  0  0
    6.0756   10.7770   25.6456 C   0  0  0  0  0  0  0  0  0  0  0  0
    7.4819   12.6915   25.1265 C   0  0  0  0  0  0  0  0  0  0  0  0
    8.1060   10.4519   24.3803 C   0  0  0  0  0  0  0  0  0  0  0  0
    8.3567   11.8209   24.4589 C   0  0  0  0  0  0  0  0  0  0  0  0
    6.3383   12.1429   25.7172 C   0  0  0  0  0  0  0  0  0  0  0  0
    9.1889    9.9342   23.6488 C   0  0  0  0  0  0  0  0  0  0  0  0
   10.2372   13.2234   23.5706 C   0  0  0  0  0  0  0  0  0  0  0  0
   12.6895   14.5963   23.1907 C   0  0  0  0  0  0  0  0  0  0  0  0
   12.3766   14.0968   20.7490 C   0  0  0  0  0  0  0  0  0  0  0  0
   10.6977   15.5193   21.9598 C   0  0  0  0  0  0  0  0  0  0  0  0
   11.6704   14.3471   22.0798 C   0  0  0  0  0  0  0  0  0  0  0  0
   10.0627   10.8695   23.2840 N   0  0  0  0  0  0  0  0  0  0  0  0
    9.5512   12.0243   23.7806 N   0  0  0  0  0  0  0  0  0  0  0  0
    5.4302   12.9957   26.4014 N   0  3  0  0  0  0  0  0  0  0  0  0
    4.4076   12.4957   26.9279 O   0  5  0  0  0  0  0  0  0  0  0  0
   10.1721   14.1386   24.3746 O   0  0  0  0  0  0  0  0  0  0  0  0
    5.6773   14.2240   26.4588 O   0  0  0  0  0  0  0  0  0  0  0  0
   10.9259   13.1685   22.4010 O   0  0  0  0  0  0  0  0  0  0  0  0
    9.4670    7.9435   23.1518 I   0  0  0  0  0  0  0  0  0  0  0  0
    6.7308    8.8537   24.9340 H   0  0  0  0  0  0  0  0  0  0  0  0
    5.1833   10.3608   26.1084 H   0  0  0  0  0  0  0  0  0  0  0  0
    7.6798   13.7567   25.1864 H   0  0  0  0  0  0  0  0  0  0  0  0
   12.1866   14.7764   24.1476 H   0  0  0  0  0  0  0  0  0  0  0  0
   13.3713   13.7480   23.3104 H   0  0  0  0  0  0  0  0  0  0  0  0
   13.2852   15.4921   22.9812 H   0  0  0  0  0  0  0  0  0  0  0  0
   11.6491   13.9175   19.9491 H   0  0  0  0  0  0  0  0  0  0  0  0
   13.0037   13.1996   20.8027 H   0  0  0  0  0  0  0  0  0  0  0  0
   13.0072   14.9439   20.4607 H   0  0  0  0  0  0  0  0  0  0  0  0
    9.9666   15.3408   21.1630 H   0  0  0  0  0  0  0  0  0  0  0  0
   10.1547   15.6903   22.8950 H   0  0  0  0  0  0  0  0  0  0  0  0
   11.2284   16.4402   21.6919 H   0  0  0  0  0  0  0  0  0  0  0  0
  1  2  1  0  0  0  0
  1  4  2  0  0  0  0
  2  6  2  0  0  0  0
  3  5  2  0  0  0  0
  3  6  1  0  0  0  0
  4  5  1  0  0  0  0
  4  7  1  0  0  0  0
  5 14  1  0  0  0  0
  6 15  1  0  0  0  0
  7 13  2  0  0  0  0
  7 20  1  0  0  0  0
  8 14  1  0  0  0  0
  8 17  2  0  0  0  0
  8 19  1  0  0  0  0
  9 12  1  0  0  0  0
 10 12  1  0  0  0  0
 11 12  1  0  0  0  0
 12 19  1  0  0  0  0
 13 14  1  0  0  0  0
 15 16  1  0  0  0  0
 15 18  2  0  0  0  0
  1 21  1  0  0  0  0
  2 22  1  0  0  0  0
  3 23  1  0  0  0  0
  9 24  1  0  0  0  0
  9 25  1  0  0  0  0
  9 26  1  0  0  0  0
 10 27  1  0  0  0  0
 10 28  1  0  0  0  0
 10 29  1  0  0  0  0
 11 30  1  0  0  0  0
 11 31  1  0  0  0  0
 11 32  1  0  0  0  0
M  CHG  2  15   1  16  -1
M  END
> <id>
EN300-7365970

> <smiles>
CC(C)(C)OC(=O)N1N=C(I)C=2C=CC(=CC12)[N+](=O)[O-]

> <MDLNUMBER>
MFCD11976294

> <IUPAC Name>
tert-butyl 3-iodo-6-nitro-1H-indazole-1-carboxylate

> <CAS>
586330-18-9

> <URL>
https://www.enaminestore.com/catalog/EN300-7365970

> <ROCS_ShapeQuery>
A71EV2A-x0451_0A_A71EV2A-x0310_0A_A71EV2A-x0416_0A_peptide

> <ROCS_TanimotoCombo>
0.513 

> <ROCS_ShapeTanimoto>
0.362 

> <ROCS_ColorTanimoto>
0.151 

> <ROCS_RefTversky>
0.313 

> <ROCS_RefColorTversky>
0.171 

> <ROCS_RefTverskyCombo>
0.484 

> <ROCS_FitTversky>
1.770 

> <ROCS_FitColorTversky>
0.567 

> <ROCS_FitTverskyCombo>
2.336 

> <ROCS_ColorScore>
-5.224

> <ROCS_Overlap>
2170.447

> <ROCS_Rank>
313                 

$$$$
untitled-dbase-91483_188
  -OEChem-11132313473D

 46 48  0     1  0  0  0  0  0999 V2000
    5.5101   10.8430   28.1812 C   0  0  0  0  0  0  0  0  0  0  0  0
    6.3820   10.3000   27.2440 C   0  0  0  0  0  0  0  0  0  0  0  0
    5.0762   12.6256   26.6677 C   0  0  0  0  0  0  0  0  0  0  0  0
    4.8408   12.0277   27.8953 C   0  0  0  0  0  0  0  0  0  0  0  0
    6.5483   10.9751   26.0455 C   0  0  0  0  0  0  0  0  0  0  0  0
   10.6206   13.1622   23.6232 C   0  0  0  0  0  0  0  0  0  0  0  0
   10.0287   10.0362   24.4634 C   0  0  0  0  0  0  0  0  0  0  0  0
    8.9571   10.2959   25.5409 C   0  0  0  0  0  0  0  0  0  0  0  0
    8.4247   10.4470   22.6094 C   0  0  0  0  0  0  0  0  0  0  0  0
    8.1648   12.5407   23.6801 C   0  0  0  0  0  0  0  0  0  0  0  0
    7.4943   11.1537   23.6111 C   0  0  2  0  0  0  0  0  0  0  0  0
    9.7822   10.8384   23.1791 C   0  0  1  0  0  0  0  0  0  0  0  0
    7.5017   10.4061   24.9877 C   0  0  2  0  0  0  0  0  0  0  0  0
   12.4142   15.1245   22.5751 C   0  0  0  0  0  0  0  0  0  0  0  0
   13.2306   13.2989   21.0552 C   0  0  0  0  0  0  0  0  0  0  0  0
   10.8438   14.0684   20.9158 C   0  0  0  0  0  0  0  0  0  0  0  0
   12.0376   13.8381   21.8414 C   0  0  0  0  0  0  0  0  0  0  0  0
    5.9157   12.1281   25.7321 N   0  0  0  0  0  0  0  0  0  0  0  0
    9.5870   12.2523   23.4976 N   0  0  0  0  0  0  0  0  0  0  0  0
   10.5975   14.1357   24.3726 O   0  0  0  0  0  0  0  0  0  0  0  0
    6.9984    9.0788   24.7514 O   0  0  0  0  0  0  0  0  0  0  0  0
   11.6778   12.8488   22.8118 O   0  0  0  0  0  0  0  0  0  0  0  0
    3.6516   12.7956   29.1375 Br  0  0  0  0  0  0  0  0  0  0  0  0
    5.3626   10.3323   29.1291 H   0  0  0  0  0  0  0  0  0  0  0  0
    6.9098    9.3759   27.4550 H   0  0  0  0  0  0  0  0  0  0  0  0
    4.5854   13.5518   26.3837 H   0  0  0  0  0  0  0  0  0  0  0  0
   11.0169   10.2730   24.8756 H   0  0  0  0  0  0  0  0  0  0  0  0
   10.0395    8.9660   24.2216 H   0  0  0  0  0  0  0  0  0  0  0  0
    9.0161    9.5007   26.2951 H   0  0  0  0  0  0  0  0  0  0  0  0
    9.2226   11.2283   26.0583 H   0  0  0  0  0  0  0  0  0  0  0  0
    8.2711    9.3663   22.5477 H   0  0  0  0  0  0  0  0  0  0  0  0
    8.2928   10.8627   21.6024 H   0  0  0  0  0  0  0  0  0  0  0  0
    7.8499   13.1757   22.8442 H   0  0  0  0  0  0  0  0  0  0  0  0
    7.9966   13.0842   24.6141 H   0  0  0  0  0  0  0  0  0  0  0  0
    6.4753   11.2139   23.2120 H   0  0  0  0  0  0  0  0  0  0  0  0
   10.6016   10.7038   22.4666 H   0  0  0  0  0  0  0  0  0  0  0  0
   11.5605   15.5147   23.1407 H   0  0  0  0  0  0  0  0  0  0  0  0
   13.2466   14.9646   23.2681 H   0  0  0  0  0  0  0  0  0  0  0  0
   12.7002   15.9097   21.8660 H   0  0  0  0  0  0  0  0  0  0  0  0
   12.9648   12.3760   20.5271 H   0  0  0  0  0  0  0  0  0  0  0  0
   14.0574   13.0428   21.7274 H   0  0  0  0  0  0  0  0  0  0  0  0
   13.5929   14.0262   20.3214 H   0  0  0  0  0  0  0  0  0  0  0  0
   10.5735   13.1459   20.3894 H   0  0  0  0  0  0  0  0  0  0  0  0
    9.9669   14.4205   21.4686 H   0  0  0  0  0  0  0  0  0  0  0  0
   11.0871   14.8059   20.1423 H   0  0  0  0  0  0  0  0  0  0  0  0
    6.0880    9.1824   24.4349 H   0  0  0  0  0  0  0  0  0  0  0  0
  1  2  1  0  0  0  0
  1  4  2  0  0  0  0
  2  5  2  0  0  0  0
  3  4  1  0  0  0  0
  3 18  2  0  0  0  0
  4 23  1  0  0  0  0
  5 13  1  0  0  0  0
  5 18  1  0  0  0  0
  6 19  1  0  0  0  0
  6 20  2  0  0  0  0
  6 22  1  0  0  0  0
  7  8  1  0  0  0  0
  7 12  1  0  0  0  0
  8 13  1  0  0  0  0
  9 11  1  0  0  0  0
  9 12  1  0  0  0  0
 10 11  1  0  0  0  0
 10 19  1  0  0  0  0
 11 13  1  0  0  0  0
 12 19  1  0  0  0  0
 13 21  1  0  0  0  0
 14 17  1  0  0  0  0
 15 17  1  0  0  0  0
 16 17  1  0  0  0  0
 17 22  1  0  0  0  0
  1 24  1  0  0  0  0
  2 25  1  0  0  0  0
  3 26  1  0  0  0  0
  7 27  1  0  0  0  0
  7 28  1  0  0  0  0
  8 29  1  0  0  0  0
  8 30  1  0  0  0  0
  9 31  1  0  0  0  0
  9 32  1  0  0  0  0
 10 33  1  0  0  0  0
 10 34  1  0  0  0  0
 11 35  1  0  0  0  0
 12 36  1  0  0  0  0
 14 37  1  0  0  0  0
 14 38  1  0  0  0  0
 14 39  1  0  0  0  0
 15 40  1  0  0  0  0
 15 41  1  0  0  0  0
 15 42  1  0  0  0  0
 16 43  1  0  0  0  0
 16 44  1  0  0  0  0
 16 45  1  0  0  0  0
 21 46  1  0  0  0  0
M  END
> <id>
EN300-7428886

> <smiles>
CC(C)(C)OC(=O)N1CC2CC1CCC2(O)C=3C=CC(Br)=CN3

> <IUPAC Name>
tert-butyl 2-(5-bromopyridin-2-yl)-2-hydroxy-6-azabicyclo[3.2.1]octane-6-carboxylate

> <CAS>
2309460-70-4

> <URL>
https://www.enaminestore.com/catalog/EN300-7428886

> <ROCS_ShapeQuery>
A71EV2A-x0451_0A_A71EV2A-x0310_0A_A71EV2A-x0416_0A_peptide

> <ROCS_TanimotoCombo>
0.513 

> <ROCS_ShapeTanimoto>
0.334 

> <ROCS_ColorTanimoto>
0.179 

> <ROCS_RefTversky>
0.299 

> <ROCS_RefColorTversky>
0.220 

> <ROCS_RefTverskyCombo>
0.519 

> <ROCS_FitTversky>
1.548 

> <ROCS_FitColorTversky>
0.490 

> <ROCS_FitTverskyCombo>
2.038 

> <ROCS_ColorScore>
-6.754

> <ROCS_Overlap>
2077.719

> <ROCS_Rank>
314                 

$$$$
untitled-dbase-106645_43
  -OEChem-11132313473D

 35 36  0     0  0  0  0  0  0999 V2000
    8.1785   13.6097   24.6982 C   0  0  0  0  0  0  0  0  0  0  0  0
    7.1431   13.8573   25.5682 C   0  0  0  0  0  0  0  0  0  0  0  0
    8.3270   12.2161   24.3893 C   0  0  0  0  0  0  0  0  0  0  0  0
    9.2479   11.5530   23.5557 C   0  0  0  0  0  0  0  0  0  0  0  0
    7.3706   11.4458   25.0574 C   0  0  0  0  0  0  0  0  0  0  0  0
    7.3257   10.0586   24.9055 C   0  0  0  0  0  0  0  0  0  0  0  0
    9.1371   10.1754   23.4585 C   0  0  0  0  0  0  0  0  0  0  0  0
   10.8688   13.4400   23.2056 C   0  0  0  0  0  0  0  0  0  0  0  0
    6.3292    9.1874   25.5940 C   0  0  0  0  0  0  0  0  0  0  0  0
   11.6252   16.1393   22.6387 C   0  0  0  0  0  0  0  0  0  0  0  0
   12.6742   15.2124   20.5531 C   0  0  0  0  0  0  0  0  0  0  0  0
   10.1955   15.0085   20.9032 C   0  0  0  0  0  0  0  0  0  0  0  0
   11.5626   15.0344   21.5850 C   0  0  0  0  0  0  0  0  0  0  0  0
    8.2151    9.4341   24.1028 N   0  0  0  0  0  0  0  0  0  0  0  0
   10.2447   12.2611   22.8465 N   0  0  0  0  0  0  0  0  0  0  0  0
   10.6822   14.1104   24.2137 O   0  0  0  0  0  0  0  0  0  0  0  0
   10.0103    9.4819   22.6591 O   0  0  0  0  0  0  0  0  0  0  0  0
   11.7724   13.7781   22.2310 O   0  0  0  0  0  0  0  0  0  0  0  0
    6.3367   12.4265   26.0255 S   0  0  0  0  0  0  0  0  0  0  0  0
    8.8058   14.3964   24.2974 H   0  0  0  0  0  0  0  0  0  0  0  0
    6.8232   14.8141   25.9556 H   0  0  0  0  0  0  0  0  0  0  0  0
    5.4311    9.0725   24.9752 H   0  0  0  0  0  0  0  0  0  0  0  0
    6.7435    8.1911   25.7951 H   0  0  0  0  0  0  0  0  0  0  0  0
    6.0332    9.6101   26.5627 H   0  0  0  0  0  0  0  0  0  0  0  0
   10.8289   16.0151   23.3813 H   0  0  0  0  0  0  0  0  0  0  0  0
   12.5883   16.1461   23.1594 H   0  0  0  0  0  0  0  0  0  0  0  0
   11.4715   17.1239   22.1824 H   0  0  0  0  0  0  0  0  0  0  0  0
   12.6331   14.4218   19.7951 H   0  0  0  0  0  0  0  0  0  0  0  0
   13.6605   15.1368   21.0248 H   0  0  0  0  0  0  0  0  0  0  0  0
   12.6049   16.1811   20.0477 H   0  0  0  0  0  0  0  0  0  0  0  0
   10.1503   14.2161   20.1474 H   0  0  0  0  0  0  0  0  0  0  0  0
    9.3882   14.8447   21.6243 H   0  0  0  0  0  0  0  0  0  0  0  0
   10.0053   15.9502   20.3756 H   0  0  0  0  0  0  0  0  0  0  0  0
   10.5387   11.8522   21.9628 H   0  0  0  0  0  0  0  0  0  0  0  0
    9.8059    8.5377   22.6963 H   0  0  0  0  0  0  0  0  0  0  0  0
  1  2  2  0  0  0  0
  1  3  1  0  0  0  0
  2 19  1  0  0  0  0
  3  4  1  0  0  0  0
  3  5  2  0  0  0  0
  4  7  2  0  0  0  0
  4 15  1  0  0  0  0
  5  6  1  0  0  0  0
  5 19  1  0  0  0  0
  6  9  1  0  0  0  0
  6 14  2  0  0  0  0
  7 14  1  0  0  0  0
  7 17  1  0  0  0  0
  8 15  1  0  0  0  0
  8 16  2  0  0  0  0
  8 18  1  0  0  0  0
 10 13  1  0  0  0  0
 11 13  1  0  0  0  0
 12 13  1  0  0  0  0
 13 18  1  0  0  0  0
  1 20  1  0  0  0  0
  2 21  1  0  0  0  0
  9 22  1  0  0  0  0
  9 23  1  0  0  0  0
  9 24  1  0  0  0  0
 10 25  1  0  0  0  0
 10 26  1  0  0  0  0
 10 27  1  0  0  0  0
 11 28  1  0  0  0  0
 11 29  1  0  0  0  0
 11 30  1  0  0  0  0
 12 31  1  0  0  0  0
 12 32  1  0  0  0  0
 12 33  1  0  0  0  0
 15 34  1  0  0  0  0
 17 35  1  0  0  0  0
M  END
> <id>
EN300-26664833

> <smiles>
CC=1N=C(O)C(NC(=O)OC(C)(C)C)=C2C=CSC12

> <IUPAC Name>
tert-butyl N-{5-hydroxy-7-methylthieno[2,3-c]pyridin-4-yl}carbamate

> <CAS>
2413876-90-9

> <URL>
https://www.enaminestore.com/catalog/EN300-26664833

> <ROCS_ShapeQuery>
A71EV2A-x0451_0A_A71EV2A-x0310_0A_A71EV2A-x0416_0A_peptide

> <ROCS_TanimotoCombo>
0.513 

> <ROCS_ShapeTanimoto>
0.356 

> <ROCS_ColorTanimoto>
0.157 

> <ROCS_RefTversky>
0.307 

> <ROCS_RefColorTversky>
0.177 

> <ROCS_RefTverskyCombo>
0.484 

> <ROCS_FitTversky>
1.819 

> <ROCS_FitColorTversky>
0.585 

> <ROCS_FitTverskyCombo>
2.404 

> <ROCS_ColorScore>
-5.394

> <ROCS_Overlap>
2129.537

> <ROCS_Rank>
315                 

$$$$
untitled-dbase-104121_48
  -OEChem-11132313473D

 36 38  0     1  0  0  0  0  0999 V2000
   12.9182   14.3734   23.1899 C   0  0  0  0  0  0  0  0  0  0  0  0
    6.6540   13.0596   25.8586 C   0  0  0  0  0  0  0  0  0  0  0  0
    6.3614   11.7958   26.3643 C   0  0  0  0  0  0  0  0  0  0  0  0
    7.5619   13.1993   24.8074 C   0  0  0  0  0  0  0  0  0  0  0  0
    6.9650   10.6691   25.8100 C   0  0  0  0  0  0  0  0  0  0  0  0
    8.1966   12.0764   24.2529 C   0  0  0  0  0  0  0  0  0  0  0  0
    7.8629   10.8058   24.7470 C   0  0  0  0  0  0  0  0  0  0  0  0
   10.1746   13.3218   23.3627 C   0  0  0  0  0  0  0  0  0  0  0  0
    9.9445   10.9237   22.8871 C   0  0  0  0  0  0  0  0  0  0  0  0
    9.8831   14.0813   21.0022 C   0  0  0  0  0  0  0  0  0  0  0  0
    8.9793    9.7536   22.9598 C   0  0  0  0  0  0  0  0  0  0  0  0
   10.6653   14.5278   19.7840 C   0  0  0  0  0  0  0  0  0  0  0  0
   12.4071   15.4039   21.0522 C   0  0  0  0  0  0  0  0  0  0  0  0
   11.8115   14.9257   22.3842 C   0  0  1  0  0  0  0  0  0  0  0  0
    9.1805   12.2275   23.1173 C   0  0  1  0  0  0  0  0  0  0  0  0
   13.7881   13.9393   23.8232 N   0  0  0  0  0  0  0  0  0  0  0  0
   10.6985   13.9611   22.2190 N   0  0  0  0  0  0  0  0  0  0  0  0
   10.4861   13.5961   24.5244 O   0  0  0  0  0  0  0  0  0  0  0  0
    8.3937    9.6382   24.2592 O   0  0  0  0  0  0  0  0  0  0  0  0
   11.3988   15.7047   20.0960 O   0  0  0  0  0  0  0  0  0  0  0  0
    6.1730   13.9383   26.2792 H   0  0  0  0  0  0  0  0  0  0  0  0
    5.6636   11.6885   27.1892 H   0  0  0  0  0  0  0  0  0  0  0  0
    7.7689   14.1936   24.4166 H   0  0  0  0  0  0  0  0  0  0  0  0
    6.7358    9.6863   26.2134 H   0  0  0  0  0  0  0  0  0  0  0  0
   10.7499   10.8028   23.6158 H   0  0  0  0  0  0  0  0  0  0  0  0
   10.3919   10.9496   21.8877 H   0  0  0  0  0  0  0  0  0  0  0  0
    9.0273   14.7611   21.1564 H   0  0  0  0  0  0  0  0  0  0  0  0
    9.4495   13.0778   20.8265 H   0  0  0  0  0  0  0  0  0  0  0  0
    8.1611    9.9123   22.2526 H   0  0  0  0  0  0  0  0  0  0  0  0
    9.4568    8.8051   22.6970 H   0  0  0  0  0  0  0  0  0  0  0  0
   11.3810   13.7545   19.4974 H   0  0  0  0  0  0  0  0  0  0  0  0
   10.0091   14.7129   18.9289 H   0  0  0  0  0  0  0  0  0  0  0  0
   13.0307   16.2959   21.2091 H   0  0  0  0  0  0  0  0  0  0  0  0
   13.0578   14.6330   20.6186 H   0  0  0  0  0  0  0  0  0  0  0  0
   11.4483   15.8181   22.9170 H   0  0  0  0  0  0  0  0  0  0  0  0
    8.6468   12.4724   22.1956 H   0  0  0  0  0  0  0  0  0  0  0  0
  1 14  1  0  0  0  0
  1 16  3  0  0  0  0
  2  3  2  0  0  0  0
  2  4  1  0  0  0  0
  3  5  1  0  0  0  0
  4  6  2  0  0  0  0
  5  7  2  0  0  0  0
  6  7  1  0  0  0  0
  6 15  1  0  0  0  0
  7 19  1  0  0  0  0
  8 15  1  0  0  0  0
  8 17  1  0  0  0  0
  8 18  2  0  0  0  0
  9 11  1  0  0  0  0
  9 15  1  0  0  0  0
 10 12  1  0  0  0  0
 10 17  1  0  0  0  0
 11 19  1  0  0  0  0
 12 20  1  0  0  0  0
 13 14  1  0  0  0  0
 13 20  1  0  0  0  0
 14 17  1  0  0  0  0
  2 21  1  0  0  0  0
  3 22  1  0  0  0  0
  4 23  1  0  0  0  0
  5 24  1  0  0  0  0
  9 25  1  0  0  0  0
  9 26  1  0  0  0  0
 10 27  1  0  0  0  0
 10 28  1  0  0  0  0
 11 29  1  0  0  0  0
 11 30  1  0  0  0  0
 12 31  1  0  0  0  0
 12 32  1  0  0  0  0
 13 33  1  0  0  0  0
 13 34  1  0  0  0  0
 14 35  1  0  0  0  0
 15 36  1  0  0  0  0
M  END
> <id>
EN300-26681181

> <smiles>
O=C(C1CCOC=2C=CC=CC12)N3CCOCC3C#N

> <IUPAC Name>
4-(3,4-dihydro-2H-1-benzopyran-4-carbonyl)morpholine-3-carbonitrile

> <CAS>
1424567-33-8

> <URL>
https://www.enaminestore.com/catalog/EN300-26681181

> <ROCS_ShapeQuery>
A71EV2A-x0451_0A_A71EV2A-x0310_0A_A71EV2A-x0416_0A_peptide

> <ROCS_TanimotoCombo>
0.513 

> <ROCS_ShapeTanimoto>
0.342 

> <ROCS_ColorTanimoto>
0.171 

> <ROCS_RefTversky>
0.300 

> <ROCS_RefColorTversky>
0.185 

> <ROCS_RefTverskyCombo>
0.485 

> <ROCS_FitTversky>
1.702 

> <ROCS_FitColorTversky>
0.686 

> <ROCS_FitTverskyCombo>
2.388 

> <ROCS_ColorScore>
-5.652

> <ROCS_Overlap>
2081.513

> <ROCS_Rank>
316                 

$$$$
untitled-dbase-132012_155
  -OEChem-11132313473D

 41 42  0     0  0  0  0  0  0999 V2000
    9.9584   10.7822   23.2040 C   0  0  0  0  0  0  0  0  0  0  0  0
    9.2003    9.6154   23.3966 C   0  0  0  0  0  0  0  0  0  0  0  0
    9.5493   11.9982   23.7559 C   0  0  0  0  0  0  0  0  0  0  0  0
    8.3798   12.0190   24.4948 C   0  0  0  0  0  0  0  0  0  0  0  0
    7.6234   10.8551   24.6867 C   0  0  0  0  0  0  0  0  0  0  0  0
    8.0209    9.6461   24.1442 C   0  0  0  0  0  0  0  0  0  0  0  0
   10.3417   13.1995   23.5509 C   0  0  0  0  0  0  0  0  0  0  0  0
    5.6378   13.3353   26.5342 C   0  0  0  0  0  0  0  0  0  0  0  0
    7.7351   13.1767   25.1811 C   0  0  0  0  0  0  0  0  0  0  0  0
    6.4173   11.1500   25.5152 C   0  0  0  0  0  0  0  0  0  0  0  0
    3.2318   11.8650   26.0701 C   0  0  0  0  0  0  0  0  0  0  0  0
    3.1231   11.6115   28.5668 C   0  0  0  0  0  0  0  0  0  0  0  0
    3.0149   13.8994   27.5361 C   0  0  0  0  0  0  0  0  0  0  0  0
   11.8298   14.2949   22.0407 C   0  0  0  0  0  0  0  0  0  0  0  0
    3.5991   12.4927   27.4139 C   0  0  0  0  0  0  0  0  0  0  0  0
    6.5367   12.5894   25.7896 N   0  0  0  0  0  0  0  0  0  0  0  0
    7.2666    8.4749   24.3328 N   0  0  0  0  0  0  0  0  0  0  0  0
   10.4082   14.1408   24.3532 O   0  0  0  0  0  0  0  0  0  0  0  0
    5.4145   14.5298   26.3518 O   0  0  0  0  0  0  0  0  0  0  0  0
   11.0107   13.1642   22.3576 O   0  0  0  0  0  0  0  0  0  0  0  0
    5.0256   12.5825   27.5001 O   0  0  0  0  0  0  0  0  0  0  0  0
   10.8722   10.7252   22.6169 H   0  0  0  0  0  0  0  0  0  0  0  0
    9.5456    8.6839   22.9537 H   0  0  0  0  0  0  0  0  0  0  0  0
    8.3628   13.5957   25.9734 H   0  0  0  0  0  0  0  0  0  0  0  0
    7.4273   13.9594   24.4813 H   0  0  0  0  0  0  0  0  0  0  0  0
    5.4848   10.9698   24.9720 H   0  0  0  0  0  0  0  0  0  0  0  0
    6.4228   10.6079   26.4654 H   0  0  0  0  0  0  0  0  0  0  0  0
    3.5718   12.4945   25.2400 H   0  0  0  0  0  0  0  0  0  0  0  0
    3.6737   10.8699   25.9555 H   0  0  0  0  0  0  0  0  0  0  0  0
    2.1445   11.7751   25.9647 H   0  0  0  0  0  0  0  0  0  0  0  0
    3.3845   12.0581   29.5329 H   0  0  0  0  0  0  0  0  0  0  0  0
    3.6130   10.6315   28.5370 H   0  0  0  0  0  0  0  0  0  0  0  0
    2.0394   11.4585   28.5375 H   0  0  0  0  0  0  0  0  0  0  0  0
    3.2783   14.3498   28.4999 H   0  0  0  0  0  0  0  0  0  0  0  0
    3.3749   14.5563   26.7377 H   0  0  0  0  0  0  0  0  0  0  0  0
    1.9200   13.8713   27.4968 H   0  0  0  0  0  0  0  0  0  0  0  0
   12.3043   14.1409   21.0685 H   0  0  0  0  0  0  0  0  0  0  0  0
   12.5916   14.4222   22.8139 H   0  0  0  0  0  0  0  0  0  0  0  0
   11.2021   15.1882   21.9998 H   0  0  0  0  0  0  0  0  0  0  0  0
    6.4483    8.5039   24.9108 H   0  0  0  0  0  0  0  0  0  0  0  0
    7.6062    7.6063   23.9660 H   0  0  0  0  0  0  0  0  0  0  0  0
  1  2  1  0  0  0  0
  1  3  2  0  0  0  0
  2  6  2  0  0  0  0
  3  4  1  0  0  0  0
  3  7  1  0  0  0  0
  4  5  2  0  0  0  0
  4  9  1  0  0  0  0
  5  6  1  0  0  0  0
  5 10  1  0  0  0  0
  6 17  1  0  0  0  0
  7 18  2  0  0  0  0
  7 20  1  0  0  0  0
  8 16  1  0  0  0  0
  8 19  2  0  0  0  0
  8 21  1  0  0  0  0
  9 16  1  0  0  0  0
 10 16  1  0  0  0  0
 11 15  1  0  0  0  0
 12 15  1  0  0  0  0
 13 15  1  0  0  0  0
 14 20  1  0  0  0  0
 15 21  1  0  0  0  0
  1 22  1  0  0  0  0
  2 23  1  0  0  0  0
  9 24  1  0  0  0  0
  9 25  1  0  0  0  0
 10 26  1  0  0  0  0
 10 27  1  0  0  0  0
 11 28  1  0  0  0  0
 11 29  1  0  0  0  0
 11 30  1  0  0  0  0
 12 31  1  0  0  0  0
 12 32  1  0  0  0  0
 12 33  1  0  0  0  0
 13 34  1  0  0  0  0
 13 35  1  0  0  0  0
 13 36  1  0  0  0  0
 14 37  1  0  0  0  0
 14 38  1  0  0  0  0
 14 39  1  0  0  0  0
 17 40  1  0  0  0  0
 17 41  1  0  0  0  0
M  END
> <id>
EN300-1609416

> <smiles>
COC(=O)C=1C=CC(N)=C2CN(CC21)C(=O)OC(C)(C)C

> <IUPAC Name>
2-tert-butyl 4-methyl 7-amino-2,3-dihydro-1H-isoindole-2,4-dicarboxylate

> <CAS>
2172514-14-4

> <URL>
https://www.enaminestore.com/catalog/EN300-1609416

> <ROCS_ShapeQuery>
A71EV2A-x0451_0A_A71EV2A-x0310_0A_A71EV2A-x0416_0A_peptide

> <ROCS_TanimotoCombo>
0.513 

> <ROCS_ShapeTanimoto>
0.337 

> <ROCS_ColorTanimoto>
0.177 

> <ROCS_RefTversky>
0.298 

> <ROCS_RefColorTversky>
0.191 

> <ROCS_RefTverskyCombo>
0.488 

> <ROCS_FitTversky>
1.636 

> <ROCS_FitColorTversky>
0.704 

> <ROCS_FitTverskyCombo>
2.341 

> <ROCS_ColorScore>
-5.812

> <ROCS_Overlap>
2066.345

> <ROCS_Rank>
317                 

$$$$
untitled-dbase-92177_111
  -OEChem-11132313473D

 47 49  0     1  0  0  0  0  0999 V2000
    6.3246   10.3798   27.2778 C   0  0  0  0  0  0  0  0  0  0  0  0
    5.8359   12.2206   25.7913 C   0  0  0  0  0  0  0  0  0  0  0  0
    5.4583   10.9180   28.2292 C   0  0  0  0  0  0  0  0  0  0  0  0
    4.9696   12.7589   26.7428 C   0  0  0  0  0  0  0  0  0  0  0  0
    6.5135   11.0311   26.0588 C   0  0  0  0  0  0  0  0  0  0  0  0
    4.7808   12.1076   27.9617 C   0  0  0  0  0  0  0  0  0  0  0  0
   10.6169   13.1477   23.6264 C   0  0  0  0  0  0  0  0  0  0  0  0
    9.9917   10.0387   24.5047 C   0  0  0  0  0  0  0  0  0  0  0  0
    8.9180   10.3226   25.5738 C   0  0  0  0  0  0  0  0  0  0  0  0
    8.3998   10.4403   22.6383 C   0  0  0  0  0  0  0  0  0  0  0  0
    8.1551   12.5502   23.6804 C   0  0  0  0  0  0  0  0  0  0  0  0
    7.4717   11.1687   23.6265 C   0  0  2  0  0  0  0  0  0  0  0  0
    9.7584   10.8263   23.2089 C   0  0  1  0  0  0  0  0  0  0  0  0
    7.4660   10.4392   25.0127 C   0  0  2  0  0  0  0  0  0  0  0  0
   13.0474   14.6486   23.5489 C   0  0  0  0  0  0  0  0  0  0  0  0
   13.5858   13.3205   21.4860 C   0  0  0  0  0  0  0  0  0  0  0  0
   11.5764   14.8271   21.5144 C   0  0  0  0  0  0  0  0  0  0  0  0
   12.4677   13.9057   22.3460 C   0  0  0  0  0  0  0  0  0  0  0  0
    9.5753   12.2460   23.5080 N   0  0  0  0  0  0  0  0  0  0  0  0
   10.5997   14.1311   24.3629 O   0  0  0  0  0  0  0  0  0  0  0  0
    6.9512    9.1138   24.7916 O   0  0  0  0  0  0  0  0  0  0  0  0
   11.6746   12.8137   22.8239 O   0  0  0  0  0  0  0  0  0  0  0  0
    3.6076   12.8365   29.2516 Br  0  0  0  0  0  0  0  0  0  0  0  0
    6.8483    9.4524   27.4947 H   0  0  0  0  0  0  0  0  0  0  0  0
    5.9776   12.7354   24.8447 H   0  0  0  0  0  0  0  0  0  0  0  0
    5.3232   10.3984   29.1745 H   0  0  0  0  0  0  0  0  0  0  0  0
    4.4491   13.6863   26.5187 H   0  0  0  0  0  0  0  0  0  0  0  0
   10.9803   10.2715   24.9182 H   0  0  0  0  0  0  0  0  0  0  0  0
    9.9934    8.9654   24.2769 H   0  0  0  0  0  0  0  0  0  0  0  0
    8.9661    9.5368   26.3386 H   0  0  0  0  0  0  0  0  0  0  0  0
    9.1900   11.2591   26.0802 H   0  0  0  0  0  0  0  0  0  0  0  0
    8.2361    9.3603   22.5900 H   0  0  0  0  0  0  0  0  0  0  0  0
    8.2762   10.8439   21.6254 H   0  0  0  0  0  0  0  0  0  0  0  0
    7.8498   13.1771   22.8349 H   0  0  0  0  0  0  0  0  0  0  0  0
    7.9880   13.1075   24.6064 H   0  0  0  0  0  0  0  0  0  0  0  0
    6.4551   11.2334   23.2221 H   0  0  0  0  0  0  0  0  0  0  0  0
   10.5796   10.6746   22.5019 H   0  0  0  0  0  0  0  0  0  0  0  0
   12.2480   15.0701   24.1687 H   0  0  0  0  0  0  0  0  0  0  0  0
   13.6604   13.9899   24.1726 H   0  0  0  0  0  0  0  0  0  0  0  0
   13.6661   15.4935   23.2256 H   0  0  0  0  0  0  0  0  0  0  0  0
   13.1744   12.7866   20.6217 H   0  0  0  0  0  0  0  0  0  0  0  0
   14.1705   12.5867   22.0524 H   0  0  0  0  0  0  0  0  0  0  0  0
   14.2648   14.0983   21.1219 H   0  0  0  0  0  0  0  0  0  0  0  0
   11.1605   14.2945   20.6515 H   0  0  0  0  0  0  0  0  0  0  0  0
   10.7468   15.2274   22.1061 H   0  0  0  0  0  0  0  0  0  0  0  0
   12.1533   15.6670   21.1107 H   0  0  0  0  0  0  0  0  0  0  0  0
    6.0433    9.2218   24.4696 H   0  0  0  0  0  0  0  0  0  0  0  0
  1  3  1  0  0  0  0
  1  5  2  0  0  0  0
  2  4  2  0  0  0  0
  2  5  1  0  0  0  0
  3  6  2  0  0  0  0
  4  6  1  0  0  0  0
  5 14  1  0  0  0  0
  6 23  1  0  0  0  0
  7 19  1  0  0  0  0
  7 20  2  0  0  0  0
  7 22  1  0  0  0  0
  8  9  1  0  0  0  0
  8 13  1  0  0  0  0
  9 14  1  0  0  0  0
 10 12  1  0  0  0  0
 10 13  1  0  0  0  0
 11 12  1  0  0  0  0
 11 19  1  0  0  0  0
 12 14  1  0  0  0  0
 13 19  1  0  0  0  0
 14 21  1  0  0  0  0
 15 18  1  0  0  0  0
 16 18  1  0  0  0  0
 17 18  1  0  0  0  0
 18 22  1  0  0  0  0
  1 24  1  0  0  0  0
  2 25  1  0  0  0  0
  3 26  1  0  0  0  0
  4 27  1  0  0  0  0
  8 28  1  0  0  0  0
  8 29  1  0  0  0  0
  9 30  1  0  0  0  0
  9 31  1  0  0  0  0
 10 32  1  0  0  0  0
 10 33  1  0  0  0  0
 11 34  1  0  0  0  0
 11 35  1  0  0  0  0
 12 36  1  0  0  0  0
 13 37  1  0  0  0  0
 15 38  1  0  0  0  0
 15 39  1  0  0  0  0
 15 40  1  0  0  0  0
 16 41  1  0  0  0  0
 16 42  1  0  0  0  0
 16 43  1  0  0  0  0
 17 44  1  0  0  0  0
 17 45  1  0  0  0  0
 17 46  1  0  0  0  0
 21 47  1  0  0  0  0
M  END
> <id>
EN300-7428890

> <smiles>
CC(C)(C)OC(=O)N1CC2CC1CCC2(O)C=3C=CC(Br)=CC3

> <IUPAC Name>
tert-butyl 2-(4-bromophenyl)-2-hydroxy-6-azabicyclo[3.2.1]octane-6-carboxylate

> <CAS>
2309469-22-3

> <URL>
https://www.enaminestore.com/catalog/EN300-7428890

> <ROCS_ShapeQuery>
A71EV2A-x0451_0A_A71EV2A-x0310_0A_A71EV2A-x0416_0A_peptide

> <ROCS_TanimotoCombo>
0.513 

> <ROCS_ShapeTanimoto>
0.330 

> <ROCS_ColorTanimoto>
0.183 

> <ROCS_RefTversky>
0.296 

> <ROCS_RefColorTversky>
0.219 

> <ROCS_RefTverskyCombo>
0.515 

> <ROCS_FitTversky>
1.539 

> <ROCS_FitColorTversky>
0.525 

> <ROCS_FitTverskyCombo>
2.064 

> <ROCS_ColorScore>
-6.735

> <ROCS_Overlap>
2056.111

> <ROCS_Rank>
318                 

$$$$
untitled-dbase-116102_7
  -OEChem-11132313473D

 34 35  0     0  0  0  0  0  0999 V2000
    5.4952   11.6529   26.4541 C   0  0  0  0  0  0  0  0  0  0  0  0
    5.4372   10.2686   26.3507 C   0  0  0  0  0  0  0  0  0  0  0  0
    6.4835   12.3523   25.7676 C   0  0  0  0  0  0  0  0  0  0  0  0
    6.3670    9.5872   25.5615 C   0  0  0  0  0  0  0  0  0  0  0  0
    8.4239   12.3458   24.2721 C   0  0  0  0  0  0  0  0  0  0  0  0
    7.4187   11.6667   24.9738 C   0  0  0  0  0  0  0  0  0  0  0  0
    7.3657   10.2613   24.8641 C   0  0  0  0  0  0  0  0  0  0  0  0
    9.3323   11.6399   23.4966 C   0  0  0  0  0  0  0  0  0  0  0  0
    9.2008   10.2668   23.4508 C   0  0  0  0  0  0  0  0  0  0  0  0
   10.9589   13.5193   23.1320 C   0  0  0  0  0  0  0  0  0  0  0  0
   11.7221   16.2041   22.5085 C   0  0  0  0  0  0  0  0  0  0  0  0
   12.8105   15.2247   20.4676 C   0  0  0  0  0  0  0  0  0  0  0  0
   10.3261   15.0256   20.7773 C   0  0  0  0  0  0  0  0  0  0  0  0
   11.6804   15.0718   21.4832 C   0  0  0  0  0  0  0  0  0  0  0  0
    8.2459    9.5736   24.1123 N   0  0  0  0  0  0  0  0  0  0  0  0
   10.3302   12.3217   22.7997 N   0  0  0  0  0  0  0  0  0  0  0  0
   10.7505   14.2153   24.1183 O   0  0  0  0  0  0  0  0  0  0  0  0
   11.8805   13.8296   22.1677 O   0  0  0  0  0  0  0  0  0  0  0  0
   10.2570    9.2658   22.5305 Cl  0  0  0  0  0  0  0  0  0  0  0  0
    4.7748   12.1864   27.0665 H   0  0  0  0  0  0  0  0  0  0  0  0
    4.6693    9.7147   26.8832 H   0  0  0  0  0  0  0  0  0  0  0  0
    6.5201   13.4359   25.8554 H   0  0  0  0  0  0  0  0  0  0  0  0
    6.3003    8.5026   25.4973 H   0  0  0  0  0  0  0  0  0  0  0  0
    8.4939   13.4305   24.3336 H   0  0  0  0  0  0  0  0  0  0  0  0
   10.9124   16.0979   23.2393 H   0  0  0  0  0  0  0  0  0  0  0  0
   12.6754   16.2262   23.0464 H   0  0  0  0  0  0  0  0  0  0  0  0
   11.5755   17.1761   22.0237 H   0  0  0  0  0  0  0  0  0  0  0  0
   12.7845   14.4144   19.7300 H   0  0  0  0  0  0  0  0  0  0  0  0
   13.7882   15.1632   20.9592 H   0  0  0  0  0  0  0  0  0  0  0  0
   12.7494   16.1796   19.9357 H   0  0  0  0  0  0  0  0  0  0  0  0
   10.2959   14.2136   20.0418 H   0  0  0  0  0  0  0  0  0  0  0  0
    9.5058   14.8793   21.4875 H   0  0  0  0  0  0  0  0  0  0  0  0
   10.1444   15.9528   20.2217 H   0  0  0  0  0  0  0  0  0  0  0  0
   10.6422   11.8830   21.9271 H   0  0  0  0  0  0  0  0  0  0  0  0
  1  2  2  0  0  0  0
  1  3  1  0  0  0  0
  2  4  1  0  0  0  0
  3  6  2  0  0  0  0
  4  7  2  0  0  0  0
  5  6  1  0  0  0  0
  5  8  2  0  0  0  0
  6  7  1  0  0  0  0
  7 15  1  0  0  0  0
  8  9  1  0  0  0  0
  8 16  1  0  0  0  0
  9 15  2  0  0  0  0
  9 19  1  0  0  0  0
 10 16  1  0  0  0  0
 10 17  2  0  0  0  0
 10 18  1  0  0  0  0
 11 14  1  0  0  0  0
 12 14  1  0  0  0  0
 13 14  1  0  0  0  0
 14 18  1  0  0  0  0
  1 20  1  0  0  0  0
  2 21  1  0  0  0  0
  3 22  1  0  0  0  0
  4 23  1  0  0  0  0
  5 24  1  0  0  0  0
 11 25  1  0  0  0  0
 11 26  1  0  0  0  0
 11 27  1  0  0  0  0
 12 28  1  0  0  0  0
 12 29  1  0  0  0  0
 12 30  1  0  0  0  0
 13 31  1  0  0  0  0
 13 32  1  0  0  0  0
 13 33  1  0  0  0  0
 16 34  1  0  0  0  0
M  END
> <id>
EN300-6479023

> <smiles>
CC(C)(C)OC(=O)NC=1C=C2C=CC=CC2=NC1Cl

> <MDLNUMBER>
MFCD31668237

> <IUPAC Name>
tert-butyl N-(2-chloroquinolin-3-yl)carbamate

> <CAS>
742698-74-4

> <Purity>
95

> <URL>
https://www.enaminestore.com/catalog/EN300-6479023

> <ROCS_ShapeQuery>
A71EV2A-x0451_0A_A71EV2A-x0310_0A_A71EV2A-x0416_0A_peptide

> <ROCS_TanimotoCombo>
0.513 

> <ROCS_ShapeTanimoto>
0.347 

> <ROCS_ColorTanimoto>
0.166 

> <ROCS_RefTversky>
0.301 

> <ROCS_RefColorTversky>
0.177 

> <ROCS_RefTverskyCombo>
0.478 

> <ROCS_FitTversky>
1.780 

> <ROCS_FitColorTversky>
0.737 

> <ROCS_FitTverskyCombo>
2.517 

> <ROCS_ColorScore>
-5.376

> <ROCS_Overlap>
2089.047

> <ROCS_Rank>
319                 

$$$$
untitled-dbase-157101_11
  -OEChem-11132313473D

 33 34  0     0  0  0  0  0  0999 V2000
    9.8164    8.0770   22.8857 C   0  0  0  0  0  0  0  0  0  0  0  0
    8.7541    7.5388   23.6033 C   0  0  0  0  0  0  0  0  0  0  0  0
   10.0004    9.4560   22.8624 C   0  0  0  0  0  0  0  0  0  0  0  0
    7.8785    8.3799   24.2962 C   0  0  0  0  0  0  0  0  0  0  0  0
    9.1156   10.2951   23.5618 C   0  0  0  0  0  0  0  0  0  0  0  0
    8.0391    9.7634   24.2903 C   0  0  0  0  0  0  0  0  0  0  0  0
    9.2436   11.6811   23.5796 C   0  0  0  0  0  0  0  0  0  0  0  0
    7.4180   11.8838   24.9020 C   0  0  0  0  0  0  0  0  0  0  0  0
   10.9515   13.4772   23.1695 C   0  0  0  0  0  0  0  0  0  0  0  0
   11.8350   16.0952   22.4315 C   0  0  0  0  0  0  0  0  0  0  0  0
   12.9448   14.9695   20.4795 C   0  0  0  0  0  0  0  0  0  0  0  0
   10.4465   14.8785   20.7209 C   0  0  0  0  0  0  0  0  0  0  0  0
   11.7802   14.9124   21.4658 C   0  0  0  0  0  0  0  0  0  0  0  0
    7.1869   10.5566   24.9629 N   0  0  0  0  0  0  0  0  0  0  0  0
    8.4089   12.5043   24.2417 N   0  0  0  0  0  0  0  0  0  0  0  0
   10.2943   12.2915   22.8757 N   0  0  0  0  0  0  0  0  0  0  0  0
   10.7410   14.2317   24.1112 O   0  0  0  0  0  0  0  0  0  0  0  0
   11.9123   13.7018   22.2198 O   0  0  0  0  0  0  0  0  0  0  0  0
    6.3298   12.8843   25.7595 Cl  0  0  0  0  0  0  0  0  0  0  0  0
   10.4976    7.4255   22.3470 H   0  0  0  0  0  0  0  0  0  0  0  0
    8.6032    6.4634   23.6265 H   0  0  0  0  0  0  0  0  0  0  0  0
   10.8378    9.8532   22.2946 H   0  0  0  0  0  0  0  0  0  0  0  0
    7.0550    7.9334   24.8503 H   0  0  0  0  0  0  0  0  0  0  0  0
   11.0007   16.0579   23.1411 H   0  0  0  0  0  0  0  0  0  0  0  0
   12.7723   16.1109   22.9973 H   0  0  0  0  0  0  0  0  0  0  0  0
   11.7402   17.0448   21.8926 H   0  0  0  0  0  0  0  0  0  0  0  0
   12.9094   14.1227   19.7846 H   0  0  0  0  0  0  0  0  0  0  0  0
   13.9044   14.8983   21.0042 H   0  0  0  0  0  0  0  0  0  0  0  0
   12.9359   15.8965   19.8971 H   0  0  0  0  0  0  0  0  0  0  0  0
   10.4069   14.0302   20.0281 H   0  0  0  0  0  0  0  0  0  0  0  0
    9.6006   14.8003   21.4117 H   0  0  0  0  0  0  0  0  0  0  0  0
   10.3169   15.7809   20.1125 H   0  0  0  0  0  0  0  0  0  0  0  0
   10.6157   11.7995   22.0406 H   0  0  0  0  0  0  0  0  0  0  0  0
  1  2  2  0  0  0  0
  1  3  1  0  0  0  0
  2  4  1  0  0  0  0
  3  5  2  0  0  0  0
  4  6  2  0  0  0  0
  5  6  1  0  0  0  0
  5  7  1  0  0  0  0
  6 14  1  0  0  0  0
  7 15  2  0  0  0  0
  7 16  1  0  0  0  0
  8 14  2  0  0  0  0
  8 15  1  0  0  0  0
  8 19  1  0  0  0  0
  9 16  1  0  0  0  0
  9 17  2  0  0  0  0
  9 18  1  0  0  0  0
 10 13  1  0  0  0  0
 11 13  1  0  0  0  0
 12 13  1  0  0  0  0
 13 18  1  0  0  0  0
  1 20  1  0  0  0  0
  2 21  1  0  0  0  0
  3 22  1  0  0  0  0
  4 23  1  0  0  0  0
 10 24  1  0  0  0  0
 10 25  1  0  0  0  0
 10 26  1  0  0  0  0
 11 27  1  0  0  0  0
 11 28  1  0  0  0  0
 11 29  1  0  0  0  0
 12 30  1  0  0  0  0
 12 31  1  0  0  0  0
 12 32  1  0  0  0  0
 16 33  1  0  0  0  0
M  END
> <id>
EN300-28285832

> <smiles>
CC(C)(C)OC(=O)NC=1N=C(Cl)N=C2C=CC=CC12

> <IUPAC Name>
tert-butyl N-(2-chloroquinazolin-4-yl)carbamate

> <CAS>
2680764-56-9

> <URL>
https://www.enaminestore.com/catalog/EN300-28285832

> <ROCS_ShapeQuery>
A71EV2A-x0451_0A_A71EV2A-x0310_0A_A71EV2A-x0416_0A_peptide

> <ROCS_TanimotoCombo>
0.513 

> <ROCS_ShapeTanimoto>
0.362 

> <ROCS_ColorTanimoto>
0.151 

> <ROCS_RefTversky>
0.311 

> <ROCS_RefColorTversky>
0.167 

> <ROCS_RefTverskyCombo>
0.478 

> <ROCS_FitTversky>
1.829 

> <ROCS_FitColorTversky>
0.616 

> <ROCS_FitTverskyCombo>
2.445 

> <ROCS_ColorScore>
-5.080

> <ROCS_Overlap>
2157.986

> <ROCS_Rank>
320                 

$$$$
untitled-dbase-177474_397
  -OEChem-11132313473D

 42 44  0     0  0  0  0  0  0999 V2000
    5.7238   13.1602   26.7667 C   0  0  0  0  0  0  0  0  0  0  0  0
    9.0413   11.6340   22.7648 C   0  0  0  0  0  0  0  0  0  0  0  0
   10.1097   11.0244   24.4672 C   0  0  0  0  0  0  0  0  0  0  0  0
    7.4609   11.3511   26.2736 C   0  0  0  0  0  0  0  0  0  0  0  0
    6.3692   11.9748   24.5346 C   0  0  0  0  0  0  0  0  0  0  0  0
    8.9595   12.0993   24.2783 C   0  0  0  0  0  0  0  0  0  0  0  0
    7.7037   11.2626   24.7667 C   0  0  0  0  0  0  0  0  0  0  0  0
    9.1464   10.2324   23.4926 C   0  0  0  0  0  0  0  0  0  0  0  0
    9.6638    9.0393   22.7406 C   0  0  0  0  0  0  0  0  0  0  0  0
    3.6334   11.5309   28.0278 C   0  0  0  0  0  0  0  0  0  0  0  0
    4.5934   12.3636   30.1944 C   0  0  0  0  0  0  0  0  0  0  0  0
    3.5599   13.9855   28.5791 C   0  0  0  0  0  0  0  0  0  0  0  0
    9.2244   13.5349   24.6273 C   0  0  0  0  0  0  0  0  0  0  0  0
    4.3525   12.6870   28.7214 C   0  0  0  0  0  0  0  0  0  0  0  0
    6.3491   12.2370   25.9625 N   0  0  0  0  0  0  0  0  0  0  0  0
    5.2024   14.1849   26.3273 O   0  0  0  0  0  0  0  0  0  0  0  0
    7.8860    9.9477   24.1815 O   0  0  0  0  0  0  0  0  0  0  0  0
   10.5482   13.8830   24.2348 O   0  0  0  0  0  0  0  0  0  0  0  0
    5.6365   12.8645   28.1016 O   0  0  0  0  0  0  0  0  0  0  0  0
    8.1446   11.7926   22.1588 H   0  0  0  0  0  0  0  0  0  0  0  0
    9.9202   11.9617   22.1981 H   0  0  0  0  0  0  0  0  0  0  0  0
   11.0978   11.2897   24.0746 H   0  0  0  0  0  0  0  0  0  0  0  0
   10.2236   10.6065   25.4716 H   0  0  0  0  0  0  0  0  0  0  0  0
    7.1347   10.4227   26.7515 H   0  0  0  0  0  0  0  0  0  0  0  0
    8.2391   11.8238   26.8773 H   0  0  0  0  0  0  0  0  0  0  0  0
    6.3901   12.8795   23.9216 H   0  0  0  0  0  0  0  0  0  0  0  0
    5.5454   11.3301   24.2132 H   0  0  0  0  0  0  0  0  0  0  0  0
    9.6765    8.1463   23.3786 H   0  0  0  0  0  0  0  0  0  0  0  0
   10.6871    9.2120   22.3835 H   0  0  0  0  0  0  0  0  0  0  0  0
    9.0352    8.8205   21.8680 H   0  0  0  0  0  0  0  0  0  0  0  0
    3.4586   11.7591   26.9702 H   0  0  0  0  0  0  0  0  0  0  0  0
    4.2083   10.6013   28.0925 H   0  0  0  0  0  0  0  0  0  0  0  0
    2.6471   11.3597   28.4741 H   0  0  0  0  0  0  0  0  0  0  0  0
    5.1091   13.1904   30.6961 H   0  0  0  0  0  0  0  0  0  0  0  0
    5.2412   11.4860   30.3004 H   0  0  0  0  0  0  0  0  0  0  0  0
    3.6552   12.1680   30.7238 H   0  0  0  0  0  0  0  0  0  0  0  0
    4.0754   14.8149   29.0766 H   0  0  0  0  0  0  0  0  0  0  0  0
    3.4092   14.2529   27.5281 H   0  0  0  0  0  0  0  0  0  0  0  0
    2.5790   13.8981   29.0602 H   0  0  0  0  0  0  0  0  0  0  0  0
    9.1310   13.7039   25.7089 H   0  0  0  0  0  0  0  0  0  0  0  0
    8.5248   14.2050   24.1090 H   0  0  0  0  0  0  0  0  0  0  0  0
   10.6741   14.8136   24.4784 H   0  0  0  0  0  0  0  0  0  0  0  0
  1 15  1  0  0  0  0
  1 16  2  0  0  0  0
  1 19  1  0  0  0  0
  2  6  1  0  0  0  0
  2  8  1  0  0  0  0
  3  6  1  0  0  0  0
  3  8  1  0  0  0  0
  4  7  1  0  0  0  0
  4 15  1  0  0  0  0
  5  7  1  0  0  0  0
  5 15  1  0  0  0  0
  6  7  1  0  0  0  0
  6 13  1  0  0  0  0
  7 17  1  0  0  0  0
  8  9  1  0  0  0  0
  8 17  1  0  0  0  0
 10 14  1  0  0  0  0
 11 14  1  0  0  0  0
 12 14  1  0  0  0  0
 13 18  1  0  0  0  0
 14 19  1  0  0  0  0
  2 20  1  0  0  0  0
  2 21  1  0  0  0  0
  3 22  1  0  0  0  0
  3 23  1  0  0  0  0
  4 24  1  0  0  0  0
  4 25  1  0  0  0  0
  5 26  1  0  0  0  0
  5 27  1  0  0  0  0
  9 28  1  0  0  0  0
  9 29  1  0  0  0  0
  9 30  1  0  0  0  0
 10 31  1  0  0  0  0
 10 32  1  0  0  0  0
 10 33  1  0  0  0  0
 11 34  1  0  0  0  0
 11 35  1  0  0  0  0
 11 36  1  0  0  0  0
 12 37  1  0  0  0  0
 12 38  1  0  0  0  0
 12 39  1  0  0  0  0
 13 40  1  0  0  0  0
 13 41  1  0  0  0  0
 18 42  1  0  0  0  0
M  END
> <id>
EN300-45182250

> <smiles>
CC(C)(C)OC(=O)N1CC2(C1)OC3(C)CC2(CO)C3

> <IUPAC Name>
tert-butyl 1'-(hydroxymethyl)-4'-methyl-3'-oxaspiro[azetidine-3,2'-bicyclo[2.1.1]hexane]-1-carboxylate

> <Purity>
95

> <URL>
https://www.enaminestore.com/catalog/EN300-45182250

> <ROCS_ShapeQuery>
A71EV2A-x0451_0A_A71EV2A-x0310_0A_A71EV2A-x0416_0A_peptide

> <ROCS_TanimotoCombo>
0.513 

> <ROCS_ShapeTanimoto>
0.271 

> <ROCS_ColorTanimoto>
0.242 

> <ROCS_RefTversky>
0.249 

> <ROCS_RefColorTversky>
0.282 

> <ROCS_RefTverskyCombo>
0.531 

> <ROCS_FitTversky>
1.474 

> <ROCS_FitColorTversky>
0.631 

> <ROCS_FitTverskyCombo>
2.105 

> <ROCS_ColorScore>
-8.664

> <ROCS_Overlap>
1730.674

> <ROCS_Rank>
321                 

$$$$
untitled-dbase-168149_4
  -OEChem-11132313473D

 38 39  0     0  0  0  0  0  0999 V2000
   10.7012   13.2484   23.5778 C   0  0  0  0  0  0  0  0  0  0  0  0
    7.3044   10.6453   23.4881 C   0  0  0  0  0  0  0  0  0  0  0  0
    8.6108   10.0063   25.0342 C   0  0  0  0  0  0  0  0  0  0  0  0
    9.7825   10.9971   22.9704 C   0  0  0  0  0  0  0  0  0  0  0  0
    8.5835   12.5438   24.6181 C   0  0  0  0  0  0  0  0  0  0  0  0
    8.7277   10.0144   23.4790 C   0  0  0  0  0  0  0  0  0  0  0  0
    7.7558   11.2884   24.8269 C   0  0  0  0  0  0  0  0  0  0  0  0
   13.4228   14.1154   23.7278 C   0  0  0  0  0  0  0  0  0  0  0  0
   13.6224   13.2931   21.3627 C   0  0  0  0  0  0  0  0  0  0  0  0
   12.0330   15.1599   21.9079 C   0  0  0  0  0  0  0  0  0  0  0  0
    8.8271    8.6513   22.8180 C   0  0  0  0  0  0  0  0  0  0  0  0
   12.6792   13.8716   22.4153 C   0  0  0  0  0  0  0  0  0  0  0  0
    9.7271   12.2526   23.7427 N   0  0  0  0  0  0  0  0  0  0  0  0
    7.9876    7.7155   23.4937 N   0  0  0  0  0  0  0  0  0  0  0  0
   10.7096   14.3142   24.1912 O   0  0  0  0  0  0  0  0  0  0  0  0
   11.6481   12.9054   22.6484 O   0  0  0  0  0  0  0  0  0  0  0  0
    6.7830   11.5134   25.7356 F   0  0  0  0  0  0  0  0  0  0  0  0
    7.0667   11.3309   22.6693 H   0  0  0  0  0  0  0  0  0  0  0  0
    6.4775    9.9326   23.5948 H   0  0  0  0  0  0  0  0  0  0  0  0
    8.0510    9.1628   25.4566 H   0  0  0  0  0  0  0  0  0  0  0  0
    9.5414   10.1210   25.5977 H   0  0  0  0  0  0  0  0  0  0  0  0
   10.7906   10.5789   23.0718 H   0  0  0  0  0  0  0  0  0  0  0  0
    9.6218   11.2446   21.9146 H   0  0  0  0  0  0  0  0  0  0  0  0
    7.9911   13.3389   24.1519 H   0  0  0  0  0  0  0  0  0  0  0  0
    8.9660   12.9272   25.5707 H   0  0  0  0  0  0  0  0  0  0  0  0
   12.7492   14.5306   24.4859 H   0  0  0  0  0  0  0  0  0  0  0  0
   13.8613   13.1922   24.1204 H   0  0  0  0  0  0  0  0  0  0  0  0
   14.2253   14.8493   23.5920 H   0  0  0  0  0  0  0  0  0  0  0  0
   13.0931   13.1167   20.4194 H   0  0  0  0  0  0  0  0  0  0  0  0
   14.0153   12.3213   21.6827 H   0  0  0  0  0  0  0  0  0  0  0  0
   14.4673   13.9611   21.1665 H   0  0  0  0  0  0  0  0  0  0  0  0
   11.4996   14.9854   20.9665 H   0  0  0  0  0  0  0  0  0  0  0  0
   11.3249   15.5697   22.6354 H   0  0  0  0  0  0  0  0  0  0  0  0
   12.7936   15.9201   21.6959 H   0  0  0  0  0  0  0  0  0  0  0  0
    8.5099    8.7622   21.7796 H   0  0  0  0  0  0  0  0  0  0  0  0
    9.8692    8.3316   22.8721 H   0  0  0  0  0  0  0  0  0  0  0  0
    7.0361    8.0335   23.4781 H   0  0  0  0  0  0  0  0  0  0  0  0
    8.0390    6.8206   23.0428 H   0  0  0  0  0  0  0  0  0  0  0  0
  1 13  1  0  0  0  0
  1 15  2  0  0  0  0
  1 16  1  0  0  0  0
  2  6  1  0  0  0  0
  2  7  1  0  0  0  0
  3  6  1  0  0  0  0
  3  7  1  0  0  0  0
  4  6  1  0  0  0  0
  4 13  1  0  0  0  0
  5  7  1  0  0  0  0
  5 13  1  0  0  0  0
  6 11  1  0  0  0  0
  7 17  1  0  0  0  0
  8 12  1  0  0  0  0
  9 12  1  0  0  0  0
 10 12  1  0  0  0  0
 11 14  1  0  0  0  0
 12 16  1  0  0  0  0
  2 18  1  0  0  0  0
  2 19  1  0  0  0  0
  3 20  1  0  0  0  0
  3 21  1  0  0  0  0
  4 22  1  0  0  0  0
  4 23  1  0  0  0  0
  5 24  1  0  0  0  0
  5 25  1  0  0  0  0
  8 26  1  0  0  0  0
  8 27  1  0  0  0  0
  8 28  1  0  0  0  0
  9 29  1  0  0  0  0
  9 30  1  0  0  0  0
  9 31  1  0  0  0  0
 10 32  1  0  0  0  0
 10 33  1  0  0  0  0
 10 34  1  0  0  0  0
 11 35  1  0  0  0  0
 11 36  1  0  0  0  0
 14 37  1  0  0  0  0
 14 38  1  0  0  0  0
M  END
> <id>
EN300-7466089

> <smiles>
CC(C)(C)OC(=O)N1CC2(F)CC(CN)(C2)C1

> <MDLNUMBER>
MFCD32219674

> <IUPAC Name>
tert-butyl 1-(aminomethyl)-5-fluoro-3-azabicyclo[3.1.1]heptane-3-carboxylate

> <CAS>
2402831-08-5

> <Purity>
95

> <URL>
https://www.enaminestore.com/catalog/EN300-7466089

> <ROCS_ShapeQuery>
A71EV2A-x0451_0A_A71EV2A-x0310_0A_A71EV2A-x0416_0A_peptide

> <ROCS_TanimotoCombo>
0.513 

> <ROCS_ShapeTanimoto>
0.307 

> <ROCS_ColorTanimoto>
0.206 

> <ROCS_RefTversky>
0.271 

> <ROCS_RefColorTversky>
0.233 

> <ROCS_RefTverskyCombo>
0.505 

> <ROCS_FitTversky>
1.749 

> <ROCS_FitColorTversky>
0.637 

> <ROCS_FitTverskyCombo>
2.386 

> <ROCS_ColorScore>
-7.140

> <ROCS_Overlap>
1882.307

> <ROCS_Rank>
322                 

$$$$
untitled-dbase-146306_245
  -OEChem-11132313473D

 51 52  0     1  0  0  0  0  0999 V2000
    6.9074   13.1669   26.1535 C   0  0  0  0  0  0  0  0  0  0  0  0
    7.9486   13.2155   25.2191 C   0  0  0  0  0  0  0  0  0  0  0  0
    6.7396   10.7971   25.8436 C   0  0  0  0  0  0  0  0  0  0  0  0
    6.3089   11.9575   26.4737 C   0  0  0  0  0  0  0  0  0  0  0  0
    7.7729   10.8379   24.8894 C   0  0  0  0  0  0  0  0  0  0  0  0
    8.4226   12.0552   24.5824 C   0  0  0  0  0  0  0  0  0  0  0  0
    5.2520   11.9033   27.4702 C   0  0  0  0  0  0  0  0  0  0  0  0
   10.3879   13.1818   23.4771 C   0  0  0  0  0  0  0  0  0  0  0  0
    8.1843    9.5433   24.2427 C   0  0  0  0  0  0  0  0  0  0  0  0
    9.8278   10.8306   22.9054 C   0  0  0  0  0  0  0  0  0  0  0  0
    8.6886    9.8186   22.8347 C   0  0  1  0  0  0  0  0  0  0  0  0
    9.6516    8.8372   20.7381 C   0  0  0  0  0  0  0  0  0  0  0  0
    7.9740    7.5389   22.0745 C   0  0  0  0  0  0  0  0  0  0  0  0
   10.2882    7.8929   22.9718 C   0  0  0  0  0  0  0  0  0  0  0  0
   12.3341   15.1349   22.6743 C   0  0  0  0  0  0  0  0  0  0  0  0
   12.0282   14.2182   20.3559 C   0  0  0  0  0  0  0  0  0  0  0  0
   10.0918   15.2913   21.5420 C   0  0  0  0  0  0  0  0  0  0  0  0
    9.1482    8.5286   22.1583 C   0  0  0  0  0  0  0  0  0  0  0  0
   11.3620   14.4585   21.7089 C   0  0  0  0  0  0  0  0  0  0  0  0
    9.5199   12.0738   23.6381 N   0  0  0  0  0  0  0  0  0  0  0  0
    4.0438   12.0258   27.2411 O   0  0  0  0  0  0  0  0  0  0  0  0
   10.6251   14.0557   24.3060 O   0  0  0  0  0  0  0  0  0  0  0  0
    5.7314   11.6960   28.7276 O   0  0  0  0  0  0  0  0  0  0  0  0
   11.0019   13.1798   22.2458 O   0  0  0  0  0  0  0  0  0  0  0  0
    6.5834   14.0879   26.6330 H   0  0  0  0  0  0  0  0  0  0  0  0
    8.3802   14.1945   25.0487 H   0  0  0  0  0  0  0  0  0  0  0  0
    6.2738    9.8457   26.0913 H   0  0  0  0  0  0  0  0  0  0  0  0
    8.9651    9.0884   24.8514 H   0  0  0  0  0  0  0  0  0  0  0  0
    7.3369    8.8608   24.1929 H   0  0  0  0  0  0  0  0  0  0  0  0
   10.7249   10.3916   23.3865 H   0  0  0  0  0  0  0  0  0  0  0  0
   10.1352   11.0716   21.8705 H   0  0  0  0  0  0  0  0  0  0  0  0
    7.8763   10.2467   22.2308 H   0  0  0  0  0  0  0  0  0  0  0  0
    9.9890    7.9290   20.2262 H   0  0  0  0  0  0  0  0  0  0  0  0
   10.4935    9.5383   20.7625 H   0  0  0  0  0  0  0  0  0  0  0  0
    8.8599    9.2882   20.1294 H   0  0  0  0  0  0  0  0  0  0  0  0
    8.2807    6.6041   21.5919 H   0  0  0  0  0  0  0  0  0  0  0  0
    7.5969    7.2903   23.0729 H   0  0  0  0  0  0  0  0  0  0  0  0
    7.1402    7.9541   21.4972 H   0  0  0  0  0  0  0  0  0  0  0  0
   10.6347    6.9642   22.5046 H   0  0  0  0  0  0  0  0  0  0  0  0
    9.9674    7.6533   23.9918 H   0  0  0  0  0  0  0  0  0  0  0  0
   11.1464    8.5707   23.0427 H   0  0  0  0  0  0  0  0  0  0  0  0
   11.8597   15.3091   23.6467 H   0  0  0  0  0  0  0  0  0  0  0  0
   13.2341   14.5310   22.8297 H   0  0  0  0  0  0  0  0  0  0  0  0
   12.6381   16.1184   22.2981 H   0  0  0  0  0  0  0  0  0  0  0  0
   11.3343   13.7330   19.6600 H   0  0  0  0  0  0  0  0  0  0  0  0
   12.8858   13.5433   20.4574 H   0  0  0  0  0  0  0  0  0  0  0  0
   12.3747   15.1535   19.9043 H   0  0  0  0  0  0  0  0  0  0  0  0
    9.3943   14.8063   20.8495 H   0  0  0  0  0  0  0  0  0  0  0  0
    9.5803   15.4427   22.4981 H   0  0  0  0  0  0  0  0  0  0  0  0
   10.3229   16.2724   21.1115 H   0  0  0  0  0  0  0  0  0  0  0  0
    6.7088   11.6178   28.7594 H   0  0  0  0  0  0  0  0  0  0  0  0
  1  2  1  0  0  0  0
  1  4  2  0  0  0  0
  2  6  2  0  0  0  0
  3  4  1  0  0  0  0
  3  5  2  0  0  0  0
  4  7  1  0  0  0  0
  5  6  1  0  0  0  0
  5  9  1  0  0  0  0
  6 20  1  0  0  0  0
  7 21  2  0  0  0  0
  7 23  1  0  0  0  0
  8 20  1  0  0  0  0
  8 22  2  0  0  0  0
  8 24  1  0  0  0  0
  9 11  1  0  0  0  0
 10 11  1  0  0  0  0
 10 20  1  0  0  0  0
 11 18  1  0  0  0  0
 12 18  1  0  0  0  0
 13 18  1  0  0  0  0
 14 18  1  0  0  0  0
 15 19  1  0  0  0  0
 16 19  1  0  0  0  0
 17 19  1  0  0  0  0
 19 24  1  0  0  0  0
  1 25  1  0  0  0  0
  2 26  1  0  0  0  0
  3 27  1  0  0  0  0
  9 28  1  0  0  0  0
  9 29  1  0  0  0  0
 10 30  1  0  0  0  0
 10 31  1  0  0  0  0
 11 32  1  0  0  0  0
 12 33  1  0  0  0  0
 12 34  1  0  0  0  0
 12 35  1  0  0  0  0
 13 36  1  0  0  0  0
 13 37  1  0  0  0  0
 13 38  1  0  0  0  0
 14 39  1  0  0  0  0
 14 40  1  0  0  0  0
 14 41  1  0  0  0  0
 15 42  1  0  0  0  0
 15 43  1  0  0  0  0
 15 44  1  0  0  0  0
 16 45  1  0  0  0  0
 16 46  1  0  0  0  0
 16 47  1  0  0  0  0
 17 48  1  0  0  0  0
 17 49  1  0  0  0  0
 17 50  1  0  0  0  0
 23 51  1  0  0  0  0
M  END
> <id>
EN300-27783592

> <smiles>
CC(C)(C)OC(=O)N1CC(CC=2C=C(C=CC12)C(=O)O)C(C)(C)C

> <IUPAC Name>
1-[(tert-butoxy)carbonyl]-3-tert-butyl-1,2,3,4-tetrahydroquinoline-6-carboxylic acid

> <CAS>
2639424-15-8

> <URL>
https://www.enaminestore.com/catalog/EN300-27783592

> <ROCS_ShapeQuery>
A71EV2A-x0451_0A_A71EV2A-x0310_0A_A71EV2A-x0416_0A_peptide

> <ROCS_TanimotoCombo>
0.513 

> <ROCS_ShapeTanimoto>
0.372 

> <ROCS_ColorTanimoto>
0.141 

> <ROCS_RefTversky>
0.325 

> <ROCS_RefColorTversky>
0.161 

> <ROCS_RefTverskyCombo>
0.485 

> <ROCS_FitTversky>
1.644 

> <ROCS_FitColorTversky>
0.533 

> <ROCS_FitTverskyCombo>
2.176 

> <ROCS_ColorScore>
-4.902

> <ROCS_Overlap>
2257.132

> <ROCS_Rank>
323                 

$$$$
untitled-dbase-154319_38
  -OEChem-11132313473D

 44 46  0     0  0  0  0  0  0999 V2000
    6.8533   12.6948   26.3601 C   0  0  0  0  0  0  0  0  0  0  0  0
    6.3078   11.4405   26.0941 C   0  0  0  0  0  0  0  0  0  0  0  0
    8.0233   13.0997   25.7170 C   0  0  0  0  0  0  0  0  0  0  0  0
    6.9300   10.5856   25.1838 C   0  0  0  0  0  0  0  0  0  0  0  0
   12.3376   11.3182   21.6065 C   0  0  0  0  0  0  0  0  0  0  0  0
   11.7921   10.0638   21.3404 C   0  0  0  0  0  0  0  0  0  0  0  0
    8.6508   12.2451   24.8028 C   0  0  0  0  0  0  0  0  0  0  0  0
    8.1042   10.9880   24.5361 C   0  0  0  0  0  0  0  0  0  0  0  0
   10.5411   11.7706   23.1643 C   0  0  0  0  0  0  0  0  0  0  0  0
    9.9945   10.5136   22.8976 C   0  0  0  0  0  0  0  0  0  0  0  0
   11.7154   12.1730   22.5168 C   0  0  0  0  0  0  0  0  0  0  0  0
   10.6221    9.6589   21.9834 C   0  0  0  0  0  0  0  0  0  0  0  0
    9.8893   12.6823   24.1266 C   0  0  0  0  0  0  0  0  0  0  0  0
    8.7560   10.0764   23.5738 C   0  0  0  0  0  0  0  0  0  0  0  0
   11.6322   14.6467   22.4549 C   0  0  0  0  0  0  0  0  0  0  0  0
   12.3460   15.6692   20.1362 C   0  0  0  0  0  0  0  0  0  0  0  0
   10.2676   14.6933   19.1180 C   0  0  0  0  0  0  0  0  0  0  0  0
   10.1041   16.7151   20.5992 C   0  0  0  0  0  0  0  0  0  0  0  0
   13.7211   13.5177   23.2472 C   0  0  0  0  0  0  0  0  0  0  0  0
   10.8530   15.4101   20.3327 C   0  0  0  0  0  0  0  0  0  0  0  0
   12.3247   13.4142   22.7283 N   0  0  0  0  0  0  0  0  0  0  0  0
   10.3391   13.7915   24.3853 O   0  0  0  0  0  0  0  0  0  0  0  0
    8.2256    8.9902   23.3860 O   0  0  0  0  0  0  0  0  0  0  0  0
   11.8279   15.7004   23.0559 O   0  0  0  0  0  0  0  0  0  0  0  0
   10.6850   14.5483   21.4651 O   0  0  0  0  0  0  0  0  0  0  0  0
   10.0478    7.9099   21.4751 Br  0  0  0  0  0  0  0  0  0  0  0  0
    6.3676   13.3584   27.0697 H   0  0  0  0  0  0  0  0  0  0  0  0
    5.3964   11.1277   26.5955 H   0  0  0  0  0  0  0  0  0  0  0  0
    8.4272   14.0824   25.9452 H   0  0  0  0  0  0  0  0  0  0  0  0
    6.4813    9.6138   24.9969 H   0  0  0  0  0  0  0  0  0  0  0  0
   13.2496   11.6177   21.0955 H   0  0  0  0  0  0  0  0  0  0  0  0
   12.3002    9.4215   20.6247 H   0  0  0  0  0  0  0  0  0  0  0  0
   12.7701   16.1836   21.0060 H   0  0  0  0  0  0  0  0  0  0  0  0
   12.8998   14.7379   19.9790 H   0  0  0  0  0  0  0  0  0  0  0  0
   12.5192   16.3244   19.2749 H   0  0  0  0  0  0  0  0  0  0  0  0
    9.1965   14.5054   19.2547 H   0  0  0  0  0  0  0  0  0  0  0  0
   10.7377   13.7130   18.9793 H   0  0  0  0  0  0  0  0  0  0  0  0
   10.4031   15.2757   18.2010 H   0  0  0  0  0  0  0  0  0  0  0  0
    9.0331   16.5295   20.7402 H   0  0  0  0  0  0  0  0  0  0  0  0
   10.4865   17.2251   21.4893 H   0  0  0  0  0  0  0  0  0  0  0  0
   10.1901   17.3953   19.7441 H   0  0  0  0  0  0  0  0  0  0  0  0
   14.4264   13.5310   22.4032 H   0  0  0  0  0  0  0  0  0  0  0  0
   13.8281   14.4451   23.8290 H   0  0  0  0  0  0  0  0  0  0  0  0
   13.9374   12.6533   23.8921 H   0  0  0  0  0  0  0  0  0  0  0  0
  1  2  2  0  0  0  0
  1  3  1  0  0  0  0
  2  4  1  0  0  0  0
  3  7  2  0  0  0  0
  4  8  2  0  0  0  0
  5  6  1  0  0  0  0
  5 11  2  0  0  0  0
  6 12  2  0  0  0  0
  7  8  1  0  0  0  0
  7 13  1  0  0  0  0
  8 14  1  0  0  0  0
  9 10  2  0  0  0  0
  9 11  1  0  0  0  0
  9 13  1  0  0  0  0
 10 12  1  0  0  0  0
 10 14  1  0  0  0  0
 11 21  1  0  0  0  0
 12 26  1  0  0  0  0
 13 22  2  0  0  0  0
 14 23  2  0  0  0  0
 15 21  1  0  0  0  0
 15 24  2  0  0  0  0
 15 25  1  0  0  0  0
 16 20  1  0  0  0  0
 17 20  1  0  0  0  0
 18 20  1  0  0  0  0
 19 21  1  0  0  0  0
 20 25  1  0  0  0  0
  1 27  1  0  0  0  0
  2 28  1  0  0  0  0
  3 29  1  0  0  0  0
  4 30  1  0  0  0  0
  5 31  1  0  0  0  0
  6 32  1  0  0  0  0
 16 33  1  0  0  0  0
 16 34  1  0  0  0  0
 16 35  1  0  0  0  0
 17 36  1  0  0  0  0
 17 37  1  0  0  0  0
 17 38  1  0  0  0  0
 18 39  1  0  0  0  0
 18 40  1  0  0  0  0
 18 41  1  0  0  0  0
 19 42  1  0  0  0  0
 19 43  1  0  0  0  0
 19 44  1  0  0  0  0
M  END
> <id>
EN300-28303807

> <smiles>
CN(C(=O)OC(C)(C)C)C=1C=CC(Br)=C2C(=O)C=3C=CC=CC3C(=O)C12

> <IUPAC Name>
tert-butyl N-(4-bromo-9,10-dioxo-9,10-dihydroanthracen-1-yl)-N-methylcarbamate

> <CAS>
2680744-71-0

> <URL>
https://www.enaminestore.com/catalog/EN300-28303807

> <ROCS_ShapeQuery>
A71EV2A-x0451_0A_A71EV2A-x0310_0A_A71EV2A-x0416_0A_peptide

> <ROCS_TanimotoCombo>
0.513 

> <ROCS_ShapeTanimoto>
0.375 

> <ROCS_ColorTanimoto>
0.138 

> <ROCS_RefTversky>
0.331 

> <ROCS_RefColorTversky>
0.158 

> <ROCS_RefTverskyCombo>
0.489 

> <ROCS_FitTversky>
1.541 

> <ROCS_FitColorTversky>
0.525 

> <ROCS_FitTverskyCombo>
2.066 

> <ROCS_ColorScore>
-4.828

> <ROCS_Overlap>
2302.188

> <ROCS_Rank>
324                 

$$$$
untitled-dbase-143303_28
  -OEChem-11132313473D

 43 45  0     1  0  0  0  0  0999 V2000
   10.2035   13.4982   23.5200 C   0  0  0  0  0  0  0  0  0  0  0  0
    7.9071   10.5847   25.7008 C   0  0  0  0  0  0  0  0  0  0  0  0
    6.7639   10.9094   23.4907 C   0  0  0  0  0  0  0  0  0  0  0  0
    8.0604   12.7923   24.5200 C   0  0  0  0  0  0  0  0  0  0  0  0
   10.0807   11.3105   24.6868 C   0  0  0  0  0  0  0  0  0  0  0  0
    8.9346   11.6392   22.4721 C   0  0  0  0  0  0  0  0  0  0  0  0
    7.1476   11.5891   24.8167 C   0  0  0  0  0  0  0  0  0  0  0  0
    9.1794   10.0945   24.9800 C   0  0  2  0  0  0  0  0  0  0  0  0
    8.0291   10.4230   22.7549 C   0  0  1  0  0  0  0  0  0  0  0  0
    8.8117    9.4240   23.6370 C   0  0  0  0  0  0  0  0  0  0  0  0
    9.3259   12.3096   23.7984 C   0  0  0  0  0  0  0  0  0  0  0  0
   12.6931   13.8599   22.8406 C   0  0  0  0  0  0  0  0  0  0  0  0
   12.0276   13.5967   20.4329 C   0  0  0  0  0  0  0  0  0  0  0  0
   11.4593   15.7111   21.6635 C   0  0  0  0  0  0  0  0  0  0  0  0
   11.6439   14.1990   21.7828 C   0  0  0  0  0  0  0  0  0  0  0  0
    8.0431    8.1969   23.8534 N   0  0  0  0  0  0  0  0  0  0  0  0
   10.6605   14.2306   24.3871 O   0  0  0  0  0  0  0  0  0  0  0  0
   10.3968   13.6172   22.1756 O   0  0  0  0  0  0  0  0  0  0  0  0
    8.1806   11.0605   26.6509 H   0  0  0  0  0  0  0  0  0  0  0  0
    7.2561    9.7392   25.9527 H   0  0  0  0  0  0  0  0  0  0  0  0
    6.0813   10.0727   23.6809 H   0  0  0  0  0  0  0  0  0  0  0  0
    6.2169   11.6180   22.8561 H   0  0  0  0  0  0  0  0  0  0  0  0
    7.5225   13.5282   23.9079 H   0  0  0  0  0  0  0  0  0  0  0  0
    8.3207   13.3037   25.4562 H   0  0  0  0  0  0  0  0  0  0  0  0
   10.3837   11.7838   25.6301 H   0  0  0  0  0  0  0  0  0  0  0  0
   11.0070   10.9821   24.1973 H   0  0  0  0  0  0  0  0  0  0  0  0
    9.8300   11.3208   21.9224 H   0  0  0  0  0  0  0  0  0  0  0  0
    8.4101   12.3492   21.8190 H   0  0  0  0  0  0  0  0  0  0  0  0
    6.2439   11.9297   25.3341 H   0  0  0  0  0  0  0  0  0  0  0  0
    9.7205    9.3908   25.6240 H   0  0  0  0  0  0  0  0  0  0  0  0
    7.7463    9.9547   21.8044 H   0  0  0  0  0  0  0  0  0  0  0  0
    9.7357    9.1390   23.1171 H   0  0  0  0  0  0  0  0  0  0  0  0
   12.4214   14.2905   23.8110 H   0  0  0  0  0  0  0  0  0  0  0  0
   12.8099   12.7780   22.9607 H   0  0  0  0  0  0  0  0  0  0  0  0
   13.6676   14.2859   22.5755 H   0  0  0  0  0  0  0  0  0  0  0  0
   11.2776   13.8374   19.6709 H   0  0  0  0  0  0  0  0  0  0  0  0
   12.0686   12.5030   20.4910 H   0  0  0  0  0  0  0  0  0  0  0  0
   13.0007   13.9623   20.0893 H   0  0  0  0  0  0  0  0  0  0  0  0
   10.7067   15.9545   20.9048 H   0  0  0  0  0  0  0  0  0  0  0  0
   11.1478   16.1556   22.6143 H   0  0  0  0  0  0  0  0  0  0  0  0
   12.3897   16.1931   21.3420 H   0  0  0  0  0  0  0  0  0  0  0  0
    7.9144    8.0834   24.8298 H   0  0  0  0  0  0  0  0  0  0  0  0
    7.1716    8.2956   23.3911 H   0  0  0  0  0  0  0  0  0  0  0  0
  1 11  1  0  0  0  0
  1 17  2  0  0  0  0
  1 18  1  0  0  0  0
  2  7  1  0  0  0  0
  2  8  1  0  0  0  0
  3  7  1  0  0  0  0
  3  9  1  0  0  0  0
  4  7  1  0  0  0  0
  4 11  1  0  0  0  0
  5  8  1  0  0  0  0
  5 11  1  0  0  0  0
  6  9  1  0  0  0  0
  6 11  1  0  0  0  0
  8 10  1  0  0  0  0
  9 10  1  0  0  0  0
 10 16  1  0  0  0  0
 12 15  1  0  0  0  0
 13 15  1  0  0  0  0
 14 15  1  0  0  0  0
 15 18  1  0  0  0  0
  2 19  1  0  0  0  0
  2 20  1  0  0  0  0
  3 21  1  0  0  0  0
  3 22  1  0  0  0  0
  4 23  1  0  0  0  0
  4 24  1  0  0  0  0
  5 25  1  0  0  0  0
  5 26  1  0  0  0  0
  6 27  1  0  0  0  0
  6 28  1  0  0  0  0
  7 29  1  0  0  0  0
  8 30  1  0  0  0  0
  9 31  1  0  0  0  0
 10 32  1  0  0  0  0
 12 33  1  0  0  0  0
 12 34  1  0  0  0  0
 12 35  1  0  0  0  0
 13 36  1  0  0  0  0
 13 37  1  0  0  0  0
 13 38  1  0  0  0  0
 14 39  1  0  0  0  0
 14 40  1  0  0  0  0
 14 41  1  0  0  0  0
 16 42  1  0  0  0  0
 16 43  1  0  0  0  0
M  END
> <id>
EN300-6510986

> <smiles>
CC(C)(C)OC(=O)C1(CC2CC3C1)CC(C2)C3N

> <IUPAC Name>
tert-butyl 4-aminoadamantane-1-carboxylate

> <CAS>
2248383-62-0

> <URL>
https://www.enaminestore.com/catalog/EN300-6510986

> <ROCS_ShapeQuery>
A71EV2A-x0451_0A_A71EV2A-x0310_0A_A71EV2A-x0416_0A_peptide

> <ROCS_TanimotoCombo>
0.513 

> <ROCS_ShapeTanimoto>
0.303 

> <ROCS_ColorTanimoto>
0.210 

> <ROCS_RefTversky>
0.271 

> <ROCS_RefColorTversky>
0.238 

> <ROCS_RefTverskyCombo>
0.509 

> <ROCS_FitTversky>
1.660 

> <ROCS_FitColorTversky>
0.634 

> <ROCS_FitTverskyCombo>
2.294 

> <ROCS_ColorScore>
-7.306

> <ROCS_Overlap>
1877.585

> <ROCS_Rank>
325                 

$$$$
untitled-dbase-118303_63
  -OEChem-11132313473D

 38 39  0     0  0  0  0  0  0999 V2000
    7.7415   13.1260   24.8819 C   0  0  0  0  0  0  0  0  0  0  0  0
    6.6075   12.9133   25.6621 C   0  0  0  0  0  0  0  0  0  0  0  0
    8.4349   12.0512   24.3115 C   0  0  0  0  0  0  0  0  0  0  0  0
    6.1776   11.6160   25.8406 C   0  0  0  0  0  0  0  0  0  0  0  0
    7.8933   10.7738   24.5348 C   0  0  0  0  0  0  0  0  0  0  0  0
    5.0055   11.3310   26.6501 C   0  0  0  0  0  0  0  0  0  0  0  0
   10.4169   13.3635   23.4154 C   0  0  0  0  0  0  0  0  0  0  0  0
    8.4763    9.5408   23.9009 C   0  0  0  0  0  0  0  0  0  0  0  0
    9.8995    9.7591   23.4224 C   0  0  0  0  0  0  0  0  0  0  0  0
    9.9835   11.0662   22.6539 C   0  0  0  0  0  0  0  0  0  0  0  0
   12.0402   15.6408   22.7898 C   0  0  0  0  0  0  0  0  0  0  0  0
   11.7003   14.9880   20.3883 C   0  0  0  0  0  0  0  0  0  0  0  0
    9.7262   15.6352   21.7998 C   0  0  0  0  0  0  0  0  0  0  0  0
   11.0999   14.9660   21.7923 C   0  0  0  0  0  0  0  0  0  0  0  0
    6.7850   10.5475   25.2899 N   0  0  0  0  0  0  0  0  0  0  0  0
    9.6104   12.2103   23.4959 N   0  0  0  0  0  0  0  0  0  0  0  0
    4.3108   12.1738   27.2301 O   0  0  0  0  0  0  0  0  0  0  0  0
   10.5855   14.1423   24.3544 O   0  0  0  0  0  0  0  0  0  0  0  0
    4.7267    9.9993   26.7155 O   0  0  0  0  0  0  0  0  0  0  0  0
   10.9408   13.5938   22.1722 O   0  0  0  0  0  0  0  0  0  0  0  0
    8.0274   14.1581   24.7297 H   0  0  0  0  0  0  0  0  0  0  0  0
    6.0836   13.7527   26.1066 H   0  0  0  0  0  0  0  0  0  0  0  0
    8.4381    8.7136   24.6361 H   0  0  0  0  0  0  0  0  0  0  0  0
    7.8486    9.2231   23.0463 H   0  0  0  0  0  0  0  0  0  0  0  0
   10.5810    9.7845   24.2796 H   0  0  0  0  0  0  0  0  0  0  0  0
   10.2196    8.9287   22.7805 H   0  0  0  0  0  0  0  0  0  0  0  0
   10.9940   11.2391   22.3036 H   0  0  0  0  0  0  0  0  0  0  0  0
    9.3198   11.0069   21.8015 H   0  0  0  0  0  0  0  0  0  0  0  0
   11.6128   15.6271   23.7988 H   0  0  0  0  0  0  0  0  0  0  0  0
   13.0176   15.1484   22.8195 H   0  0  0  0  0  0  0  0  0  0  0  0
   12.1916   16.6954   22.5326 H   0  0  0  0  0  0  0  0  0  0  0  0
   11.0289   14.5048   19.6692 H   0  0  0  0  0  0  0  0  0  0  0  0
   12.6412   14.4268   20.3573 H   0  0  0  0  0  0  0  0  0  0  0  0
   11.8949   16.0102   20.0480 H   0  0  0  0  0  0  0  0  0  0  0  0
    9.0516   15.1513   21.0843 H   0  0  0  0  0  0  0  0  0  0  0  0
    9.2640   15.5961   22.7915 H   0  0  0  0  0  0  0  0  0  0  0  0
    9.8023   16.6844   21.4921 H   0  0  0  0  0  0  0  0  0  0  0  0
    5.3594    9.4467   26.2087 H   0  0  0  0  0  0  0  0  0  0  0  0
  1  2  1  0  0  0  0
  1  3  2  0  0  0  0
  2  4  2  0  0  0  0
  3  5  1  0  0  0  0
  3 16  1  0  0  0  0
  4  6  1  0  0  0  0
  4 15  1  0  0  0  0
  5  8  1  0  0  0  0
  5 15  2  0  0  0  0
  6 17  2  0  0  0  0
  6 19  1  0  0  0  0
  7 16  1  0  0  0  0
  7 18  2  0  0  0  0
  7 20  1  0  0  0  0
  8  9  1  0  0  0  0
  9 10  1  0  0  0  0
 10 16  1  0  0  0  0
 11 14  1  0  0  0  0
 12 14  1  0  0  0  0
 13 14  1  0  0  0  0
 14 20  1  0  0  0  0
  1 21  1  0  0  0  0
  2 22  1  0  0  0  0
  8 23  1  0  0  0  0
  8 24  1  0  0  0  0
  9 25  1  0  0  0  0
  9 26  1  0  0  0  0
 10 27  1  0  0  0  0
 10 28  1  0  0  0  0
 11 29  1  0  0  0  0
 11 30  1  0  0  0  0
 11 31  1  0  0  0  0
 12 32  1  0  0  0  0
 12 33  1  0  0  0  0
 12 34  1  0  0  0  0
 13 35  1  0  0  0  0
 13 36  1  0  0  0  0
 13 37  1  0  0  0  0
 19 38  1  0  0  0  0
M  END
> <id>
EN300-268898

> <smiles>
CC(C)(C)OC(=O)N1CCCC=2N=C(C=CC12)C(=O)O

> <MDLNUMBER>
MFCD27997355

> <IUPAC Name>
5-[(tert-butoxy)carbonyl]-5,6,7,8-tetrahydro-1,5-naphthyridine-2-carboxylic acid

> <CAS>
1823258-64-5

> <Purity>
95

> <URL>
https://www.enaminestore.com/catalog/EN300-268898

> <ROCS_ShapeQuery>
A71EV2A-x0451_0A_A71EV2A-x0310_0A_A71EV2A-x0416_0A_peptide

> <ROCS_TanimotoCombo>
0.513 

> <ROCS_ShapeTanimoto>
0.349 

> <ROCS_ColorTanimoto>
0.164 

> <ROCS_RefTversky>
0.304 

> <ROCS_RefColorTversky>
0.183 

> <ROCS_RefTverskyCombo>
0.487 

> <ROCS_FitTversky>
1.730 

> <ROCS_FitColorTversky>
0.608 

> <ROCS_FitTverskyCombo>
2.338 

> <ROCS_ColorScore>
-5.593

> <ROCS_Overlap>
2111.425

> <ROCS_Rank>
326                 

$$$$
untitled-dbase-154476_70
  -OEChem-11132313473D

 45 46  0     0  0  0  0  0  0999 V2000
   10.9756   11.2235   22.5140 C   0  0  0  0  0  0  0  0  0  0  0  0
    9.2506   11.6312   23.8238 C   0  0  0  0  0  0  0  0  0  0  0  0
    9.2923   10.3017   23.4173 C   0  0  0  0  0  0  0  0  0  0  0  0
    8.2277   12.0639   24.6537 C   0  0  0  0  0  0  0  0  0  0  0  0
    7.4209    9.8991   24.5959 C   0  0  0  0  0  0  0  0  0  0  0  0
   10.7438   13.5633   23.3390 C   0  0  0  0  0  0  0  0  0  0  0  0
    5.3419    9.2499   25.8478 C   0  0  0  0  0  0  0  0  0  0  0  0
   12.8150   15.4999   23.3581 C   0  0  0  0  0  0  0  0  0  0  0  0
   12.5354   15.5499   20.8624 C   0  0  0  0  0  0  0  0  0  0  0  0
   10.6262   16.2243   22.3484 C   0  0  0  0  0  0  0  0  0  0  0  0
    4.3478   10.1815   28.3624 C   0  0  0  0  0  0  0  0  0  0  0  0
    4.4914   12.4795   27.3587 C   0  0  0  0  0  0  0  0  0  0  0  0
    2.9607   10.7655   26.3452 C   0  0  0  0  0  0  0  0  0  0  0  0
   11.8383   15.3060   22.1991 C   0  0  0  0  0  0  0  0  0  0  0  0
    4.2864   10.9940   27.0699 C   0  0  0  0  0  0  0  0  0  0  0  0
   10.3651   10.0636   22.6074 N   0  0  0  0  0  0  0  0  0  0  0  0
    8.3711    9.3824   23.7928 N   0  0  0  0  0  0  0  0  0  0  0  0
    7.2940   11.1676   25.0437 N   0  0  0  0  0  0  0  0  0  0  0  0
   10.3499   12.2260   23.2320 N   0  0  0  0  0  0  0  0  0  0  0  0
    6.4300    9.0003   25.0253 N   0  0  0  0  0  0  0  0  0  0  0  0
   10.5040   14.2156   24.3418 O   0  0  0  0  0  0  0  0  0  0  0  0
    4.4858    8.4535   26.2131 O   0  0  0  0  0  0  0  0  0  0  0  0
   11.3855   13.9489   22.2076 O   0  0  0  0  0  0  0  0  0  0  0  0
    5.3532   10.5696   26.2135 O   0  0  0  0  0  0  0  0  0  0  0  0
    7.9447   13.6180   25.2930 Cl  0  0  0  0  0  0  0  0  0  0  0  0
   11.8762   11.3857   21.9363 H   0  0  0  0  0  0  0  0  0  0  0  0
   12.3184   15.3257   24.3194 H   0  0  0  0  0  0  0  0  0  0  0  0
   13.6717   14.8225   23.2814 H   0  0  0  0  0  0  0  0  0  0  0  0
   13.1894   16.5296   23.3857 H   0  0  0  0  0  0  0  0  0  0  0  0
   11.8384   15.4118   20.0279 H   0  0  0  0  0  0  0  0  0  0  0  0
   13.3475   14.8301   20.7086 H   0  0  0  0  0  0  0  0  0  0  0  0
   12.9520   16.5606   20.8025 H   0  0  0  0  0  0  0  0  0  0  0  0
    9.9255   16.0853   21.5172 H   0  0  0  0  0  0  0  0  0  0  0  0
   10.0919   16.0377   23.2856 H   0  0  0  0  0  0  0  0  0  0  0  0
   10.9297   17.2771   22.3243 H   0  0  0  0  0  0  0  0  0  0  0  0
    4.2011    9.1146   28.1594 H   0  0  0  0  0  0  0  0  0  0  0  0
    5.3074   10.3093   28.8740 H   0  0  0  0  0  0  0  0  0  0  0  0
    3.5471   10.4784   29.0494 H   0  0  0  0  0  0  0  0  0  0  0  0
    4.4481   13.0663   26.4340 H   0  0  0  0  0  0  0  0  0  0  0  0
    5.4817   12.6597   27.7925 H   0  0  0  0  0  0  0  0  0  0  0  0
    3.7348   12.8650   28.0497 H   0  0  0  0  0  0  0  0  0  0  0  0
    2.9163   11.3482   25.4180 H   0  0  0  0  0  0  0  0  0  0  0  0
    2.8135    9.7094   26.0970 H   0  0  0  0  0  0  0  0  0  0  0  0
    2.1175   11.0993   26.9608 H   0  0  0  0  0  0  0  0  0  0  0  0
    6.5230    8.0410   24.6887 H   0  0  0  0  0  0  0  0  0  0  0  0
  1 16  2  0  0  0  0
  1 19  1  0  0  0  0
  2  3  1  0  0  0  0
  2  4  2  0  0  0  0
  2 19  1  0  0  0  0
  3 16  1  0  0  0  0
  3 17  2  0  0  0  0
  4 18  1  0  0  0  0
  4 25  1  0  0  0  0
  5 17  1  0  0  0  0
  5 18  2  0  0  0  0
  5 20  1  0  0  0  0
  6 19  1  0  0  0  0
  6 21  2  0  0  0  0
  6 23  1  0  0  0  0
  7 20  1  0  0  0  0
  7 22  2  0  0  0  0
  7 24  1  0  0  0  0
  8 14  1  0  0  0  0
  9 14  1  0  0  0  0
 10 14  1  0  0  0  0
 11 15  1  0  0  0  0
 12 15  1  0  0  0  0
 13 15  1  0  0  0  0
 14 23  1  0  0  0  0
 15 24  1  0  0  0  0
  1 26  1  0  0  0  0
  8 27  1  0  0  0  0
  8 28  1  0  0  0  0
  8 29  1  0  0  0  0
  9 30  1  0  0  0  0
  9 31  1  0  0  0  0
  9 32  1  0  0  0  0
 10 33  1  0  0  0  0
 10 34  1  0  0  0  0
 10 35  1  0  0  0  0
 11 36  1  0  0  0  0
 11 37  1  0  0  0  0
 11 38  1  0  0  0  0
 12 39  1  0  0  0  0
 12 40  1  0  0  0  0
 12 41  1  0  0  0  0
 13 42  1  0  0  0  0
 13 43  1  0  0  0  0
 13 44  1  0  0  0  0
 20 45  1  0  0  0  0
M  END
> <id>
EN300-28300810

> <smiles>
CC(C)(C)OC(=O)NC=1N=C(Cl)C=2N(C=NC2N1)C(=O)OC(C)(C)C

> <IUPAC Name>
tert-butyl 2-{[(tert-butoxy)carbonyl]amino}-6-chloro-7H-purine-7-carboxylate

> <CAS>
2680755-94-4

> <URL>
https://www.enaminestore.com/catalog/EN300-28300810

> <ROCS_ShapeQuery>
A71EV2A-x0451_0A_A71EV2A-x0310_0A_A71EV2A-x0416_0A_peptide

> <ROCS_TanimotoCombo>
0.513 

> <ROCS_ShapeTanimoto>
0.356 

> <ROCS_ColorTanimoto>
0.157 

> <ROCS_RefTversky>
0.317 

> <ROCS_RefColorTversky>
0.189 

> <ROCS_RefTverskyCombo>
0.506 

> <ROCS_FitTversky>
1.522 

> <ROCS_FitColorTversky>
0.480 

> <ROCS_FitTverskyCombo>
2.001 

> <ROCS_ColorScore>
-5.788

> <ROCS_Overlap>
2207.280

> <ROCS_Rank>
327                 

$$$$
untitled-dbase-104690_12
  -OEChem-11132313473D

 33 34  0     0  0  0  0  0  0999 V2000
    7.9842   12.8893   24.7909 C   0  0  0  0  0  0  0  0  0  0  0  0
    6.9002   12.8257   25.6754 C   0  0  0  0  0  0  0  0  0  0  0  0
    6.8919   10.3924   25.5926 C   0  0  0  0  0  0  0  0  0  0  0  0
    8.5245   11.6872   24.3043 C   0  0  0  0  0  0  0  0  0  0  0  0
    7.9722   10.4780   24.7116 C   0  0  0  0  0  0  0  0  0  0  0  0
    6.3648   11.5975   26.0682 C   0  0  0  0  0  0  0  0  0  0  0  0
    9.5722   11.3177   23.4336 C   0  0  0  0  0  0  0  0  0  0  0  0
   10.8224   13.4836   23.1951 C   0  0  0  0  0  0  0  0  0  0  0  0
   12.9605   15.2747   23.8270 C   0  0  0  0  0  0  0  0  0  0  0  0
   13.0495   15.7448   21.3611 C   0  0  0  0  0  0  0  0  0  0  0  0
   10.9751   16.2962   22.6654 C   0  0  0  0  0  0  0  0  0  0  0  0
   12.1555   15.3354   22.5297 C   0  0  0  0  0  0  0  0  0  0  0  0
    9.6859    9.9952   23.2915 N   0  0  0  0  0  0  0  0  0  0  0  0
    8.7065    9.5139   24.0750 N   0  0  0  0  0  0  0  0  0  0  0  0
   10.4050   12.2106   22.7856 N   0  0  0  0  0  0  0  0  0  0  0  0
   10.5164   14.0560   24.2339 O   0  0  0  0  0  0  0  0  0  0  0  0
    5.3091   11.5710   26.9310 O   0  0  0  0  0  0  0  0  0  0  0  0
   11.6478   14.0263   22.2466 O   0  0  0  0  0  0  0  0  0  0  0  0
    8.3903   13.8516   24.4939 H   0  0  0  0  0  0  0  0  0  0  0  0
    6.4747   13.7506   26.0581 H   0  0  0  0  0  0  0  0  0  0  0  0
    6.4806    9.4346   25.8927 H   0  0  0  0  0  0  0  0  0  0  0  0
   12.3224   14.9812   24.6682 H   0  0  0  0  0  0  0  0  0  0  0  0
   13.7894   14.5630   23.7544 H   0  0  0  0  0  0  0  0  0  0  0  0
   13.3708   16.2593   24.0790 H   0  0  0  0  0  0  0  0  0  0  0  0
   12.4760   15.7896   20.4282 H   0  0  0  0  0  0  0  0  0  0  0  0
   13.8436   15.0068   21.2001 H   0  0  0  0  0  0  0  0  0  0  0  0
   13.5133   16.7219   21.5303 H   0  0  0  0  0  0  0  0  0  0  0  0
   10.3975   16.3399   21.7350 H   0  0  0  0  0  0  0  0  0  0  0  0
   10.3026   15.9969   23.4759 H   0  0  0  0  0  0  0  0  0  0  0  0
   11.3237   17.3166   22.8611 H   0  0  0  0  0  0  0  0  0  0  0  0
    8.5893    8.5099   24.1317 H   0  0  0  0  0  0  0  0  0  0  0  0
   10.7699   11.8958   21.8739 H   0  0  0  0  0  0  0  0  0  0  0  0
    5.0480   10.6547   27.1108 H   0  0  0  0  0  0  0  0  0  0  0  0
  1  2  1  0  0  0  0
  1  4  2  0  0  0  0
  2  6  2  0  0  0  0
  3  5  2  0  0  0  0
  3  6  1  0  0  0  0
  4  5  1  0  0  0  0
  4  7  1  0  0  0  0
  5 14  1  0  0  0  0
  6 17  1  0  0  0  0
  7 13  2  0  0  0  0
  7 15  1  0  0  0  0
  8 15  1  0  0  0  0
  8 16  2  0  0  0  0
  8 18  1  0  0  0  0
  9 12  1  0  0  0  0
 10 12  1  0  0  0  0
 11 12  1  0  0  0  0
 12 18  1  0  0  0  0
 13 14  1  0  0  0  0
  1 19  1  0  0  0  0
  2 20  1  0  0  0  0
  3 21  1  0  0  0  0
  9 22  1  0  0  0  0
  9 23  1  0  0  0  0
  9 24  1  0  0  0  0
 10 25  1  0  0  0  0
 10 26  1  0  0  0  0
 10 27  1  0  0  0  0
 11 28  1  0  0  0  0
 11 29  1  0  0  0  0
 11 30  1  0  0  0  0
 14 31  1  0  0  0  0
 15 32  1  0  0  0  0
 17 33  1  0  0  0  0
M  END
> <id>
EN300-26665182

> <smiles>
CC(C)(C)OC(=O)NC1=NNC=2C=C(O)C=CC12

> <IUPAC Name>
tert-butyl N-(6-hydroxy-1H-indazol-3-yl)carbamate

> <CAS>
2413870-84-3

> <URL>
https://www.enaminestore.com/catalog/EN300-26665182

> <ROCS_ShapeQuery>
A71EV2A-x0451_0A_A71EV2A-x0310_0A_A71EV2A-x0416_0A_peptide

> <ROCS_TanimotoCombo>
0.513 

> <ROCS_ShapeTanimoto>
0.342 

> <ROCS_ColorTanimoto>
0.171 

> <ROCS_RefTversky>
0.297 

> <ROCS_RefColorTversky>
0.195 

> <ROCS_RefTverskyCombo>
0.491 

> <ROCS_FitTversky>
1.799 

> <ROCS_FitColorTversky>
0.586 

> <ROCS_FitTverskyCombo>
2.385 

> <ROCS_ColorScore>
-5.954

> <ROCS_Overlap>
2057.622

> <ROCS_Rank>
328                 

$$$$
untitled-dbase-71904_153
  -OEChem-11132313473D

 47 49  0     1  0  0  0  0  0999 V2000
    6.3151   12.9790   26.8538 C   0  0  0  0  0  0  0  0  0  0  0  0
    5.4192   10.7555   27.1551 C   0  0  0  0  0  0  0  0  0  0  0  0
    5.4654   13.4566   27.8515 C   0  0  0  0  0  0  0  0  0  0  0  0
    4.5695   11.2331   28.1529 C   0  0  0  0  0  0  0  0  0  0  0  0
    6.2920   11.6285   26.5055 C   0  0  0  0  0  0  0  0  0  0  0  0
    4.5926   12.5837   28.5011 C   0  0  0  0  0  0  0  0  0  0  0  0
    9.8694   13.3586   23.5610 C   0  0  0  0  0  0  0  0  0  0  0  0
    8.4483   10.1711   22.7159 C   0  0  0  0  0  0  0  0  0  0  0  0
    9.4955    9.7741   23.7743 C   0  0  0  0  0  0  0  0  0  0  0  0
    6.9798   11.8040   24.0303 C   0  0  0  0  0  0  0  0  0  0  0  0
    8.7451   11.1519   25.7989 C   0  0  0  0  0  0  0  0  0  0  0  0
    8.1298   11.6395   23.0130 C   0  0  1  0  0  0  0  0  0  0  0  0
    9.7150   11.0435   24.6033 C   0  0  2  0  0  0  0  0  0  0  0  0
    7.2279   11.1022   25.4090 C   0  0  0  0  0  0  0  0  0  0  0  0
   11.8647   13.3254   21.8634 C   0  0  0  0  0  0  0  0  0  0  0  0
   10.3047   14.1669   20.0836 C   0  0  0  0  0  0  0  0  0  0  0  0
   11.1132   15.7274   21.8779 C   0  0  0  0  0  0  0  0  0  0  0  0
   10.7207   14.2880   21.5480 C   0  0  0  0  0  0  0  0  0  0  0  0
    9.3371   12.0892   23.6714 N   0  0  0  0  0  0  0  0  0  0  0  0
   10.5200   13.9138   24.4434 O   0  0  0  0  0  0  0  0  0  0  0  0
    6.8688    9.7194   25.2433 O   0  0  0  0  0  0  0  0  0  0  0  0
    9.5893   13.9290   22.3489 O   0  0  0  0  0  0  0  0  0  0  0  0
    3.5446   13.1730   29.7320 Cl  0  0  0  0  0  0  0  0  0  0  0  0
    6.9921   13.6655   26.3522 H   0  0  0  0  0  0  0  0  0  0  0  0
    5.3952    9.7019   26.8898 H   0  0  0  0  0  0  0  0  0  0  0  0
    5.4947   14.5113   28.1125 H   0  0  0  0  0  0  0  0  0  0  0  0
    3.8946   10.5413   28.6503 H   0  0  0  0  0  0  0  0  0  0  0  0
    8.8923   10.0751   21.7178 H   0  0  0  0  0  0  0  0  0  0  0  0
    7.5649    9.5262   22.7469 H   0  0  0  0  0  0  0  0  0  0  0  0
    9.1727    8.9191   24.3758 H   0  0  0  0  0  0  0  0  0  0  0  0
   10.4250    9.4881   23.2674 H   0  0  0  0  0  0  0  0  0  0  0  0
    6.8311   12.8809   24.1922 H   0  0  0  0  0  0  0  0  0  0  0  0
    6.0526   11.4232   23.5827 H   0  0  0  0  0  0  0  0  0  0  0  0
    8.9670   10.3456   26.5103 H   0  0  0  0  0  0  0  0  0  0  0  0
    8.9584   12.0972   26.3176 H   0  0  0  0  0  0  0  0  0  0  0  0
    7.9225   12.2155   22.1057 H   0  0  0  0  0  0  0  0  0  0  0  0
   10.7510   11.1429   24.9404 H   0  0  0  0  0  0  0  0  0  0  0  0
   12.1662   13.4092   22.9136 H   0  0  0  0  0  0  0  0  0  0  0  0
   11.5839   12.2861   21.6641 H   0  0  0  0  0  0  0  0  0  0  0  0
   12.7526   13.5645   21.2669 H   0  0  0  0  0  0  0  0  0  0  0  0
    9.4841   14.8558   19.8529 H   0  0  0  0  0  0  0  0  0  0  0  0
    9.9324   13.1594   19.8656 H   0  0  0  0  0  0  0  0  0  0  0  0
   11.1385   14.3822   19.4076 H   0  0  0  0  0  0  0  0  0  0  0  0
   10.2928   16.4181   21.6518 H   0  0  0  0  0  0  0  0  0  0  0  0
   11.3794   15.8410   22.9337 H   0  0  0  0  0  0  0  0  0  0  0  0
   11.9649   16.0487   21.2675 H   0  0  0  0  0  0  0  0  0  0  0  0
    5.9359    9.7082   24.9811 H   0  0  0  0  0  0  0  0  0  0  0  0
  1  3  1  0  0  0  0
  1  5  2  0  0  0  0
  2  4  2  0  0  0  0
  2  5  1  0  0  0  0
  3  6  2  0  0  0  0
  4  6  1  0  0  0  0
  5 14  1  0  0  0  0
  6 23  1  0  0  0  0
  7 19  1  0  0  0  0
  7 20  2  0  0  0  0
  7 22  1  0  0  0  0
  8  9  1  0  0  0  0
  8 12  1  0  0  0  0
  9 13  1  0  0  0  0
 10 12  1  0  0  0  0
 10 14  1  0  0  0  0
 11 13  1  0  0  0  0
 11 14  1  0  0  0  0
 12 19  1  0  0  0  0
 13 19  1  0  0  0  0
 14 21  1  0  0  0  0
 15 18  1  0  0  0  0
 16 18  1  0  0  0  0
 17 18  1  0  0  0  0
 18 22  1  0  0  0  0
  1 24  1  0  0  0  0
  2 25  1  0  0  0  0
  3 26  1  0  0  0  0
  4 27  1  0  0  0  0
  8 28  1  0  0  0  0
  8 29  1  0  0  0  0
  9 30  1  0  0  0  0
  9 31  1  0  0  0  0
 10 32  1  0  0  0  0
 10 33  1  0  0  0  0
 11 34  1  0  0  0  0
 11 35  1  0  0  0  0
 12 36  1  0  0  0  0
 13 37  1  0  0  0  0
 15 38  1  0  0  0  0
 15 39  1  0  0  0  0
 15 40  1  0  0  0  0
 16 41  1  0  0  0  0
 16 42  1  0  0  0  0
 16 43  1  0  0  0  0
 17 44  1  0  0  0  0
 17 45  1  0  0  0  0
 17 46  1  0  0  0  0
 21 47  1  0  0  0  0
M  END
> <id>
EN300-185803

> <smiles>
CC(C)(C)OC(=O)N1C2CCC1CC(O)(C2)C=3C=CC(Cl)=CC3

> <IUPAC Name>
tert-butyl 3-(4-chlorophenyl)-3-hydroxy-8-azabicyclo[3.2.1]octane-8-carboxylate

> <CAS>
2649069-48-5

> <URL>
https://www.enaminestore.com/catalog/EN300-185803

> <ROCS_ShapeQuery>
A71EV2A-x0451_0A_A71EV2A-x0310_0A_A71EV2A-x0416_0A_peptide

> <ROCS_TanimotoCombo>
0.513 

> <ROCS_ShapeTanimoto>
0.315 

> <ROCS_ColorTanimoto>
0.198 

> <ROCS_RefTversky>
0.286 

> <ROCS_RefColorTversky>
0.229 

> <ROCS_RefTverskyCombo>
0.515 

> <ROCS_FitTversky>
1.481 

> <ROCS_FitColorTversky>
0.593 

> <ROCS_FitTverskyCombo>
2.074 

> <ROCS_ColorScore>
-7.021

> <ROCS_Overlap>
1985.160

> <ROCS_Rank>
329                 

$$$$
untitled-dbase-907_7
  -OEChem-11132313473D

 26 27  0     0  0  0  0  0  0999 V2000
    7.0072   12.9999   26.1827 C   0  0  0  0  0  0  0  0  0  0  0  0
    6.3009   11.8134   26.3367 C   0  0  0  0  0  0  0  0  0  0  0  0
    8.0929   13.0453   25.3129 C   0  0  0  0  0  0  0  0  0  0  0  0
    6.6817   10.6756   25.6209 C   0  0  0  0  0  0  0  0  0  0  0  0
    9.9172   10.7715   23.0147 C   0  0  0  0  0  0  0  0  0  0  0  0
    8.4757   11.9008   24.5931 C   0  0  0  0  0  0  0  0  0  0  0  0
    9.5645   11.9185   23.7110 C   0  0  0  0  0  0  0  0  0  0  0  0
    7.7631   10.6927   24.7443 C   0  0  0  0  0  0  0  0  0  0  0  0
    9.1605    9.6372   23.2283 C   0  0  0  0  0  0  0  0  0  0  0  0
   10.3693   13.1139   23.4778 C   0  0  0  0  0  0  0  0  0  0  0  0
    9.5040    8.3796   22.5021 C   0  0  0  0  0  0  0  0  0  0  0  0
    8.1032    9.5780   24.0700 N   0  0  0  0  0  0  0  0  0  0  0  0
   11.6956   14.3436   21.9035 N   0  0  0  0  0  0  0  0  0  0  0  0
   10.9404   13.2264   22.2100 N   0  0  0  0  0  0  0  0  0  0  0  0
   10.5223   13.9923   24.3378 O   0  0  0  0  0  0  0  0  0  0  0  0
    6.7153   13.8859   26.7383 H   0  0  0  0  0  0  0  0  0  0  0  0
    5.4517   11.7701   27.0124 H   0  0  0  0  0  0  0  0  0  0  0  0
    8.6284   13.9863   25.2128 H   0  0  0  0  0  0  0  0  0  0  0  0
    6.1126    9.7581   25.7601 H   0  0  0  0  0  0  0  0  0  0  0  0
   10.7565   10.7635   22.3263 H   0  0  0  0  0  0  0  0  0  0  0  0
   10.2177    7.7856   23.0854 H   0  0  0  0  0  0  0  0  0  0  0  0
    8.6104    7.7696   22.3188 H   0  0  0  0  0  0  0  0  0  0  0  0
    9.9486    8.5952   21.5221 H   0  0  0  0  0  0  0  0  0  0  0  0
   11.5464   14.5374   20.9141 H   0  0  0  0  0  0  0  0  0  0  0  0
   11.2817   15.1262   22.4083 H   0  0  0  0  0  0  0  0  0  0  0  0
   10.8031   12.4959   21.5198 H   0  0  0  0  0  0  0  0  0  0  0  0
  1  2  1  0  0  0  0
  1  3  2  0  0  0  0
  2  4  2  0  0  0  0
  3  6  1  0  0  0  0
  4  8  1  0  0  0  0
  5  7  1  0  0  0  0
  5  9  2  0  0  0  0
  6  7  2  0  0  0  0
  6  8  1  0  0  0  0
  7 10  1  0  0  0  0
  8 12  2  0  0  0  0
  9 11  1  0  0  0  0
  9 12  1  0  0  0  0
 10 14  1  0  0  0  0
 10 15  2  0  0  0  0
 13 14  1  0  0  0  0
  1 16  1  0  0  0  0
  2 17  1  0  0  0  0
  3 18  1  0  0  0  0
  4 19  1  0  0  0  0
  5 20  1  0  0  0  0
 11 21  1  0  0  0  0
 11 22  1  0  0  0  0
 11 23  1  0  0  0  0
 13 24  1  0  0  0  0
 13 25  1  0  0  0  0
 14 26  1  0  0  0  0
M  END
> <id>
EN300-04810

> <smiles>
CC=1C=C(C(=O)NN)C=2C=CC=CC2N1

> <MDLNUMBER>
MFCD00681068

> <IUPAC Name>
2-methylquinoline-4-carbohydrazide

> <CAS>
29620-66-4

> <Purity>
95

> <URL>
https://www.enaminestore.com/catalog/EN300-04810

> <ROCS_ShapeQuery>
A71EV2A-x0451_0A_A71EV2A-x0310_0A_A71EV2A-x0416_0A_peptide

> <ROCS_TanimotoCombo>
0.513 

> <ROCS_ShapeTanimoto>
0.314 

> <ROCS_ColorTanimoto>
0.199 

> <ROCS_RefTversky>
0.274 

> <ROCS_RefColorTversky>
0.207 

> <ROCS_RefTverskyCombo>
0.481 

> <ROCS_FitTversky>
1.875 

> <ROCS_FitColorTversky>
0.833 

> <ROCS_FitTverskyCombo>
2.707 

> <ROCS_ColorScore>
-6.305

> <ROCS_Overlap>
1897.580

> <ROCS_Rank>
330                 

$$$$
untitled-dbase-33365_7
  -OEChem-11132313473D

 37 38  0     0  0  0  0  0  0999 V2000
    7.9570   13.0338   25.3122 C   0  0  0  0  0  0  0  0  0  0  0  0
    6.8666   12.8715   26.1762 C   0  0  0  0  0  0  0  0  0  0  0  0
    6.6985   10.5623   25.5450 C   0  0  0  0  0  0  0  0  0  0  0  0
    8.4469   11.9625   24.5497 C   0  0  0  0  0  0  0  0  0  0  0  0
    7.7999   10.7184   24.6942 C   0  0  0  0  0  0  0  0  0  0  0  0
    6.2358   11.6389   26.2909 C   0  0  0  0  0  0  0  0  0  0  0  0
   10.2963   13.2544   23.4256 C   0  0  0  0  0  0  0  0  0  0  0  0
    9.7725   10.8978   22.7795 C   0  0  0  0  0  0  0  0  0  0  0  0
    9.5138    9.6288   23.5612 C   0  0  0  0  0  0  0  0  0  0  0  0
   12.7670   14.5097   22.6791 C   0  0  0  0  0  0  0  0  0  0  0  0
   11.8531   14.4984   20.3395 C   0  0  0  0  0  0  0  0  0  0  0  0
   10.6738   15.7977   22.1365 C   0  0  0  0  0  0  0  0  0  0  0  0
   11.5010   14.5514   21.8245 C   0  0  0  0  0  0  0  0  0  0  0  0
    9.5332   12.0853   23.6125 N   0  0  0  0  0  0  0  0  0  0  0  0
   10.5889   14.0809   24.2849 O   0  0  0  0  0  0  0  0  0  0  0  0
    4.7661   10.0410   27.7007 O   0  0  0  0  0  0  0  0  0  0  0  0
    4.9408   12.4885   28.3651 O   0  0  0  0  0  0  0  0  0  0  0  0
    8.1660    9.5829   24.0139 O   0  0  0  0  0  0  0  0  0  0  0  0
   10.7115   13.3935   22.1226 O   0  0  0  0  0  0  0  0  0  0  0  0
    3.5587   11.7680   26.5198 F   0  0  0  0  0  0  0  0  0  0  0  0
    4.8694   11.4467   27.3586 S   0  0  0  0  0  0  0  0  0  0  0  0
    8.3713   14.0326   25.2558 H   0  0  0  0  0  0  0  0  0  0  0  0
    6.5128   13.7266   26.7469 H   0  0  0  0  0  0  0  0  0  0  0  0
    6.2115    9.5932   25.6265 H   0  0  0  0  0  0  0  0  0  0  0  0
   10.8002   10.8843   22.4048 H   0  0  0  0  0  0  0  0  0  0  0  0
    9.0961   10.9763   21.9198 H   0  0  0  0  0  0  0  0  0  0  0  0
    9.6721    8.7589   22.9149 H   0  0  0  0  0  0  0  0  0  0  0  0
   10.1967    9.5269   24.4145 H   0  0  0  0  0  0  0  0  0  0  0  0
   12.5185   14.5476   23.7458 H   0  0  0  0  0  0  0  0  0  0  0  0
   13.3516   13.6035   22.4902 H   0  0  0  0  0  0  0  0  0  0  0  0
   13.4028   15.3797   22.4788 H   0  0  0  0  0  0  0  0  0  0  0  0
   10.9477   14.5281   19.7225 H   0  0  0  0  0  0  0  0  0  0  0  0
   12.3642   13.5607   20.0927 H   0  0  0  0  0  0  0  0  0  0  0  0
   12.4991   15.3326   20.0474 H   0  0  0  0  0  0  0  0  0  0  0  0
    9.7657   15.8278   21.5236 H   0  0  0  0  0  0  0  0  0  0  0  0
   10.3807   15.8337   23.1907 H   0  0  0  0  0  0  0  0  0  0  0  0
   11.2366   16.7081   21.9003 H   0  0  0  0  0  0  0  0  0  0  0  0
  1  2  1  0  0  0  0
  1  4  2  0  0  0  0
  2  6  2  0  0  0  0
  3  5  2  0  0  0  0
  3  6  1  0  0  0  0
  4  5  1  0  0  0  0
  4 14  1  0  0  0  0
  5 18  1  0  0  0  0
  6 21  1  0  0  0  0
  7 14  1  0  0  0  0
  7 15  2  0  0  0  0
  7 19  1  0  0  0  0
  8  9  1  0  0  0  0
  8 14  1  0  0  0  0
  9 18  1  0  0  0  0
 10 13  1  0  0  0  0
 11 13  1  0  0  0  0
 12 13  1  0  0  0  0
 13 19  1  0  0  0  0
 16 21  2  0  0  0  0
 17 21  2  0  0  0  0
 20 21  1  0  0  0  0
  1 22  1  0  0  0  0
  2 23  1  0  0  0  0
  3 24  1  0  0  0  0
  8 25  1  0  0  0  0
  8 26  1  0  0  0  0
  9 27  1  0  0  0  0
  9 28  1  0  0  0  0
 10 29  1  0  0  0  0
 10 30  1  0  0  0  0
 10 31  1  0  0  0  0
 11 32  1  0  0  0  0
 11 33  1  0  0  0  0
 11 34  1  0  0  0  0
 12 35  1  0  0  0  0
 12 36  1  0  0  0  0
 12 37  1  0  0  0  0
M  END
> <id>
EN300-728993

> <smiles>
CC(C)(C)OC(=O)N1CCOC=2C=C(C=CC12)S(=O)(=O)F

> <MDLNUMBER>
MFCD31446058

> <IUPAC Name>
tert-butyl 7-(fluorosulfonyl)-3,4-dihydro-2H-1,4-benzoxazine-4-carboxylate

> <CAS>
2137593-31-6

> <URL>
https://www.enaminestore.com/catalog/EN300-728993

> <ROCS_ShapeQuery>
A71EV2A-x0451_0A_A71EV2A-x0310_0A_A71EV2A-x0416_0A_peptide

> <ROCS_TanimotoCombo>
0.513 

> <ROCS_ShapeTanimoto>
0.354 

> <ROCS_ColorTanimoto>
0.159 

> <ROCS_RefTversky>
0.308 

> <ROCS_RefColorTversky>
0.166 

> <ROCS_RefTverskyCombo>
0.474 

> <ROCS_FitTversky>
1.718 

> <ROCS_FitColorTversky>
0.795 

> <ROCS_FitTverskyCombo>
2.512 

> <ROCS_ColorScore>
-5.039

> <ROCS_Overlap>
2139.148

> <ROCS_Rank>
331                 

$$$$
untitled-dbase-154037_7
  -OEChem-11132313473D

 32 32  0     0  0  0  0  0  0999 V2000
    9.3178   11.5156   23.4842 C   0  0  0  0  0  0  0  0  0  0  0  0
    9.1152   10.1228   23.4567 C   0  0  0  0  0  0  0  0  0  0  0  0
    8.3457   11.9873   24.3322 C   0  0  0  0  0  0  0  0  0  0  0  0
   10.8699   13.4708   23.2026 C   0  0  0  0  0  0  0  0  0  0  0  0
   11.5291   16.2124   22.7248 C   0  0  0  0  0  0  0  0  0  0  0  0
   12.6209   15.3907   20.6173 C   0  0  0  0  0  0  0  0  0  0  0  0
   10.1498   15.0853   20.9466 C   0  0  0  0  0  0  0  0  0  0  0  0
    6.5180   10.8528   25.6469 C   0  0  0  0  0  0  0  0  0  0  0  0
    9.8788    9.1120   22.7032 C   0  0  0  0  0  0  0  0  0  0  0  0
   11.5120   15.1397   21.6368 C   0  0  0  0  0  0  0  0  0  0  0  0
    8.0948    9.7348   24.2261 N   0  0  0  0  0  0  0  0  0  0  0  0
    7.6474   10.8909   24.7452 N   0  0  0  0  0  0  0  0  0  0  0  0
   10.2911   12.2818   22.8033 N   0  0  0  0  0  0  0  0  0  0  0  0
   10.6541   14.1019   24.2301 O   0  0  0  0  0  0  0  0  0  0  0  0
   11.7649   13.8722   22.2443 O   0  0  0  0  0  0  0  0  0  0  0  0
   10.9040    9.6256   21.9478 F   0  0  0  0  0  0  0  0  0  0  0  0
   10.4792    8.1583   23.4874 F   0  0  0  0  0  0  0  0  0  0  0  0
    9.1108    8.4026   21.8151 F   0  0  0  0  0  0  0  0  0  0  0  0
    7.9422   13.5441   24.8712 Cl  0  0  0  0  0  0  0  0  0  0  0  0
   10.7345   16.0358   23.4586 H   0  0  0  0  0  0  0  0  0  0  0  0
   12.4889   16.2381   23.2510 H   0  0  0  0  0  0  0  0  0  0  0  0
   11.3413   17.2046   22.2987 H   0  0  0  0  0  0  0  0  0  0  0  0
   12.6124   14.6234   19.8347 H   0  0  0  0  0  0  0  0  0  0  0  0
   13.6073   15.3364   21.0921 H   0  0  0  0  0  0  0  0  0  0  0  0
   12.5185   16.3716   20.1421 H   0  0  0  0  0  0  0  0  0  0  0  0
   10.1373   14.3159   20.1661 H   0  0  0  0  0  0  0  0  0  0  0  0
    9.3458   14.8694   21.6576 H   0  0  0  0  0  0  0  0  0  0  0  0
    9.9276   16.0355   20.4477 H   0  0  0  0  0  0  0  0  0  0  0  0
    5.6071   10.9526   25.0509 H   0  0  0  0  0  0  0  0  0  0  0  0
    6.5176    9.9037   26.1900 H   0  0  0  0  0  0  0  0  0  0  0  0
    6.5996   11.6752   26.3632 H   0  0  0  0  0  0  0  0  0  0  0  0
   10.6040   11.9119   21.9089 H   0  0  0  0  0  0  0  0  0  0  0  0
  1  2  1  0  0  0  0
  1  3  2  0  0  0  0
  1 13  1  0  0  0  0
  2  9  1  0  0  0  0
  2 11  2  0  0  0  0
  3 12  1  0  0  0  0
  3 19  1  0  0  0  0
  4 13  1  0  0  0  0
  4 14  2  0  0  0  0
  4 15  1  0  0  0  0
  5 10  1  0  0  0  0
  6 10  1  0  0  0  0
  7 10  1  0  0  0  0
  8 12  1  0  0  0  0
  9 16  1  0  0  0  0
  9 17  1  0  0  0  0
  9 18  1  0  0  0  0
 10 15  1  0  0  0  0
 11 12  1  0  0  0  0
  5 20  1  0  0  0  0
  5 21  1  0  0  0  0
  5 22  1  0  0  0  0
  6 23  1  0  0  0  0
  6 24  1  0  0  0  0
  6 25  1  0  0  0  0
  7 26  1  0  0  0  0
  7 27  1  0  0  0  0
  7 28  1  0  0  0  0
  8 29  1  0  0  0  0
  8 30  1  0  0  0  0
  8 31  1  0  0  0  0
 13 32  1  0  0  0  0
M  END
> <id>
EN300-28290141

> <smiles>
CN1N=C(C(NC(=O)OC(C)(C)C)=C1Cl)C(F)(F)F

> <IUPAC Name>
tert-butyl N-[5-chloro-1-methyl-3-(trifluoromethyl)-1H-pyrazol-4-yl]carbamate

> <CAS>
2680744-27-6

> <URL>
https://www.enaminestore.com/catalog/EN300-28290141

> <ROCS_ShapeQuery>
A71EV2A-x0451_0A_A71EV2A-x0310_0A_A71EV2A-x0416_0A_peptide

> <ROCS_TanimotoCombo>
0.513 

> <ROCS_ShapeTanimoto>
0.344 

> <ROCS_ColorTanimoto>
0.169 

> <ROCS_RefTversky>
0.299 

> <ROCS_RefColorTversky>
0.175 

> <ROCS_RefTverskyCombo>
0.474 

> <ROCS_FitTversky>
1.774 

> <ROCS_FitColorTversky>
0.839 

> <ROCS_FitTverskyCombo>
2.612 

> <ROCS_ColorScore>
-5.313

> <ROCS_Overlap>
2072.764

> <ROCS_Rank>
332                 

$$$$
untitled-dbase-104474_330
  -OEChem-11132313473D

 40 41  0     1  0  0  0  0  0999 V2000
    6.9025   10.5081   25.6757 C   0  0  0  0  0  0  0  0  0  0  0  0
    6.2691   11.6203   26.2187 C   0  0  0  0  0  0  0  0  0  0  0  0
    7.7604   13.0500   24.9693 C   0  0  0  0  0  0  0  0  0  0  0  0
    7.9765   10.6511   24.7744 C   0  0  0  0  0  0  0  0  0  0  0  0
    8.4454   11.9433   24.4370 C   0  0  0  0  0  0  0  0  0  0  0  0
    6.6907   12.8905   25.8552 C   0  0  0  0  0  0  0  0  0  0  0  0
   10.3289   13.2629   23.3550 C   0  0  0  0  0  0  0  0  0  0  0  0
    9.9498    9.6602   23.5749 C   0  0  0  0  0  0  0  0  0  0  0  0
    9.9228   10.9230   22.7318 C   0  0  0  0  0  0  0  0  0  0  0  0
    8.5779    9.3869   24.1884 C   0  0  2  0  0  0  0  0  0  0  0  0
   13.0987   13.5219   22.6668 C   0  0  0  0  0  0  0  0  0  0  0  0
   12.2759   14.2887   20.4209 C   0  0  0  0  0  0  0  0  0  0  0  0
   11.7186   15.6181   22.4777 C   0  0  0  0  0  0  0  0  0  0  0  0
    7.6256    8.7586   23.1625 C   0  0  0  0  0  0  0  0  0  0  0  0
   11.9662   14.2193   21.9147 C   0  0  0  0  0  0  0  0  0  0  0  0
    9.5622   12.0936   23.5376 N   0  0  0  0  0  0  0  0  0  0  0  0
   10.5273   14.0923   24.2435 O   0  0  0  0  0  0  0  0  0  0  0  0
    7.9897    7.4031   22.9872 O   0  0  0  0  0  0  0  0  0  0  0  0
   10.7704   13.4461   22.0721 O   0  0  0  0  0  0  0  0  0  0  0  0
    6.0771   13.9683   26.3606 F   0  0  0  0  0  0  0  0  0  0  0  0
    6.5581    9.5156   25.9620 H   0  0  0  0  0  0  0  0  0  0  0  0
    5.4588   11.4948   26.9304 H   0  0  0  0  0  0  0  0  0  0  0  0
    8.0457   14.0718   24.7507 H   0  0  0  0  0  0  0  0  0  0  0  0
   10.2711    8.8117   22.9648 H   0  0  0  0  0  0  0  0  0  0  0  0
   10.6922    9.7785   24.3718 H   0  0  0  0  0  0  0  0  0  0  0  0
   10.9038   11.0724   22.3063 H   0  0  0  0  0  0  0  0  0  0  0  0
    9.2023   10.8385   21.9326 H   0  0  0  0  0  0  0  0  0  0  0  0
    8.7261    8.6461   24.9897 H   0  0  0  0  0  0  0  0  0  0  0  0
   12.8802   13.4700   23.7394 H   0  0  0  0  0  0  0  0  0  0  0  0
   13.2630   12.5049   22.2959 H   0  0  0  0  0  0  0  0  0  0  0  0
   14.0359   14.0816   22.5690 H   0  0  0  0  0  0  0  0  0  0  0  0
   11.4659   14.7884   19.8773 H   0  0  0  0  0  0  0  0  0  0  0  0
   12.3606   13.2834   19.9927 H   0  0  0  0  0  0  0  0  0  0  0  0
   13.2084   14.8282   20.2263 H   0  0  0  0  0  0  0  0  0  0  0  0
   10.9063   16.1186   21.9384 H   0  0  0  0  0  0  0  0  0  0  0  0
   11.4586   15.5848   23.5407 H   0  0  0  0  0  0  0  0  0  0  0  0
   12.6059   16.2498   22.3558 H   0  0  0  0  0  0  0  0  0  0  0  0
    7.7106    9.2833   22.2126 H   0  0  0  0  0  0  0  0  0  0  0  0
    6.6018    8.8155   23.5279 H   0  0  0  0  0  0  0  0  0  0  0  0
    7.3760    7.0232   22.3349 H   0  0  0  0  0  0  0  0  0  0  0  0
  1  2  1  0  0  0  0
  1  4  2  0  0  0  0
  2  6  2  0  0  0  0
  3  5  2  0  0  0  0
  3  6  1  0  0  0  0
  4  5  1  0  0  0  0
  4 10  1  0  0  0  0
  5 16  1  0  0  0  0
  6 20  1  0  0  0  0
  7 16  1  0  0  0  0
  7 17  2  0  0  0  0
  7 19  1  0  0  0  0
  8  9  1  0  0  0  0
  8 10  1  0  0  0  0
  9 16  1  0  0  0  0
 10 14  1  0  0  0  0
 11 15  1  0  0  0  0
 12 15  1  0  0  0  0
 13 15  1  0  0  0  0
 14 18  1  0  0  0  0
 15 19  1  0  0  0  0
  1 21  1  0  0  0  0
  2 22  1  0  0  0  0
  3 23  1  0  0  0  0
  8 24  1  0  0  0  0
  8 25  1  0  0  0  0
  9 26  1  0  0  0  0
  9 27  1  0  0  0  0
 10 28  1  0  0  0  0
 11 29  1  0  0  0  0
 11 30  1  0  0  0  0
 11 31  1  0  0  0  0
 12 32  1  0  0  0  0
 12 33  1  0  0  0  0
 12 34  1  0  0  0  0
 13 35  1  0  0  0  0
 13 36  1  0  0  0  0
 13 37  1  0  0  0  0
 14 38  1  0  0  0  0
 14 39  1  0  0  0  0
 18 40  1  0  0  0  0
M  END
> <id>
EN300-26666170

> <smiles>
CC(C)(C)OC(=O)N1CCC(CO)C=2C=CC(F)=CC12

> <IUPAC Name>
tert-butyl 7-fluoro-4-(hydroxymethyl)-1,2,3,4-tetrahydroquinoline-1-carboxylate

> <CAS>
2413897-30-8

> <URL>
https://www.enaminestore.com/catalog/EN300-26666170

> <ROCS_ShapeQuery>
A71EV2A-x0451_0A_A71EV2A-x0310_0A_A71EV2A-x0416_0A_peptide

> <ROCS_TanimotoCombo>
0.513 

> <ROCS_ShapeTanimoto>
0.361 

> <ROCS_ColorTanimoto>
0.152 

> <ROCS_RefTversky>
0.311 

> <ROCS_RefColorTversky>
0.163 

> <ROCS_RefTverskyCombo>
0.475 

> <ROCS_FitTversky>
1.791 

> <ROCS_FitColorTversky>
0.681 

> <ROCS_FitTverskyCombo>
2.472 

> <ROCS_ColorScore>
-4.962

> <ROCS_Overlap>
2161.561

> <ROCS_Rank>
333                 

$$$$
untitled-dbase-154046_18
  -OEChem-11132313473D

 31 32  0     0  0  0  0  0  0999 V2000
    6.6725   10.5806   25.6851 C   0  0  0  0  0  0  0  0  0  0  0  0
    6.3769   11.8669   26.1809 C   0  0  0  0  0  0  0  0  0  0  0  0
    8.1078   13.0547   24.8286 C   0  0  0  0  0  0  0  0  0  0  0  0
    8.3959   11.7791   24.3417 C   0  0  0  0  0  0  0  0  0  0  0  0
    7.7174   10.5372   24.7338 C   0  0  0  0  0  0  0  0  0  0  0  0
    7.0627   13.0459   25.7712 C   0  0  0  0  0  0  0  0  0  0  0  0
    9.3838   11.5653   23.4117 C   0  0  0  0  0  0  0  0  0  0  0  0
   10.8619   13.5829   23.1762 C   0  0  0  0  0  0  0  0  0  0  0  0
   11.4158   16.3677   22.8338 C   0  0  0  0  0  0  0  0  0  0  0  0
   12.4282   15.7068   20.6321 C   0  0  0  0  0  0  0  0  0  0  0  0
    9.9860   15.3027   21.0573 C   0  0  0  0  0  0  0  0  0  0  0  0
   11.3778   15.3607   21.6853 C   0  0  0  0  0  0  0  0  0  0  0  0
    8.2002    9.4568   24.1058 N   0  0  0  0  0  0  0  0  0  0  0  0
   10.2999   12.4011   22.7335 N   0  0  0  0  0  0  0  0  0  0  0  0
   10.6776   14.1452   24.2487 O   0  0  0  0  0  0  0  0  0  0  0  0
   11.6972   14.0686   22.2030 O   0  0  0  0  0  0  0  0  0  0  0  0
    9.4238    9.8898   23.0774 S   0  0  0  0  0  0  0  0  0  0  0  0
    6.5372   14.7028   26.5416 Br  0  0  0  0  0  0  0  0  0  0  0  0
    6.1341    9.7000   26.0137 H   0  0  0  0  0  0  0  0  0  0  0  0
    5.5769   11.9473   26.9172 H   0  0  0  0  0  0  0  0  0  0  0  0
    8.6216   13.9586   24.5252 H   0  0  0  0  0  0  0  0  0  0  0  0
   10.6633   16.1227   23.5919 H   0  0  0  0  0  0  0  0  0  0  0  0
   12.3988   16.3935   23.3153 H   0  0  0  0  0  0  0  0  0  0  0  0
   11.1784   17.3766   22.4774 H   0  0  0  0  0  0  0  0  0  0  0  0
   12.4044   14.9868   19.8061 H   0  0  0  0  0  0  0  0  0  0  0  0
   13.4375   15.6567   21.0563 H   0  0  0  0  0  0  0  0  0  0  0  0
   12.2738   16.7101   20.2221 H   0  0  0  0  0  0  0  0  0  0  0  0
    9.9585   14.5805   20.2334 H   0  0  0  0  0  0  0  0  0  0  0  0
    9.2241   15.0195   21.7907 H   0  0  0  0  0  0  0  0  0  0  0  0
    9.7119   16.2729   20.6273 H   0  0  0  0  0  0  0  0  0  0  0  0
   10.5799   12.0947   21.8049 H   0  0  0  0  0  0  0  0  0  0  0  0
  1  2  2  0  0  0  0
  1  5  1  0  0  0  0
  2  6  1  0  0  0  0
  3  4  1  0  0  0  0
  3  6  2  0  0  0  0
  4  5  1  0  0  0  0
  4  7  2  0  0  0  0
  5 13  2  0  0  0  0
  6 18  1  0  0  0  0
  7 14  1  0  0  0  0
  7 17  1  0  0  0  0
  8 14  1  0  0  0  0
  8 15  2  0  0  0  0
  8 16  1  0  0  0  0
  9 12  1  0  0  0  0
 10 12  1  0  0  0  0
 11 12  1  0  0  0  0
 12 16  1  0  0  0  0
 13 17  1  0  0  0  0
  1 19  1  0  0  0  0
  2 20  1  0  0  0  0
  3 21  1  0  0  0  0
  9 22  1  0  0  0  0
  9 23  1  0  0  0  0
  9 24  1  0  0  0  0
 10 25  1  0  0  0  0
 10 26  1  0  0  0  0
 10 27  1  0  0  0  0
 11 28  1  0  0  0  0
 11 29  1  0  0  0  0
 11 30  1  0  0  0  0
 14 31  1  0  0  0  0
M  END
> <id>
EN300-28295285

> <smiles>
CC(C)(C)OC(=O)NC=1SN=C2C=CC(Br)=CC12

> <IUPAC Name>
tert-butyl N-(5-bromo-2,1-benzothiazol-3-yl)carbamate

> <CAS>
2680872-97-1

> <URL>
https://www.enaminestore.com/catalog/EN300-28295285

> <ROCS_ShapeQuery>
A71EV2A-x0451_0A_A71EV2A-x0310_0A_A71EV2A-x0416_0A_peptide

> <ROCS_TanimotoCombo>
0.513 

> <ROCS_ShapeTanimoto>
0.330 

> <ROCS_ColorTanimoto>
0.183 

> <ROCS_RefTversky>
0.288 

> <ROCS_RefColorTversky>
0.196 

> <ROCS_RefTverskyCombo>
0.484 

> <ROCS_FitTversky>
1.804 

> <ROCS_FitColorTversky>
0.725 

> <ROCS_FitTverskyCombo>
2.530 

> <ROCS_ColorScore>
-5.986

> <ROCS_Overlap>
1994.117

> <ROCS_Rank>
334                 

$$$$
untitled-dbase-154100_29
  -OEChem-11132313473D

 40 41  0     1  0  0  0  0  0999 V2000
    9.6109   10.4098   23.5330 C   0  0  0  0  0  0  0  0  0  0  0  0
    9.6223   11.7848   23.8507 C   0  0  0  0  0  0  0  0  0  0  0  0
    8.4205   12.0022   24.4831 C   0  0  0  0  0  0  0  0  0  0  0  0
   11.5223   14.3657   21.4503 C   0  0  0  0  0  0  0  0  0  0  0  0
    7.7818   13.2007   25.0908 C   0  0  0  0  0  0  0  0  0  0  0  0
    6.4652   10.5725   25.0357 C   0  0  0  0  0  0  0  0  0  0  0  0
    6.0138   11.7550   25.8995 C   0  0  0  0  0  0  0  0  0  0  0  0
   13.8646   15.0153   19.9451 C   0  0  0  0  0  0  0  0  0  0  0  0
   12.4058   14.7646   17.9158 C   0  0  0  0  0  0  0  0  0  0  0  0
   11.8873   16.5375   19.6175 C   0  0  0  0  0  0  0  0  0  0  0  0
   12.4069   12.0214   23.5256 C   0  0  0  0  0  0  0  0  0  0  0  0
   12.4427   15.1311   19.3978 C   0  0  0  0  0  0  0  0  0  0  0  0
    8.4920    9.7938   23.9291 N   0  0  0  0  0  0  0  0  0  0  0  0
   10.6673   13.4182   22.0461 N   0  0  0  0  0  0  0  0  0  0  0  0
    7.7976   10.7852   24.5088 N   0  0  0  0  0  0  0  0  0  0  0  0
    6.3267   13.0400   25.2565 N   0  0  0  0  0  0  0  0  0  0  0  0
   12.1081   15.2498   22.0667 O   0  0  0  0  0  0  0  0  0  0  0  0
   10.9807   13.8362   24.6634 O   0  0  0  0  0  0  0  0  0  0  0  0
   11.6091   14.1978   20.0939 O   0  0  0  0  0  0  0  0  0  0  0  0
   10.8484   12.9128   23.5191 S   0  0  1  0  0  0  0  0  0  0  0  0
   10.3707    9.8296   23.0289 H   0  0  0  0  0  0  0  0  0  0  0  0
    8.2235   13.4063   26.0736 H   0  0  0  0  0  0  0  0  0  0  0  0
    7.9810   14.0800   24.4640 H   0  0  0  0  0  0  0  0  0  0  0  0
    6.5064    9.6513   25.6261 H   0  0  0  0  0  0  0  0  0  0  0  0
    5.7849   10.4296   24.1911 H   0  0  0  0  0  0  0  0  0  0  0  0
    4.9333   11.6974   26.0934 H   0  0  0  0  0  0  0  0  0  0  0  0
    6.5081   11.7062   26.8781 H   0  0  0  0  0  0  0  0  0  0  0  0
   13.8954   15.2776   21.0087 H   0  0  0  0  0  0  0  0  0  0  0  0
   14.2617   14.0020   19.8253 H   0  0  0  0  0  0  0  0  0  0  0  0
   14.5381   15.7135   19.4350 H   0  0  0  0  0  0  0  0  0  0  0  0
   11.3875   14.8463   17.5189 H   0  0  0  0  0  0  0  0  0  0  0  0
   12.7139   13.7239   17.7633 H   0  0  0  0  0  0  0  0  0  0  0  0
   13.0617   15.4107   17.3233 H   0  0  0  0  0  0  0  0  0  0  0  0
   10.8674   16.6209   19.2250 H   0  0  0  0  0  0  0  0  0  0  0  0
   11.8717   16.8037   20.6794 H   0  0  0  0  0  0  0  0  0  0  0  0
   12.4869   17.2816   19.0807 H   0  0  0  0  0  0  0  0  0  0  0  0
   13.2096   12.7296   23.3141 H   0  0  0  0  0  0  0  0  0  0  0  0
   12.5427   11.5724   24.5107 H   0  0  0  0  0  0  0  0  0  0  0  0
   12.3652   11.2494   22.7557 H   0  0  0  0  0  0  0  0  0  0  0  0
    5.9728   13.7967   25.8392 H   0  0  0  0  0  0  0  0  0  0  0  0
  1  2  1  0  0  0  0
  1 13  2  0  0  0  0
  2  3  2  0  0  0  0
  2 20  1  0  0  0  0
  3  5  1  0  0  0  0
  3 15  1  0  0  0  0
  4 14  1  0  0  0  0
  4 17  2  0  0  0  0
  4 19  1  0  0  0  0
  5 16  1  0  0  0  0
  6  7  1  0  0  0  0
  6 15  1  0  0  0  0
  7 16  1  0  0  0  0
  8 12  1  0  0  0  0
  9 12  1  0  0  0  0
 10 12  1  0  0  0  0
 11 20  1  0  0  0  0
 12 19  1  0  0  0  0
 13 15  1  0  0  0  0
 14 20  2  0  0  0  0
 18 20  2  0  0  0  0
  1 21  1  0  0  0  0
  5 22  1  0  0  0  0
  5 23  1  0  0  0  0
  6 24  1  0  0  0  0
  6 25  1  0  0  0  0
  7 26  1  0  0  0  0
  7 27  1  0  0  0  0
  8 28  1  0  0  0  0
  8 29  1  0  0  0  0
  8 30  1  0  0  0  0
  9 31  1  0  0  0  0
  9 32  1  0  0  0  0
  9 33  1  0  0  0  0
 10 34  1  0  0  0  0
 10 35  1  0  0  0  0
 10 36  1  0  0  0  0
 11 37  1  0  0  0  0
 11 38  1  0  0  0  0
 11 39  1  0  0  0  0
 16 40  1  0  0  0  0
M  END
> <id>
EN300-28290302

> <smiles>
CC(C)(C)OC(=O)N=S(=O)(C)C=1C=NN2CCNCC12

> <IUPAC Name>
tert-butyl N-[methyl(oxo){4H,5H,6H,7H-pyrazolo[1,5-a]pyrazin-3-yl}-lambda6-sulfanylidene]carbamate

> <CAS>
2680676-28-0

> <URL>
https://www.enaminestore.com/catalog/EN300-28290302

> <ROCS_ShapeQuery>
A71EV2A-x0451_0A_A71EV2A-x0310_0A_A71EV2A-x0416_0A_peptide

> <ROCS_TanimotoCombo>
0.513 

> <ROCS_ShapeTanimoto>
0.328 

> <ROCS_ColorTanimoto>
0.184 

> <ROCS_RefTversky>
0.290 

> <ROCS_RefColorTversky>
0.207 

> <ROCS_RefTverskyCombo>
0.497 

> <ROCS_FitTversky>
1.689 

> <ROCS_FitColorTversky>
0.624 

> <ROCS_FitTverskyCombo>
2.313 

> <ROCS_ColorScore>
-6.338

> <ROCS_Overlap>
2009.224

> <ROCS_Rank>
335                 

$$$$
untitled-dbase-133329_23
  -OEChem-11132313473D

 36 37  0     1  0  0  0  0  0999 V2000
    7.9563   13.0328   25.3129 C   0  0  0  0  0  0  0  0  0  0  0  0
    6.8665   12.8699   26.1776 C   0  0  0  0  0  0  0  0  0  0  0  0
    6.6987   10.5609   25.5458 C   0  0  0  0  0  0  0  0  0  0  0  0
    8.4460   11.9618   24.5497 C   0  0  0  0  0  0  0  0  0  0  0  0
    7.7994   10.7175   24.6942 C   0  0  0  0  0  0  0  0  0  0  0  0
    6.2361   11.6371   26.2924 C   0  0  0  0  0  0  0  0  0  0  0  0
   10.2942   13.2547   23.4248 C   0  0  0  0  0  0  0  0  0  0  0  0
    9.7706   10.8982   22.7782 C   0  0  0  0  0  0  0  0  0  0  0  0
    9.5128    9.6288   23.5598 C   0  0  0  0  0  0  0  0  0  0  0  0
   12.7640   14.5110   22.6770 C   0  0  0  0  0  0  0  0  0  0  0  0
   11.8485   14.5001   20.3379 C   0  0  0  0  0  0  0  0  0  0  0  0
   10.6701   15.7985   22.1362 C   0  0  0  0  0  0  0  0  0  0  0  0
   11.4974   14.5526   21.8233 C   0  0  0  0  0  0  0  0  0  0  0  0
    9.5315   12.0853   23.6118 N   0  0  0  0  0  0  0  0  0  0  0  0
    5.0523   12.3846   28.4527 O   0  5  0  0  0  0  0  0  0  0  0  0
   10.5872   14.0810   24.2841 O   0  0  0  0  0  0  0  0  0  0  0  0
    3.6782   11.4723   26.5318 O   0  0  0  0  0  0  0  0  0  0  0  0
    8.1654    9.5824   24.0133 O   0  0  0  0  0  0  0  0  0  0  0  0
   10.7084   13.3943   22.1215 O   0  0  0  0  0  0  0  0  0  0  0  0
    4.8705   11.4441   27.3609 S   0  0  1  0  0  0  0  0  0  0  0  0
    8.3702   14.0317   25.2565 H   0  0  0  0  0  0  0  0  0  0  0  0
    6.5128   13.7247   26.7488 H   0  0  0  0  0  0  0  0  0  0  0  0
    6.2120    9.5915   25.6273 H   0  0  0  0  0  0  0  0  0  0  0  0
   10.7980   10.8851   22.4029 H   0  0  0  0  0  0  0  0  0  0  0  0
    9.0936   10.9767   21.9190 H   0  0  0  0  0  0  0  0  0  0  0  0
    9.6710    8.7592   22.9131 H   0  0  0  0  0  0  0  0  0  0  0  0
   10.1964    9.5269   24.4125 H   0  0  0  0  0  0  0  0  0  0  0  0
   12.5162   14.5484   23.7438 H   0  0  0  0  0  0  0  0  0  0  0  0
   13.3487   13.6049   22.4873 H   0  0  0  0  0  0  0  0  0  0  0  0
   13.3994   15.3812   22.4765 H   0  0  0  0  0  0  0  0  0  0  0  0
   10.9426   14.5297   19.7217 H   0  0  0  0  0  0  0  0  0  0  0  0
   12.3596   13.5627   20.0906 H   0  0  0  0  0  0  0  0  0  0  0  0
   12.4940   15.3346   20.0457 H   0  0  0  0  0  0  0  0  0  0  0  0
    9.7615   15.8286   21.5240 H   0  0  0  0  0  0  0  0  0  0  0  0
   10.3776   15.8341   23.1906 H   0  0  0  0  0  0  0  0  0  0  0  0
   11.2324   16.7091   21.8999 H   0  0  0  0  0  0  0  0  0  0  0  0
  1  2  1  0  0  0  0
  1  4  2  0  0  0  0
  2  6  2  0  0  0  0
  3  5  2  0  0  0  0
  3  6  1  0  0  0  0
  4  5  1  0  0  0  0
  4 14  1  0  0  0  0
  5 18  1  0  0  0  0
  6 20  1  0  0  0  0
  7 14  1  0  0  0  0
  7 16  2  0  0  0  0
  7 19  1  0  0  0  0
  8  9  1  0  0  0  0
  8 14  1  0  0  0  0
  9 18  1  0  0  0  0
 10 13  1  0  0  0  0
 11 13  1  0  0  0  0
 12 13  1  0  0  0  0
 13 19  1  0  0  0  0
 15 20  1  0  0  0  0
 17 20  2  0  0  0  0
  1 21  1  0  0  0  0
  2 22  1  0  0  0  0
  3 23  1  0  0  0  0
  8 24  1  0  0  0  0
  8 25  1  0  0  0  0
  9 26  1  0  0  0  0
  9 27  1  0  0  0  0
 10 28  1  0  0  0  0
 10 29  1  0  0  0  0
 10 30  1  0  0  0  0
 11 31  1  0  0  0  0
 11 32  1  0  0  0  0
 11 33  1  0  0  0  0
 12 34  1  0  0  0  0
 12 35  1  0  0  0  0
 12 36  1  0  0  0  0
M  CHG  1  15  -1
M  END
> <id>
EN300-724536

> <smiles>
[Na+].CC(C)(C)OC(=O)N1CCOC=2C=C(C=CC12)S(=O)[O-]

> <MDLNUMBER>
MFCD31442644

> <IUPAC Name>
sodium 4-[(tert-butoxy)carbonyl]-3,4-dihydro-2H-1,4-benzoxazine-7-sulfinate

> <CAS>
2137606-06-3

> <URL>
https://www.enaminestore.com/catalog/EN300-724536

> <ROCS_ShapeQuery>
A71EV2A-x0451_0A_A71EV2A-x0310_0A_A71EV2A-x0416_0A_peptide

> <ROCS_TanimotoCombo>
0.513 

> <ROCS_ShapeTanimoto>
0.353 

> <ROCS_ColorTanimoto>
0.159 

> <ROCS_RefTversky>
0.306 

> <ROCS_RefColorTversky>
0.166 

> <ROCS_RefTverskyCombo>
0.472 

> <ROCS_FitTversky>
1.768 

> <ROCS_FitColorTversky>
0.795 

> <ROCS_FitTverskyCombo>
2.562 

> <ROCS_ColorScore>
-5.039

> <ROCS_Overlap>
2126.557

> <ROCS_Rank>
336                 

$$$$
untitled-dbase-87867_11
  -OEChem-11132313473D

 35 36  0     0  0  0  0  0  0999 V2000
   10.1348   10.6996   23.1805 C   0  0  0  0  0  0  0  0  0  0  0  0
    9.3416    9.5849   23.3882 C   0  0  0  0  0  0  0  0  0  0  0  0
    9.7042   11.9116   23.7068 C   0  0  0  0  0  0  0  0  0  0  0  0
    8.5008   11.9775   24.4117 C   0  0  0  0  0  0  0  0  0  0  0  0
    7.7788   10.7930   24.5810 C   0  0  0  0  0  0  0  0  0  0  0  0
   10.5371   13.0881   23.4914 C   0  0  0  0  0  0  0  0  0  0  0  0
    8.0367   13.2683   25.0311 C   0  0  0  0  0  0  0  0  0  0  0  0
    6.4596   10.8179   25.3074 C   0  0  0  0  0  0  0  0  0  0  0  0
    6.2904   12.0654   26.1756 C   0  0  0  0  0  0  0  0  0  0  0  0
   12.3864   15.0906   22.5932 C   0  0  0  0  0  0  0  0  0  0  0  0
   12.3181   13.8910   20.3875 C   0  0  0  0  0  0  0  0  0  0  0  0
   10.2277   14.9350   21.3086 C   0  0  0  0  0  0  0  0  0  0  0  0
   11.5389   14.2315   21.6559 C   0  0  0  0  0  0  0  0  0  0  0  0
    8.1758    9.6013   24.0716 N   0  0  0  0  0  0  0  0  0  0  0  0
    6.6164   13.2636   25.4019 N   0  0  0  0  0  0  0  0  0  0  0  0
   10.6066   14.0452   24.2710 O   0  0  0  0  0  0  0  0  0  0  0  0
   11.2336   12.9996   22.3184 O   0  0  0  0  0  0  0  0  0  0  0  0
   11.0599   10.6176   22.6199 H   0  0  0  0  0  0  0  0  0  0  0  0
    9.6324    8.6157   22.9965 H   0  0  0  0  0  0  0  0  0  0  0  0
    8.6099   13.4789   25.9410 H   0  0  0  0  0  0  0  0  0  0  0  0
    8.2231   14.0897   24.3284 H   0  0  0  0  0  0  0  0  0  0  0  0
    5.6400   10.7668   24.5815 H   0  0  0  0  0  0  0  0  0  0  0  0
    6.4027    9.9196   25.9348 H   0  0  0  0  0  0  0  0  0  0  0  0
    5.2667   12.1350   26.5645 H   0  0  0  0  0  0  0  0  0  0  0  0
    6.9544   12.0007   27.0444 H   0  0  0  0  0  0  0  0  0  0  0  0
   11.8306   15.3372   23.5050 H   0  0  0  0  0  0  0  0  0  0  0  0
   13.3136   14.5828   22.8779 H   0  0  0  0  0  0  0  0  0  0  0  0
   12.6454   16.0453   22.1214 H   0  0  0  0  0  0  0  0  0  0  0  0
   11.7138   13.2747   19.7120 H   0  0  0  0  0  0  0  0  0  0  0  0
   13.2122   13.3032   20.6246 H   0  0  0  0  0  0  0  0  0  0  0  0
   12.6284   14.7926   19.8496 H   0  0  0  0  0  0  0  0  0  0  0  0
    9.6196   14.3190   20.6363 H   0  0  0  0  0  0  0  0  0  0  0  0
    9.6379   15.1542   22.2045 H   0  0  0  0  0  0  0  0  0  0  0  0
   10.4184   15.8752   20.7786 H   0  0  0  0  0  0  0  0  0  0  0  0
    6.4133   14.0911   25.9633 H   0  0  0  0  0  0  0  0  0  0  0  0
  1  2  1  0  0  0  0
  1  3  2  0  0  0  0
  2 14  2  0  0  0  0
  3  4  1  0  0  0  0
  3  6  1  0  0  0  0
  4  5  2  0  0  0  0
  4  7  1  0  0  0  0
  5  8  1  0  0  0  0
  5 14  1  0  0  0  0
  6 16  2  0  0  0  0
  6 17  1  0  0  0  0
  7 15  1  0  0  0  0
  8  9  1  0  0  0  0
  9 15  1  0  0  0  0
 10 13  1  0  0  0  0
 11 13  1  0  0  0  0
 12 13  1  0  0  0  0
 13 17  1  0  0  0  0
  1 18  1  0  0  0  0
  2 19  1  0  0  0  0
  7 20  1  0  0  0  0
  7 21  1  0  0  0  0
  8 22  1  0  0  0  0
  8 23  1  0  0  0  0
  9 24  1  0  0  0  0
  9 25  1  0  0  0  0
 10 26  1  0  0  0  0
 10 27  1  0  0  0  0
 10 28  1  0  0  0  0
 11 29  1  0  0  0  0
 11 30  1  0  0  0  0
 11 31  1  0  0  0  0
 12 32  1  0  0  0  0
 12 33  1  0  0  0  0
 12 34  1  0  0  0  0
 15 35  1  0  0  0  0
M  END
> <id>
EN300-6512311

> <smiles>
CC(C)(C)OC(=O)C=1C=CN=C2CCNCC12

> <IUPAC Name>
tert-butyl 5,6,7,8-tetrahydro-1,6-naphthyridine-4-carboxylate

> <CAS>
2248299-67-2

> <URL>
https://www.enaminestore.com/catalog/EN300-6512311

> <ROCS_ShapeQuery>
A71EV2A-x0451_0A_A71EV2A-x0310_0A_A71EV2A-x0416_0A_peptide

> <ROCS_TanimotoCombo>
0.512 

> <ROCS_ShapeTanimoto>
0.335 

> <ROCS_ColorTanimoto>
0.177 

> <ROCS_RefTversky>
0.290 

> <ROCS_RefColorTversky>
0.191 

> <ROCS_RefTverskyCombo>
0.482 

> <ROCS_FitTversky>
1.854 

> <ROCS_FitColorTversky>
0.708 

> <ROCS_FitTverskyCombo>
2.562 

> <ROCS_ColorScore>
-5.834

> <ROCS_Overlap>
2011.893

> <ROCS_Rank>
337                 

$$$$
untitled-dbase-145972_7
  -OEChem-11132313473D

 38 39  0     0  0  0  0  0  0999 V2000
   10.8316   13.6501   23.0902 C   0  0  0  0  0  0  0  0  0  0  0  0
    9.1121   10.0945   25.3561 C   0  0  0  0  0  0  0  0  0  0  0  0
    7.1620   11.1199   24.1592 C   0  0  0  0  0  0  0  0  0  0  0  0
    9.9986   11.2731   24.9237 C   0  0  0  0  0  0  0  0  0  0  0  0
    8.0479   12.2999   23.7291 C   0  0  0  0  0  0  0  0  0  0  0  0
    9.0536   10.2662   22.9709 C   0  0  0  0  0  0  0  0  0  0  0  0
    8.1471    9.9326   24.1616 C   0  0  0  0  0  0  0  0  0  0  0  0
    9.4307   11.6404   23.5370 C   0  0  0  0  0  0  0  0  0  0  0  0
   11.2281   16.4355   22.6060 C   0  0  0  0  0  0  0  0  0  0  0  0
   12.3305   15.7173   20.4664 C   0  0  0  0  0  0  0  0  0  0  0  0
    9.9072   15.1898   20.8630 C   0  0  0  0  0  0  0  0  0  0  0  0
   11.2776   15.3664   21.5154 C   0  0  0  0  0  0  0  0  0  0  0  0
    7.4914    8.6458   24.1269 N   0  0  0  0  0  0  0  0  0  0  0  0
   10.3273   12.4055   22.7338 N   0  0  0  0  0  0  0  0  0  0  0  0
   10.5724   14.2444   24.1315 O   0  0  0  0  0  0  0  0  0  0  0  0
   11.6617   14.1231   22.1131 O   0  0  0  0  0  0  0  0  0  0  0  0
    9.7316    9.2010   25.5010 H   0  0  0  0  0  0  0  0  0  0  0  0
    8.5895   10.2978   26.2970 H   0  0  0  0  0  0  0  0  0  0  0  0
    6.7009   11.2889   25.1383 H   0  0  0  0  0  0  0  0  0  0  0  0
    6.3568   10.9783   23.4278 H   0  0  0  0  0  0  0  0  0  0  0  0
    9.9481   12.1045   25.6346 H   0  0  0  0  0  0  0  0  0  0  0  0
   11.0424   10.9437   24.8559 H   0  0  0  0  0  0  0  0  0  0  0  0
    7.6699   12.7212   22.7898 H   0  0  0  0  0  0  0  0  0  0  0  0
    8.0612   13.0966   24.4802 H   0  0  0  0  0  0  0  0  0  0  0  0
    9.9073    9.5856   22.8727 H   0  0  0  0  0  0  0  0  0  0  0  0
    8.5149   10.3201   22.0178 H   0  0  0  0  0  0  0  0  0  0  0  0
   10.4735   16.1873   23.3610 H   0  0  0  0  0  0  0  0  0  0  0  0
   12.1960   16.5473   23.1055 H   0  0  0  0  0  0  0  0  0  0  0  0
   10.9399   17.4070   22.1885 H   0  0  0  0  0  0  0  0  0  0  0  0
   12.3695   14.9529   19.6819 H   0  0  0  0  0  0  0  0  0  0  0  0
   13.3306   15.7519   20.9135 H   0  0  0  0  0  0  0  0  0  0  0  0
   12.1268   16.6853   19.9974 H   0  0  0  0  0  0  0  0  0  0  0  0
    9.9424   14.4230   20.0807 H   0  0  0  0  0  0  0  0  0  0  0  0
    9.1461   14.9016   21.5953 H   0  0  0  0  0  0  0  0  0  0  0  0
    9.5863   16.1164   20.3736 H   0  0  0  0  0  0  0  0  0  0  0  0
    8.1820    7.9292   24.0592 H   0  0  0  0  0  0  0  0  0  0  0  0
    6.9612    8.5276   24.9636 H   0  0  0  0  0  0  0  0  0  0  0  0
   10.6189   12.0112   21.8347 H   0  0  0  0  0  0  0  0  0  0  0  0
  1 14  1  0  0  0  0
  1 15  2  0  0  0  0
  1 16  1  0  0  0  0
  2  4  1  0  0  0  0
  2  7  1  0  0  0  0
  3  5  1  0  0  0  0
  3  7  1  0  0  0  0
  4  8  1  0  0  0  0
  5  8  1  0  0  0  0
  6  7  1  0  0  0  0
  6  8  1  0  0  0  0
  7 13  1  0  0  0  0
  8 14  1  0  0  0  0
  9 12  1  0  0  0  0
 10 12  1  0  0  0  0
 11 12  1  0  0  0  0
 12 16  1  0  0  0  0
  2 17  1  0  0  0  0
  2 18  1  0  0  0  0
  3 19  1  0  0  0  0
  3 20  1  0  0  0  0
  4 21  1  0  0  0  0
  4 22  1  0  0  0  0
  5 23  1  0  0  0  0
  5 24  1  0  0  0  0
  6 25  1  0  0  0  0
  6 26  1  0  0  0  0
  9 27  1  0  0  0  0
  9 28  1  0  0  0  0
  9 29  1  0  0  0  0
 10 30  1  0  0  0  0
 10 31  1  0  0  0  0
 10 32  1  0  0  0  0
 11 33  1  0  0  0  0
 11 34  1  0  0  0  0
 11 35  1  0  0  0  0
 13 36  1  0  0  0  0
 13 37  1  0  0  0  0
 14 38  1  0  0  0  0
M  END
> <id>
EN300-7211206

> <smiles>
CC(C)(C)OC(=O)NC1(CCC2(N)CC1)C2

> <MDLNUMBER>
MFCD27987309

> <IUPAC Name>
tert-butyl N-{4-aminobicyclo[2.2.1]heptan-1-yl}carbamate

> <CAS>
1630907-27-5

> <Purity>
95

> <URL>
https://www.enaminestore.com/catalog/EN300-7211206

> <ROCS_ShapeQuery>
A71EV2A-x0451_0A_A71EV2A-x0310_0A_A71EV2A-x0416_0A_peptide

> <ROCS_TanimotoCombo>
0.512 

> <ROCS_ShapeTanimoto>
0.280 

> <ROCS_ColorTanimoto>
0.232 

> <ROCS_RefTversky>
0.252 

> <ROCS_RefColorTversky>
0.264 

> <ROCS_RefTverskyCombo>
0.516 

> <ROCS_FitTversky>
1.684 

> <ROCS_FitColorTversky>
0.657 

> <ROCS_FitTverskyCombo>
2.341 

> <ROCS_ColorScore>
-8.106

> <ROCS_Overlap>
1743.514

> <ROCS_Rank>
338                 

$$$$
untitled-dbase-170991_7
  -OEChem-11132313473D

 38 39  0     0  0  0  0  0  0999 V2000
   10.8316   13.6501   23.0902 C   0  0  0  0  0  0  0  0  0  0  0  0
    9.1121   10.0945   25.3561 C   0  0  0  0  0  0  0  0  0  0  0  0
    7.1620   11.1199   24.1592 C   0  0  0  0  0  0  0  0  0  0  0  0
    9.9986   11.2731   24.9237 C   0  0  0  0  0  0  0  0  0  0  0  0
    8.0479   12.2999   23.7291 C   0  0  0  0  0  0  0  0  0  0  0  0
    9.0536   10.2662   22.9709 C   0  0  0  0  0  0  0  0  0  0  0  0
    8.1471    9.9326   24.1616 C   0  0  0  0  0  0  0  0  0  0  0  0
    9.4307   11.6404   23.5370 C   0  0  0  0  0  0  0  0  0  0  0  0
   11.2281   16.4355   22.6060 C   0  0  0  0  0  0  0  0  0  0  0  0
   12.3305   15.7173   20.4664 C   0  0  0  0  0  0  0  0  0  0  0  0
    9.9072   15.1898   20.8630 C   0  0  0  0  0  0  0  0  0  0  0  0
   11.2776   15.3664   21.5154 C   0  0  0  0  0  0  0  0  0  0  0  0
    7.4914    8.6458   24.1269 N   0  0  0  0  0  0  0  0  0  0  0  0
   10.3273   12.4055   22.7338 N   0  0  0  0  0  0  0  0  0  0  0  0
   10.5724   14.2444   24.1315 O   0  0  0  0  0  0  0  0  0  0  0  0
   11.6617   14.1231   22.1131 O   0  0  0  0  0  0  0  0  0  0  0  0
    9.7316    9.2010   25.5010 H   0  0  0  0  0  0  0  0  0  0  0  0
    8.5895   10.2978   26.2970 H   0  0  0  0  0  0  0  0  0  0  0  0
    6.7009   11.2889   25.1383 H   0  0  0  0  0  0  0  0  0  0  0  0
    6.3568   10.9783   23.4278 H   0  0  0  0  0  0  0  0  0  0  0  0
    9.9481   12.1045   25.6346 H   0  0  0  0  0  0  0  0  0  0  0  0
   11.0424   10.9437   24.8559 H   0  0  0  0  0  0  0  0  0  0  0  0
    7.6699   12.7212   22.7898 H   0  0  0  0  0  0  0  0  0  0  0  0
    8.0612   13.0966   24.4802 H   0  0  0  0  0  0  0  0  0  0  0  0
    9.9073    9.5856   22.8727 H   0  0  0  0  0  0  0  0  0  0  0  0
    8.5149   10.3201   22.0178 H   0  0  0  0  0  0  0  0  0  0  0  0
   10.4735   16.1873   23.3610 H   0  0  0  0  0  0  0  0  0  0  0  0
   12.1960   16.5473   23.1055 H   0  0  0  0  0  0  0  0  0  0  0  0
   10.9399   17.4070   22.1885 H   0  0  0  0  0  0  0  0  0  0  0  0
   12.3695   14.9529   19.6819 H   0  0  0  0  0  0  0  0  0  0  0  0
   13.3306   15.7519   20.9135 H   0  0  0  0  0  0  0  0  0  0  0  0
   12.1268   16.6853   19.9974 H   0  0  0  0  0  0  0  0  0  0  0  0
    9.9424   14.4230   20.0807 H   0  0  0  0  0  0  0  0  0  0  0  0
    9.1461   14.9016   21.5953 H   0  0  0  0  0  0  0  0  0  0  0  0
    9.5863   16.1164   20.3736 H   0  0  0  0  0  0  0  0  0  0  0  0
    8.1820    7.9292   24.0592 H   0  0  0  0  0  0  0  0  0  0  0  0
    6.9612    8.5276   24.9636 H   0  0  0  0  0  0  0  0  0  0  0  0
   10.6189   12.0112   21.8347 H   0  0  0  0  0  0  0  0  0  0  0  0
  1 14  1  0  0  0  0
  1 15  2  0  0  0  0
  1 16  1  0  0  0  0
  2  4  1  0  0  0  0
  2  7  1  0  0  0  0
  3  5  1  0  0  0  0
  3  7  1  0  0  0  0
  4  8  1  0  0  0  0
  5  8  1  0  0  0  0
  6  7  1  0  0  0  0
  6  8  1  0  0  0  0
  7 13  1  0  0  0  0
  8 14  1  0  0  0  0
  9 12  1  0  0  0  0
 10 12  1  0  0  0  0
 11 12  1  0  0  0  0
 12 16  1  0  0  0  0
  2 17  1  0  0  0  0
  2 18  1  0  0  0  0
  3 19  1  0  0  0  0
  3 20  1  0  0  0  0
  4 21  1  0  0  0  0
  4 22  1  0  0  0  0
  5 23  1  0  0  0  0
  5 24  1  0  0  0  0
  6 25  1  0  0  0  0
  6 26  1  0  0  0  0
  9 27  1  0  0  0  0
  9 28  1  0  0  0  0
  9 29  1  0  0  0  0
 10 30  1  0  0  0  0
 10 31  1  0  0  0  0
 10 32  1  0  0  0  0
 11 33  1  0  0  0  0
 11 34  1  0  0  0  0
 11 35  1  0  0  0  0
 13 36  1  0  0  0  0
 13 37  1  0  0  0  0
 14 38  1  0  0  0  0
M  END
> <id>
EN300-22838967

> <smiles>
Cl.CC(C)(C)OC(=O)NC1(CCC2(N)CC1)C2

> <MDLNUMBER>
MFCD31705340

> <IUPAC Name>
tert-butyl N-{4-aminobicyclo[2.2.1]heptan-1-yl}carbamate hydrochloride

> <CAS>
2227206-30-4

> <Purity>
95

> <URL>
https://www.enaminestore.com/catalog/EN300-22838967

> <ROCS_ShapeQuery>
A71EV2A-x0451_0A_A71EV2A-x0310_0A_A71EV2A-x0416_0A_peptide

> <ROCS_TanimotoCombo>
0.512 

> <ROCS_ShapeTanimoto>
0.280 

> <ROCS_ColorTanimoto>
0.232 

> <ROCS_RefTversky>
0.252 

> <ROCS_RefColorTversky>
0.264 

> <ROCS_RefTverskyCombo>
0.516 

> <ROCS_FitTversky>
1.684 

> <ROCS_FitColorTversky>
0.657 

> <ROCS_FitTverskyCombo>
2.341 

> <ROCS_ColorScore>
-8.106

> <ROCS_Overlap>
1743.514

> <ROCS_Rank>
339                 

$$$$
untitled-dbase-23489_29
  -OEChem-11132313473D

 35 36  0     0  0  0  0  0  0999 V2000
    8.6460    8.6255   23.1797 C   0  0  0  0  0  0  0  0  0  0  0  0
    7.9348   13.0212   25.2681 C   0  0  0  0  0  0  0  0  0  0  0  0
    6.7998   12.6399   25.9770 C   0  0  0  0  0  0  0  0  0  0  0  0
    9.8148   10.8110   23.0863 C   0  0  0  0  0  0  0  0  0  0  0  0
    8.8097    9.9923   23.5424 C   0  0  0  0  0  0  0  0  0  0  0  0
    8.0094   10.7612   24.4098 C   0  0  0  0  0  0  0  0  0  0  0  0
    8.5490   12.0493   24.4660 C   0  0  0  0  0  0  0  0  0  0  0  0
    6.3414   11.3395   25.8559 C   0  0  0  0  0  0  0  0  0  0  0  0
   10.5104   13.1757   23.4066 C   0  0  0  0  0  0  0  0  0  0  0  0
   13.0854   14.1954   22.7915 C   0  0  0  0  0  0  0  0  0  0  0  0
   12.4156   13.9169   20.3867 C   0  0  0  0  0  0  0  0  0  0  0  0
   11.1311   15.4855   21.8691 C   0  0  0  0  0  0  0  0  0  0  0  0
    4.6228   11.9892   27.3659 C   0  0  0  0  0  0  0  0  0  0  0  0
   11.9173   14.1768   21.8067 C   0  0  0  0  0  0  0  0  0  0  0  0
    8.5126    7.5112   22.8839 N   0  0  0  0  0  0  0  0  0  0  0  0
    6.9029   10.3770   25.0960 N   0  0  0  0  0  0  0  0  0  0  0  0
    9.6721   12.0739   23.6397 N   0  0  0  0  0  0  0  0  0  0  0  0
   10.6847   14.0348   24.2551 O   0  0  0  0  0  0  0  0  0  0  0  0
    5.2201   10.9802   26.5626 O   0  0  0  0  0  0  0  0  0  0  0  0
   11.0414   13.1019   22.1596 O   0  0  0  0  0  0  0  0  0  0  0  0
    8.3118   14.0337   25.3480 H   0  0  0  0  0  0  0  0  0  0  0  0
    6.2888   13.3570   26.6119 H   0  0  0  0  0  0  0  0  0  0  0  0
   10.6274   10.5923   22.4053 H   0  0  0  0  0  0  0  0  0  0  0  0
   12.7319   14.3817   23.8119 H   0  0  0  0  0  0  0  0  0  0  0  0
   13.6364   13.2493   22.7816 H   0  0  0  0  0  0  0  0  0  0  0  0
   13.7844   15.0055   22.5538 H   0  0  0  0  0  0  0  0  0  0  0  0
   11.5807   13.9026   19.6767 H   0  0  0  0  0  0  0  0  0  0  0  0
   12.8977   12.9352   20.3158 H   0  0  0  0  0  0  0  0  0  0  0  0
   13.1321   14.6792   20.0641 H   0  0  0  0  0  0  0  0  0  0  0  0
   10.2931   15.4724   21.1628 H   0  0  0  0  0  0  0  0  0  0  0  0
   10.7343   15.6702   22.8727 H   0  0  0  0  0  0  0  0  0  0  0  0
   11.7633   16.3339   21.5831 H   0  0  0  0  0  0  0  0  0  0  0  0
    3.7456   11.5802   27.8733 H   0  0  0  0  0  0  0  0  0  0  0  0
    4.3318   12.8332   26.7355 H   0  0  0  0  0  0  0  0  0  0  0  0
    5.3476   12.3261   28.1107 H   0  0  0  0  0  0  0  0  0  0  0  0
  1  5  1  0  0  0  0
  1 15  3  0  0  0  0
  2  3  1  0  0  0  0
  2  7  2  0  0  0  0
  3  8  2  0  0  0  0
  4  5  2  0  0  0  0
  4 17  1  0  0  0  0
  5  6  1  0  0  0  0
  6  7  1  0  0  0  0
  6 16  2  0  0  0  0
  7 17  1  0  0  0  0
  8 16  1  0  0  0  0
  8 19  1  0  0  0  0
  9 17  1  0  0  0  0
  9 18  2  0  0  0  0
  9 20  1  0  0  0  0
 10 14  1  0  0  0  0
 11 14  1  0  0  0  0
 12 14  1  0  0  0  0
 13 19  1  0  0  0  0
 14 20  1  0  0  0  0
  2 21  1  0  0  0  0
  3 22  1  0  0  0  0
  4 23  1  0  0  0  0
 10 24  1  0  0  0  0
 10 25  1  0  0  0  0
 10 26  1  0  0  0  0
 11 27  1  0  0  0  0
 11 28  1  0  0  0  0
 11 29  1  0  0  0  0
 12 30  1  0  0  0  0
 12 31  1  0  0  0  0
 12 32  1  0  0  0  0
 13 33  1  0  0  0  0
 13 34  1  0  0  0  0
 13 35  1  0  0  0  0
M  END
> <id>
EN300-335959

> <smiles>
COC=1C=CC=2N(C=C(C#N)C2N1)C(=O)OC(C)(C)C

> <MDLNUMBER>
MFCD30498074

> <IUPAC Name>
tert-butyl 3-cyano-5-methoxy-1H-pyrrolo[3,2-b]pyridine-1-carboxylate

> <CAS>
2060029-88-9

> <URL>
https://www.enaminestore.com/catalog/EN300-335959

> <ROCS_ShapeQuery>
A71EV2A-x0451_0A_A71EV2A-x0310_0A_A71EV2A-x0416_0A_peptide

> <ROCS_TanimotoCombo>
0.512 

> <ROCS_ShapeTanimoto>
0.363 

> <ROCS_ColorTanimoto>
0.150 

> <ROCS_RefTversky>
0.313 

> <ROCS_RefColorTversky>
0.166 

> <ROCS_RefTverskyCombo>
0.479 

> <ROCS_FitTversky>
1.763 

> <ROCS_FitColorTversky>
0.610 

> <ROCS_FitTverskyCombo>
2.373 

> <ROCS_ColorScore>
-5.044

> <ROCS_Overlap>
2175.153

> <ROCS_Rank>
340                 

$$$$
untitled-dbase-155134_39
  -OEChem-11132313473D

 44 46  0     0  0  0  0  0  0999 V2000
    6.3122   11.4034   26.0779 C   0  0  0  0  0  0  0  0  0  0  0  0
    6.8569   12.6556   26.3551 C   0  0  0  0  0  0  0  0  0  0  0  0
   11.7856   10.0814   21.2963 C   0  0  0  0  0  0  0  0  0  0  0  0
    6.9330   10.5586   25.1574 C   0  0  0  0  0  0  0  0  0  0  0  0
    8.0248   13.0684   25.7131 C   0  0  0  0  0  0  0  0  0  0  0  0
   10.6178    9.6685   21.9383 C   0  0  0  0  0  0  0  0  0  0  0  0
   12.3304   11.3336   21.5736 C   0  0  0  0  0  0  0  0  0  0  0  0
    8.1051   10.9688   24.5109 C   0  0  0  0  0  0  0  0  0  0  0  0
    8.6510   12.2238   24.7888 C   0  0  0  0  0  0  0  0  0  0  0  0
    9.9916   10.5131   22.8628 C   0  0  0  0  0  0  0  0  0  0  0  0
   10.5376   11.7680   23.1407 C   0  0  0  0  0  0  0  0  0  0  0  0
   11.7097   12.1784   22.4942 C   0  0  0  0  0  0  0  0  0  0  0  0
    8.7555   10.0676   23.5377 C   0  0  0  0  0  0  0  0  0  0  0  0
    9.8872   12.6692   24.1138 C   0  0  0  0  0  0  0  0  0  0  0  0
   11.6248   14.6525   22.4582 C   0  0  0  0  0  0  0  0  0  0  0  0
   12.3324   15.6994   20.1485 C   0  0  0  0  0  0  0  0  0  0  0  0
   10.2522   14.7325   19.1251 C   0  0  0  0  0  0  0  0  0  0  0  0
   10.0908   16.7388   20.6274 C   0  0  0  0  0  0  0  0  0  0  0  0
   13.7162   13.5168   23.2338 C   0  0  0  0  0  0  0  0  0  0  0  0
   10.8401   15.4372   20.3458 C   0  0  0  0  0  0  0  0  0  0  0  0
   12.3187   13.4178   22.7171 N   0  0  0  0  0  0  0  0  0  0  0  0
    8.2767    8.9670   23.2939 O   0  0  0  0  0  0  0  0  0  0  0  0
   10.3363   13.7764   24.3825 O   0  0  0  0  0  0  0  0  0  0  0  0
   11.8211   15.7001   23.0695 O   0  0  0  0  0  0  0  0  0  0  0  0
   10.6753   14.5636   21.4696 O   0  0  0  0  0  0  0  0  0  0  0  0
    5.4028   11.0846   26.5788 H   0  0  0  0  0  0  0  0  0  0  0  0
    6.3715   13.3116   27.0721 H   0  0  0  0  0  0  0  0  0  0  0  0
   12.2705    9.4256   20.5789 H   0  0  0  0  0  0  0  0  0  0  0  0
    6.4886    9.5871   24.9588 H   0  0  0  0  0  0  0  0  0  0  0  0
    8.4270   14.0501   25.9484 H   0  0  0  0  0  0  0  0  0  0  0  0
   10.2130    8.6874   21.7047 H   0  0  0  0  0  0  0  0  0  0  0  0
   13.2408   11.6391   21.0634 H   0  0  0  0  0  0  0  0  0  0  0  0
   12.7581   16.2052   21.0225 H   0  0  0  0  0  0  0  0  0  0  0  0
   12.8865   14.7701   19.9803 H   0  0  0  0  0  0  0  0  0  0  0  0
   12.5030   16.3636   19.2935 H   0  0  0  0  0  0  0  0  0  0  0  0
    9.1816   14.5424   19.2624 H   0  0  0  0  0  0  0  0  0  0  0  0
   10.7227   13.7540   18.9752 H   0  0  0  0  0  0  0  0  0  0  0  0
   10.3852   15.3245   18.2138 H   0  0  0  0  0  0  0  0  0  0  0  0
    9.0203   16.5510   20.7690 H   0  0  0  0  0  0  0  0  0  0  0  0
   10.4750   17.2399   21.5218 H   0  0  0  0  0  0  0  0  0  0  0  0
   10.1743   17.4278   19.7792 H   0  0  0  0  0  0  0  0  0  0  0  0
   14.4195   13.5393   22.3883 H   0  0  0  0  0  0  0  0  0  0  0  0
   13.8240   14.4381   23.8249 H   0  0  0  0  0  0  0  0  0  0  0  0
   13.9346   12.6458   23.8692 H   0  0  0  0  0  0  0  0  0  0  0  0
  1  2  2  0  0  0  0
  1  4  1  0  0  0  0
  2  5  1  0  0  0  0
  3  6  2  0  0  0  0
  3  7  1  0  0  0  0
  4  8  2  0  0  0  0
  5  9  2  0  0  0  0
  6 10  1  0  0  0  0
  7 12  2  0  0  0  0
  8  9  1  0  0  0  0
  8 13  1  0  0  0  0
  9 14  1  0  0  0  0
 10 11  2  0  0  0  0
 10 13  1  0  0  0  0
 11 12  1  0  0  0  0
 11 14  1  0  0  0  0
 12 21  1  0  0  0  0
 13 22  2  0  0  0  0
 14 23  2  0  0  0  0
 15 21  1  0  0  0  0
 15 24  2  0  0  0  0
 15 25  1  0  0  0  0
 16 20  1  0  0  0  0
 17 20  1  0  0  0  0
 18 20  1  0  0  0  0
 19 21  1  0  0  0  0
 20 25  1  0  0  0  0
  1 26  1  0  0  0  0
  2 27  1  0  0  0  0
  3 28  1  0  0  0  0
  4 29  1  0  0  0  0
  5 30  1  0  0  0  0
  6 31  1  0  0  0  0
  7 32  1  0  0  0  0
 16 33  1  0  0  0  0
 16 34  1  0  0  0  0
 16 35  1  0  0  0  0
 17 36  1  0  0  0  0
 17 37  1  0  0  0  0
 17 38  1  0  0  0  0
 18 39  1  0  0  0  0
 18 40  1  0  0  0  0
 18 41  1  0  0  0  0
 19 42  1  0  0  0  0
 19 43  1  0  0  0  0
 19 44  1  0  0  0  0
M  END
> <id>
EN300-28296610

> <smiles>
CN(C(=O)OC(C)(C)C)C=1C=CC=C2C(=O)C=3C=CC=CC3C(=O)C12

> <IUPAC Name>
tert-butyl N-(9,10-dioxo-9,10-dihydroanthracen-1-yl)-N-methylcarbamate

> <CAS>
2680780-53-2

> <URL>
https://www.enaminestore.com/catalog/EN300-28296610

> <ROCS_ShapeQuery>
A71EV2A-x0451_0A_A71EV2A-x0310_0A_A71EV2A-x0416_0A_peptide

> <ROCS_TanimotoCombo>
0.512 

> <ROCS_ShapeTanimoto>
0.371 

> <ROCS_ColorTanimoto>
0.141 

> <ROCS_RefTversky>
0.327 

> <ROCS_RefColorTversky>
0.157 

> <ROCS_RefTverskyCombo>
0.485 

> <ROCS_FitTversky>
1.558 

> <ROCS_FitColorTversky>
0.581 

> <ROCS_FitTverskyCombo>
2.139 

> <ROCS_ColorScore>
-4.790

> <ROCS_Overlap>
2277.349

> <ROCS_Rank>
341                 

$$$$
untitled-dbase-147901_59
  -OEChem-11132313473D

 38 39  0     1  0  0  0  0  0999 V2000
   10.1512   13.3894   23.3379 C   0  0  0  0  0  0  0  0  0  0  0  0
    9.0597   11.1492   25.2953 C   0  0  0  0  0  0  0  0  0  0  0  0
    9.1671   12.2673   23.1712 C   0  0  1  0  0  0  0  0  0  0  0  0
    9.6664   10.9950   23.8941 C   0  0  2  0  0  0  0  0  0  0  0  0
    7.6315   11.2991   24.7630 C   0  0  1  0  0  0  0  0  0  0  0  0
    7.7718   12.5119   23.8076 C   0  0  1  0  0  0  0  0  0  0  0  0
    8.8832    9.7821   23.3502 C   0  0  2  0  0  0  0  0  0  0  0  0
    7.4662   10.0155   23.9138 C   0  0  1  0  0  0  0  0  0  0  0  0
   12.8751   13.2480   22.5273 C   0  0  0  0  0  0  0  0  0  0  0  0
   12.1940   14.7402   20.6250 C   0  0  0  0  0  0  0  0  0  0  0  0
   11.9766   15.5527   22.9916 C   0  0  0  0  0  0  0  0  0  0  0  0
   11.9055   14.3365   22.0693 C   0  0  0  0  0  0  0  0  0  0  0  0
    7.6632   13.7673   24.5452 N   0  0  0  0  0  0  0  0  0  0  0  0
   10.5007   13.8390   24.4209 O   0  0  0  0  0  0  0  0  0  0  0  0
    9.4667    8.5826   23.8351 O   0  0  0  0  0  0  0  0  0  0  0  0
    7.0068    8.9338   24.7084 O   0  0  0  0  0  0  0  0  0  0  0  0
   10.5757   13.8093   22.1122 O   0  0  0  0  0  0  0  0  0  0  0  0
    9.1934   10.2624   25.9240 H   0  0  0  0  0  0  0  0  0  0  0  0
    9.4286   12.0242   25.8379 H   0  0  0  0  0  0  0  0  0  0  0  0
    9.0704   12.1039   22.0918 H   0  0  0  0  0  0  0  0  0  0  0  0
   10.7510   10.8584   23.9021 H   0  0  0  0  0  0  0  0  0  0  0  0
    6.8712   11.4104   25.5408 H   0  0  0  0  0  0  0  0  0  0  0  0
    6.9970   12.4977   23.0471 H   0  0  0  0  0  0  0  0  0  0  0  0
    8.8915    9.7567   22.2567 H   0  0  0  0  0  0  0  0  0  0  0  0
    6.7340   10.1773   23.1000 H   0  0  0  0  0  0  0  0  0  0  0  0
   12.6712   12.9555   23.5636 H   0  0  0  0  0  0  0  0  0  0  0  0
   12.8088   12.3567   21.8949 H   0  0  0  0  0  0  0  0  0  0  0  0
   13.9090   13.6112   22.5063 H   0  0  0  0  0  0  0  0  0  0  0  0
   11.5006   15.5210   20.2922 H   0  0  0  0  0  0  0  0  0  0  0  0
   12.0515   13.8913   19.9466 H   0  0  0  0  0  0  0  0  0  0  0  0
   13.2171   15.1113   20.5059 H   0  0  0  0  0  0  0  0  0  0  0  0
   11.2812   16.3336   22.6633 H   0  0  0  0  0  0  0  0  0  0  0  0
   11.7361   15.2887   24.0265 H   0  0  0  0  0  0  0  0  0  0  0  0
   12.9768   16.0003   22.9699 H   0  0  0  0  0  0  0  0  0  0  0  0
    7.7859   14.5154   23.9047 H   0  0  0  0  0  0  0  0  0  0  0  0
    6.7628   13.8056   24.9610 H   0  0  0  0  0  0  0  0  0  0  0  0
    8.9460    7.8479   23.4707 H   0  0  0  0  0  0  0  0  0  0  0  0
    7.6721    8.7900   25.4016 H   0  0  0  0  0  0  0  0  0  0  0  0
  1  3  1  1  0  0  0
  1 14  2  0  0  0  0
  1 17  1  0  0  0  0
  2  4  1  1  0  0  0
  2  5  1  1  0  0  0
  3  4  1  0  0  0  0
  3  6  1  0  0  0  0
  4  7  1  0  0  0  0
  5  6  1  0  0  0  0
  5  8  1  0  0  0  0
  6 13  1  1  0  0  0
  7  8  1  0  0  0  0
  7 15  1  1  0  0  0
  8 16  1  1  0  0  0
  9 12  1  0  0  0  0
 10 12  1  0  0  0  0
 11 12  1  0  0  0  0
 12 17  1  0  0  0  0
  2 18  1  0  0  0  0
  2 19  1  0  0  0  0
  3 20  1  0  0  0  0
  4 21  1  0  0  0  0
  5 22  1  0  0  0  0
  6 23  1  0  0  0  0
  7 24  1  0  0  0  0
  8 25  1  0  0  0  0
  9 26  1  0  0  0  0
  9 27  1  0  0  0  0
  9 28  1  0  0  0  0
 10 29  1  0  0  0  0
 10 30  1  0  0  0  0
 10 31  1  0  0  0  0
 11 32  1  0  0  0  0
 11 33  1  0  0  0  0
 11 34  1  0  0  0  0
 13 35  1  0  0  0  0
 13 36  1  0  0  0  0
 15 37  1  0  0  0  0
 16 38  1  0  0  0  0
M  END
> <id>
EN300-27730074

> <smiles>
CC(C)(C)OC(=O)[C@@H]1[C@H](N)[C@@H]2C[C@H]1[C@@H](O)[C@H]2O |&1:7,8,10,12,13,15,r|

> <IUPAC Name>
rac-tert-butyl (1R,2S,3R,4S,5S,6R)-3-amino-5,6-dihydroxybicyclo[2.2.1]heptane-2-carboxylate

> <CAS>
2639389-01-6

> <URL>
https://www.enaminestore.com/catalog/EN300-27730074

> <ROCS_ShapeQuery>
A71EV2A-x0451_0A_A71EV2A-x0310_0A_A71EV2A-x0416_0A_peptide

> <ROCS_TanimotoCombo>
0.512 

> <ROCS_ShapeTanimoto>
0.312 

> <ROCS_ColorTanimoto>
0.200 

> <ROCS_RefTversky>
0.275 

> <ROCS_RefColorTversky>
0.249 

> <ROCS_RefTverskyCombo>
0.524 

> <ROCS_FitTversky>
1.766 

> <ROCS_FitColorTversky>
0.506 

> <ROCS_FitTverskyCombo>
2.272 

> <ROCS_ColorScore>
-7.681

> <ROCS_Overlap>
1904.446

> <ROCS_Rank>
342                 

$$$$
untitled-dbase-154028_12
  -OEChem-11132313473D

 35 36  0     0  0  0  0  0  0999 V2000
   10.9472    9.2530   22.2133 C   0  0  0  0  0  0  0  0  0  0  0  0
    9.7817    9.2305   23.0367 C   0  0  0  0  0  0  0  0  0  0  0  0
    9.1037   10.3461   23.5914 C   0  0  0  0  0  0  0  0  0  0  0  0
    8.0304    9.8471   24.3192 C   0  0  0  0  0  0  0  0  0  0  0  0
    9.2571   11.7317   23.5747 C   0  0  0  0  0  0  0  0  0  0  0  0
    9.1091    8.0955   23.4371 C   0  0  0  0  0  0  0  0  0  0  0  0
    7.3802   11.8844   24.9154 C   0  0  0  0  0  0  0  0  0  0  0  0
   10.9678   13.5210   23.1478 C   0  0  0  0  0  0  0  0  0  0  0  0
   11.8588   16.1288   22.3829 C   0  0  0  0  0  0  0  0  0  0  0  0
   12.9792   14.9779   20.4518 C   0  0  0  0  0  0  0  0  0  0  0  0
   10.4794   14.8926   20.6790 C   0  0  0  0  0  0  0  0  0  0  0  0
    7.0900    7.5922   24.8365 C   0  0  0  0  0  0  0  0  0  0  0  0
   11.8086   14.9342   21.4315 C   0  0  0  0  0  0  0  0  0  0  0  0
   11.8949    9.2711   21.5438 N   0  0  0  0  0  0  0  0  0  0  0  0
    7.1253   10.5634   25.0085 N   0  0  0  0  0  0  0  0  0  0  0  0
    8.3780   12.5082   24.2494 N   0  0  0  0  0  0  0  0  0  0  0  0
    8.0484    8.4815   24.2159 N   0  0  0  0  0  0  0  0  0  0  0  0
   10.3176   12.3362   22.8621 N   0  0  0  0  0  0  0  0  0  0  0  0
   10.7547   14.2876   24.0792 O   0  0  0  0  0  0  0  0  0  0  0  0
   11.9343   13.7364   22.1990 O   0  0  0  0  0  0  0  0  0  0  0  0
    6.2948   12.9116   25.7525 Cl  0  0  0  0  0  0  0  0  0  0  0  0
    9.5587    6.3011   22.9975 Br  0  0  0  0  0  0  0  0  0  0  0  0
   11.0202   16.1011   23.0878 H   0  0  0  0  0  0  0  0  0  0  0  0
   12.7926   16.1505   22.9542 H   0  0  0  0  0  0  0  0  0  0  0  0
   11.7684   17.0718   21.8317 H   0  0  0  0  0  0  0  0  0  0  0  0
   12.9471   14.1226   19.7672 H   0  0  0  0  0  0  0  0  0  0  0  0
   13.9355   14.9122   20.9832 H   0  0  0  0  0  0  0  0  0  0  0  0
   12.9750   15.8976   19.8580 H   0  0  0  0  0  0  0  0  0  0  0  0
   10.4430   14.0358   19.9965 H   0  0  0  0  0  0  0  0  0  0  0  0
    9.6292   14.8238   21.3655 H   0  0  0  0  0  0  0  0  0  0  0  0
   10.3546   15.7875   20.0587 H   0  0  0  0  0  0  0  0  0  0  0  0
    6.2660    7.4411   24.1342 H   0  0  0  0  0  0  0  0  0  0  0  0
    7.5742    6.6395   25.0684 H   0  0  0  0  0  0  0  0  0  0  0  0
    6.7256    8.0438   25.7635 H   0  0  0  0  0  0  0  0  0  0  0  0
   10.6419   11.8373   22.0372 H   0  0  0  0  0  0  0  0  0  0  0  0
  1  2  1  0  0  0  0
  1 14  3  0  0  0  0
  2  3  1  0  0  0  0
  2  6  2  0  0  0  0
  3  4  1  0  0  0  0
  3  5  2  0  0  0  0
  4 15  2  0  0  0  0
  4 17  1  0  0  0  0
  5 16  1  0  0  0  0
  5 18  1  0  0  0  0
  6 17  1  0  0  0  0
  6 22  1  0  0  0  0
  7 15  1  0  0  0  0
  7 16  2  0  0  0  0
  7 21  1  0  0  0  0
  8 18  1  0  0  0  0
  8 19  2  0  0  0  0
  8 20  1  0  0  0  0
  9 13  1  0  0  0  0
 10 13  1  0  0  0  0
 11 13  1  0  0  0  0
 12 17  1  0  0  0  0
 13 20  1  0  0  0  0
  9 23  1  0  0  0  0
  9 24  1  0  0  0  0
  9 25  1  0  0  0  0
 10 26  1  0  0  0  0
 10 27  1  0  0  0  0
 10 28  1  0  0  0  0
 11 29  1  0  0  0  0
 11 30  1  0  0  0  0
 11 31  1  0  0  0  0
 12 32  1  0  0  0  0
 12 33  1  0  0  0  0
 12 34  1  0  0  0  0
 18 35  1  0  0  0  0
M  END
> <id>
EN300-28302348

> <smiles>
CN1C(Br)=C(C#N)C=2C(NC(=O)OC(C)(C)C)=NC(Cl)=NC12

> <IUPAC Name>
tert-butyl N-{6-bromo-2-chloro-5-cyano-7-methyl-7H-pyrrolo[2,3-d]pyrimidin-4-yl}carbamate

> <CAS>
2680770-19-6

> <URL>
https://www.enaminestore.com/catalog/EN300-28302348

> <ROCS_ShapeQuery>
A71EV2A-x0451_0A_A71EV2A-x0310_0A_A71EV2A-x0416_0A_peptide

> <ROCS_TanimotoCombo>
0.512 

> <ROCS_ShapeTanimoto>
0.371 

> <ROCS_ColorTanimoto>
0.142 

> <ROCS_RefTversky>
0.321 

> <ROCS_RefColorTversky>
0.165 

> <ROCS_RefTverskyCombo>
0.486 

> <ROCS_FitTversky>
1.715 

> <ROCS_FitColorTversky>
0.497 

> <ROCS_FitTverskyCombo>
2.213 

> <ROCS_ColorScore>
-5.053

> <ROCS_Overlap>
2228.918

> <ROCS_Rank>
343                 

$$$$
untitled-dbase-123958_91
  -OEChem-11132313473D

 37 38  0     0  0  0  0  0  0999 V2000
   10.4055   13.3645   23.4083 C   0  0  0  0  0  0  0  0  0  0  0  0
    7.3474   10.3710   23.5001 C   0  0  0  0  0  0  0  0  0  0  0  0
    8.7653    9.9420   25.0203 C   0  0  0  0  0  0  0  0  0  0  0  0
    9.7488   11.0013   22.8932 C   0  0  0  0  0  0  0  0  0  0  0  0
    8.4194   12.4436   24.5355 C   0  0  0  0  0  0  0  0  0  0  0  0
    8.8357    9.9155   23.4624 C   0  0  0  0  0  0  0  0  0  0  0  0
    7.7559   11.1051   24.8055 C   0  0  0  0  0  0  0  0  0  0  0  0
   12.9669   14.4392   22.7262 C   0  0  0  0  0  0  0  0  0  0  0  0
   12.1632   14.3573   20.3479 C   0  0  0  0  0  0  0  0  0  0  0  0
   10.9755   15.8067   22.0201 C   0  0  0  0  0  0  0  0  0  0  0  0
    9.0801    8.5542   22.8365 C   0  0  0  0  0  0  0  0  0  0  0  0
   11.7461   14.5042   21.8096 C   0  0  0  0  0  0  0  0  0  0  0  0
    9.5642   12.2647   23.6320 N   0  0  0  0  0  0  0  0  0  0  0  0
   10.6863   14.2037   24.2622 O   0  0  0  0  0  0  0  0  0  0  0  0
    8.0571    7.6664   23.2566 O   0  0  0  0  0  0  0  0  0  0  0  0
   10.8813   13.4068   22.1239 O   0  0  0  0  0  0  0  0  0  0  0  0
    6.7896   11.2399   25.7386 F   0  0  0  0  0  0  0  0  0  0  0  0
    7.0050   10.9971   22.6709 H   0  0  0  0  0  0  0  0  0  0  0  0
    6.6162    9.5678   23.6531 H   0  0  0  0  0  0  0  0  0  0  0  0
    8.3240    9.0511   25.4836 H   0  0  0  0  0  0  0  0  0  0  0  0
    9.6910   10.1851   25.5501 H   0  0  0  0  0  0  0  0  0  0  0  0
   10.8026   10.7105   22.9734 H   0  0  0  0  0  0  0  0  0  0  0  0
    9.5291   11.1946   21.8367 H   0  0  0  0  0  0  0  0  0  0  0  0
    7.7220   13.1469   24.0670 H   0  0  0  0  0  0  0  0  0  0  0  0
    8.7799   12.8998   25.4643 H   0  0  0  0  0  0  0  0  0  0  0  0
   12.6717   14.5442   23.7764 H   0  0  0  0  0  0  0  0  0  0  0  0
   13.5087   13.4948   22.6101 H   0  0  0  0  0  0  0  0  0  0  0  0
   13.6584   15.2630   22.5156 H   0  0  0  0  0  0  0  0  0  0  0  0
   11.2904   14.4034   19.6866 H   0  0  0  0  0  0  0  0  0  0  0  0
   12.6326   13.3826   20.1720 H   0  0  0  0  0  0  0  0  0  0  0  0
   12.8672   15.1403   20.0479 H   0  0  0  0  0  0  0  0  0  0  0  0
   10.0998   15.8536   21.3627 H   0  0  0  0  0  0  0  0  0  0  0  0
   10.6362   15.9117   23.0557 H   0  0  0  0  0  0  0  0  0  0  0  0
   11.5980   16.6729   21.7682 H   0  0  0  0  0  0  0  0  0  0  0  0
   10.0473    8.1582   23.1551 H   0  0  0  0  0  0  0  0  0  0  0  0
    9.0608    8.6285   21.7466 H   0  0  0  0  0  0  0  0  0  0  0  0
    8.2399    6.8070   22.8414 H   0  0  0  0  0  0  0  0  0  0  0  0
  1 13  1  0  0  0  0
  1 14  2  0  0  0  0
  1 16  1  0  0  0  0
  2  6  1  0  0  0  0
  2  7  1  0  0  0  0
  3  6  1  0  0  0  0
  3  7  1  0  0  0  0
  4  6  1  0  0  0  0
  4 13  1  0  0  0  0
  5  7  1  0  0  0  0
  5 13  1  0  0  0  0
  6 11  1  0  0  0  0
  7 17  1  0  0  0  0
  8 12  1  0  0  0  0
  9 12  1  0  0  0  0
 10 12  1  0  0  0  0
 11 15  1  0  0  0  0
 12 16  1  0  0  0  0
  2 18  1  0  0  0  0
  2 19  1  0  0  0  0
  3 20  1  0  0  0  0
  3 21  1  0  0  0  0
  4 22  1  0  0  0  0
  4 23  1  0  0  0  0
  5 24  1  0  0  0  0
  5 25  1  0  0  0  0
  8 26  1  0  0  0  0
  8 27  1  0  0  0  0
  8 28  1  0  0  0  0
  9 29  1  0  0  0  0
  9 30  1  0  0  0  0
  9 31  1  0  0  0  0
 10 32  1  0  0  0  0
 10 33  1  0  0  0  0
 10 34  1  0  0  0  0
 11 35  1  0  0  0  0
 11 36  1  0  0  0  0
 15 37  1  0  0  0  0
M  END
> <id>
EN300-26666157

> <smiles>
CC(C)(C)OC(=O)N1CC2(F)CC(CO)(C2)C1

> <MDLNUMBER>
MFCD34600868

> <IUPAC Name>
tert-butyl 1-fluoro-5-(hydroxymethyl)-3-azabicyclo[3.1.1]heptane-3-carboxylate

> <CAS>
2413900-24-8

> <URL>
https://www.enaminestore.com/catalog/EN300-26666157

> <ROCS_ShapeQuery>
A71EV2A-x0451_0A_A71EV2A-x0310_0A_A71EV2A-x0416_0A_peptide

> <ROCS_TanimotoCombo>
0.512 

> <ROCS_ShapeTanimoto>
0.321 

> <ROCS_ColorTanimoto>
0.191 

> <ROCS_RefTversky>
0.281 

> <ROCS_RefColorTversky>
0.219 

> <ROCS_RefTverskyCombo>
0.500 

> <ROCS_FitTversky>
1.809 

> <ROCS_FitColorTversky>
0.598 

> <ROCS_FitTverskyCombo>
2.407 

> <ROCS_ColorScore>
-6.707

> <ROCS_Overlap>
1947.542

> <ROCS_Rank>
344                 

$$$$
untitled-dbase-148237_15
  -OEChem-11132313473D

 29 29  0     0  0  0  0  0  0999 V2000
    8.3201   12.6320   24.3471 C   0  0  0  0  0  0  0  0  0  0  0  0
    9.1249   11.7541   23.6296 C   0  0  0  0  0  0  0  0  0  0  0  0
    8.8435   10.3925   23.6435 C   0  0  0  0  0  0  0  0  0  0  0  0
    7.7546    9.9629   24.3847 C   0  0  0  0  0  0  0  0  0  0  0  0
    7.2544   12.1022   25.0566 C   0  0  0  0  0  0  0  0  0  0  0  0
   10.9667   13.4027   23.1815 C   0  0  0  0  0  0  0  0  0  0  0  0
   12.0520   15.9380   22.4242 C   0  0  0  0  0  0  0  0  0  0  0  0
   13.0298   14.7237   20.4547 C   0  0  0  0  0  0  0  0  0  0  0  0
   10.5372   14.8411   20.7399 C   0  0  0  0  0  0  0  0  0  0  0  0
   11.8820   14.7639   21.4613 C   0  0  0  0  0  0  0  0  0  0  0  0
    6.9499   10.7855   25.0941 N   0  0  0  0  0  0  0  0  0  0  0  0
   10.2147   12.2790   22.8984 N   0  0  0  0  0  0  0  0  0  0  0  0
   10.8386   14.1723   24.1259 O   0  0  0  0  0  0  0  0  0  0  0  0
    7.4325    8.6313   24.4305 O   0  0  0  0  0  0  0  0  0  0  0  0
   11.9259   13.5501   22.2125 O   0  0  0  0  0  0  0  0  0  0  0  0
    6.4719   12.9379   25.7567 F   0  0  0  0  0  0  0  0  0  0  0  0
    9.8133    9.2652   22.7664 Cl  0  0  0  0  0  0  0  0  0  0  0  0
    8.5105   13.7000   24.3583 H   0  0  0  0  0  0  0  0  0  0  0  0
   11.2300   15.9703   23.1483 H   0  0  0  0  0  0  0  0  0  0  0  0
   12.9971   15.8757   22.9734 H   0  0  0  0  0  0  0  0  0  0  0  0
   12.0270   16.8922   21.8855 H   0  0  0  0  0  0  0  0  0  0  0  0
   12.9118   13.8828   19.7619 H   0  0  0  0  0  0  0  0  0  0  0  0
   13.9892   14.5730   20.9627 H   0  0  0  0  0  0  0  0  0  0  0  0
   13.0879   15.6482   19.8712 H   0  0  0  0  0  0  0  0  0  0  0  0
   10.4150   13.9990   20.0492 H   0  0  0  0  0  0  0  0  0  0  0  0
    9.7000   14.8336   21.4455 H   0  0  0  0  0  0  0  0  0  0  0  0
   10.4725   15.7511   20.1325 H   0  0  0  0  0  0  0  0  0  0  0  0
   10.4778   11.7661   22.0603 H   0  0  0  0  0  0  0  0  0  0  0  0
    6.6523    8.5028   24.9874 H   0  0  0  0  0  0  0  0  0  0  0  0
  1  2  2  0  0  0  0
  1  5  1  0  0  0  0
  2  3  1  0  0  0  0
  2 12  1  0  0  0  0
  3  4  2  0  0  0  0
  3 17  1  0  0  0  0
  4 11  1  0  0  0  0
  4 14  1  0  0  0  0
  5 11  2  0  0  0  0
  5 16  1  0  0  0  0
  6 12  1  0  0  0  0
  6 13  2  0  0  0  0
  6 15  1  0  0  0  0
  7 10  1  0  0  0  0
  8 10  1  0  0  0  0
  9 10  1  0  0  0  0
 10 15  1  0  0  0  0
  1 18  1  0  0  0  0
  7 19  1  0  0  0  0
  7 20  1  0  0  0  0
  7 21  1  0  0  0  0
  8 22  1  0  0  0  0
  8 23  1  0  0  0  0
  8 24  1  0  0  0  0
  9 25  1  0  0  0  0
  9 26  1  0  0  0  0
  9 27  1  0  0  0  0
 12 28  1  0  0  0  0
 14 29  1  0  0  0  0
M  END
> <id>
EN300-27783845

> <smiles>
CC(C)(C)OC(=O)NC=1C=C(F)N=C(O)C1Cl

> <IUPAC Name>
tert-butyl N-(3-chloro-6-fluoro-2-hydroxypyridin-4-yl)carbamate

> <CAS>
2639463-68-4

> <URL>
https://www.enaminestore.com/catalog/EN300-27783845

> <ROCS_ShapeQuery>
A71EV2A-x0451_0A_A71EV2A-x0310_0A_A71EV2A-x0416_0A_peptide

> <ROCS_TanimotoCombo>
0.512 

> <ROCS_ShapeTanimoto>
0.331 

> <ROCS_ColorTanimoto>
0.181 

> <ROCS_RefTversky>
0.287 

> <ROCS_RefColorTversky>
0.195 

> <ROCS_RefTverskyCombo>
0.482 

> <ROCS_FitTversky>
1.858 

> <ROCS_FitColorTversky>
0.720 

> <ROCS_FitTverskyCombo>
2.577 

> <ROCS_ColorScore>
-5.933

> <ROCS_Overlap>
1991.424

> <ROCS_Rank>
345                 

$$$$
untitled-dbase-154243_9
  -OEChem-11132313473D

 34 35  0     0  0  0  0  0  0999 V2000
    9.1844    8.2933   23.3393 C   0  0  0  0  0  0  0  0  0  0  0  0
    8.0705    8.4892   24.1637 C   0  0  0  0  0  0  0  0  0  0  0  0
    7.9917    9.8525   24.3339 C   0  0  0  0  0  0  0  0  0  0  0  0
    8.4207   12.5901   24.2499 C   0  0  0  0  0  0  0  0  0  0  0  0
    9.2636   11.7939   23.5720 C   0  0  0  0  0  0  0  0  0  0  0  0
    7.3185   11.9113   24.9939 C   0  0  0  0  0  0  0  0  0  0  0  0
   10.9770   13.4619   23.1747 C   0  0  0  0  0  0  0  0  0  0  0  0
    6.3648   12.7938   25.7594 C   0  0  0  0  0  0  0  0  0  0  0  0
   11.9125   16.0763   22.5096 C   0  0  0  0  0  0  0  0  0  0  0  0
   13.0683   14.9690   20.5739 C   0  0  0  0  0  0  0  0  0  0  0  0
   10.5629   14.9039   20.7381 C   0  0  0  0  0  0  0  0  0  0  0  0
   11.8736   14.9099   21.5234 C   0  0  0  0  0  0  0  0  0  0  0  0
    9.7833    9.4327   22.9986 N   0  0  0  0  0  0  0  0  0  0  0  0
    7.1177   10.6273   25.0324 N   0  0  0  0  0  0  0  0  0  0  0  0
    9.0509   10.4060   23.6112 N   0  0  0  0  0  0  0  0  0  0  0  0
   10.3094   12.2971   22.8547 N   0  0  0  0  0  0  0  0  0  0  0  0
   10.7324   14.1958   24.1273 O   0  0  0  0  0  0  0  0  0  0  0  0
   11.9688   13.6861   22.2610 O   0  0  0  0  0  0  0  0  0  0  0  0
    6.9713    7.1500   24.8504 Br  0  0  0  0  0  0  0  0  0  0  0  0
    9.5940    7.3655   22.9652 H   0  0  0  0  0  0  0  0  0  0  0  0
    8.5078   13.6691   24.2762 H   0  0  0  0  0  0  0  0  0  0  0  0
    5.5395   13.0700   25.1116 H   0  0  0  0  0  0  0  0  0  0  0  0
    6.8913   13.6836   26.0894 H   0  0  0  0  0  0  0  0  0  0  0  0
    5.9936   12.2505   26.6223 H   0  0  0  0  0  0  0  0  0  0  0  0
   11.0566   16.0375   23.1930 H   0  0  0  0  0  0  0  0  0  0  0  0
   12.8322   16.0718   23.1037 H   0  0  0  0  0  0  0  0  0  0  0  0
   11.8449   17.0356   21.9837 H   0  0  0  0  0  0  0  0  0  0  0  0
   13.0444   14.1339   19.8644 H   0  0  0  0  0  0  0  0  0  0  0  0
   14.0106   14.8780   21.1261 H   0  0  0  0  0  0  0  0  0  0  0  0
   13.0877   15.9052   20.0068 H   0  0  0  0  0  0  0  0  0  0  0  0
   10.5347   14.0673   20.0305 H   0  0  0  0  0  0  0  0  0  0  0  0
    9.6956   14.8247   21.4015 H   0  0  0  0  0  0  0  0  0  0  0  0
   10.4622   15.8174   20.1409 H   0  0  0  0  0  0  0  0  0  0  0  0
   10.6155   11.7828   22.0346 H   0  0  0  0  0  0  0  0  0  0  0  0
  1  2  1  0  0  0  0
  1 13  2  0  0  0  0
  2  3  2  0  0  0  0
  2 19  1  0  0  0  0
  3 14  1  0  0  0  0
  3 15  1  0  0  0  0
  4  5  2  0  0  0  0
  4  6  1  0  0  0  0
  5 15  1  0  0  0  0
  5 16  1  0  0  0  0
  6  8  1  0  0  0  0
  6 14  2  0  0  0  0
  7 16  1  0  0  0  0
  7 17  2  0  0  0  0
  7 18  1  0  0  0  0
  9 12  1  0  0  0  0
 10 12  1  0  0  0  0
 11 12  1  0  0  0  0
 12 18  1  0  0  0  0
 13 15  1  0  0  0  0
  1 20  1  0  0  0  0
  4 21  1  0  0  0  0
  8 22  1  0  0  0  0
  8 23  1  0  0  0  0
  8 24  1  0  0  0  0
  9 25  1  0  0  0  0
  9 26  1  0  0  0  0
  9 27  1  0  0  0  0
 10 28  1  0  0  0  0
 10 29  1  0  0  0  0
 10 30  1  0  0  0  0
 11 31  1  0  0  0  0
 11 32  1  0  0  0  0
 11 33  1  0  0  0  0
 16 34  1  0  0  0  0
M  END
> <id>
EN300-28294946

> <smiles>
CC=1C=C(NC(=O)OC(C)(C)C)N2N=CC(Br)=C2N1

> <IUPAC Name>
tert-butyl N-{3-bromo-5-methylpyrazolo[1,5-a]pyrimidin-7-yl}carbamate

> <CAS>
2680661-96-3

> <URL>
https://www.enaminestore.com/catalog/EN300-28294946

> <ROCS_ShapeQuery>
A71EV2A-x0451_0A_A71EV2A-x0310_0A_A71EV2A-x0416_0A_peptide

> <ROCS_TanimotoCombo>
0.512 

> <ROCS_ShapeTanimoto>
0.363 

> <ROCS_ColorTanimoto>
0.149 

> <ROCS_RefTversky>
0.312 

> <ROCS_RefColorTversky>
0.169 

> <ROCS_RefTverskyCombo>
0.480 

> <ROCS_FitTversky>
1.835 

> <ROCS_FitColorTversky>
0.559 

> <ROCS_FitTverskyCombo>
2.394 

> <ROCS_ColorScore>
-5.147

> <ROCS_Overlap>
2163.122

> <ROCS_Rank>
346                 

$$$$
untitled-dbase-174449_50
  -OEChem-11132313473D

 27 28  0     0  0  0  0  0  0999 V2000
    6.8759   12.8979   26.1419 C   0  0  0  0  0  0  0  0  0  0  0  0
    6.2783   11.6543   26.3035 C   0  0  0  0  0  0  0  0  0  0  0  0
    7.9442   13.0605   25.2515 C   0  0  0  0  0  0  0  0  0  0  0  0
    6.7492   10.5694   25.5743 C   0  0  0  0  0  0  0  0  0  0  0  0
    8.4474   11.9784   24.5117 C   0  0  0  0  0  0  0  0  0  0  0  0
    7.8275   10.7261   24.6939 C   0  0  0  0  0  0  0  0  0  0  0  0
    6.0980    9.2775   25.7592 C   0  0  0  0  0  0  0  0  0  0  0  0
   10.2941   13.2717   23.4133 C   0  0  0  0  0  0  0  0  0  0  0  0
    9.7209   10.9337   22.6992 C   0  0  0  0  0  0  0  0  0  0  0  0
    9.4932    9.6598   23.4726 C   0  0  0  0  0  0  0  0  0  0  0  0
   10.8304   13.5432   22.0250 C   0  0  0  0  0  0  0  0  0  0  0  0
    9.5154   12.1108   23.5530 N   0  0  0  0  0  0  0  0  0  0  0  0
    5.1510    9.0597   26.5181 O   0  0  0  0  0  0  0  0  0  0  0  0
   10.5869   14.0631   24.3114 O   0  0  0  0  0  0  0  0  0  0  0  0
    8.1969    9.5803   24.0349 O   0  0  0  0  0  0  0  0  0  0  0  0
    6.6529    8.3046   24.9882 O   0  0  0  0  0  0  0  0  0  0  0  0
    9.6448    8.5954   22.6445 F   0  0  0  0  0  0  0  0  0  0  0  0
   10.4124    9.5191   24.4596 F   0  0  0  0  0  0  0  0  0  0  0  0
   10.4366   12.5801   21.1756 F   0  0  0  0  0  0  0  0  0  0  0  0
   10.3782   14.7234   21.5702 F   0  0  0  0  0  0  0  0  0  0  0  0
   12.1731   13.5779   22.0369 F   0  0  0  0  0  0  0  0  0  0  0  0
    6.5037   13.7538   26.6982 H   0  0  0  0  0  0  0  0  0  0  0  0
    5.4451   11.5461   26.9928 H   0  0  0  0  0  0  0  0  0  0  0  0
    8.3268   14.0688   25.1453 H   0  0  0  0  0  0  0  0  0  0  0  0
   10.7358   10.9182   22.2940 H   0  0  0  0  0  0  0  0  0  0  0  0
    9.0220   11.0142   21.8580 H   0  0  0  0  0  0  0  0  0  0  0  0
    6.2212    7.4314   25.1047 H   0  0  0  0  0  0  0  0  0  0  0  0
  1  2  1  0  0  0  0
  1  3  2  0  0  0  0
  2  4  2  0  0  0  0
  3  5  1  0  0  0  0
  4  6  1  0  0  0  0
  4  7  1  0  0  0  0
  5  6  2  0  0  0  0
  5 12  1  0  0  0  0
  6 15  1  0  0  0  0
  7 13  2  0  0  0  0
  7 16  1  0  0  0  0
  8 11  1  0  0  0  0
  8 12  1  0  0  0  0
  8 14  2  0  0  0  0
  9 10  1  0  0  0  0
  9 12  1  0  0  0  0
 10 15  1  0  0  0  0
 10 17  1  0  0  0  0
 10 18  1  0  0  0  0
 11 19  1  0  0  0  0
 11 20  1  0  0  0  0
 11 21  1  0  0  0  0
  1 22  1  0  0  0  0
  2 23  1  0  0  0  0
  3 24  1  0  0  0  0
  9 25  1  0  0  0  0
  9 26  1  0  0  0  0
 16 27  1  0  0  0  0
M  END
> <id>
EN300-39918524

> <smiles>
OC(=O)C=1C=CC=C2N(CC(F)(F)OC12)C(=O)C(F)(F)F

> <IUPAC Name>
2,2-difluoro-4-(2,2,2-trifluoroacetyl)-3,4-dihydro-2H-1,4-benzoxazine-8-carboxylic acid

> <URL>
https://www.enaminestore.com/catalog/EN300-39918524

> <ROCS_ShapeQuery>
A71EV2A-x0451_0A_A71EV2A-x0310_0A_A71EV2A-x0416_0A_peptide

> <ROCS_TanimotoCombo>
0.512 

> <ROCS_ShapeTanimoto>
0.362 

> <ROCS_ColorTanimoto>
0.151 

> <ROCS_RefTversky>
0.315 

> <ROCS_RefColorTversky>
0.166 

> <ROCS_RefTverskyCombo>
0.482 

> <ROCS_FitTversky>
1.680 

> <ROCS_FitColorTversky>
0.614 

> <ROCS_FitTverskyCombo>
2.294 

> <ROCS_ColorScore>
-5.066

> <ROCS_Overlap>
2190.724

> <ROCS_Rank>
347                 

$$$$
untitled-dbase-100434_47
  -OEChem-11132313473D

 27 28  0     0  0  0  0  0  0999 V2000
    6.3148   11.6117   26.0758 C   0  0  0  0  0  0  0  0  0  0  0  0
    6.9997   10.4999   25.5958 C   0  0  0  0  0  0  0  0  0  0  0  0
    7.7933   13.0515   24.8142 C   0  0  0  0  0  0  0  0  0  0  0  0
    6.7038   12.8854   25.6752 C   0  0  0  0  0  0  0  0  0  0  0  0
    8.0789   10.6682   24.7198 C   0  0  0  0  0  0  0  0  0  0  0  0
    8.5193   11.9472   24.3484 C   0  0  0  0  0  0  0  0  0  0  0  0
    9.6980    9.5619   23.2682 C   0  0  0  0  0  0  0  0  0  0  0  0
    5.9782   14.0477   26.1626 C   0  0  0  0  0  0  0  0  0  0  0  0
   10.4730   13.1870   23.3296 C   0  0  0  0  0  0  0  0  0  0  0  0
    9.9300   10.9120   22.6283 C   0  0  0  0  0  0  0  0  0  0  0  0
   10.9666   13.5262   21.9428 C   0  0  0  0  0  0  0  0  0  0  0  0
    8.7276    9.5226   24.2395 N   0  0  0  0  0  0  0  0  0  0  0  0
    9.6587   12.0598   23.4925 N   0  0  0  0  0  0  0  0  0  0  0  0
   10.2410    8.5479   22.8282 O   0  0  0  0  0  0  0  0  0  0  0  0
    4.7804   14.0687   26.4640 O   0  0  0  0  0  0  0  0  0  0  0  0
   10.7426   13.9656   24.2516 O   0  0  0  0  0  0  0  0  0  0  0  0
    6.7689   15.1512   26.2621 O   0  0  0  0  0  0  0  0  0  0  0  0
   10.5091   12.6305   21.0531 F   0  0  0  0  0  0  0  0  0  0  0  0
   10.5387   14.7460   21.5790 F   0  0  0  0  0  0  0  0  0  0  0  0
   12.3090   13.5168   21.9060 F   0  0  0  0  0  0  0  0  0  0  0  0
    5.4873   11.4735   26.7676 H   0  0  0  0  0  0  0  0  0  0  0  0
    6.6888    9.5093   25.9135 H   0  0  0  0  0  0  0  0  0  0  0  0
    8.0690   14.0675   24.5569 H   0  0  0  0  0  0  0  0  0  0  0  0
   10.9707   10.9634   22.3312 H   0  0  0  0  0  0  0  0  0  0  0  0
    9.2894   10.9556   21.7574 H   0  0  0  0  0  0  0  0  0  0  0  0
    8.4727    8.6250   24.6302 H   0  0  0  0  0  0  0  0  0  0  0  0
    7.6965   14.9860   25.9888 H   0  0  0  0  0  0  0  0  0  0  0  0
  1  2  1  0  0  0  0
  1  4  2  0  0  0  0
  2  5  2  0  0  0  0
  3  4  1  0  0  0  0
  3  6  2  0  0  0  0
  4  8  1  0  0  0  0
  5  6  1  0  0  0  0
  5 12  1  0  0  0  0
  6 13  1  0  0  0  0
  7 10  1  0  0  0  0
  7 12  1  0  0  0  0
  7 14  2  0  0  0  0
  8 15  2  0  0  0  0
  8 17  1  0  0  0  0
  9 11  1  0  0  0  0
  9 13  1  0  0  0  0
  9 16  2  0  0  0  0
 10 13  1  0  0  0  0
 11 18  1  0  0  0  0
 11 19  1  0  0  0  0
 11 20  1  0  0  0  0
  1 21  1  0  0  0  0
  2 22  1  0  0  0  0
  3 23  1  0  0  0  0
 10 24  1  0  0  0  0
 10 25  1  0  0  0  0
 12 26  1  0  0  0  0
 17 27  1  0  0  0  0
M  END
> <id>
EN300-37101046

> <smiles>
OC(=O)C=1C=CC=2NC(=O)CN(C(=O)C(F)(F)F)C2C1

> <IUPAC Name>
2-oxo-4-(2,2,2-trifluoroacetyl)-1,2,3,4-tetrahydroquinoxaline-6-carboxylic acid

> <CAS>
2757928-59-7

> <URL>
https://www.enaminestore.com/catalog/EN300-37101046

> <ROCS_ShapeQuery>
A71EV2A-x0451_0A_A71EV2A-x0310_0A_A71EV2A-x0416_0A_peptide

> <ROCS_TanimotoCombo>
0.512 

> <ROCS_ShapeTanimoto>
0.348 

> <ROCS_ColorTanimoto>
0.164 

> <ROCS_RefTversky>
0.304 

> <ROCS_RefColorTversky>
0.184 

> <ROCS_RefTverskyCombo>
0.488 

> <ROCS_FitTversky>
1.693 

> <ROCS_FitColorTversky>
0.610 

> <ROCS_FitTverskyCombo>
2.303 

> <ROCS_ColorScore>
-5.610

> <ROCS_Overlap>
2112.283

> <ROCS_Rank>
348                 

$$$$
untitled-dbase-160785_2
  -OEChem-11132313473D

 29 32  0     0  0  0  0  0  0999 V2000
   12.7276   15.7510   20.4104 C   0  0  0  0  0  0  0  0  0  0  0  0
   12.0435   14.5492   20.2220 C   0  0  0  0  0  0  0  0  0  0  0  0
   12.7204   16.3471   21.6799 C   0  0  0  0  0  0  0  0  0  0  0  0
   11.3988   14.0274   21.3181 C   0  0  0  0  0  0  0  0  0  0  0  0
   11.4534   14.6926   22.5225 C   0  0  0  0  0  0  0  0  0  0  0  0
   10.6019   12.8186   21.5037 C   0  0  0  0  0  0  0  0  0  0  0  0
   10.6977   13.9335   23.5084 C   0  0  0  0  0  0  0  0  0  0  0  0
    7.9661    9.7368   24.5529 C   0  0  0  0  0  0  0  0  0  0  0  0
   10.0369   10.3739   23.3794 C   0  0  0  0  0  0  0  0  0  0  0  0
    7.8932   11.8680   22.9941 C   0  0  0  0  0  0  0  0  0  0  0  0
    8.8357   12.2138   24.8447 C   0  0  0  0  0  0  0  0  0  0  0  0
    7.6374   11.2831   24.4313 C   0  0  0  0  0  0  0  0  0  0  0  0
    9.3811   11.7919   23.4482 C   0  0  0  0  0  0  0  0  0  0  0  0
   12.0885   15.8418   22.7693 N   0  0  0  0  0  0  0  0  0  0  0  0
    9.2056    9.4199   23.9796 N   0  0  0  0  0  0  0  0  0  0  0  0
   10.2150   12.8332   22.8290 N   0  0  0  0  0  0  0  0  0  0  0  0
   10.3687   12.0095   20.6256 O   0  0  0  0  0  0  0  0  0  0  0  0
   10.5642   14.2670   24.6705 O   0  0  0  0  0  0  0  0  0  0  0  0
    7.2440    8.8893   25.0800 O   0  0  0  0  0  0  0  0  0  0  0  0
   11.1246   10.0865   22.8802 O   0  0  0  0  0  0  0  0  0  0  0  0
   13.2576   16.2189   19.5873 H   0  0  0  0  0  0  0  0  0  0  0  0
   12.0270   14.0591   19.2561 H   0  0  0  0  0  0  0  0  0  0  0  0
   13.2462   17.2820   21.8482 H   0  0  0  0  0  0  0  0  0  0  0  0
    7.6071   11.2211   22.1599 H   0  0  0  0  0  0  0  0  0  0  0  0
    7.4872   12.8721   22.8229 H   0  0  0  0  0  0  0  0  0  0  0  0
    8.5795   13.2730   24.9677 H   0  0  0  0  0  0  0  0  0  0  0  0
    9.4154   11.8845   25.7117 H   0  0  0  0  0  0  0  0  0  0  0  0
    6.6732   11.5532   24.8715 H   0  0  0  0  0  0  0  0  0  0  0  0
    9.5159    8.4532   24.0020 H   0  0  0  0  0  0  0  0  0  0  0  0
  1  2  1  0  0  0  0
  1  3  2  0  0  0  0
  2  4  2  0  0  0  0
  3 14  1  0  0  0  0
  4  5  1  0  0  0  0
  4  6  1  0  0  0  0
  5  7  1  0  0  0  0
  5 14  2  0  0  0  0
  6 16  1  0  0  0  0
  6 17  2  0  0  0  0
  7 16  1  0  0  0  0
  7 18  2  0  0  0  0
  8 12  1  0  0  0  0
  8 15  1  0  0  0  0
  8 19  2  0  0  0  0
  9 13  1  0  0  0  0
  9 15  1  0  0  0  0
  9 20  2  0  0  0  0
 10 12  1  0  0  0  0
 10 13  1  0  0  0  0
 11 12  1  0  0  0  0
 11 13  1  0  0  0  0
 13 16  1  0  0  0  0
  1 21  1  0  0  0  0
  2 22  1  0  0  0  0
  3 23  1  0  0  0  0
 10 24  1  0  0  0  0
 10 25  1  0  0  0  0
 11 26  1  0  0  0  0
 11 27  1  0  0  0  0
 12 28  1  0  0  0  0
 15 29  1  0  0  0  0
M  END
> <id>
EN300-28221136

> <smiles>
O=C1N(C(=O)C=2N=CC=CC12)C3(CC4C3)C(=O)NC4=O

> <IUPAC Name>
1-{5,7-dioxo-5H,6H,7H-pyrrolo[3,4-b]pyridin-6-yl}-3-azabicyclo[3.1.1]heptane-2,4-dione

> <CAS>
2703773-31-1

> <URL>
https://www.enaminestore.com/catalog/EN300-28221136

> <ROCS_ShapeQuery>
A71EV2A-x0451_0A_A71EV2A-x0310_0A_A71EV2A-x0416_0A_peptide

> <ROCS_TanimotoCombo>
0.512 

> <ROCS_ShapeTanimoto>
0.327 

> <ROCS_ColorTanimoto>
0.185 

> <ROCS_RefTversky>
0.291 

> <ROCS_RefColorTversky>
0.232 

> <ROCS_RefTverskyCombo>
0.523 

> <ROCS_FitTversky>
1.590 

> <ROCS_FitColorTversky>
0.479 

> <ROCS_FitTverskyCombo>
2.069 

> <ROCS_ColorScore>
-7.149

> <ROCS_Overlap>
2023.207

> <ROCS_Rank>
349                 

$$$$
untitled-dbase-148609_115
  -OEChem-11132313473D

 39 40  0     1  0  0  0  0  0999 V2000
    6.9738   12.0356   25.7891 C   0  0  0  0  0  0  0  0  0  0  0  0
    8.0426   12.7915   25.2688 C   0  0  0  0  0  0  0  0  0  0  0  0
    8.6531   11.9628   24.3510 C   0  0  0  0  0  0  0  0  0  0  0  0
    8.3431   14.1357   25.6597 C   0  0  0  0  0  0  0  0  0  0  0  0
   10.4076   13.3276   23.3980 C   0  0  0  0  0  0  0  0  0  0  0  0
    9.6815    9.6186   23.1490 C   0  0  0  0  0  0  0  0  0  0  0  0
   10.0835   10.9770   22.5782 C   0  0  0  0  0  0  0  0  0  0  0  0
    8.2116    9.6107   23.5876 C   0  0  1  0  0  0  0  0  0  0  0  0
   12.7812   14.8333   22.8320 C   0  0  0  0  0  0  0  0  0  0  0  0
   11.9432   14.9165   20.4655 C   0  0  0  0  0  0  0  0  0  0  0  0
   10.6025   15.9780   22.3051 C   0  0  0  0  0  0  0  0  0  0  0  0
    7.8817    8.2906   24.2868 C   0  0  0  0  0  0  0  0  0  0  0  0
   11.5429   14.8313   21.9368 C   0  0  0  0  0  0  0  0  0  0  0  0
    6.8974   10.8164   25.2553 N   0  0  0  0  0  0  0  0  0  0  0  0
    7.9438   10.7849   24.4101 N   0  0  0  0  0  0  0  0  0  0  0  0
    9.7336   12.0958   23.4731 N   0  0  0  0  0  0  0  0  0  0  0  0
    9.4079   14.5350   26.1755 O   0  0  0  0  0  0  0  0  0  0  0  0
   10.5984   14.1066   24.3288 O   0  0  0  0  0  0  0  0  0  0  0  0
    7.3204   15.0138   25.4141 O   0  0  0  0  0  0  0  0  0  0  0  0
   10.8473   13.5930   22.1239 O   0  0  0  0  0  0  0  0  0  0  0  0
    8.1379    7.2605   23.4669 F   0  0  0  0  0  0  0  0  0  0  0  0
    8.6254    8.1602   25.3954 F   0  0  0  0  0  0  0  0  0  0  0  0
    6.5845    8.2636   24.6272 F   0  0  0  0  0  0  0  0  0  0  0  0
    6.2446   12.3221   26.5344 H   0  0  0  0  0  0  0  0  0  0  0  0
    9.8257    8.8593   22.3724 H   0  0  0  0  0  0  0  0  0  0  0  0
   10.3353    9.3503   23.9828 H   0  0  0  0  0  0  0  0  0  0  0  0
   11.1644   11.0258   22.4065 H   0  0  0  0  0  0  0  0  0  0  0  0
    9.5903   11.1068   21.6093 H   0  0  0  0  0  0  0  0  0  0  0  0
    7.5910    9.6959   22.6834 H   0  0  0  0  0  0  0  0  0  0  0  0
   12.4982   14.7723   23.8889 H   0  0  0  0  0  0  0  0  0  0  0  0
   13.4470   13.9953   22.6013 H   0  0  0  0  0  0  0  0  0  0  0  0
   13.3457   15.7657   22.7165 H   0  0  0  0  0  0  0  0  0  0  0  0
   11.0577   14.9153   19.8196 H   0  0  0  0  0  0  0  0  0  0  0  0
   12.5402   14.0453   20.1724 H   0  0  0  0  0  0  0  0  0  0  0  0
   12.5236   15.8209   20.2565 H   0  0  0  0  0  0  0  0  0  0  0  0
    9.7142   15.9768   21.6632 H   0  0  0  0  0  0  0  0  0  0  0  0
   10.2755   15.9123   23.3479 H   0  0  0  0  0  0  0  0  0  0  0  0
   11.0918   16.9470   22.1540 H   0  0  0  0  0  0  0  0  0  0  0  0
    7.5165   15.9382   25.6776 H   0  0  0  0  0  0  0  0  0  0  0  0
  1  2  1  0  0  0  0
  1 14  2  0  0  0  0
  2  3  2  0  0  0  0
  2  4  1  0  0  0  0
  3 15  1  0  0  0  0
  3 16  1  0  0  0  0
  4 17  2  0  0  0  0
  4 19  1  0  0  0  0
  5 16  1  0  0  0  0
  5 18  2  0  0  0  0
  5 20  1  0  0  0  0
  6  7  1  0  0  0  0
  6  8  1  0  0  0  0
  7 16  1  0  0  0  0
  8 12  1  0  0  0  0
  8 15  1  0  0  0  0
  9 13  1  0  0  0  0
 10 13  1  0  0  0  0
 11 13  1  0  0  0  0
 12 21  1  0  0  0  0
 12 22  1  0  0  0  0
 12 23  1  0  0  0  0
 13 20  1  0  0  0  0
 14 15  1  0  0  0  0
  1 24  1  0  0  0  0
  6 25  1  0  0  0  0
  6 26  1  0  0  0  0
  7 27  1  0  0  0  0
  7 28  1  0  0  0  0
  8 29  1  0  0  0  0
  9 30  1  0  0  0  0
  9 31  1  0  0  0  0
  9 32  1  0  0  0  0
 10 33  1  0  0  0  0
 10 34  1  0  0  0  0
 10 35  1  0  0  0  0
 11 36  1  0  0  0  0
 11 37  1  0  0  0  0
 11 38  1  0  0  0  0
 19 39  1  0  0  0  0
M  END
> <id>
EN300-27782499

> <smiles>
CC(C)(C)OC(=O)N1CCC(N2N=CC(C(=O)O)=C12)C(F)(F)F

> <IUPAC Name>
4-[(tert-butoxy)carbonyl]-7-(trifluoromethyl)-4H,5H,6H,7H-pyrazolo[1,5-a]pyrimidine-3-carboxylic acid

> <CAS>
2639405-05-1

> <URL>
https://www.enaminestore.com/catalog/EN300-27782499

> <ROCS_ShapeQuery>
A71EV2A-x0451_0A_A71EV2A-x0310_0A_A71EV2A-x0416_0A_peptide

> <ROCS_TanimotoCombo>
0.512 

> <ROCS_ShapeTanimoto>
0.366 

> <ROCS_ColorTanimoto>
0.145 

> <ROCS_RefTversky>
0.321 

> <ROCS_RefColorTversky>
0.165 

> <ROCS_RefTverskyCombo>
0.487 

> <ROCS_FitTversky>
1.619 

> <ROCS_FitColorTversky>
0.547 

> <ROCS_FitTverskyCombo>
2.166 

> <ROCS_ColorScore>
-5.047

> <ROCS_Overlap>
2233.380

> <ROCS_Rank>
350                 

$$$$
untitled-dbase-116944_290
  -OEChem-11132313473D

 48 50  0     1  0  0  0  0  0999 V2000
   10.3566    9.6698   23.6931 C   0  0  0  0  0  0  0  0  0  0  0  0
   10.3076   12.8284   23.8085 C   0  0  0  0  0  0  0  0  0  0  0  0
    7.5996   11.7081   27.3785 C   0  0  0  0  0  0  0  0  0  0  0  0
    6.6144   13.5300   25.8905 C   0  0  0  0  0  0  0  0  0  0  0  0
    8.7513   11.8425   26.3726 C   0  0  0  0  0  0  0  0  0  0  0  0
    7.2583   12.9515   24.6236 C   0  0  0  0  0  0  0  0  0  0  0  0
    7.9294   10.0845   23.3974 C   0  0  0  0  0  0  0  0  0  0  0  0
    5.4002   12.8634   28.0579 C   0  0  0  0  0  0  0  0  0  0  0  0
    5.1348   11.5110   26.5305 C   0  0  0  0  0  0  0  0  0  0  0  0
    9.3224   10.6086   23.1484 C   0  0  1  0  0  0  0  0  0  0  0  0
    6.3298   12.4234   26.9044 C   0  0  0  0  0  0  0  0  0  0  0  0
    8.2711   11.8198   24.9164 C   0  0  0  0  0  0  0  0  0  0  0  0
   12.4581   14.5900   23.1352 C   0  0  0  0  0  0  0  0  0  0  0  0
   12.6709   13.2294   21.0345 C   0  0  0  0  0  0  0  0  0  0  0  0
   10.5532   14.4996   21.4927 C   0  0  0  0  0  0  0  0  0  0  0  0
   11.7148   13.7273   22.1163 C   0  0  0  0  0  0  0  0  0  0  0  0
    9.3778   11.8053   23.9584 N   0  0  0  0  0  0  0  0  0  0  0  0
   11.1126    9.9197   24.6201 O   0  0  0  0  0  0  0  0  0  0  0  0
   10.3472   13.8422   24.5018 O   0  0  0  0  0  0  0  0  0  0  0  0
    4.2591   12.2262   27.4356 O   0  0  0  0  0  0  0  0  0  0  0  0
    7.5923   10.5526   24.7147 O   0  0  0  0  0  0  0  0  0  0  0  0
   10.3440    8.4971   23.0133 O   0  0  0  0  0  0  0  0  0  0  0  0
   11.1890   12.5781   22.7896 O   0  0  0  0  0  0  0  0  0  0  0  0
    7.3828   10.6381   27.5510 H   0  0  0  0  0  0  0  0  0  0  0  0
    7.9304   12.1031   28.3563 H   0  0  0  0  0  0  0  0  0  0  0  0
    7.2834   14.2912   26.3164 H   0  0  0  0  0  0  0  0  0  0  0  0
    5.6822   14.0510   25.6297 H   0  0  0  0  0  0  0  0  0  0  0  0
    9.2930   12.7746   26.5856 H   0  0  0  0  0  0  0  0  0  0  0  0
    9.4521   11.0138   26.5531 H   0  0  0  0  0  0  0  0  0  0  0  0
    6.4499   12.5776   23.9744 H   0  0  0  0  0  0  0  0  0  0  0  0
    7.7506   13.7711   24.0771 H   0  0  0  0  0  0  0  0  0  0  0  0
    7.2073   10.5089   22.6921 H   0  0  0  0  0  0  0  0  0  0  0  0
    7.8518    8.9939   23.3793 H   0  0  0  0  0  0  0  0  0  0  0  0
    5.6114   12.4340   29.0416 H   0  0  0  0  0  0  0  0  0  0  0  0
    5.2358   13.9409   28.1631 H   0  0  0  0  0  0  0  0  0  0  0  0
    4.7759   11.5846   25.5005 H   0  0  0  0  0  0  0  0  0  0  0  0
    5.2294   10.4589   26.8080 H   0  0  0  0  0  0  0  0  0  0  0  0
    9.5365   10.8022   22.0943 H   0  0  0  0  0  0  0  0  0  0  0  0
   11.7752   14.9494   23.9134 H   0  0  0  0  0  0  0  0  0  0  0  0
   13.2718   14.0366   23.6151 H   0  0  0  0  0  0  0  0  0  0  0  0
   12.8802   15.4820   22.6584 H   0  0  0  0  0  0  0  0  0  0  0  0
   12.1418   12.6100   20.3013 H   0  0  0  0  0  0  0  0  0  0  0  0
   13.4534   12.5953   21.4669 H   0  0  0  0  0  0  0  0  0  0  0  0
   13.1502   14.0595   20.5057 H   0  0  0  0  0  0  0  0  0  0  0  0
   10.0199   13.8811   20.7618 H   0  0  0  0  0  0  0  0  0  0  0  0
    9.8373   14.8331   22.2510 H   0  0  0  0  0  0  0  0  0  0  0  0
   10.9173   15.3779   20.9474 H   0  0  0  0  0  0  0  0  0  0  0  0
    9.6652    8.4914   22.3052 H   0  0  0  0  0  0  0  0  0  0  0  0
  1 10  1  0  0  0  0
  1 18  2  0  0  0  0
  1 22  1  0  0  0  0
  2 17  1  0  0  0  0
  2 19  2  0  0  0  0
  2 23  1  0  0  0  0
  3  5  1  0  0  0  0
  3 11  1  0  0  0  0
  4  6  1  0  0  0  0
  4 11  1  0  0  0  0
  5 12  1  0  0  0  0
  6 12  1  0  0  0  0
  7 10  1  0  0  0  0
  7 21  1  0  0  0  0
  8 11  1  0  0  0  0
  8 20  1  0  0  0  0
  9 11  1  0  0  0  0
  9 20  1  0  0  0  0
 10 17  1  0  0  0  0
 12 17  1  0  0  0  0
 12 21  1  0  0  0  0
 13 16  1  0  0  0  0
 14 16  1  0  0  0  0
 15 16  1  0  0  0  0
 16 23  1  0  0  0  0
  3 24  1  0  0  0  0
  3 25  1  0  0  0  0
  4 26  1  0  0  0  0
  4 27  1  0  0  0  0
  5 28  1  0  0  0  0
  5 29  1  0  0  0  0
  6 30  1  0  0  0  0
  6 31  1  0  0  0  0
  7 32  1  0  0  0  0
  7 33  1  0  0  0  0
  8 34  1  0  0  0  0
  8 35  1  0  0  0  0
  9 36  1  0  0  0  0
  9 37  1  0  0  0  0
 10 38  1  0  0  0  0
 13 39  1  0  0  0  0
 13 40  1  0  0  0  0
 13 41  1  0  0  0  0
 14 42  1  0  0  0  0
 14 43  1  0  0  0  0
 14 44  1  0  0  0  0
 15 45  1  0  0  0  0
 15 46  1  0  0  0  0
 15 47  1  0  0  0  0
 22 48  1  0  0  0  0
M  END
> <id>
EN300-691606

> <smiles>
CC(C)(C)OC(=O)N1C(COC21CCC3(COC3)CC2)C(=O)O

> <IUPAC Name>
11-[(tert-butoxy)carbonyl]-2,8-dioxa-11-azadispiro[3.2.4^{7}.2^{4}]tridecane-10-carboxylic acid

> <CAS>
2137458-00-3

> <URL>
https://www.enaminestore.com/catalog/EN300-691606

> <ROCS_ShapeQuery>
A71EV2A-x0451_0A_A71EV2A-x0310_0A_A71EV2A-x0416_0A_peptide

> <ROCS_TanimotoCombo>
0.512 

> <ROCS_ShapeTanimoto>
0.358 

> <ROCS_ColorTanimoto>
0.154 

> <ROCS_RefTversky>
0.315 

> <ROCS_RefColorTversky>
0.182 

> <ROCS_RefTverskyCombo>
0.497 

> <ROCS_FitTversky>
1.619 

> <ROCS_FitColorTversky>
0.501 

> <ROCS_FitTverskyCombo>
2.120 

> <ROCS_ColorScore>
-5.562

> <ROCS_Overlap>
2188.107

> <ROCS_Rank>
351                 

$$$$
untitled-dbase-154036_7
  -OEChem-11132313473D

 32 32  0     0  0  0  0  0  0999 V2000
    9.1954   11.5010   23.5687 C   0  0  0  0  0  0  0  0  0  0  0  0
    8.9852   10.1439   23.5465 C   0  0  0  0  0  0  0  0  0  0  0  0
    8.1936   11.9983   24.4235 C   0  0  0  0  0  0  0  0  0  0  0  0
   10.8305   13.3803   23.2438 C   0  0  0  0  0  0  0  0  0  0  0  0
   11.6084   16.0758   22.6884 C   0  0  0  0  0  0  0  0  0  0  0  0
   12.6855   15.1436   20.6196 C   0  0  0  0  0  0  0  0  0  0  0  0
   10.2007   14.9515   20.9309 C   0  0  0  0  0  0  0  0  0  0  0  0
    7.3017    8.6449   24.6572 C   0  0  0  0  0  0  0  0  0  0  0  0
    9.6941    9.0572   22.8430 C   0  0  0  0  0  0  0  0  0  0  0  0
   11.5571   14.9710   21.6341 C   0  0  0  0  0  0  0  0  0  0  0  0
    7.4054   11.0355   24.9091 N   0  0  0  0  0  0  0  0  0  0  0  0
    7.9119    9.9196   24.3575 N   0  0  0  0  0  0  0  0  0  0  0  0
   10.2065   12.2043   22.8751 N   0  0  0  0  0  0  0  0  0  0  0  0
   10.6313   14.0517   24.2487 O   0  0  0  0  0  0  0  0  0  0  0  0
   11.7508   13.7139   22.2834 O   0  0  0  0  0  0  0  0  0  0  0  0
   10.7505    9.4788   22.0751 F   0  0  0  0  0  0  0  0  0  0  0  0
   10.2331    8.1073   23.6737 F   0  0  0  0  0  0  0  0  0  0  0  0
    8.8904    8.3563   21.9815 F   0  0  0  0  0  0  0  0  0  0  0  0
    7.9391   13.6215   24.8465 Cl  0  0  0  0  0  0  0  0  0  0  0  0
   10.8001   15.9555   23.4185 H   0  0  0  0  0  0  0  0  0  0  0  0
   12.5633   16.0781   23.2241 H   0  0  0  0  0  0  0  0  0  0  0  0
   11.4665   17.0610   22.2297 H   0  0  0  0  0  0  0  0  0  0  0  0
   12.6525   14.3530   19.8612 H   0  0  0  0  0  0  0  0  0  0  0  0
   13.6640   15.0633   21.1067 H   0  0  0  0  0  0  0  0  0  0  0  0
   12.6287   16.1125   20.1131 H   0  0  0  0  0  0  0  0  0  0  0  0
   10.1636   14.1591   20.1746 H   0  0  0  0  0  0  0  0  0  0  0  0
    9.3814   14.7916   21.6394 H   0  0  0  0  0  0  0  0  0  0  0  0
   10.0232   15.8939   20.4003 H   0  0  0  0  0  0  0  0  0  0  0  0
    7.7974    8.2329   25.5401 H   0  0  0  0  0  0  0  0  0  0  0  0
    6.2348    8.7882   24.8497 H   0  0  0  0  0  0  0  0  0  0  0  0
    7.4244    7.9754   23.8012 H   0  0  0  0  0  0  0  0  0  0  0  0
   10.5124   11.7938   21.9962 H   0  0  0  0  0  0  0  0  0  0  0  0
  1  2  2  0  0  0  0
  1  3  1  0  0  0  0
  1 13  1  0  0  0  0
  2  9  1  0  0  0  0
  2 12  1  0  0  0  0
  3 11  2  0  0  0  0
  3 19  1  0  0  0  0
  4 13  1  0  0  0  0
  4 14  2  0  0  0  0
  4 15  1  0  0  0  0
  5 10  1  0  0  0  0
  6 10  1  0  0  0  0
  7 10  1  0  0  0  0
  8 12  1  0  0  0  0
  9 16  1  0  0  0  0
  9 17  1  0  0  0  0
  9 18  1  0  0  0  0
 10 15  1  0  0  0  0
 11 12  1  0  0  0  0
  5 20  1  0  0  0  0
  5 21  1  0  0  0  0
  5 22  1  0  0  0  0
  6 23  1  0  0  0  0
  6 24  1  0  0  0  0
  6 25  1  0  0  0  0
  7 26  1  0  0  0  0
  7 27  1  0  0  0  0
  7 28  1  0  0  0  0
  8 29  1  0  0  0  0
  8 30  1  0  0  0  0
  8 31  1  0  0  0  0
 13 32  1  0  0  0  0
M  END
> <id>
EN300-28290140

> <smiles>
CN1N=C(Cl)C(NC(=O)OC(C)(C)C)=C1C(F)(F)F

> <IUPAC Name>
tert-butyl N-[3-chloro-1-methyl-5-(trifluoromethyl)-1H-pyrazol-4-yl]carbamate

> <CAS>
2680770-45-8

> <URL>
https://www.enaminestore.com/catalog/EN300-28290140

> <ROCS_ShapeQuery>
A71EV2A-x0451_0A_A71EV2A-x0310_0A_A71EV2A-x0416_0A_peptide

> <ROCS_TanimotoCombo>
0.512 

> <ROCS_ShapeTanimoto>
0.345 

> <ROCS_ColorTanimoto>
0.166 

> <ROCS_RefTversky>
0.300 

> <ROCS_RefColorTversky>
0.172 

> <ROCS_RefTverskyCombo>
0.472 

> <ROCS_FitTversky>
1.780 

> <ROCS_FitColorTversky>
0.827 

> <ROCS_FitTverskyCombo>
2.607 

> <ROCS_ColorScore>
-5.237

> <ROCS_Overlap>
2081.561

> <ROCS_Rank>
352                 

$$$$
untitled-dbase-174043_10
  -OEChem-11132313473D

 34 37  0     1  0  0  0  0  0999 V2000
    6.9055   12.5077   26.0031 C   0  0  0  0  0  0  0  0  0  0  0  0
    6.7344   11.1693   25.5771 C   0  0  0  0  0  0  0  0  0  0  0  0
    8.0024   13.2792   25.5815 C   0  0  0  0  0  0  0  0  0  0  0  0
    9.7779    9.7334   22.9645 C   0  0  0  0  0  0  0  0  0  0  0  0
    8.7305    8.8616   23.3125 C   0  0  0  0  0  0  0  0  0  0  0  0
    7.6735   10.5726   24.7089 C   0  0  0  0  0  0  0  0  0  0  0  0
    8.7356   11.3849   24.3270 C   0  0  0  0  0  0  0  0  0  0  0  0
    8.9101   12.6816   24.7335 C   0  0  0  0  0  0  0  0  0  0  0  0
    9.7538   11.0073   23.4945 C   0  0  0  0  0  0  0  0  0  0  0  0
    7.6856    9.2676   24.1743 C   0  0  0  0  0  0  0  0  0  0  0  0
   10.1529   13.1755   24.1022 C   0  0  0  0  0  0  0  0  0  0  0  0
   11.7001   14.2668   20.6040 C   0  0  0  0  0  0  0  0  0  0  0  0
   12.5363   13.3777   22.7935 C   0  0  0  0  0  0  0  0  0  0  0  0
   10.8844   13.0128   20.4113 C   0  0  0  0  0  0  0  0  0  0  0  0
   11.5427   11.8137   21.0703 C   0  0  0  0  0  0  0  0  0  0  0  0
   11.8182   12.0685   22.5439 C   0  0  2  0  0  0  0  0  0  0  0  0
   12.4351   14.3288   21.7828 N   0  0  0  0  0  0  0  0  0  0  0  0
   10.6276   12.0978   23.3505 N   0  0  0  0  0  0  0  0  0  0  0  0
   10.6061   14.2943   24.2495 O   0  0  0  0  0  0  0  0  0  0  0  0
   11.6576   15.1915   19.7929 O   0  0  0  0  0  0  0  0  0  0  0  0
   13.0930   13.6127   23.8671 O   0  0  0  0  0  0  0  0  0  0  0  0
    6.6954    8.3823   24.4787 O   0  0  0  0  0  0  0  0  0  0  0  0
    6.1702   12.9488   26.6718 H   0  0  0  0  0  0  0  0  0  0  0  0
    5.8714   10.6085   25.9271 H   0  0  0  0  0  0  0  0  0  0  0  0
    8.1218   14.3029   25.9165 H   0  0  0  0  0  0  0  0  0  0  0  0
   10.5697    9.4025   22.3022 H   0  0  0  0  0  0  0  0  0  0  0  0
    8.7286    7.8522   22.9063 H   0  0  0  0  0  0  0  0  0  0  0  0
    9.8919   13.1722   20.8473 H   0  0  0  0  0  0  0  0  0  0  0  0
   10.7617   12.8478   19.3348 H   0  0  0  0  0  0  0  0  0  0  0  0
   10.8867   10.9297   20.9518 H   0  0  0  0  0  0  0  0  0  0  0  0
   12.4832   11.5757   20.5409 H   0  0  0  0  0  0  0  0  0  0  0  0
   12.4588   11.2620   22.9643 H   0  0  0  0  0  0  0  0  0  0  0  0
   12.9695   15.1834   21.9245 H   0  0  0  0  0  0  0  0  0  0  0  0
    6.8537    7.5362   24.0317 H   0  0  0  0  0  0  0  0  0  0  0  0
  1  2  1  0  0  0  0
  1  3  2  0  0  0  0
  2  6  2  0  0  0  0
  3  8  1  0  0  0  0
  4  5  1  0  0  0  0
  4  9  2  0  0  0  0
  5 10  2  0  0  0  0
  6  7  1  0  0  0  0
  6 10  1  0  0  0  0
  7  8  2  0  0  0  0
  7  9  1  0  0  0  0
  8 11  1  0  0  0  0
  9 18  1  0  0  0  0
 10 22  1  0  0  0  0
 11 18  1  0  0  0  0
 11 19  2  0  0  0  0
 12 14  1  0  0  0  0
 12 17  1  0  0  0  0
 12 20  2  0  0  0  0
 13 16  1  0  0  0  0
 13 17  1  0  0  0  0
 13 21  2  0  0  0  0
 14 15  1  0  0  0  0
 15 16  1  0  0  0  0
 16 18  1  0  0  0  0
  1 23  1  0  0  0  0
  2 24  1  0  0  0  0
  3 25  1  0  0  0  0
  4 26  1  0  0  0  0
  5 27  1  0  0  0  0
 14 28  1  0  0  0  0
 14 29  1  0  0  0  0
 15 30  1  0  0  0  0
 15 31  1  0  0  0  0
 16 32  1  0  0  0  0
 17 33  1  0  0  0  0
 22 34  1  0  0  0  0
M  END
> <id>
EN300-43360416

> <smiles>
OC=1C=CC=2N(C3CCC(=O)NC3=O)C(=O)C4=CC=CC1C24

> <IUPAC Name>
3-{9-hydroxy-3-oxo-2-azatricyclo[6.3.1.0,4,12]dodeca-1(12),4,6,8,10-pentaen-2-yl}piperidine-2,6-dione

> <URL>
https://www.enaminestore.com/catalog/EN300-43360416

> <ROCS_ShapeQuery>
A71EV2A-x0451_0A_A71EV2A-x0310_0A_A71EV2A-x0416_0A_peptide

> <ROCS_TanimotoCombo>
0.512 

> <ROCS_ShapeTanimoto>
0.366 

> <ROCS_ColorTanimoto>
0.146 

> <ROCS_RefTversky>
0.320 

> <ROCS_RefColorTversky>
0.174 

> <ROCS_RefTverskyCombo>
0.494 

> <ROCS_FitTversky>
1.637 

> <ROCS_FitColorTversky>
0.478 

> <ROCS_FitTverskyCombo>
2.115 

> <ROCS_ColorScore>
-5.325

> <ROCS_Overlap>
2223.820

> <ROCS_Rank>
353                 

$$$$
untitled-dbase-104364_198
  -OEChem-11132313473D

 38 39  0     1  0  0  0  0  0999 V2000
    6.6676   13.2500   25.8488 C   0  0  0  0  0  0  0  0  0  0  0  0
    5.9482   12.0867   26.0918 C   0  0  0  0  0  0  0  0  0  0  0  0
    7.8439   13.2122   25.0894 C   0  0  0  0  0  0  0  0  0  0  0  0
    6.4076   10.8799   25.5802 C   0  0  0  0  0  0  0  0  0  0  0  0
    8.3323   12.0064   24.5635 C   0  0  0  0  0  0  0  0  0  0  0  0
    7.5936   10.8379   24.8366 C   0  0  0  0  0  0  0  0  0  0  0  0
   10.3584   13.0018   23.4429 C   0  0  0  0  0  0  0  0  0  0  0  0
    9.7493   10.5962   23.1370 C   0  0  0  0  0  0  0  0  0  0  0  0
    9.3380    9.4848   24.0884 C   0  0  2  0  0  0  0  0  0  0  0  0
   12.2143   14.9074   22.3647 C   0  0  0  0  0  0  0  0  0  0  0  0
   11.7961   13.7885   20.1551 C   0  0  0  0  0  0  0  0  0  0  0  0
    9.9085   14.9296   21.3561 C   0  0  0  0  0  0  0  0  0  0  0  0
    9.5685    8.1160   23.4591 C   0  0  0  0  0  0  0  0  0  0  0  0
   11.2031   14.1346   21.5191 C   0  0  0  0  0  0  0  0  0  0  0  0
    9.5084   11.9175   23.7377 N   0  0  0  0  0  0  0  0  0  0  0  0
   10.6209   13.9461   24.1821 O   0  0  0  0  0  0  0  0  0  0  0  0
    7.9474    9.5889   24.3895 O   0  0  0  0  0  0  0  0  0  0  0  0
    8.4892    7.8318   22.5871 O   0  0  0  0  0  0  0  0  0  0  0  0
   10.9007   12.9017   22.1837 O   0  0  0  0  0  0  0  0  0  0  0  0
    6.3095   14.1983   26.2403 H   0  0  0  0  0  0  0  0  0  0  0  0
    5.0331   12.1212   26.6748 H   0  0  0  0  0  0  0  0  0  0  0  0
    8.3271   14.1661   24.9188 H   0  0  0  0  0  0  0  0  0  0  0  0
    5.8448    9.9696   25.7704 H   0  0  0  0  0  0  0  0  0  0  0  0
   10.8060   10.4799   22.8754 H   0  0  0  0  0  0  0  0  0  0  0  0
    9.1648   10.5656   22.2086 H   0  0  0  0  0  0  0  0  0  0  0  0
    9.9141    9.5356   25.0226 H   0  0  0  0  0  0  0  0  0  0  0  0
   11.7924   15.1577   23.3446 H   0  0  0  0  0  0  0  0  0  0  0  0
   13.1340   14.3335   22.5183 H   0  0  0  0  0  0  0  0  0  0  0  0
   12.4759   15.8593   21.8885 H   0  0  0  0  0  0  0  0  0  0  0  0
   11.0740   13.2339   19.5450 H   0  0  0  0  0  0  0  0  0  0  0  0
   12.6719   13.1385   20.2638 H   0  0  0  0  0  0  0  0  0  0  0  0
   12.0968   14.6864   19.6056 H   0  0  0  0  0  0  0  0  0  0  0  0
    9.1829   14.3755   20.7496 H   0  0  0  0  0  0  0  0  0  0  0  0
    9.4491   15.1553   22.3240 H   0  0  0  0  0  0  0  0  0  0  0  0
   10.0943   15.8733   20.8304 H   0  0  0  0  0  0  0  0  0  0  0  0
    9.6146    7.3512   24.2351 H   0  0  0  0  0  0  0  0  0  0  0  0
   10.4990    8.1180   22.8904 H   0  0  0  0  0  0  0  0  0  0  0  0
    7.6792    7.8372   23.1249 H   0  0  0  0  0  0  0  0  0  0  0  0
  1  2  2  0  0  0  0
  1  3  1  0  0  0  0
  2  4  1  0  0  0  0
  3  5  2  0  0  0  0
  4  6  2  0  0  0  0
  5  6  1  0  0  0  0
  5 15  1  0  0  0  0
  6 17  1  0  0  0  0
  7 15  1  0  0  0  0
  7 16  2  0  0  0  0
  7 19  1  0  0  0  0
  8  9  1  0  0  0  0
  8 15  1  0  0  0  0
  9 13  1  0  0  0  0
  9 17  1  0  0  0  0
 10 14  1  0  0  0  0
 11 14  1  0  0  0  0
 12 14  1  0  0  0  0
 13 18  1  0  0  0  0
 14 19  1  0  0  0  0
  1 20  1  0  0  0  0
  2 21  1  0  0  0  0
  3 22  1  0  0  0  0
  4 23  1  0  0  0  0
  8 24  1  0  0  0  0
  8 25  1  0  0  0  0
  9 26  1  0  0  0  0
 10 27  1  0  0  0  0
 10 28  1  0  0  0  0
 10 29  1  0  0  0  0
 11 30  1  0  0  0  0
 11 31  1  0  0  0  0
 11 32  1  0  0  0  0
 12 33  1  0  0  0  0
 12 34  1  0  0  0  0
 12 35  1  0  0  0  0
 13 36  1  0  0  0  0
 13 37  1  0  0  0  0
 18 38  1  0  0  0  0
M  END
> <id>
EN300-3932045

> <smiles>
CC(C)(C)OC(=O)N1CC(CO)OC=2C=CC=CC12

> <IUPAC Name>
tert-butyl 2-(hydroxymethyl)-3,4-dihydro-2H-1,4-benzoxazine-4-carboxylate

> <CAS>
177200-47-4

> <URL>
https://www.enaminestore.com/catalog/EN300-3932045

> <ROCS_ShapeQuery>
A71EV2A-x0451_0A_A71EV2A-x0310_0A_A71EV2A-x0416_0A_peptide

> <ROCS_TanimotoCombo>
0.512 

> <ROCS_ShapeTanimoto>
0.356 

> <ROCS_ColorTanimoto>
0.156 

> <ROCS_RefTversky>
0.307 

> <ROCS_RefColorTversky>
0.171 

> <ROCS_RefTverskyCombo>
0.478 

> <ROCS_FitTversky>
1.816 

> <ROCS_FitColorTversky>
0.634 

> <ROCS_FitTverskyCombo>
2.450 

> <ROCS_ColorScore>
-5.224

> <ROCS_Overlap>
2128.111

> <ROCS_Rank>
354                 

$$$$
untitled-dbase-146792_74
  -OEChem-11132313473D

 42 43  0     1  0  0  0  0  0999 V2000
    6.8851   12.1606   25.5562 C   0  0  0  0  0  0  0  0  0  0  0  0
    7.8632   12.9162   24.8802 C   0  0  0  0  0  0  0  0  0  0  0  0
    8.6188   11.9901   24.1912 C   0  0  0  0  0  0  0  0  0  0  0  0
    7.9454   14.3442   24.9288 C   0  0  0  0  0  0  0  0  0  0  0  0
   10.5336   13.2301   23.4427 C   0  0  0  0  0  0  0  0  0  0  0  0
    9.2115    9.6645   22.7003 C   0  0  0  0  0  0  0  0  0  0  0  0
    8.6262    9.4980   24.1017 C   0  0  2  0  0  0  0  0  0  0  0  0
   10.1893   10.8591   22.5931 C   0  0  1  0  0  0  0  0  0  0  0  0
   10.3553   11.1710   21.0956 C   0  0  0  0  0  0  0  0  0  0  0  0
   12.4157   15.3754   23.1494 C   0  0  0  0  0  0  0  0  0  0  0  0
   12.5334   14.6946   20.7345 C   0  0  0  0  0  0  0  0  0  0  0  0
   10.3628   15.5100   21.6996 C   0  0  0  0  0  0  0  0  0  0  0  0
    7.6279    8.3394   24.1272 C   0  0  0  0  0  0  0  0  0  0  0  0
   11.6554   14.7461   21.9829 C   0  0  0  0  0  0  0  0  0  0  0  0
    7.0081   10.8504   25.3413 N   0  0  0  0  0  0  0  0  0  0  0  0
    8.0558   10.7761   24.5022 N   0  0  0  0  0  0  0  0  0  0  0  0
    9.7523   12.0568   23.3707 N   0  0  0  0  0  0  0  0  0  0  0  0
    8.3824   15.0897   24.0276 O   0  0  0  0  0  0  0  0  0  0  0  0
   10.5678   14.0196   24.3841 O   0  0  0  0  0  0  0  0  0  0  0  0
    7.4821   14.8752   26.1037 O   0  0  0  0  0  0  0  0  0  0  0  0
   11.3210   13.3972   22.3313 O   0  0  0  0  0  0  0  0  0  0  0  0
    7.1492    8.1727   25.3692 F   0  0  0  0  0  0  0  0  0  0  0  0
    6.6053    8.5959   23.2977 F   0  0  0  0  0  0  0  0  0  0  0  0
    8.2301    7.2058   23.7375 F   0  0  0  0  0  0  0  0  0  0  0  0
    6.0850   12.5088   26.1942 H   0  0  0  0  0  0  0  0  0  0  0  0
    9.7847    8.7640   22.4655 H   0  0  0  0  0  0  0  0  0  0  0  0
    8.4266    9.7396   21.9500 H   0  0  0  0  0  0  0  0  0  0  0  0
    9.4372    9.2758   24.7705 H   0  0  0  0  0  0  0  0  0  0  0  0
   11.1407   10.4971   22.9504 H   0  0  0  0  0  0  0  0  0  0  0  0
    9.4150   11.5404   20.6940 H   0  0  0  0  0  0  0  0  0  0  0  0
   10.6433   10.2669   20.5650 H   0  0  0  0  0  0  0  0  0  0  0  0
   11.1253   11.9271   20.9642 H   0  0  0  0  0  0  0  0  0  0  0  0
   11.7888   15.4142   24.0475 H   0  0  0  0  0  0  0  0  0  0  0  0
   13.3270   14.8164   23.3854 H   0  0  0  0  0  0  0  0  0  0  0  0
   12.6939   16.4108   22.9217 H   0  0  0  0  0  0  0  0  0  0  0  0
   11.9919   14.2438   19.8950 H   0  0  0  0  0  0  0  0  0  0  0  0
   13.4167   14.0683   20.9041 H   0  0  0  0  0  0  0  0  0  0  0  0
   12.8686   15.6928   20.4348 H   0  0  0  0  0  0  0  0  0  0  0  0
    9.8172   15.0588   20.8629 H   0  0  0  0  0  0  0  0  0  0  0  0
    9.7036   15.5256   22.5736 H   0  0  0  0  0  0  0  0  0  0  0  0
   10.5775   16.5442   21.4069 H   0  0  0  0  0  0  0  0  0  0  0  0
    7.5333   15.8539   26.1464 H   0  0  0  0  0  0  0  0  0  0  0  0
  1  2  1  0  0  0  0
  1 15  2  0  0  0  0
  2  3  2  0  0  0  0
  2  4  1  0  0  0  0
  3 16  1  0  0  0  0
  3 17  1  0  0  0  0
  4 18  2  0  0  0  0
  4 20  1  0  0  0  0
  5 17  1  0  0  0  0
  5 19  2  0  0  0  0
  5 21  1  0  0  0  0
  6  7  1  0  0  0  0
  6  8  1  0  0  0  0
  7 13  1  6  0  0  0
  7 16  1  0  0  0  0
  8  9  1  6  0  0  0
  8 17  1  0  0  0  0
 10 14  1  0  0  0  0
 11 14  1  0  0  0  0
 12 14  1  0  0  0  0
 13 22  1  0  0  0  0
 13 23  1  0  0  0  0
 13 24  1  0  0  0  0
 14 21  1  0  0  0  0
 15 16  1  0  0  0  0
  1 25  1  0  0  0  0
  6 26  1  0  0  0  0
  6 27  1  0  0  0  0
  7 28  1  0  0  0  0
  8 29  1  0  0  0  0
  9 30  1  0  0  0  0
  9 31  1  0  0  0  0
  9 32  1  0  0  0  0
 10 33  1  0  0  0  0
 10 34  1  0  0  0  0
 10 35  1  0  0  0  0
 11 36  1  0  0  0  0
 11 37  1  0  0  0  0
 11 38  1  0  0  0  0
 12 39  1  0  0  0  0
 12 40  1  0  0  0  0
 12 41  1  0  0  0  0
 20 42  1  0  0  0  0
M  END
> <id>
EN300-27782966

> <smiles>
C[C@@H]1C[C@@H](N2N=CC(C(=O)O)=C2N1C(=O)OC(C)(C)C)C(F)(F)F |&1:1,3,r|

> <IUPAC Name>
rac-(5R,7R)-4-[(tert-butoxy)carbonyl]-5-methyl-7-(trifluoromethyl)-4H,5H,6H,7H-pyrazolo[1,5-a]pyrimidine-3-carboxylic acid

> <CAS>
2639374-87-9

> <URL>
https://www.enaminestore.com/catalog/EN300-27782966

> <ROCS_ShapeQuery>
A71EV2A-x0451_0A_A71EV2A-x0310_0A_A71EV2A-x0416_0A_peptide

> <ROCS_TanimotoCombo>
0.512 

> <ROCS_ShapeTanimoto>
0.369 

> <ROCS_ColorTanimoto>
0.143 

> <ROCS_RefTversky>
0.325 

> <ROCS_RefColorTversky>
0.163 

> <ROCS_RefTverskyCombo>
0.487 

> <ROCS_FitTversky>
1.590 

> <ROCS_FitColorTversky>
0.538 

> <ROCS_FitTverskyCombo>
2.128 

> <ROCS_ColorScore>
-4.961

> <ROCS_Overlap>
2256.195

> <ROCS_Rank>
355                 

$$$$
untitled-dbase-104800_296
  -OEChem-11132313473D

 47 49  0     1  0  0  0  0  0999 V2000
    4.5990   12.5985   28.5178 C   0  0  0  0  0  0  0  0  0  0  0  0
    4.0626   12.0019   27.3768 C   0  0  0  0  0  0  0  0  0  0  0  0
    5.9818   12.7142   28.6599 C   0  0  0  0  0  0  0  0  0  0  0  0
    4.9090   11.5209   26.3779 C   0  0  0  0  0  0  0  0  0  0  0  0
    6.8282   12.2332   27.6610 C   0  0  0  0  0  0  0  0  0  0  0  0
    6.2918   11.6365   26.5200 C   0  0  0  0  0  0  0  0  0  0  0  0
    9.8641   13.3567   23.5633 C   0  0  0  0  0  0  0  0  0  0  0  0
    8.4348   10.1709   22.7259 C   0  0  0  0  0  0  0  0  0  0  0  0
    9.4843    9.7732   23.7818 C   0  0  0  0  0  0  0  0  0  0  0  0
    6.9730   11.8080   24.0426 C   0  0  0  0  0  0  0  0  0  0  0  0
    8.7421   11.1547   25.8070 C   0  0  0  0  0  0  0  0  0  0  0  0
    8.1198   11.6401   23.0223 C   0  0  1  0  0  0  0  0  0  0  0  0
    9.7084   11.0431   24.6088 C   0  0  2  0  0  0  0  0  0  0  0  0
    7.2237   11.1073   25.4214 C   0  0  0  0  0  0  0  0  0  0  0  0
   11.9295   14.4405   22.3701 C   0  0  0  0  0  0  0  0  0  0  0  0
   10.5101   14.7862   20.3269 C   0  0  0  0  0  0  0  0  0  0  0  0
   10.1839   16.2533   22.3391 C   0  0  0  0  0  0  0  0  0  0  0  0
   10.5524   14.8527   21.8520 C   0  0  0  0  0  0  0  0  0  0  0  0
    9.3298   12.0885   23.6767 N   0  0  0  0  0  0  0  0  0  0  0  0
   10.5182   13.9118   24.4432 O   0  0  0  0  0  0  0  0  0  0  0  0
    6.8616    9.7250   25.2583 O   0  0  0  0  0  0  0  0  0  0  0  0
    9.5816   13.9262   22.3514 O   0  0  0  0  0  0  0  0  0  0  0  0
    3.9397   12.9742   29.2949 H   0  0  0  0  0  0  0  0  0  0  0  0
    2.9859   11.9127   27.2655 H   0  0  0  0  0  0  0  0  0  0  0  0
    6.3997   13.1796   29.5477 H   0  0  0  0  0  0  0  0  0  0  0  0
    4.4822   11.0574   25.4923 H   0  0  0  0  0  0  0  0  0  0  0  0
    7.9043   12.3275   27.7804 H   0  0  0  0  0  0  0  0  0  0  0  0
    8.8758   10.0728   21.7267 H   0  0  0  0  0  0  0  0  0  0  0  0
    7.5503    9.5276   22.7602 H   0  0  0  0  0  0  0  0  0  0  0  0
    9.1616    8.9195   24.3852 H   0  0  0  0  0  0  0  0  0  0  0  0
   10.4118    9.4848   23.2727 H   0  0  0  0  0  0  0  0  0  0  0  0
    6.8267   12.8853   24.2036 H   0  0  0  0  0  0  0  0  0  0  0  0
    6.0438   11.4283   23.5981 H   0  0  0  0  0  0  0  0  0  0  0  0
    8.9645   10.3488   26.5186 H   0  0  0  0  0  0  0  0  0  0  0  0
    8.9586   12.1002   26.3239 H   0  0  0  0  0  0  0  0  0  0  0  0
    7.9110   12.2154   22.1149 H   0  0  0  0  0  0  0  0  0  0  0  0
   10.7456   11.1410   24.9429 H   0  0  0  0  0  0  0  0  0  0  0  0
   11.9640   14.4869   23.4645 H   0  0  0  0  0  0  0  0  0  0  0  0
   12.1908   13.4245   22.0568 H   0  0  0  0  0  0  0  0  0  0  0  0
   12.7049   15.1248   22.0071 H   0  0  0  0  0  0  0  0  0  0  0  0
    9.5238   15.0812   19.9507 H   0  0  0  0  0  0  0  0  0  0  0  0
   10.6805   13.7619   19.9760 H   0  0  0  0  0  0  0  0  0  0  0  0
   11.2634   15.4380   19.8729 H   0  0  0  0  0  0  0  0  0  0  0  0
    9.1961   16.5493   21.9676 H   0  0  0  0  0  0  0  0  0  0  0  0
   10.1731   16.3102   23.4324 H   0  0  0  0  0  0  0  0  0  0  0  0
   10.8930   16.9974   21.9587 H   0  0  0  0  0  0  0  0  0  0  0  0
    7.0098    9.2999   26.1165 H   0  0  0  0  0  0  0  0  0  0  0  0
  1  2  2  0  0  0  0
  1  3  1  0  0  0  0
  2  4  1  0  0  0  0
  3  5  2  0  0  0  0
  4  6  2  0  0  0  0
  5  6  1  0  0  0  0
  6 14  1  0  0  0  0
  7 19  1  0  0  0  0
  7 20  2  0  0  0  0
  7 22  1  0  0  0  0
  8  9  1  0  0  0  0
  8 12  1  0  0  0  0
  9 13  1  0  0  0  0
 10 12  1  0  0  0  0
 10 14  1  0  0  0  0
 11 13  1  0  0  0  0
 11 14  1  0  0  0  0
 12 19  1  0  0  0  0
 13 19  1  0  0  0  0
 14 21  1  0  0  0  0
 15 18  1  0  0  0  0
 16 18  1  0  0  0  0
 17 18  1  0  0  0  0
 18 22  1  0  0  0  0
  1 23  1  0  0  0  0
  2 24  1  0  0  0  0
  3 25  1  0  0  0  0
  4 26  1  0  0  0  0
  5 27  1  0  0  0  0
  8 28  1  0  0  0  0
  8 29  1  0  0  0  0
  9 30  1  0  0  0  0
  9 31  1  0  0  0  0
 10 32  1  0  0  0  0
 10 33  1  0  0  0  0
 11 34  1  0  0  0  0
 11 35  1  0  0  0  0
 12 36  1  0  0  0  0
 13 37  1  0  0  0  0
 15 38  1  0  0  0  0
 15 39  1  0  0  0  0
 15 40  1  0  0  0  0
 16 41  1  0  0  0  0
 16 42  1  0  0  0  0
 16 43  1  0  0  0  0
 17 44  1  0  0  0  0
 17 45  1  0  0  0  0
 17 46  1  0  0  0  0
 21 47  1  0  0  0  0
M  END
> <id>
EN300-199161

> <smiles>
CC(C)(C)OC(=O)N1C2CCC1CC(O)(C2)C=3C=CC=CC3

> <MDLNUMBER>
MFCD28992171

> <IUPAC Name>
tert-butyl 3-hydroxy-3-phenyl-8-azabicyclo[3.2.1]octane-8-carboxylate

> <CAS>
1307254-47-2

> <URL>
https://www.enaminestore.com/catalog/EN300-199161

> <ROCS_ShapeQuery>
A71EV2A-x0451_0A_A71EV2A-x0310_0A_A71EV2A-x0416_0A_peptide

> <ROCS_TanimotoCombo>
0.512 

> <ROCS_ShapeTanimoto>
0.314 

> <ROCS_ColorTanimoto>
0.198 

> <ROCS_RefTversky>
0.284 

> <ROCS_RefColorTversky>
0.229 

> <ROCS_RefTverskyCombo>
0.513 

> <ROCS_FitTversky>
1.508 

> <ROCS_FitColorTversky>
0.593 

> <ROCS_FitTverskyCombo>
2.101 

> <ROCS_ColorScore>
-7.022

> <ROCS_Overlap>
1970.716

> <ROCS_Rank>
356                 

$$$$
untitled-dbase-179759_565
  -OEChem-11132313473D

 40 41  0     1  0  0  0  0  0999 V2000
    7.2813   12.8614   26.8028 C   0  0  0  0  0  0  0  0  0  0  0  0
    8.3177   12.8907   25.8637 C   0  0  0  0  0  0  0  0  0  0  0  0
    6.2256   11.0884   25.5799 C   0  0  0  0  0  0  0  0  0  0  0  0
    6.2271   11.9715   26.6531 C   0  0  0  0  0  0  0  0  0  0  0  0
    7.2736   11.0974   24.6425 C   0  0  0  0  0  0  0  0  0  0  0  0
    8.3173   12.0416   24.7438 C   0  0  0  0  0  0  0  0  0  0  0  0
    5.1263   11.9735   27.6032 C   0  0  0  0  0  0  0  0  0  0  0  0
   10.2283   13.1615   23.4975 C   0  0  0  0  0  0  0  0  0  0  0  0
    7.2406   10.0912   23.5231 C   0  0  0  0  0  0  0  0  0  0  0  0
    9.4805   10.9473   22.8104 C   0  0  0  0  0  0  0  0  0  0  0  0
    8.6580    9.7113   23.1328 C   0  0  1  0  0  0  0  0  0  0  0  0
   12.8455   14.0476   22.7360 C   0  0  0  0  0  0  0  0  0  0  0  0
   11.8951   14.2585   20.4205 C   0  0  0  0  0  0  0  0  0  0  0  0
   10.9655   15.6595   22.2863 C   0  0  0  0  0  0  0  0  0  0  0  0
   11.5846   14.3128   21.9148 C   0  0  0  0  0  0  0  0  0  0  0  0
    9.3553   12.0750   23.7448 N   0  0  0  0  0  0  0  0  0  0  0  0
    3.9407   12.1838   27.3257 O   0  0  0  0  0  0  0  0  0  0  0  0
   10.6559   13.8994   24.3869 O   0  0  0  0  0  0  0  0  0  0  0  0
    5.5353   11.7118   28.8752 O   0  0  0  0  0  0  0  0  0  0  0  0
    9.2929    8.9842   24.1826 O   0  0  0  0  0  0  0  0  0  0  0  0
   10.6321   13.2800   22.1955 O   0  0  0  0  0  0  0  0  0  0  0  0
    7.3061   13.5527   27.6414 H   0  0  0  0  0  0  0  0  0  0  0  0
    9.0907   13.6293   26.0365 H   0  0  0  0  0  0  0  0  0  0  0  0
    5.4054   10.3844   25.4645 H   0  0  0  0  0  0  0  0  0  0  0  0
    6.7007    9.2040   23.8421 H   0  0  0  0  0  0  0  0  0  0  0  0
    6.7358   10.5461   22.6749 H   0  0  0  0  0  0  0  0  0  0  0  0
   10.5436   10.6369   22.7447 H   0  0  0  0  0  0  0  0  0  0  0  0
    9.2214   11.3366   21.8019 H   0  0  0  0  0  0  0  0  0  0  0  0
    8.6295    9.0465   22.2594 H   0  0  0  0  0  0  0  0  0  0  0  0
   12.6268   14.0858   23.8092 H   0  0  0  0  0  0  0  0  0  0  0  0
   13.2797   13.0696   22.5041 H   0  0  0  0  0  0  0  0  0  0  0  0
   13.6037   14.8163   22.5475 H   0  0  0  0  0  0  0  0  0  0  0  0
   10.9931   14.4481   19.8274 H   0  0  0  0  0  0  0  0  0  0  0  0
   12.2506   13.2628   20.1317 H   0  0  0  0  0  0  0  0  0  0  0  0
   12.6560   14.9935   20.1390 H   0  0  0  0  0  0  0  0  0  0  0  0
   10.0610   15.8499   21.6974 H   0  0  0  0  0  0  0  0  0  0  0  0
   10.7021   15.7030   23.3481 H   0  0  0  0  0  0  0  0  0  0  0  0
   11.6571   16.4805   22.0651 H   0  0  0  0  0  0  0  0  0  0  0  0
    4.7995   11.7101   29.5240 H   0  0  0  0  0  0  0  0  0  0  0  0
    9.3012    9.5684   24.9562 H   0  0  0  0  0  0  0  0  0  0  0  0
  1  2  1  0  0  0  0
  1  4  2  0  0  0  0
  2  6  2  0  0  0  0
  3  4  1  0  0  0  0
  3  5  2  0  0  0  0
  4  7  1  0  0  0  0
  5  6  1  0  0  0  0
  5  9  1  0  0  0  0
  6 16  1  0  0  0  0
  7 17  2  0  0  0  0
  7 19  1  0  0  0  0
  8 16  1  0  0  0  0
  8 18  2  0  0  0  0
  8 21  1  0  0  0  0
  9 11  1  0  0  0  0
 10 11  1  0  0  0  0
 10 16  1  0  0  0  0
 11 20  1  0  0  0  0
 12 15  1  0  0  0  0
 13 15  1  0  0  0  0
 14 15  1  0  0  0  0
 15 21  1  0  0  0  0
  1 22  1  0  0  0  0
  2 23  1  0  0  0  0
  3 24  1  0  0  0  0
  9 25  1  0  0  0  0
  9 26  1  0  0  0  0
 10 27  1  0  0  0  0
 10 28  1  0  0  0  0
 11 29  1  0  0  0  0
 12 30  1  0  0  0  0
 12 31  1  0  0  0  0
 12 32  1  0  0  0  0
 13 33  1  0  0  0  0
 13 34  1  0  0  0  0
 13 35  1  0  0  0  0
 14 36  1  0  0  0  0
 14 37  1  0  0  0  0
 14 38  1  0  0  0  0
 19 39  1  0  0  0  0
 20 40  1  0  0  0  0
M  END
> <id>
EN300-39680541

> <smiles>
CC(C)(C)OC(=O)N1CC(O)CC=2C=C(C=CC12)C(=O)O

> <IUPAC Name>
1-[(tert-butoxy)carbonyl]-3-hydroxy-1,2,3,4-tetrahydroquinoline-6-carboxylic acid

> <URL>
https://www.enaminestore.com/catalog/EN300-39680541

> <ROCS_ShapeQuery>
A71EV2A-x0451_0A_A71EV2A-x0310_0A_A71EV2A-x0416_0A_peptide

> <ROCS_TanimotoCombo>
0.512 

> <ROCS_ShapeTanimoto>
0.345 

> <ROCS_ColorTanimoto>
0.166 

> <ROCS_RefTversky>
0.303 

> <ROCS_RefColorTversky>
0.190 

> <ROCS_RefTverskyCombo>
0.493 

> <ROCS_FitTversky>
1.674 

> <ROCS_FitColorTversky>
0.572 

> <ROCS_FitTverskyCombo>
2.246 

> <ROCS_ColorScore>
-5.802

> <ROCS_Overlap>
2105.645

> <ROCS_Rank>
357                 

$$$$
untitled-dbase-21232_6
  -OEChem-11132313473D

 37 38  0     0  0  0  0  0  0999 V2000
    7.9560   13.0370   25.3110 C   0  0  0  0  0  0  0  0  0  0  0  0
    6.8657   12.8767   26.1754 C   0  0  0  0  0  0  0  0  0  0  0  0
    6.6972   10.5663   25.5491 C   0  0  0  0  0  0  0  0  0  0  0  0
    8.4457   11.9641   24.5507 C   0  0  0  0  0  0  0  0  0  0  0  0
    7.7985   10.7204   24.6978 C   0  0  0  0  0  0  0  0  0  0  0  0
    6.2348   11.6444   26.2928 C   0  0  0  0  0  0  0  0  0  0  0  0
   10.2951   13.2534   23.4237 C   0  0  0  0  0  0  0  0  0  0  0  0
    9.7709   10.8956   22.7825 C   0  0  0  0  0  0  0  0  0  0  0  0
    9.5121    9.6282   23.5669 C   0  0  0  0  0  0  0  0  0  0  0  0
   12.7659   14.5069   22.6742 C   0  0  0  0  0  0  0  0  0  0  0  0
   11.8517   14.4908   20.3347 C   0  0  0  0  0  0  0  0  0  0  0  0
   10.6728   15.7940   22.1292 C   0  0  0  0  0  0  0  0  0  0  0  0
   11.4998   14.5469   21.8197 C   0  0  0  0  0  0  0  0  0  0  0  0
    9.5318   12.0848   23.6131 N   0  0  0  0  0  0  0  0  0  0  0  0
   10.5880   14.0816   24.2812 O   0  0  0  0  0  0  0  0  0  0  0  0
    4.2628   12.7527   27.5958 O   0  0  0  0  0  0  0  0  0  0  0  0
    4.0827   10.2988   26.9686 O   0  0  0  0  0  0  0  0  0  0  0  0
    8.1644    9.5835   24.0198 O   0  0  0  0  0  0  0  0  0  0  0  0
   10.7101   13.3897   22.1202 O   0  0  0  0  0  0  0  0  0  0  0  0
    4.8684   11.4547   27.3610 S   0  0  0  0  0  0  0  0  0  0  0  0
    5.7590   10.9163   29.1241 Cl  0  0  0  0  0  0  0  0  0  0  0  0
    8.3705   14.0357   25.2524 H   0  0  0  0  0  0  0  0  0  0  0  0
    6.5121   13.7331   26.7444 H   0  0  0  0  0  0  0  0  0  0  0  0
    6.2101    9.5973   25.6326 H   0  0  0  0  0  0  0  0  0  0  0  0
   10.7985   10.8811   22.4077 H   0  0  0  0  0  0  0  0  0  0  0  0
    9.0944   10.9723   21.9227 H   0  0  0  0  0  0  0  0  0  0  0  0
    9.6702    8.7570   22.9224 H   0  0  0  0  0  0  0  0  0  0  0  0
   10.1951    9.5280   24.4203 H   0  0  0  0  0  0  0  0  0  0  0  0
   12.5176   14.5470   23.7409 H   0  0  0  0  0  0  0  0  0  0  0  0
   13.3503   13.6001   22.4871 H   0  0  0  0  0  0  0  0  0  0  0  0
   13.4018   15.3763   22.4720 H   0  0  0  0  0  0  0  0  0  0  0  0
   10.9462   14.5193   19.7179 H   0  0  0  0  0  0  0  0  0  0  0  0
   12.3626   13.5526   20.0899 H   0  0  0  0  0  0  0  0  0  0  0  0
   12.4978   15.3243   20.0408 H   0  0  0  0  0  0  0  0  0  0  0  0
    9.7646   15.8230   21.5164 H   0  0  0  0  0  0  0  0  0  0  0  0
   10.3798   15.8322   23.1834 H   0  0  0  0  0  0  0  0  0  0  0  0
   11.2357   16.7038   21.8910 H   0  0  0  0  0  0  0  0  0  0  0  0
  1  2  1  0  0  0  0
  1  4  2  0  0  0  0
  2  6  2  0  0  0  0
  3  5  2  0  0  0  0
  3  6  1  0  0  0  0
  4  5  1  0  0  0  0
  4 14  1  0  0  0  0
  5 18  1  0  0  0  0
  6 20  1  0  0  0  0
  7 14  1  0  0  0  0
  7 15  2  0  0  0  0
  7 19  1  0  0  0  0
  8  9  1  0  0  0  0
  8 14  1  0  0  0  0
  9 18  1  0  0  0  0
 10 13  1  0  0  0  0
 11 13  1  0  0  0  0
 12 13  1  0  0  0  0
 13 19  1  0  0  0  0
 16 20  2  0  0  0  0
 17 20  2  0  0  0  0
 20 21  1  0  0  0  0
  1 22  1  0  0  0  0
  2 23  1  0  0  0  0
  3 24  1  0  0  0  0
  8 25  1  0  0  0  0
  8 26  1  0  0  0  0
  9 27  1  0  0  0  0
  9 28  1  0  0  0  0
 10 29  1  0  0  0  0
 10 30  1  0  0  0  0
 10 31  1  0  0  0  0
 11 32  1  0  0  0  0
 11 33  1  0  0  0  0
 11 34  1  0  0  0  0
 12 35  1  0  0  0  0
 12 36  1  0  0  0  0
 12 37  1  0  0  0  0
M  END
> <id>
EN300-304358

> <smiles>
CC(C)(C)OC(=O)N1CCOC=2C=C(C=CC12)S(=O)(=O)Cl

> <MDLNUMBER>
MFCD28388195

> <IUPAC Name>
tert-butyl 7-(chlorosulfonyl)-3,4-dihydro-2H-1,4-benzoxazine-4-carboxylate

> <CAS>
1955540-74-5

> <Purity>
95

> <URL>
https://www.enaminestore.com/catalog/EN300-304358

> <ROCS_ShapeQuery>
A71EV2A-x0451_0A_A71EV2A-x0310_0A_A71EV2A-x0416_0A_peptide

> <ROCS_TanimotoCombo>
0.512 

> <ROCS_ShapeTanimoto>
0.352 

> <ROCS_ColorTanimoto>
0.159 

> <ROCS_RefTversky>
0.307 

> <ROCS_RefColorTversky>
0.166 

> <ROCS_RefTverskyCombo>
0.473 

> <ROCS_FitTversky>
1.728 

> <ROCS_FitColorTversky>
0.795 

> <ROCS_FitTverskyCombo>
2.522 

> <ROCS_ColorScore>
-5.039

> <ROCS_Overlap>
2130.594

> <ROCS_Rank>
358                 

$$$$
untitled-dbase-154045_18
  -OEChem-11132313473D

 31 32  0     0  0  0  0  0  0999 V2000
    7.0665   13.0499   25.7723 C   0  0  0  0  0  0  0  0  0  0  0  0
    8.1106   13.0565   24.8286 C   0  0  0  0  0  0  0  0  0  0  0  0
    6.3798   11.8721   26.1840 C   0  0  0  0  0  0  0  0  0  0  0  0
    8.3967   11.7800   24.3428 C   0  0  0  0  0  0  0  0  0  0  0  0
    7.7173   10.5394   24.7369 C   0  0  0  0  0  0  0  0  0  0  0  0
    6.6734   10.5850   25.6892 C   0  0  0  0  0  0  0  0  0  0  0  0
    9.3834   11.5641   23.4120 C   0  0  0  0  0  0  0  0  0  0  0  0
   10.8621   13.5809   23.1735 C   0  0  0  0  0  0  0  0  0  0  0  0
   11.4169   16.3652   22.8287 C   0  0  0  0  0  0  0  0  0  0  0  0
   12.4268   15.7023   20.6264 C   0  0  0  0  0  0  0  0  0  0  0  0
    9.9849   15.2996   21.0543 C   0  0  0  0  0  0  0  0  0  0  0  0
   11.3774   15.3574   21.6809 C   0  0  0  0  0  0  0  0  0  0  0  0
    8.1981    9.4577   24.1095 N   0  0  0  0  0  0  0  0  0  0  0  0
   10.2992   12.3991   22.7322 N   0  0  0  0  0  0  0  0  0  0  0  0
   10.6791   14.1441   24.2458 O   0  0  0  0  0  0  0  0  0  0  0  0
   11.6967   14.0655   22.1992 O   0  0  0  0  0  0  0  0  0  0  0  0
    9.4211    9.8882   23.0794 S   0  0  0  0  0  0  0  0  0  0  0  0
    5.7302    9.0679   26.2725 Br  0  0  0  0  0  0  0  0  0  0  0  0
    6.7643   13.9988   26.2143 H   0  0  0  0  0  0  0  0  0  0  0  0
    8.6147   13.9683   24.5352 H   0  0  0  0  0  0  0  0  0  0  0  0
    5.5868   11.9897   26.9228 H   0  0  0  0  0  0  0  0  0  0  0  0
   10.6651   16.1211   23.5877 H   0  0  0  0  0  0  0  0  0  0  0  0
   12.4004   16.3910   23.3091 H   0  0  0  0  0  0  0  0  0  0  0  0
   11.1796   17.3739   22.4717 H   0  0  0  0  0  0  0  0  0  0  0  0
   12.4020   14.9817   19.8009 H   0  0  0  0  0  0  0  0  0  0  0  0
   13.4365   15.6521   21.0497 H   0  0  0  0  0  0  0  0  0  0  0  0
   12.2725   16.7054   20.2158 H   0  0  0  0  0  0  0  0  0  0  0  0
    9.9563   14.5767   20.2310 H   0  0  0  0  0  0  0  0  0  0  0  0
    9.2236   15.0172   21.7887 H   0  0  0  0  0  0  0  0  0  0  0  0
    9.7107   16.2696   20.6239 H   0  0  0  0  0  0  0  0  0  0  0  0
   10.5782   12.0918   21.8036 H   0  0  0  0  0  0  0  0  0  0  0  0
  1  2  2  0  0  0  0
  1  3  1  0  0  0  0
  2  4  1  0  0  0  0
  3  6  2  0  0  0  0
  4  5  1  0  0  0  0
  4  7  2  0  0  0  0
  5  6  1  0  0  0  0
  5 13  2  0  0  0  0
  6 18  1  0  0  0  0
  7 14  1  0  0  0  0
  7 17  1  0  0  0  0
  8 14  1  0  0  0  0
  8 15  2  0  0  0  0
  8 16  1  0  0  0  0
  9 12  1  0  0  0  0
 10 12  1  0  0  0  0
 11 12  1  0  0  0  0
 12 16  1  0  0  0  0
 13 17  1  0  0  0  0
  1 19  1  0  0  0  0
  2 20  1  0  0  0  0
  3 21  1  0  0  0  0
  9 22  1  0  0  0  0
  9 23  1  0  0  0  0
  9 24  1  0  0  0  0
 10 25  1  0  0  0  0
 10 26  1  0  0  0  0
 10 27  1  0  0  0  0
 11 28  1  0  0  0  0
 11 29  1  0  0  0  0
 11 30  1  0  0  0  0
 14 31  1  0  0  0  0
M  END
> <id>
EN300-28295281

> <smiles>
CC(C)(C)OC(=O)NC=1SN=C2C(Br)=CC=CC12

> <IUPAC Name>
tert-butyl N-(7-bromo-2,1-benzothiazol-3-yl)carbamate

> <CAS>
2680769-46-2

> <URL>
https://www.enaminestore.com/catalog/EN300-28295281

> <ROCS_ShapeQuery>
A71EV2A-x0451_0A_A71EV2A-x0310_0A_A71EV2A-x0416_0A_peptide

> <ROCS_TanimotoCombo>
0.512 

> <ROCS_ShapeTanimoto>
0.329 

> <ROCS_ColorTanimoto>
0.183 

> <ROCS_RefTversky>
0.287 

> <ROCS_RefColorTversky>
0.196 

> <ROCS_RefTverskyCombo>
0.483 

> <ROCS_FitTversky>
1.799 

> <ROCS_FitColorTversky>
0.725 

> <ROCS_FitTverskyCombo>
2.524 

> <ROCS_ColorScore>
-5.986

> <ROCS_Overlap>
1989.137

> <ROCS_Rank>
359                 

$$$$
untitled-dbase-157102_9
  -OEChem-11132313473D

 33 34  0     0  0  0  0  0  0999 V2000
    9.9590    9.4487   22.9075 C   0  0  0  0  0  0  0  0  0  0  0  0
    8.3765   12.5223   24.2562 C   0  0  0  0  0  0  0  0  0  0  0  0
    9.7185    8.0887   22.9823 C   0  0  0  0  0  0  0  0  0  0  0  0
    7.8790    8.4114   24.3184 C   0  0  0  0  0  0  0  0  0  0  0  0
    9.0916   10.3118   23.5881 C   0  0  0  0  0  0  0  0  0  0  0  0
    8.0118    9.7899   24.3218 C   0  0  0  0  0  0  0  0  0  0  0  0
    9.2601   11.7030   23.5670 C   0  0  0  0  0  0  0  0  0  0  0  0
    7.3468   11.9149   24.9480 C   0  0  0  0  0  0  0  0  0  0  0  0
   10.9646   13.5009   23.1511 C   0  0  0  0  0  0  0  0  0  0  0  0
   11.8442   16.1170   22.4015 C   0  0  0  0  0  0  0  0  0  0  0  0
   12.9609   14.9835   20.4579 C   0  0  0  0  0  0  0  0  0  0  0  0
   10.4622   14.8884   20.6941 C   0  0  0  0  0  0  0  0  0  0  0  0
   11.7942   14.9291   21.4418 C   0  0  0  0  0  0  0  0  0  0  0  0
    8.6967    7.5461   23.6731 N   0  0  0  0  0  0  0  0  0  0  0  0
    7.1490   10.5776   24.9940 N   0  0  0  0  0  0  0  0  0  0  0  0
   10.3072   12.3103   22.8643 N   0  0  0  0  0  0  0  0  0  0  0  0
   10.7503   14.2600   24.0884 O   0  0  0  0  0  0  0  0  0  0  0  0
   11.9271   13.7227   22.2024 O   0  0  0  0  0  0  0  0  0  0  0  0
    6.2033   12.8402   25.8314 Cl  0  0  0  0  0  0  0  0  0  0  0  0
   10.8051    9.8072   22.3300 H   0  0  0  0  0  0  0  0  0  0  0  0
    8.4907   13.6020   24.2500 H   0  0  0  0  0  0  0  0  0  0  0  0
   10.3622    7.3796   22.4730 H   0  0  0  0  0  0  0  0  0  0  0  0
    7.0686    7.9334   24.8630 H   0  0  0  0  0  0  0  0  0  0  0  0
   11.0084   16.0815   23.1094 H   0  0  0  0  0  0  0  0  0  0  0  0
   12.7801   16.1377   22.9693 H   0  0  0  0  0  0  0  0  0  0  0  0
   11.7485   17.0636   21.8574 H   0  0  0  0  0  0  0  0  0  0  0  0
   12.9290   14.1330   19.7674 H   0  0  0  0  0  0  0  0  0  0  0  0
   13.9195   14.9172   20.9852 H   0  0  0  0  0  0  0  0  0  0  0  0
   12.9514   15.9074   19.8707 H   0  0  0  0  0  0  0  0  0  0  0  0
   10.4261   14.0364   20.0056 H   0  0  0  0  0  0  0  0  0  0  0  0
    9.6150   14.8120   21.3832 H   0  0  0  0  0  0  0  0  0  0  0  0
   10.3322   15.7873   20.0806 H   0  0  0  0  0  0  0  0  0  0  0  0
   10.6310   11.8130   22.0306 H   0  0  0  0  0  0  0  0  0  0  0  0
  1  3  1  0  0  0  0
  1  5  2  0  0  0  0
  2  7  2  0  0  0  0
  2  8  1  0  0  0  0
  3 14  2  0  0  0  0
  4  6  2  0  0  0  0
  4 14  1  0  0  0  0
  5  6  1  0  0  0  0
  5  7  1  0  0  0  0
  6 15  1  0  0  0  0
  7 16  1  0  0  0  0
  8 15  2  0  0  0  0
  8 19  1  0  0  0  0
  9 16  1  0  0  0  0
  9 17  2  0  0  0  0
  9 18  1  0  0  0  0
 10 13  1  0  0  0  0
 11 13  1  0  0  0  0
 12 13  1  0  0  0  0
 13 18  1  0  0  0  0
  1 20  1  0  0  0  0
  2 21  1  0  0  0  0
  3 22  1  0  0  0  0
  4 23  1  0  0  0  0
 10 24  1  0  0  0  0
 10 25  1  0  0  0  0
 10 26  1  0  0  0  0
 11 27  1  0  0  0  0
 11 28  1  0  0  0  0
 11 29  1  0  0  0  0
 12 30  1  0  0  0  0
 12 31  1  0  0  0  0
 12 32  1  0  0  0  0
 16 33  1  0  0  0  0
M  END
> <id>
EN300-28285833

> <smiles>
CC(C)(C)OC(=O)NC=1C=C(Cl)N=C2C=NC=CC12

> <IUPAC Name>
tert-butyl N-(2-chloro-1,7-naphthyridin-4-yl)carbamate

> <CAS>
2680764-74-1

> <URL>
https://www.enaminestore.com/catalog/EN300-28285833

> <ROCS_ShapeQuery>
A71EV2A-x0451_0A_A71EV2A-x0310_0A_A71EV2A-x0416_0A_peptide

> <ROCS_TanimotoCombo>
0.512 

> <ROCS_ShapeTanimoto>
0.362 

> <ROCS_ColorTanimoto>
0.150 

> <ROCS_RefTversky>
0.311 

> <ROCS_RefColorTversky>
0.166 

> <ROCS_RefTverskyCombo>
0.476 

> <ROCS_FitTversky>
1.829 

> <ROCS_FitColorTversky>
0.612 

> <ROCS_FitTverskyCombo>
2.442 

> <ROCS_ColorScore>
-5.046

> <ROCS_Overlap>
2155.864

> <ROCS_Rank>
360                 

$$$$
untitled-dbase-158561_6
  -OEChem-11132313473D

 34 35  0     0  0  0  0  0  0999 V2000
    9.2201   10.0599   23.3075 C   0  0  0  0  0  0  0  0  0  0  0  0
    9.3536   11.4609   23.4155 C   0  0  0  0  0  0  0  0  0  0  0  0
    8.3837   11.8263   24.3167 C   0  0  0  0  0  0  0  0  0  0  0  0
   10.8026   13.5140   23.2146 C   0  0  0  0  0  0  0  0  0  0  0  0
    6.6524   11.8239   26.5298 C   0  0  0  0  0  0  0  0  0  0  0  0
    6.6723   10.5844   25.6366 C   0  0  0  0  0  0  0  0  0  0  0  0
    6.8286   13.0990   25.7001 C   0  0  0  0  0  0  0  0  0  0  0  0
   11.0293   14.4729   20.8938 C   0  0  0  0  0  0  0  0  0  0  0  0
   12.9440   13.2257   21.8969 C   0  0  0  0  0  0  0  0  0  0  0  0
   12.3066   15.5012   22.7748 C   0  0  0  0  0  0  0  0  0  0  0  0
   11.7763   14.1752   22.2076 C   0  0  0  0  0  0  0  0  0  0  0  0
    8.2459    9.5682   24.0810 N   0  0  0  0  0  0  0  0  0  0  0  0
    7.7647   10.6656   24.6883 N   0  0  0  0  0  0  0  0  0  0  0  0
    8.0027   13.0086   24.8432 N   0  0  0  0  0  0  0  0  0  0  0  0
   10.2406   12.2891   22.7723 N   0  0  0  0  0  0  0  0  0  0  0  0
   10.5632   14.0393   24.3004 O   0  0  0  0  0  0  0  0  0  0  0  0
    9.7917    9.3751   22.6968 H   0  0  0  0  0  0  0  0  0  0  0  0
    5.7145   11.8644   27.0943 H   0  0  0  0  0  0  0  0  0  0  0  0
    7.4661   11.7601   27.2641 H   0  0  0  0  0  0  0  0  0  0  0  0
    6.7986    9.6761   26.2341 H   0  0  0  0  0  0  0  0  0  0  0  0
    5.7508   10.5060   25.0501 H   0  0  0  0  0  0  0  0  0  0  0  0
    5.9427   13.2638   25.0757 H   0  0  0  0  0  0  0  0  0  0  0  0
    6.9281   13.9646   26.3636 H   0  0  0  0  0  0  0  0  0  0  0  0
   11.6920   14.9425   20.1577 H   0  0  0  0  0  0  0  0  0  0  0  0
   10.1839   15.1501   21.0601 H   0  0  0  0  0  0  0  0  0  0  0  0
   10.6361   13.5542   20.4431 H   0  0  0  0  0  0  0  0  0  0  0  0
   13.6410   13.6822   21.1847 H   0  0  0  0  0  0  0  0  0  0  0  0
   12.6027   12.2821   21.4580 H   0  0  0  0  0  0  0  0  0  0  0  0
   13.5043   12.9772   22.8054 H   0  0  0  0  0  0  0  0  0  0  0  0
   12.9975   15.9799   22.0713 H   0  0  0  0  0  0  0  0  0  0  0  0
   12.8417   15.3422   23.7180 H   0  0  0  0  0  0  0  0  0  0  0  0
   11.5011   16.2155   22.9755 H   0  0  0  0  0  0  0  0  0  0  0  0
    8.4519   13.8793   24.5745 H   0  0  0  0  0  0  0  0  0  0  0  0
   10.5560   11.9955   21.8311 H   0  0  0  0  0  0  0  0  0  0  0  0
  1  2  1  0  0  0  0
  1 12  2  0  0  0  0
  2  3  2  0  0  0  0
  2 15  1  0  0  0  0
  3 13  1  0  0  0  0
  3 14  1  0  0  0  0
  4 11  1  0  0  0  0
  4 15  1  0  0  0  0
  4 16  2  0  0  0  0
  5  6  1  0  0  0  0
  5  7  1  0  0  0  0
  6 13  1  0  0  0  0
  7 14  1  0  0  0  0
  8 11  1  0  0  0  0
  9 11  1  0  0  0  0
 10 11  1  0  0  0  0
 12 13  1  0  0  0  0
  1 17  1  0  0  0  0
  5 18  1  0  0  0  0
  5 19  1  0  0  0  0
  6 20  1  0  0  0  0
  6 21  1  0  0  0  0
  7 22  1  0  0  0  0
  7 23  1  0  0  0  0
  8 24  1  0  0  0  0
  8 25  1  0  0  0  0
  8 26  1  0  0  0  0
  9 27  1  0  0  0  0
  9 28  1  0  0  0  0
  9 29  1  0  0  0  0
 10 30  1  0  0  0  0
 10 31  1  0  0  0  0
 10 32  1  0  0  0  0
 14 33  1  0  0  0  0
 15 34  1  0  0  0  0
M  END
> <id>
EN300-694102

> <smiles>
CC(C)(C)C(=O)NC=1C=NN2CCCNC12

> <IUPAC Name>
2,2-dimethyl-N-{4H,5H,6H,7H-pyrazolo[1,5-a]pyrimidin-3-yl}propanamide

> <CAS>
2137654-58-9

> <URL>
https://www.enaminestore.com/catalog/EN300-694102

> <ROCS_ShapeQuery>
A71EV2A-x0451_0A_A71EV2A-x0310_0A_A71EV2A-x0416_0A_peptide

> <ROCS_TanimotoCombo>
0.511 

> <ROCS_ShapeTanimoto>
0.320 

> <ROCS_ColorTanimoto>
0.192 

> <ROCS_RefTversky>
0.279 

> <ROCS_RefColorTversky>
0.205 

> <ROCS_RefTverskyCombo>
0.483 

> <ROCS_FitTversky>
1.854 

> <ROCS_FitColorTversky>
0.755 

> <ROCS_FitTverskyCombo>
2.610 

> <ROCS_ColorScore>
-6.238

> <ROCS_Overlap>
1930.519

> <ROCS_Rank>
361                 

$$$$
untitled-dbase-154214_22
  -OEChem-11132313473D

 30 31  0     0  0  0  0  0  0999 V2000
    8.0505   13.0759   24.7959 C   0  0  0  0  0  0  0  0  0  0  0  0
    6.4527   11.6816   25.9148 C   0  0  0  0  0  0  0  0  0  0  0  0
    8.5329   11.9062   24.1975 C   0  0  0  0  0  0  0  0  0  0  0  0
    6.9788   12.9465   25.6784 C   0  0  0  0  0  0  0  0  0  0  0  0
    9.5395   11.5364   23.2882 C   0  0  0  0  0  0  0  0  0  0  0  0
    7.9184   10.7057   24.5193 C   0  0  0  0  0  0  0  0  0  0  0  0
   10.9316   13.6244   23.1731 C   0  0  0  0  0  0  0  0  0  0  0  0
   11.3693   16.4407   22.9359 C   0  0  0  0  0  0  0  0  0  0  0  0
   12.4970   15.8953   20.7588 C   0  0  0  0  0  0  0  0  0  0  0  0
   10.0613   15.3687   21.0719 C   0  0  0  0  0  0  0  0  0  0  0  0
   11.4231   15.4695   21.7576 C   0  0  0  0  0  0  0  0  0  0  0  0
    6.8844   10.5235   25.3611 N   0  0  0  0  0  0  0  0  0  0  0  0
    9.5566   10.2202   23.0589 N   0  0  0  0  0  0  0  0  0  0  0  0
   10.4427   12.4331   22.6731 N   0  0  0  0  0  0  0  0  0  0  0  0
   10.6794   14.1440   24.2533 O   0  0  0  0  0  0  0  0  0  0  0  0
    8.5319    9.6978   23.8374 O   0  0  0  0  0  0  0  0  0  0  0  0
   11.7812   14.1775   22.2495 O   0  0  0  0  0  0  0  0  0  0  0  0
    6.2585   14.4642   26.5357 Br  0  0  0  0  0  0  0  0  0  0  0  0
    8.4979   14.0408   24.5796 H   0  0  0  0  0  0  0  0  0  0  0  0
    5.6165   11.5495   26.5979 H   0  0  0  0  0  0  0  0  0  0  0  0
   10.5996   16.1385   23.6551 H   0  0  0  0  0  0  0  0  0  0  0  0
   12.3303   16.4956   23.4576 H   0  0  0  0  0  0  0  0  0  0  0  0
   11.0997   17.4485   22.6000 H   0  0  0  0  0  0  0  0  0  0  0  0
   12.5392   15.2012   19.9116 H   0  0  0  0  0  0  0  0  0  0  0  0
   13.4901   15.8774   21.2221 H   0  0  0  0  0  0  0  0  0  0  0  0
   12.3127   16.9030   20.3725 H   0  0  0  0  0  0  0  0  0  0  0  0
   10.0996   14.6721   20.2266 H   0  0  0  0  0  0  0  0  0  0  0  0
    9.2850   15.0286   21.7650 H   0  0  0  0  0  0  0  0  0  0  0  0
    9.7598   16.3385   20.6599 H   0  0  0  0  0  0  0  0  0  0  0  0
   10.7734   12.1684   21.7484 H   0  0  0  0  0  0  0  0  0  0  0  0
  1  3  2  0  0  0  0
  1  4  1  0  0  0  0
  2  4  2  0  0  0  0
  2 12  1  0  0  0  0
  3  5  1  0  0  0  0
  3  6  1  0  0  0  0
  4 18  1  0  0  0  0
  5 13  2  0  0  0  0
  5 14  1  0  0  0  0
  6 12  2  0  0  0  0
  6 16  1  0  0  0  0
  7 14  1  0  0  0  0
  7 15  2  0  0  0  0
  7 17  1  0  0  0  0
  8 11  1  0  0  0  0
  9 11  1  0  0  0  0
 10 11  1  0  0  0  0
 11 17  1  0  0  0  0
 13 16  1  0  0  0  0
  1 19  1  0  0  0  0
  2 20  1  0  0  0  0
  8 21  1  0  0  0  0
  8 22  1  0  0  0  0
  8 23  1  0  0  0  0
  9 24  1  0  0  0  0
  9 25  1  0  0  0  0
  9 26  1  0  0  0  0
 10 27  1  0  0  0  0
 10 28  1  0  0  0  0
 10 29  1  0  0  0  0
 14 30  1  0  0  0  0
M  END
> <id>
EN300-28292745

> <smiles>
CC(C)(C)OC(=O)NC1=NOC=2N=CC(Br)=CC12

> <IUPAC Name>
tert-butyl N-{5-bromo-[1,2]oxazolo[5,4-b]pyridin-3-yl}carbamate

> <CAS>
2680692-49-1

> <URL>
https://www.enaminestore.com/catalog/EN300-28292745

> <ROCS_ShapeQuery>
A71EV2A-x0451_0A_A71EV2A-x0310_0A_A71EV2A-x0416_0A_peptide

> <ROCS_TanimotoCombo>
0.511 

> <ROCS_ShapeTanimoto>
0.338 

> <ROCS_ColorTanimoto>
0.173 

> <ROCS_RefTversky>
0.294 

> <ROCS_RefColorTversky>
0.192 

> <ROCS_RefTverskyCombo>
0.486 

> <ROCS_FitTversky>
1.798 

> <ROCS_FitColorTversky>
0.637 

> <ROCS_FitTverskyCombo>
2.436 

> <ROCS_ColorScore>
-5.869

> <ROCS_Overlap>
2039.171

> <ROCS_Rank>
362                 

$$$$
untitled-dbase-155812_9
  -OEChem-11132313473D

 34 35  0     0  0  0  0  0  0999 V2000
    9.1831    8.2941   23.3383 C   0  0  0  0  0  0  0  0  0  0  0  0
    8.0700    8.4897   24.1638 C   0  0  0  0  0  0  0  0  0  0  0  0
    7.9913    9.8529   24.3346 C   0  0  0  0  0  0  0  0  0  0  0  0
    8.4202   12.5905   24.2509 C   0  0  0  0  0  0  0  0  0  0  0  0
    9.2624   11.7946   23.5719 C   0  0  0  0  0  0  0  0  0  0  0  0
    7.3188   11.9116   24.9958 C   0  0  0  0  0  0  0  0  0  0  0  0
   10.9755   13.4626   23.1732 C   0  0  0  0  0  0  0  0  0  0  0  0
    6.3656   12.7937   25.7629 C   0  0  0  0  0  0  0  0  0  0  0  0
   11.9106   16.0771   22.5078 C   0  0  0  0  0  0  0  0  0  0  0  0
   13.0643   14.9700   20.5706 C   0  0  0  0  0  0  0  0  0  0  0  0
   10.5591   14.9052   20.7374 C   0  0  0  0  0  0  0  0  0  0  0  0
   11.8706   14.9109   21.5213 C   0  0  0  0  0  0  0  0  0  0  0  0
    9.7816    9.4336   22.9973 N   0  0  0  0  0  0  0  0  0  0  0  0
    7.1180   10.6275   25.0342 N   0  0  0  0  0  0  0  0  0  0  0  0
    9.0498   10.4067   23.6109 N   0  0  0  0  0  0  0  0  0  0  0  0
   10.3076   12.2979   22.8536 N   0  0  0  0  0  0  0  0  0  0  0  0
   10.7319   14.1963   24.1263 O   0  0  0  0  0  0  0  0  0  0  0  0
   11.9665   13.6869   22.2585 O   0  0  0  0  0  0  0  0  0  0  0  0
    6.8455    7.0574   24.9343 I   0  0  0  0  0  0  0  0  0  0  0  0
    9.5933    7.3671   22.9625 H   0  0  0  0  0  0  0  0  0  0  0  0
    8.5071   13.6690   24.2775 H   0  0  0  0  0  0  0  0  0  0  0  0
    5.5397   13.0699   25.1160 H   0  0  0  0  0  0  0  0  0  0  0  0
    6.8925   13.6832   26.0927 H   0  0  0  0  0  0  0  0  0  0  0  0
    5.9956   12.2497   26.6258 H   0  0  0  0  0  0  0  0  0  0  0  0
   11.0554   16.0382   23.1920 H   0  0  0  0  0  0  0  0  0  0  0  0
   12.8309   16.0723   23.1009 H   0  0  0  0  0  0  0  0  0  0  0  0
   11.8426   17.0364   21.9822 H   0  0  0  0  0  0  0  0  0  0  0  0
   13.0396   14.1351   19.8610 H   0  0  0  0  0  0  0  0  0  0  0  0
   14.0072   14.8789   21.1219 H   0  0  0  0  0  0  0  0  0  0  0  0
   13.0833   15.9064   20.0037 H   0  0  0  0  0  0  0  0  0  0  0  0
   10.5301   14.0687   20.0297 H   0  0  0  0  0  0  0  0  0  0  0  0
    9.6924   14.8259   21.4017 H   0  0  0  0  0  0  0  0  0  0  0  0
   10.4579   15.8188   20.1405 H   0  0  0  0  0  0  0  0  0  0  0  0
   10.6128   11.7838   22.0331 H   0  0  0  0  0  0  0  0  0  0  0  0
  1  2  1  0  0  0  0
  1 13  2  0  0  0  0
  2  3  2  0  0  0  0
  2 19  1  0  0  0  0
  3 14  1  0  0  0  0
  3 15  1  0  0  0  0
  4  5  2  0  0  0  0
  4  6  1  0  0  0  0
  5 15  1  0  0  0  0
  5 16  1  0  0  0  0
  6  8  1  0  0  0  0
  6 14  2  0  0  0  0
  7 16  1  0  0  0  0
  7 17  2  0  0  0  0
  7 18  1  0  0  0  0
  9 12  1  0  0  0  0
 10 12  1  0  0  0  0
 11 12  1  0  0  0  0
 12 18  1  0  0  0  0
 13 15  1  0  0  0  0
  1 20  1  0  0  0  0
  4 21  1  0  0  0  0
  8 22  1  0  0  0  0
  8 23  1  0  0  0  0
  8 24  1  0  0  0  0
  9 25  1  0  0  0  0
  9 26  1  0  0  0  0
  9 27  1  0  0  0  0
 10 28  1  0  0  0  0
 10 29  1  0  0  0  0
 10 30  1  0  0  0  0
 11 31  1  0  0  0  0
 11 32  1  0  0  0  0
 11 33  1  0  0  0  0
 16 34  1  0  0  0  0
M  END
> <id>
EN300-28301189

> <smiles>
CC=1C=C(NC(=O)OC(C)(C)C)N2N=CC(I)=C2N1

> <IUPAC Name>
tert-butyl N-{3-iodo-5-methylpyrazolo[1,5-a]pyrimidin-7-yl}carbamate

> <CAS>
2680728-23-6

> <URL>
https://www.enaminestore.com/catalog/EN300-28301189

> <ROCS_ShapeQuery>
A71EV2A-x0451_0A_A71EV2A-x0310_0A_A71EV2A-x0416_0A_peptide

> <ROCS_TanimotoCombo>
0.511 

> <ROCS_ShapeTanimoto>
0.363 

> <ROCS_ColorTanimoto>
0.149 

> <ROCS_RefTversky>
0.311 

> <ROCS_RefColorTversky>
0.169 

> <ROCS_RefTverskyCombo>
0.480 

> <ROCS_FitTversky>
1.836 

> <ROCS_FitColorTversky>
0.559 

> <ROCS_FitTverskyCombo>
2.395 

> <ROCS_ColorScore>
-5.147

> <ROCS_Overlap>
2159.160

> <ROCS_Rank>
363                 

$$$$
untitled-dbase-116478_127
  -OEChem-11132313473D

 38 39  0     0  0  0  0  0  0999 V2000
    6.6200   12.9401   25.6174 C   0  0  0  0  0  0  0  0  0  0  0  0
    8.4670   12.0114   24.3396 C   0  0  0  0  0  0  0  0  0  0  0  0
    7.7486   13.1134   24.8187 C   0  0  0  0  0  0  0  0  0  0  0  0
    6.2214   11.6524   25.9077 C   0  0  0  0  0  0  0  0  0  0  0  0
    7.9435   10.7493   24.6600 C   0  0  0  0  0  0  0  0  0  0  0  0
    5.0510   11.4090   26.7329 C   0  0  0  0  0  0  0  0  0  0  0  0
   10.4701   13.2641   23.4043 C   0  0  0  0  0  0  0  0  0  0  0  0
    8.5921    9.4996   24.1398 C   0  0  0  0  0  0  0  0  0  0  0  0
    9.1271    9.7692   22.7479 C   0  0  0  0  0  0  0  0  0  0  0  0
   10.1058   10.9310   22.7925 C   0  0  0  0  0  0  0  0  0  0  0  0
   12.1642   15.4781   22.7390 C   0  0  0  0  0  0  0  0  0  0  0  0
   12.0219   14.6341   20.3775 C   0  0  0  0  0  0  0  0  0  0  0  0
    9.9424   15.4008   21.5590 C   0  0  0  0  0  0  0  0  0  0  0  0
   11.3046   14.7281   21.7224 C   0  0  0  0  0  0  0  0  0  0  0  0
    6.8516   10.5558   25.4452 N   0  0  0  0  0  0  0  0  0  0  0  0
    9.6426   12.1232   23.5167 N   0  0  0  0  0  0  0  0  0  0  0  0
    4.3307   12.2811   27.2328 O   0  0  0  0  0  0  0  0  0  0  0  0
   10.5675   14.1165   24.2887 O   0  0  0  0  0  0  0  0  0  0  0  0
    4.8061   10.0814   26.9140 O   0  0  0  0  0  0  0  0  0  0  0  0
   11.0995   13.3918   22.1965 O   0  0  0  0  0  0  0  0  0  0  0  0
    7.8983   14.8961   24.1258 Br  0  0  0  0  0  0  0  0  0  0  0  0
    6.0335   13.7833   25.9707 H   0  0  0  0  0  0  0  0  0  0  0  0
    9.3999    9.2093   24.8167 H   0  0  0  0  0  0  0  0  0  0  0  0
    7.8678    8.6821   24.1029 H   0  0  0  0  0  0  0  0  0  0  0  0
    9.6265    8.8750   22.3584 H   0  0  0  0  0  0  0  0  0  0  0  0
    8.3052   10.0039   22.0592 H   0  0  0  0  0  0  0  0  0  0  0  0
   11.0517   10.6085   23.2550 H   0  0  0  0  0  0  0  0  0  0  0  0
   10.3481   11.2227   21.7605 H   0  0  0  0  0  0  0  0  0  0  0  0
   11.6528   15.5477   23.7058 H   0  0  0  0  0  0  0  0  0  0  0  0
   13.1303   14.9861   22.8914 H   0  0  0  0  0  0  0  0  0  0  0  0
   12.3480   16.5078   22.4117 H   0  0  0  0  0  0  0  0  0  0  0  0
   11.4088   14.0968   19.6450 H   0  0  0  0  0  0  0  0  0  0  0  0
   12.9561   14.0688   20.4721 H   0  0  0  0  0  0  0  0  0  0  0  0
   12.2554   15.6247   19.9741 H   0  0  0  0  0  0  0  0  0  0  0  0
    9.3256   14.8631   20.8299 H   0  0  0  0  0  0  0  0  0  0  0  0
    9.3975   15.4439   22.5076 H   0  0  0  0  0  0  0  0  0  0  0  0
   10.0553   16.4214   21.1756 H   0  0  0  0  0  0  0  0  0  0  0  0
    5.4565    9.5033   26.4611 H   0  0  0  0  0  0  0  0  0  0  0  0
  1  3  1  0  0  0  0
  1  4  2  0  0  0  0
  2  3  2  0  0  0  0
  2  5  1  0  0  0  0
  2 16  1  0  0  0  0
  3 21  1  0  0  0  0
  4  6  1  0  0  0  0
  4 15  1  0  0  0  0
  5  8  1  0  0  0  0
  5 15  2  0  0  0  0
  6 17  2  0  0  0  0
  6 19  1  0  0  0  0
  7 16  1  0  0  0  0
  7 18  2  0  0  0  0
  7 20  1  0  0  0  0
  8  9  1  0  0  0  0
  9 10  1  0  0  0  0
 10 16  1  0  0  0  0
 11 14  1  0  0  0  0
 12 14  1  0  0  0  0
 13 14  1  0  0  0  0
 14 20  1  0  0  0  0
  1 22  1  0  0  0  0
  8 23  1  0  0  0  0
  8 24  1  0  0  0  0
  9 25  1  0  0  0  0
  9 26  1  0  0  0  0
 10 27  1  0  0  0  0
 10 28  1  0  0  0  0
 11 29  1  0  0  0  0
 11 30  1  0  0  0  0
 11 31  1  0  0  0  0
 12 32  1  0  0  0  0
 12 33  1  0  0  0  0
 12 34  1  0  0  0  0
 13 35  1  0  0  0  0
 13 36  1  0  0  0  0
 13 37  1  0  0  0  0
 19 38  1  0  0  0  0
M  END
> <id>
EN300-1177870

> <smiles>
CC(C)(C)OC(=O)N1CCCC=2N=C(C=C(Br)C12)C(=O)O

> <IUPAC Name>
4-bromo-5-[(tert-butoxy)carbonyl]-5,6,7,8-tetrahydro-1,5-naphthyridine-2-carboxylic acid

> <CAS>
2138563-85-4

> <URL>
https://www.enaminestore.com/catalog/EN300-1177870

> <ROCS_ShapeQuery>
A71EV2A-x0451_0A_A71EV2A-x0310_0A_A71EV2A-x0416_0A_peptide

> <ROCS_TanimotoCombo>
0.511 

> <ROCS_ShapeTanimoto>
0.353 

> <ROCS_ColorTanimoto>
0.158 

> <ROCS_RefTversky>
0.308 

> <ROCS_RefColorTversky>
0.182 

> <ROCS_RefTverskyCombo>
0.490 

> <ROCS_FitTversky>
1.708 

> <ROCS_FitColorTversky>
0.547 

> <ROCS_FitTverskyCombo>
2.255 

> <ROCS_ColorScore>
-5.551

> <ROCS_Overlap>
2140.001

> <ROCS_Rank>
364                 

$$$$
untitled-dbase-145396_10
  -OEChem-11132313473D

 36 37  0     0  0  0  0  0  0999 V2000
    9.7785   10.5886   23.3927 C   0  0  0  0  0  0  0  0  0  0  0  0
    9.4962   11.8721   23.8328 C   0  0  0  0  0  0  0  0  0  0  0  0
    8.3086   12.0823   24.5356 C   0  0  0  0  0  0  0  0  0  0  0  0
    7.4648   10.9941   24.7936 C   0  0  0  0  0  0  0  0  0  0  0  0
    7.8410    9.7507   24.2983 C   0  0  0  0  0  0  0  0  0  0  0  0
   10.4480   12.9381   23.5553 C   0  0  0  0  0  0  0  0  0  0  0  0
    6.1660   11.1844   25.5249 C   0  0  0  0  0  0  0  0  0  0  0  0
    7.9705   13.4521   25.0685 C   0  0  0  0  0  0  0  0  0  0  0  0
    6.1158   12.5114   26.2862 C   0  0  0  0  0  0  0  0  0  0  0  0
   12.5011   14.6789   22.5554 C   0  0  0  0  0  0  0  0  0  0  0  0
   12.3125   13.3626   20.4245 C   0  0  0  0  0  0  0  0  0  0  0  0
   10.3415   14.6742   21.2629 C   0  0  0  0  0  0  0  0  0  0  0  0
   11.5702   13.8589   21.6634 C   0  0  0  0  0  0  0  0  0  0  0  0
    8.9785    9.5210   23.6051 N   0  0  0  0  0  0  0  0  0  0  0  0
    6.5545   13.6091   25.4238 N   0  0  0  0  0  0  0  0  0  0  0  0
   10.6175   13.9289   24.2769 O   0  0  0  0  0  0  0  0  0  0  0  0
    7.0302    8.6634   24.4975 O   0  0  0  0  0  0  0  0  0  0  0  0
   11.1348   12.7080   22.3952 O   0  0  0  0  0  0  0  0  0  0  0  0
   10.6875   10.3678   22.8408 H   0  0  0  0  0  0  0  0  0  0  0  0
    5.3503   11.1520   24.7918 H   0  0  0  0  0  0  0  0  0  0  0  0
    6.0092   10.3685   26.2402 H   0  0  0  0  0  0  0  0  0  0  0  0
    8.5956   13.6552   25.9469 H   0  0  0  0  0  0  0  0  0  0  0  0
    8.1959   14.2118   24.3116 H   0  0  0  0  0  0  0  0  0  0  0  0
    5.0886   12.6971   26.6193 H   0  0  0  0  0  0  0  0  0  0  0  0
    6.7407   12.4656   27.1874 H   0  0  0  0  0  0  0  0  0  0  0  0
   11.9720   15.0370   23.4459 H   0  0  0  0  0  0  0  0  0  0  0  0
   13.3688   14.0944   22.8781 H   0  0  0  0  0  0  0  0  0  0  0  0
   12.8607   15.5710   22.0300 H   0  0  0  0  0  0  0  0  0  0  0  0
   11.6483   12.7738   19.7815 H   0  0  0  0  0  0  0  0  0  0  0  0
   13.1390   12.6994   20.7042 H   0  0  0  0  0  0  0  0  0  0  0  0
   12.7177   14.1926   19.8367 H   0  0  0  0  0  0  0  0  0  0  0  0
    9.6735   14.0863   20.6230 H   0  0  0  0  0  0  0  0  0  0  0  0
    9.7757   15.0077   22.1389 H   0  0  0  0  0  0  0  0  0  0  0  0
   10.6318   15.5556   20.6797 H   0  0  0  0  0  0  0  0  0  0  0  0
    6.4305   14.4957   25.9116 H   0  0  0  0  0  0  0  0  0  0  0  0
    7.4298    7.8799   24.0952 H   0  0  0  0  0  0  0  0  0  0  0  0
  1  2  2  0  0  0  0
  1 14  1  0  0  0  0
  2  3  1  0  0  0  0
  2  6  1  0  0  0  0
  3  4  2  0  0  0  0
  3  8  1  0  0  0  0
  4  5  1  0  0  0  0
  4  7  1  0  0  0  0
  5 14  2  0  0  0  0
  5 17  1  0  0  0  0
  6 16  2  0  0  0  0
  6 18  1  0  0  0  0
  7  9  1  0  0  0  0
  8 15  1  0  0  0  0
  9 15  1  0  0  0  0
 10 13  1  0  0  0  0
 11 13  1  0  0  0  0
 12 13  1  0  0  0  0
 13 18  1  0  0  0  0
  1 19  1  0  0  0  0
  7 20  1  0  0  0  0
  7 21  1  0  0  0  0
  8 22  1  0  0  0  0
  8 23  1  0  0  0  0
  9 24  1  0  0  0  0
  9 25  1  0  0  0  0
 10 26  1  0  0  0  0
 10 27  1  0  0  0  0
 10 28  1  0  0  0  0
 11 29  1  0  0  0  0
 11 30  1  0  0  0  0
 11 31  1  0  0  0  0
 12 32  1  0  0  0  0
 12 33  1  0  0  0  0
 12 34  1  0  0  0  0
 15 35  1  0  0  0  0
 17 36  1  0  0  0  0
M  END
> <id>
EN300-27782677

> <smiles>
CC(C)(C)OC(=O)C=1C=NC(O)=C2CCNCC12

> <IUPAC Name>
tert-butyl 1-hydroxy-5,6,7,8-tetrahydro-2,6-naphthyridine-4-carboxylate

> <CAS>
2639447-55-3

> <URL>
https://www.enaminestore.com/catalog/EN300-27782677

> <ROCS_ShapeQuery>
A71EV2A-x0451_0A_A71EV2A-x0310_0A_A71EV2A-x0416_0A_peptide

> <ROCS_TanimotoCombo>
0.511 

> <ROCS_ShapeTanimoto>
0.339 

> <ROCS_ColorTanimoto>
0.173 

> <ROCS_RefTversky>
0.294 

> <ROCS_RefColorTversky>
0.196 

> <ROCS_RefTverskyCombo>
0.490 

> <ROCS_FitTversky>
1.805 

> <ROCS_FitColorTversky>
0.591 

> <ROCS_FitTverskyCombo>
2.396 

> <ROCS_ColorScore>
-5.996

> <ROCS_Overlap>
2040.190

> <ROCS_Rank>
365                 

$$$$
untitled-dbase-116375_828
  -OEChem-11132313473D

 43 44  0     1  0  0  0  0  0999 V2000
    9.1633    9.5496   24.0973 C   0  0  0  0  0  0  0  0  0  0  0  0
    5.0148   12.4568   26.6320 C   0  0  0  0  0  0  0  0  0  0  0  0
   10.5854   13.0315   23.6278 C   0  0  0  0  0  0  0  0  0  0  0  0
   10.0255   10.6445   23.5151 C   0  0  0  0  0  0  0  0  0  0  0  0
    7.4170   11.7817   26.6497 C   0  0  0  0  0  0  0  0  0  0  0  0
    8.1914   12.7362   25.7447 C   0  0  0  0  0  0  0  0  0  0  0  0
    5.9330   11.3918   24.5871 C   0  0  0  0  0  0  0  0  0  0  0  0
    6.0153   11.4593   26.1192 C   0  0  2  0  0  0  0  0  0  0  0  0
    8.2539   12.3038   24.2609 C   0  0  2  0  0  0  0  0  0  0  0  0
    7.2884   11.1631   23.9148 C   0  0  1  0  0  0  0  0  0  0  0  0
   13.3029   13.9257   23.5658 C   0  0  0  0  0  0  0  0  0  0  0  0
   13.2844   13.2266   21.1534 C   0  0  0  0  0  0  0  0  0  0  0  0
   11.7391   15.0431   21.9409 C   0  0  0  0  0  0  0  0  0  0  0  0
   12.4405   13.7391   22.3184 C   0  0  0  0  0  0  0  0  0  0  0  0
    7.8408    9.8712   24.2763 N   0  0  0  0  0  0  0  0  0  0  0  0
    9.6390   12.0134   23.8395 N   0  0  0  0  0  0  0  0  0  0  0  0
    9.6036    8.4132   24.2700 O   0  0  0  0  0  0  0  0  0  0  0  0
    4.0647   12.1906   27.3531 O   0  0  0  0  0  0  0  0  0  0  0  0
   10.6460   14.0662   24.2900 O   0  0  0  0  0  0  0  0  0  0  0  0
    5.3066   13.7019   26.1827 O   0  0  0  0  0  0  0  0  0  0  0  0
   11.4438   12.7495   22.5973 O   0  0  0  0  0  0  0  0  0  0  0  0
   11.0436   10.5038   23.8836 H   0  0  0  0  0  0  0  0  0  0  0  0
   10.0280   10.5286   22.4304 H   0  0  0  0  0  0  0  0  0  0  0  0
    7.9913   10.8486   26.7751 H   0  0  0  0  0  0  0  0  0  0  0  0
    7.3430   12.2184   27.6609 H   0  0  0  0  0  0  0  0  0  0  0  0
    7.7365   13.7453   25.8150 H   0  0  0  0  0  0  0  0  0  0  0  0
    9.2177   12.8529   26.1501 H   0  0  0  0  0  0  0  0  0  0  0  0
    5.2185   10.6096   24.2850 H   0  0  0  0  0  0  0  0  0  0  0  0
    5.5047   12.3330   24.2046 H   0  0  0  0  0  0  0  0  0  0  0  0
    5.6953   10.4703   26.5356 H   0  0  0  0  0  0  0  0  0  0  0  0
    7.9202   13.1975   23.6713 H   0  0  0  0  0  0  0  0  0  0  0  0
    7.1384   11.1354   22.8307 H   0  0  0  0  0  0  0  0  0  0  0  0
   12.7008   14.2935   24.4044 H   0  0  0  0  0  0  0  0  0  0  0  0
   13.7838   12.9895   23.8674 H   0  0  0  0  0  0  0  0  0  0  0  0
   14.0832   14.6757   23.3932 H   0  0  0  0  0  0  0  0  0  0  0  0
   12.6697   13.0913   20.2561 H   0  0  0  0  0  0  0  0  0  0  0  0
   13.7135   12.2448   21.3845 H   0  0  0  0  0  0  0  0  0  0  0  0
   14.1017   13.9143   20.9132 H   0  0  0  0  0  0  0  0  0  0  0  0
   11.1204   14.9096   21.0461 H   0  0  0  0  0  0  0  0  0  0  0  0
   11.0998   15.4066   22.7519 H   0  0  0  0  0  0  0  0  0  0  0  0
   12.4702   15.8226   21.6978 H   0  0  0  0  0  0  0  0  0  0  0  0
    7.2276    9.1796   24.6763 H   0  0  0  0  0  0  0  0  0  0  0  0
    4.6629   14.3681   26.5054 H   0  0  0  0  0  0  0  0  0  0  0  0
  1  4  1  0  0  0  0
  1 15  1  0  0  0  0
  1 17  2  0  0  0  0
  2  8  1  0  0  0  0
  2 18  2  0  0  0  0
  2 20  1  0  0  0  0
  3 16  1  0  0  0  0
  3 19  2  0  0  0  0
  3 21  1  0  0  0  0
  4 16  1  0  0  0  0
  5  6  1  0  0  0  0
  5  8  1  0  0  0  0
  6  9  1  0  0  0  0
  7  8  1  0  0  0  0
  7 10  1  0  0  0  0
  9 10  1  0  0  0  0
  9 16  1  0  0  0  0
 10 15  1  0  0  0  0
 11 14  1  0  0  0  0
 12 14  1  0  0  0  0
 13 14  1  0  0  0  0
 14 21  1  0  0  0  0
  4 22  1  0  0  0  0
  4 23  1  0  0  0  0
  5 24  1  0  0  0  0
  5 25  1  0  0  0  0
  6 26  1  0  0  0  0
  6 27  1  0  0  0  0
  7 28  1  0  0  0  0
  7 29  1  0  0  0  0
  8 30  1  0  0  0  0
  9 31  1  0  0  0  0
 10 32  1  0  0  0  0
 11 33  1  0  0  0  0
 11 34  1  0  0  0  0
 11 35  1  0  0  0  0
 12 36  1  0  0  0  0
 12 37  1  0  0  0  0
 12 38  1  0  0  0  0
 13 39  1  0  0  0  0
 13 40  1  0  0  0  0
 13 41  1  0  0  0  0
 15 42  1  0  0  0  0
 20 43  1  0  0  0  0
M  END
> <id>
EN300-224947

> <smiles>
CC(C)(C)OC(=O)N1CC(=O)NC2CC(CCC21)C(=O)O

> <MDLNUMBER>
MFCD29034000

> <IUPAC Name>
1-[(tert-butoxy)carbonyl]-3-oxo-decahydroquinoxaline-6-carboxylic acid

> <CAS>
1820619-53-1

> <Purity>
95

> <URL>
https://www.enaminestore.com/catalog/EN300-224947

> <ROCS_ShapeQuery>
A71EV2A-x0451_0A_A71EV2A-x0310_0A_A71EV2A-x0416_0A_peptide

> <ROCS_TanimotoCombo>
0.511 

> <ROCS_ShapeTanimoto>
0.340 

> <ROCS_ColorTanimoto>
0.172 

> <ROCS_RefTversky>
0.299 

> <ROCS_RefColorTversky>
0.195 

> <ROCS_RefTverskyCombo>
0.494 

> <ROCS_FitTversky>
1.667 

> <ROCS_FitColorTversky>
0.587 

> <ROCS_FitTverskyCombo>
2.255 

> <ROCS_ColorScore>
-5.968

> <ROCS_Overlap>
2075.063

> <ROCS_Rank>
366                 

$$$$
untitled-dbase-104337_52
  -OEChem-11132313473D

 41 42  0     1  0  0  0  0  0999 V2000
    7.9906   13.1795   25.5217 C   0  0  0  0  0  0  0  0  0  0  0  0
    6.8214   13.2277   26.2883 C   0  0  0  0  0  0  0  0  0  0  0  0
    6.1852   11.0775   25.4448 C   0  0  0  0  0  0  0  0  0  0  0  0
    7.3730   11.0003   24.6896 C   0  0  0  0  0  0  0  0  0  0  0  0
    8.2829   12.0871   24.6847 C   0  0  0  0  0  0  0  0  0  0  0  0
    5.9118   12.1837   26.2402 C   0  0  0  0  0  0  0  0  0  0  0  0
   10.2702   13.1852   23.5815 C   0  0  0  0  0  0  0  0  0  0  0  0
    9.1204    9.5601   23.7004 C   0  0  0  0  0  0  0  0  0  0  0  0
    9.7595   10.8027   23.1188 C   0  0  0  0  0  0  0  0  0  0  0  0
    7.6269    9.7684   23.8520 C   0  0  1  0  0  0  0  0  0  0  0  0
   12.7710   14.3605   22.7984 C   0  0  0  0  0  0  0  0  0  0  0  0
   11.9312   14.1310   20.4422 C   0  0  0  0  0  0  0  0  0  0  0  0
   10.7028   15.5964   22.0706 C   0  0  0  0  0  0  0  0  0  0  0  0
    4.5596   13.3971   27.7757 C   0  0  0  0  0  0  0  0  0  0  0  0
   11.5328   14.3244   21.9038 C   0  0  0  0  0  0  0  0  0  0  0  0
    9.4640   12.0495   23.8447 N   0  0  0  0  0  0  0  0  0  0  0  0
   10.5429   14.0908   24.3639 O   0  0  0  0  0  0  0  0  0  0  0  0
    7.0801    8.6015   24.4611 O   0  0  0  0  0  0  0  0  0  0  0  0
    4.7676   12.2352   26.9728 O   0  0  0  0  0  0  0  0  0  0  0  0
   10.7281   13.2015   22.2840 O   0  0  0  0  0  0  0  0  0  0  0  0
    8.6639   14.0204   25.6415 H   0  0  0  0  0  0  0  0  0  0  0  0
    6.6378   14.0860   26.9288 H   0  0  0  0  0  0  0  0  0  0  0  0
    5.4686   10.2582   25.4098 H   0  0  0  0  0  0  0  0  0  0  0  0
    9.3219    8.7031   23.0442 H   0  0  0  0  0  0  0  0  0  0  0  0
    9.5752    9.3415   24.6743 H   0  0  0  0  0  0  0  0  0  0  0  0
   10.8618   10.7085   23.0769 H   0  0  0  0  0  0  0  0  0  0  0  0
    9.4278   10.8888   22.0682 H   0  0  0  0  0  0  0  0  0  0  0  0
    7.1910    9.8784   22.8556 H   0  0  0  0  0  0  0  0  0  0  0  0
   12.4892   14.4992   23.8483 H   0  0  0  0  0  0  0  0  0  0  0  0
   13.3564   13.4391   22.7142 H   0  0  0  0  0  0  0  0  0  0  0  0
   13.4174   15.2063   22.5375 H   0  0  0  0  0  0  0  0  0  0  0  0
   11.0459   14.1045   19.7967 H   0  0  0  0  0  0  0  0  0  0  0  0
   12.4448   13.1731   20.3012 H   0  0  0  0  0  0  0  0  0  0  0  0
   12.5905   14.9326   20.0938 H   0  0  0  0  0  0  0  0  0  0  0  0
    9.8146   15.5708   21.4290 H   0  0  0  0  0  0  0  0  0  0  0  0
   10.3767   15.7322   23.1069 H   0  0  0  0  0  0  0  0  0  0  0  0
   11.2775   16.4792   21.7679 H   0  0  0  0  0  0  0  0  0  0  0  0
    3.6093   13.3081   28.3077 H   0  0  0  0  0  0  0  0  0  0  0  0
    4.5508   14.2848   27.1383 H   0  0  0  0  0  0  0  0  0  0  0  0
    5.3736   13.4791   28.4999 H   0  0  0  0  0  0  0  0  0  0  0  0
    7.2823    7.8605   23.8692 H   0  0  0  0  0  0  0  0  0  0  0  0
  1  2  1  0  0  0  0
  1  5  2  0  0  0  0
  2  6  2  0  0  0  0
  3  4  2  0  0  0  0
  3  6  1  0  0  0  0
  4  5  1  0  0  0  0
  4 10  1  0  0  0  0
  5 16  1  0  0  0  0
  6 19  1  0  0  0  0
  7 16  1  0  0  0  0
  7 17  2  0  0  0  0
  7 20  1  0  0  0  0
  8  9  1  0  0  0  0
  8 10  1  0  0  0  0
  9 16  1  0  0  0  0
 10 18  1  0  0  0  0
 11 15  1  0  0  0  0
 12 15  1  0  0  0  0
 13 15  1  0  0  0  0
 14 19  1  0  0  0  0
 15 20  1  0  0  0  0
  1 21  1  0  0  0  0
  2 22  1  0  0  0  0
  3 23  1  0  0  0  0
  8 24  1  0  0  0  0
  8 25  1  0  0  0  0
  9 26  1  0  0  0  0
  9 27  1  0  0  0  0
 10 28  1  0  0  0  0
 11 29  1  0  0  0  0
 11 30  1  0  0  0  0
 11 31  1  0  0  0  0
 12 32  1  0  0  0  0
 12 33  1  0  0  0  0
 12 34  1  0  0  0  0
 13 35  1  0  0  0  0
 13 36  1  0  0  0  0
 13 37  1  0  0  0  0
 14 38  1  0  0  0  0
 14 39  1  0  0  0  0
 14 40  1  0  0  0  0
 18 41  1  0  0  0  0
M  END
> <id>
EN300-26665785

> <smiles>
COC=1C=CC=2N(CCC(O)C2C1)C(=O)OC(C)(C)C

> <IUPAC Name>
tert-butyl 4-hydroxy-6-methoxy-1,2,3,4-tetrahydroquinoline-1-carboxylate

> <CAS>
2413886-01-6

> <URL>
https://www.enaminestore.com/catalog/EN300-26665785

> <ROCS_ShapeQuery>
A71EV2A-x0451_0A_A71EV2A-x0310_0A_A71EV2A-x0416_0A_peptide

> <ROCS_TanimotoCombo>
0.511 

> <ROCS_ShapeTanimoto>
0.351 

> <ROCS_ColorTanimoto>
0.160 

> <ROCS_RefTversky>
0.305 

> <ROCS_RefColorTversky>
0.175 

> <ROCS_RefTverskyCombo>
0.480 

> <ROCS_FitTversky>
1.750 

> <ROCS_FitColorTversky>
0.647 

> <ROCS_FitTverskyCombo>
2.397 

> <ROCS_ColorScore>
-5.333

> <ROCS_Overlap>
2118.736

> <ROCS_Rank>
367                 

$$$$
untitled-dbase-171330_3
  -OEChem-11132313473D

 33 34  0     0  0  0  0  0  0999 V2000
    6.5895   10.9483   25.6583 C   0  0  0  0  0  0  0  0  0  0  0  0
    8.0886   12.6623   24.7921 C   0  0  0  0  0  0  0  0  0  0  0  0
    8.2744   10.4070   23.9594 C   0  0  0  0  0  0  0  0  0  0  0  0
    7.2308   10.0475   24.8075 C   0  0  0  0  0  0  0  0  0  0  0  0
    8.7177   11.7403   23.9460 C   0  0  0  0  0  0  0  0  0  0  0  0
    7.0436   12.2711   25.6323 C   0  0  0  0  0  0  0  0  0  0  0  0
    7.9602    8.3204   23.6330 C   0  0  0  0  0  0  0  0  0  0  0  0
   10.6900   13.1632   23.3165 C   0  0  0  0  0  0  0  0  0  0  0  0
   13.4268   13.9645   23.5343 C   0  0  0  0  0  0  0  0  0  0  0  0
   13.3905   14.1133   21.0271 C   0  0  0  0  0  0  0  0  0  0  0  0
   11.8893   15.5958   22.3898 C   0  0  0  0  0  0  0  0  0  0  0  0
   12.5596   14.2253   22.3035 C   0  0  0  0  0  0  0  0  0  0  0  0
    8.7145    9.3213   23.2377 N   0  0  0  0  0  0  0  0  0  0  0  0
    7.0510    8.7076   24.5777 N   0  0  0  0  0  0  0  0  0  0  0  0
    9.7598   12.1462   23.1131 N   0  0  0  0  0  0  0  0  0  0  0  0
   10.7701   13.9091   24.2849 O   0  0  0  0  0  0  0  0  0  0  0  0
    8.0413    7.0770   23.1914 O   0  0  0  0  0  0  0  0  0  0  0  0
   11.5394   13.2217   22.2438 O   0  0  0  0  0  0  0  0  0  0  0  0
    6.2975   13.4386   26.6583 Cl  0  0  0  0  0  0  0  0  0  0  0  0
    5.7786   10.6299   26.3049 H   0  0  0  0  0  0  0  0  0  0  0  0
    8.4229   13.6985   24.7920 H   0  0  0  0  0  0  0  0  0  0  0  0
   12.8340   14.0440   24.4526 H   0  0  0  0  0  0  0  0  0  0  0  0
   13.8854   12.9709   23.5014 H   0  0  0  0  0  0  0  0  0  0  0  0
   14.2247   14.7114   23.6158 H   0  0  0  0  0  0  0  0  0  0  0  0
   12.7722   14.2997   20.1415 H   0  0  0  0  0  0  0  0  0  0  0  0
   13.7961   13.1015   20.9130 H   0  0  0  0  0  0  0  0  0  0  0  0
   14.2238   14.8233   21.0239 H   0  0  0  0  0  0  0  0  0  0  0  0
   11.2672   15.7831   21.5071 H   0  0  0  0  0  0  0  0  0  0  0  0
   11.2592   15.6812   23.2811 H   0  0  0  0  0  0  0  0  0  0  0  0
   12.6387   16.3951   22.4152 H   0  0  0  0  0  0  0  0  0  0  0  0
    6.3686    8.1119   25.0272 H   0  0  0  0  0  0  0  0  0  0  0  0
    9.8540   11.6269   22.2337 H   0  0  0  0  0  0  0  0  0  0  0  0
    8.7460    6.9648   22.5127 H   0  0  0  0  0  0  0  0  0  0  0  0
  1  4  1  0  0  0  0
  1  6  2  0  0  0  0
  2  5  2  0  0  0  0
  2  6  1  0  0  0  0
  3  4  2  0  0  0  0
  3  5  1  0  0  0  0
  3 13  1  0  0  0  0
  4 14  1  0  0  0  0
  5 15  1  0  0  0  0
  6 19  1  0  0  0  0
  7 13  2  0  0  0  0
  7 14  1  0  0  0  0
  7 17  1  0  0  0  0
  8 15  1  0  0  0  0
  8 16  2  0  0  0  0
  8 18  1  0  0  0  0
  9 12  1  0  0  0  0
 10 12  1  0  0  0  0
 11 12  1  0  0  0  0
 12 18  1  0  0  0  0
  1 20  1  0  0  0  0
  2 21  1  0  0  0  0
  9 22  1  0  0  0  0
  9 23  1  0  0  0  0
  9 24  1  0  0  0  0
 10 25  1  0  0  0  0
 10 26  1  0  0  0  0
 10 27  1  0  0  0  0
 11 28  1  0  0  0  0
 11 29  1  0  0  0  0
 11 30  1  0  0  0  0
 14 31  1  0  0  0  0
 15 32  1  0  0  0  0
 17 33  1  0  0  0  0
M  END
> <id>
EN300-37397129

> <smiles>
CC(C)(C)OC(=O)NC=1C=C(Cl)C=C2NC(O)=NC12

> <IUPAC Name>
tert-butyl N-(6-chloro-2-hydroxy-1H-1,3-benzodiazol-4-yl)carbamate

> <CAS>
2770545-12-3

> <URL>
https://www.enaminestore.com/catalog/EN300-37397129

> <ROCS_ShapeQuery>
A71EV2A-x0451_0A_A71EV2A-x0310_0A_A71EV2A-x0416_0A_peptide

> <ROCS_TanimotoCombo>
0.511 

> <ROCS_ShapeTanimoto>
0.333 

> <ROCS_ColorTanimoto>
0.177 

> <ROCS_RefTversky>
0.293 

> <ROCS_RefColorTversky>
0.205 

> <ROCS_RefTverskyCombo>
0.498 

> <ROCS_FitTversky>
1.719 

> <ROCS_FitColorTversky>
0.566 

> <ROCS_FitTverskyCombo>
2.285 

> <ROCS_ColorScore>
-6.292

> <ROCS_Overlap>
2030.487

> <ROCS_Rank>
368                 

$$$$
untitled-dbase-6340_106
  -OEChem-11132313473D

 42 44  0     1  0  0  0  0  0999 V2000
    9.6770   10.7316   23.1275 C   0  0  0  0  0  0  0  0  0  0  0  0
    8.6888    9.8578   23.6456 C   0  0  0  0  0  0  0  0  0  0  0  0
    9.4598   11.9743   23.6805 C   0  0  0  0  0  0  0  0  0  0  0  0
    7.8931   10.5856   24.5121 C   0  0  0  0  0  0  0  0  0  0  0  0
   10.1855   13.1715   23.4509 C   0  0  0  0  0  0  0  0  0  0  0  0
    4.6791   11.4071   26.2135 C   0  0  0  0  0  0  0  0  0  0  0  0
    7.7836   12.9582   25.2615 C   0  0  0  0  0  0  0  0  0  0  0  0
    6.9260   12.4396   26.4061 C   0  0  0  0  0  0  0  0  0  0  0  0
    6.7085   10.1715   25.3367 C   0  0  1  0  0  0  0  0  0  0  0  0
    7.1077    9.1621   26.4150 C   0  0  0  0  0  0  0  0  0  0  0  0
    3.5037   13.0039   24.4943 C   0  0  0  0  0  0  0  0  0  0  0  0
    2.8320   10.9897   23.1522 C   0  0  0  0  0  0  0  0  0  0  0  0
    1.6492   11.5085   25.3063 C   0  0  0  0  0  0  0  0  0  0  0  0
    2.9795   11.5700   24.5571 C   0  0  0  0  0  0  0  0  0  0  0  0
   10.3649   14.1572   24.2998 N   0  0  0  0  0  0  0  0  0  0  0  0
   11.1296   15.0873   23.6325 N   0  0  0  0  0  0  0  0  0  0  0  0
   11.4122   14.6780   22.4018 N   0  0  0  0  0  0  0  0  0  0  0  0
   10.8209   13.4804   22.2906 N   0  0  0  0  0  0  0  0  0  0  0  0
    8.3789   11.8711   24.5106 N   0  0  0  0  0  0  0  0  0  0  0  0
    6.0546   11.3507   25.9513 N   0  0  0  0  0  0  0  0  0  0  0  0
    4.1803   11.9632   27.1901 O   0  0  0  0  0  0  0  0  0  0  0  0
    3.9350   10.7657   25.2579 O   0  0  0  0  0  0  0  0  0  0  0  0
   10.4567   10.4754   22.4227 H   0  0  0  0  0  0  0  0  0  0  0  0
    8.5701    8.8078   23.4157 H   0  0  0  0  0  0  0  0  0  0  0  0
    7.1807   13.5395   24.5546 H   0  0  0  0  0  0  0  0  0  0  0  0
    8.5837   13.5924   25.6566 H   0  0  0  0  0  0  0  0  0  0  0  0
    7.5567   12.0345   27.2065 H   0  0  0  0  0  0  0  0  0  0  0  0
    6.3421   13.2589   26.8370 H   0  0  0  0  0  0  0  0  0  0  0  0
    5.9876    9.6881   24.6665 H   0  0  0  0  0  0  0  0  0  0  0  0
    7.8243    9.6170   27.0955 H   0  0  0  0  0  0  0  0  0  0  0  0
    7.5594    8.2885   25.9500 H   0  0  0  0  0  0  0  0  0  0  0  0
    6.2264    8.8556   26.9743 H   0  0  0  0  0  0  0  0  0  0  0  0
    3.6110   13.4240   25.5008 H   0  0  0  0  0  0  0  0  0  0  0  0
    4.4742   13.0569   23.9901 H   0  0  0  0  0  0  0  0  0  0  0  0
    2.8008   13.6542   23.9613 H   0  0  0  0  0  0  0  0  0  0  0  0
    2.4561    9.9610   23.1925 H   0  0  0  0  0  0  0  0  0  0  0  0
    3.8024   10.9441   22.6449 H   0  0  0  0  0  0  0  0  0  0  0  0
    2.1478   11.5851   22.5390 H   0  0  0  0  0  0  0  0  0  0  0  0
    1.2729   10.4801   25.3515 H   0  0  0  0  0  0  0  0  0  0  0  0
    1.7445   11.8869   26.3292 H   0  0  0  0  0  0  0  0  0  0  0  0
    0.8826   12.0957   24.7879 H   0  0  0  0  0  0  0  0  0  0  0  0
   10.9005   12.9578   21.4257 H   0  0  0  0  0  0  0  0  0  0  0  0
  1  2  1  0  0  0  0
  1  3  2  0  0  0  0
  2  4  2  0  0  0  0
  3  5  1  0  0  0  0
  3 19  1  0  0  0  0
  4  9  1  0  0  0  0
  4 19  1  0  0  0  0
  5 15  2  0  0  0  0
  5 18  1  0  0  0  0
  6 20  1  0  0  0  0
  6 21  2  0  0  0  0
  6 22  1  0  0  0  0
  7  8  1  0  0  0  0
  7 19  1  0  0  0  0
  8 20  1  0  0  0  0
  9 10  1  0  0  0  0
  9 20  1  0  0  0  0
 11 14  1  0  0  0  0
 12 14  1  0  0  0  0
 13 14  1  0  0  0  0
 14 22  1  0  0  0  0
 15 16  1  0  0  0  0
 16 17  2  0  0  0  0
 17 18  1  0  0  0  0
  1 23  1  0  0  0  0
  2 24  1  0  0  0  0
  7 25  1  0  0  0  0
  7 26  1  0  0  0  0
  8 27  1  0  0  0  0
  8 28  1  0  0  0  0
  9 29  1  0  0  0  0
 10 30  1  0  0  0  0
 10 31  1  0  0  0  0
 10 32  1  0  0  0  0
 11 33  1  0  0  0  0
 11 34  1  0  0  0  0
 11 35  1  0  0  0  0
 12 36  1  0  0  0  0
 12 37  1  0  0  0  0
 12 38  1  0  0  0  0
 13 39  1  0  0  0  0
 13 40  1  0  0  0  0
 13 41  1  0  0  0  0
 18 42  1  0  0  0  0
M  END
> <id>
EN300-32031

> <smiles>
CC1N(CCN2C(=CC=C12)C3=NN=NN3)C(=O)OC(C)(C)C

> <MDLNUMBER>
MFCD09971606

> <IUPAC Name>
tert-butyl 1-methyl-6-(1H-1,2,3,4-tetrazol-5-yl)-1H,2H,3H,4H-pyrrolo[1,2-a]pyrazine-2-carboxylate

> <CAS>
1050909-97-1

> <Purity>
95

> <URL>
https://www.enaminestore.com/catalog/EN300-32031

> <ROCS_ShapeQuery>
A71EV2A-x0451_0A_A71EV2A-x0310_0A_A71EV2A-x0416_0A_peptide

> <ROCS_TanimotoCombo>
0.511 

> <ROCS_ShapeTanimoto>
0.302 

> <ROCS_ColorTanimoto>
0.209 

> <ROCS_RefTversky>
0.276 

> <ROCS_RefColorTversky>
0.239 

> <ROCS_RefTverskyCombo>
0.515 

> <ROCS_FitTversky>
1.442 

> <ROCS_FitColorTversky>
0.625 

> <ROCS_FitTverskyCombo>
2.066 

> <ROCS_ColorScore>
-7.327

> <ROCS_Overlap>
1919.633

> <ROCS_Rank>
369                 

$$$$
untitled-dbase-155595_26
  -OEChem-11132313473D

 27 28  0     0  0  0  0  0  0999 V2000
    6.8737   12.9144   26.2025 C   0  0  0  0  0  0  0  0  0  0  0  0
    7.9292   13.0694   25.2957 C   0  0  0  0  0  0  0  0  0  0  0  0
    6.7213   10.5870   25.6367 C   0  0  0  0  0  0  0  0  0  0  0  0
    6.2697   11.6751   26.3733 C   0  0  0  0  0  0  0  0  0  0  0  0
    8.4130   11.9839   24.5481 C   0  0  0  0  0  0  0  0  0  0  0  0
    7.7869   10.7360   24.7397 C   0  0  0  0  0  0  0  0  0  0  0  0
    5.1682   11.5199   27.3093 C   0  0  0  0  0  0  0  0  0  0  0  0
   10.2518   13.2639   23.4213 C   0  0  0  0  0  0  0  0  0  0  0  0
    9.6507   10.9303   22.7159 C   0  0  0  0  0  0  0  0  0  0  0  0
    9.4257    9.6579   23.4926 C   0  0  0  0  0  0  0  0  0  0  0  0
   10.7684   13.5318   22.0249 C   0  0  0  0  0  0  0  0  0  0  0  0
    9.4669   12.1086   23.5730 N   0  0  0  0  0  0  0  0  0  0  0  0
    4.0897   12.1204   27.2527 O   0  0  0  0  0  0  0  0  0  0  0  0
   10.5642   14.0530   24.3148 O   0  0  0  0  0  0  0  0  0  0  0  0
    8.1377    9.5877   24.0750 O   0  0  0  0  0  0  0  0  0  0  0  0
    5.4421   10.6174   28.2912 O   0  0  0  0  0  0  0  0  0  0  0  0
    9.5567    8.5926   22.6622 F   0  0  0  0  0  0  0  0  0  0  0  0
   10.3590    9.5104   24.4652 F   0  0  0  0  0  0  0  0  0  0  0  0
    6.5250   13.7803   26.7603 H   0  0  0  0  0  0  0  0  0  0  0  0
    8.3172   14.0750   25.1834 H   0  0  0  0  0  0  0  0  0  0  0  0
    6.2518    9.6131   25.7605 H   0  0  0  0  0  0  0  0  0  0  0  0
   10.6589   10.9077   22.2950 H   0  0  0  0  0  0  0  0  0  0  0  0
    8.9394   11.0160   21.8857 H   0  0  0  0  0  0  0  0  0  0  0  0
   10.0449   14.1392   21.4945 H   0  0  0  0  0  0  0  0  0  0  0  0
   10.9084   12.5856   21.5154 H   0  0  0  0  0  0  0  0  0  0  0  0
   11.7156   14.0535   22.0960 H   0  0  0  0  0  0  0  0  0  0  0  0
    4.7042   10.5047   28.9278 H   0  0  0  0  0  0  0  0  0  0  0  0
  1  2  1  0  0  0  0
  1  4  2  0  0  0  0
  2  5  2  0  0  0  0
  3  4  1  0  0  0  0
  3  6  2  0  0  0  0
  4  7  1  0  0  0  0
  5  6  1  0  0  0  0
  5 12  1  0  0  0  0
  6 15  1  0  0  0  0
  7 13  2  0  0  0  0
  7 16  1  0  0  0  0
  8 11  1  0  0  0  0
  8 12  1  0  0  0  0
  8 14  2  0  0  0  0
  9 10  1  0  0  0  0
  9 12  1  0  0  0  0
 10 15  1  0  0  0  0
 10 17  1  0  0  0  0
 10 18  1  0  0  0  0
  1 19  1  0  0  0  0
  2 20  1  0  0  0  0
  3 21  1  0  0  0  0
  9 22  1  0  0  0  0
  9 23  1  0  0  0  0
 11 24  1  0  0  0  0
 11 25  1  0  0  0  0
 11 26  1  0  0  0  0
 16 27  1  0  0  0  0
M  END
> <id>
EN300-28280196

> <smiles>
CC(=O)N1CC(F)(F)OC=2C=C(C=CC12)C(=O)O

> <IUPAC Name>
4-acetyl-2,2-difluoro-3,4-dihydro-2H-1,4-benzoxazine-7-carboxylic acid

> <CAS>
2680734-08-9

> <URL>
https://www.enaminestore.com/catalog/EN300-28280196

> <ROCS_ShapeQuery>
A71EV2A-x0451_0A_A71EV2A-x0310_0A_A71EV2A-x0416_0A_peptide

> <ROCS_TanimotoCombo>
0.511 

> <ROCS_ShapeTanimoto>
0.326 

> <ROCS_ColorTanimoto>
0.185 

> <ROCS_RefTversky>
0.287 

> <ROCS_RefColorTversky>
0.198 

> <ROCS_RefTverskyCombo>
0.485 

> <ROCS_FitTversky>
1.728 

> <ROCS_FitColorTversky>
0.731 

> <ROCS_FitTverskyCombo>
2.460 

> <ROCS_ColorScore>
-6.035

> <ROCS_Overlap>
1989.841

> <ROCS_Rank>
370                 

$$$$
untitled-dbase-103957_14
  -OEChem-11132313473D

 34 34  0     0  0  0  0  0  0999 V2000
    8.8658   10.3953   23.6336 C   0  0  0  0  0  0  0  0  0  0  0  0
    9.0974   11.7556   23.6528 C   0  0  0  0  0  0  0  0  0  0  0  0
    7.7818    9.9638   24.3706 C   0  0  0  0  0  0  0  0  0  0  0  0
    7.3086   12.0918   25.0146 C   0  0  0  0  0  0  0  0  0  0  0  0
   10.9539   13.3841   23.1925 C   0  0  0  0  0  0  0  0  0  0  0  0
    9.7220    9.4427   22.8752 C   0  0  0  0  0  0  0  0  0  0  0  0
    6.4441   13.0342   25.7813 C   0  0  0  0  0  0  0  0  0  0  0  0
   12.0613   15.9044   22.4170 C   0  0  0  0  0  0  0  0  0  0  0  0
   13.0267   14.6679   20.4553 C   0  0  0  0  0  0  0  0  0  0  0  0
   10.5354   14.8095   20.7414 C   0  0  0  0  0  0  0  0  0  0  0  0
   11.8800   14.7252   21.4624 C   0  0  0  0  0  0  0  0  0  0  0  0
    8.3360   12.6360   24.3351 N   0  0  0  0  0  0  0  0  0  0  0  0
    6.9789   10.7875   25.0757 N   0  0  0  0  0  0  0  0  0  0  0  0
   10.1918   12.2653   22.9177 N   0  0  0  0  0  0  0  0  0  0  0  0
   10.8335   14.1613   24.1317 O   0  0  0  0  0  0  0  0  0  0  0  0
    7.4741    8.6296   24.4154 O   0  0  0  0  0  0  0  0  0  0  0  0
   11.9137   13.5163   22.2219 O   0  0  0  0  0  0  0  0  0  0  0  0
   10.5466    9.0821   23.5040 H   0  0  0  0  0  0  0  0  0  0  0  0
    9.1459    8.5735   22.5289 H   0  0  0  0  0  0  0  0  0  0  0  0
   10.1506    9.9138   21.9798 H   0  0  0  0  0  0  0  0  0  0  0  0
    5.6172   13.3903   25.1545 H   0  0  0  0  0  0  0  0  0  0  0  0
    6.0219   12.5525   26.6729 H   0  0  0  0  0  0  0  0  0  0  0  0
    7.0151   13.9043   26.1311 H   0  0  0  0  0  0  0  0  0  0  0  0
   11.2402   15.9490   23.1415 H   0  0  0  0  0  0  0  0  0  0  0  0
   13.0062   15.8374   22.9661 H   0  0  0  0  0  0  0  0  0  0  0  0
   12.0444   16.8551   21.8719 H   0  0  0  0  0  0  0  0  0  0  0  0
   12.9007   13.8233   19.7683 H   0  0  0  0  0  0  0  0  0  0  0  0
   13.9851   14.5121   20.9636 H   0  0  0  0  0  0  0  0  0  0  0  0
   13.0926   15.5878   19.8654 H   0  0  0  0  0  0  0  0  0  0  0  0
   10.4052   13.9638   20.0566 H   0  0  0  0  0  0  0  0  0  0  0  0
    9.6988   14.8144   21.4476 H   0  0  0  0  0  0  0  0  0  0  0  0
   10.4785   15.7159   20.1278 H   0  0  0  0  0  0  0  0  0  0  0  0
   10.4500   11.7439   22.0833 H   0  0  0  0  0  0  0  0  0  0  0  0
    6.6933    8.4921   24.9698 H   0  0  0  0  0  0  0  0  0  0  0  0
  1  2  1  0  0  0  0
  1  3  2  0  0  0  0
  1  6  1  0  0  0  0
  2 12  2  0  0  0  0
  2 14  1  0  0  0  0
  3 13  1  0  0  0  0
  3 16  1  0  0  0  0
  4  7  1  0  0  0  0
  4 12  1  0  0  0  0
  4 13  2  0  0  0  0
  5 14  1  0  0  0  0
  5 15  2  0  0  0  0
  5 17  1  0  0  0  0
  8 11  1  0  0  0  0
  9 11  1  0  0  0  0
 10 11  1  0  0  0  0
 11 17  1  0  0  0  0
  6 18  1  0  0  0  0
  6 19  1  0  0  0  0
  6 20  1  0  0  0  0
  7 21  1  0  0  0  0
  7 22  1  0  0  0  0
  7 23  1  0  0  0  0
  8 24  1  0  0  0  0
  8 25  1  0  0  0  0
  8 26  1  0  0  0  0
  9 27  1  0  0  0  0
  9 28  1  0  0  0  0
  9 29  1  0  0  0  0
 10 30  1  0  0  0  0
 10 31  1  0  0  0  0
 10 32  1  0  0  0  0
 14 33  1  0  0  0  0
 16 34  1  0  0  0  0
M  END
> <id>
EN300-26664831

> <smiles>
CC=1N=C(O)C(C)=C(NC(=O)OC(C)(C)C)N1

> <IUPAC Name>
tert-butyl N-(6-hydroxy-2,5-dimethylpyrimidin-4-yl)carbamate

> <CAS>
2413898-65-2

> <URL>
https://www.enaminestore.com/catalog/EN300-26664831

> <ROCS_ShapeQuery>
A71EV2A-x0451_0A_A71EV2A-x0310_0A_A71EV2A-x0416_0A_peptide

> <ROCS_TanimotoCombo>
0.511 

> <ROCS_ShapeTanimoto>
0.334 

> <ROCS_ColorTanimoto>
0.176 

> <ROCS_RefTversky>
0.290 

> <ROCS_RefColorTversky>
0.195 

> <ROCS_RefTverskyCombo>
0.485 

> <ROCS_FitTversky>
1.860 

> <ROCS_FitColorTversky>
0.648 

> <ROCS_FitTverskyCombo>
2.507 

> <ROCS_ColorScore>
-5.959

> <ROCS_Overlap>
2008.080

> <ROCS_Rank>
371                 

$$$$
untitled-dbase-91592_182
  -OEChem-11132313473D

 49 51  0     1  0  0  0  0  0999 V2000
    5.1476   10.3153   26.1646 C   0  0  0  0  0  0  0  0  0  0  0  0
    4.1120   10.7646   26.9681 C   0  0  0  0  0  0  0  0  0  0  0  0
    4.9578   12.9001   27.0177 C   0  0  0  0  0  0  0  0  0  0  0  0
    6.1223   11.2318   25.7862 C   0  0  0  0  0  0  0  0  0  0  0  0
    6.0331   12.5508   26.2167 C   0  0  0  0  0  0  0  0  0  0  0  0
   10.1683   13.1776   23.4257 C   0  0  0  0  0  0  0  0  0  0  0  0
   10.1861    9.4965   22.6413 C   0  0  0  0  0  0  0  0  0  0  0  0
   10.3088    9.6248   24.1618 C   0  0  0  0  0  0  0  0  0  0  0  0
    8.8953   10.0948   22.0766 C   0  0  0  0  0  0  0  0  0  0  0  0
    8.6374   10.9562   25.6186 C   0  0  0  0  0  0  0  0  0  0  0  0
    7.2027   11.4332   23.5013 C   0  0  0  0  0  0  0  0  0  0  0  0
    9.8739   11.0020   24.6961 C   0  0  2  0  0  0  0  0  0  0  0  0
    8.5251   11.4495   22.7065 C   0  0  1  0  0  0  0  0  0  0  0  0
    7.2765   10.7440   24.8943 C   0  0  0  0  0  0  0  0  0  0  0  0
   12.2799   14.8302   22.4269 C   0  0  0  0  0  0  0  0  0  0  0  0
   10.8956   15.0174   20.3393 C   0  0  0  0  0  0  0  0  0  0  0  0
    9.9997   15.8920   22.5166 C   0  0  0  0  0  0  0  0  0  0  0  0
   10.8636   14.8203   21.8533 C   0  0  0  0  0  0  0  0  0  0  0  0
    3.9916   12.0379   27.4060 N   0  0  0  0  0  0  0  0  0  0  0  0
    9.5886   11.9190   23.5905 N   0  0  0  0  0  0  0  0  0  0  0  0
   10.5444   13.8934   24.3520 O   0  0  0  0  0  0  0  0  0  0  0  0
    7.1013    9.3353   24.6952 O   0  0  0  0  0  0  0  0  0  0  0  0
   10.2772   13.5390   22.1093 O   0  0  0  0  0  0  0  0  0  0  0  0
    7.3125   13.8602   25.7501 Br  0  0  0  0  0  0  0  0  0  0  0  0
    5.1874    9.2791   25.8462 H   0  0  0  0  0  0  0  0  0  0  0  0
    3.3265   10.0893   27.2910 H   0  0  0  0  0  0  0  0  0  0  0  0
    4.8280   13.9126   27.3881 H   0  0  0  0  0  0  0  0  0  0  0  0
   11.0544    9.9750   22.1603 H   0  0  0  0  0  0  0  0  0  0  0  0
   10.2464    8.4327   22.3603 H   0  0  0  0  0  0  0  0  0  0  0  0
    9.7278    8.8271   24.6479 H   0  0  0  0  0  0  0  0  0  0  0  0
   11.3587    9.4529   24.4468 H   0  0  0  0  0  0  0  0  0  0  0  0
    9.0155   10.2318   20.9898 H   0  0  0  0  0  0  0  0  0  0  0  0
    8.0697    9.3778   22.2016 H   0  0  0  0  0  0  0  0  0  0  0  0
    8.7572   10.1794   26.3942 H   0  0  0  0  0  0  0  0  0  0  0  0
    8.5859   11.8979   26.1942 H   0  0  0  0  0  0  0  0  0  0  0  0
    6.8582   12.4741   23.6413 H   0  0  0  0  0  0  0  0  0  0  0  0
    6.3949   10.9666   22.9103 H   0  0  0  0  0  0  0  0  0  0  0  0
   10.7128   11.4078   25.3047 H   0  0  0  0  0  0  0  0  0  0  0  0
    8.3987   12.1880   21.8813 H   0  0  0  0  0  0  0  0  0  0  0  0
   12.2612   14.6890   23.5135 H   0  0  0  0  0  0  0  0  0  0  0  0
   12.8997   14.0435   21.9846 H   0  0  0  0  0  0  0  0  0  0  0  0
   12.7670   15.7957   22.2490 H   0  0  0  0  0  0  0  0  0  0  0  0
    9.8816   15.0110   19.9235 H   0  0  0  0  0  0  0  0  0  0  0  0
   11.4349   14.1981   19.8503 H   0  0  0  0  0  0  0  0  0  0  0  0
   11.3768   15.9617   20.0649 H   0  0  0  0  0  0  0  0  0  0  0  0
    8.9838   15.8851   22.1053 H   0  0  0  0  0  0  0  0  0  0  0  0
    9.9351   15.7448   23.5995 H   0  0  0  0  0  0  0  0  0  0  0  0
   10.4042   16.8924   22.3246 H   0  0  0  0  0  0  0  0  0  0  0  0
    7.8346    9.0420   24.1322 H   0  0  0  0  0  0  0  0  0  0  0  0
  1  2  1  0  0  0  0
  1  4  2  0  0  0  0
  2 19  2  0  0  0  0
  3  5  2  0  0  0  0
  3 19  1  0  0  0  0
  4  5  1  0  0  0  0
  4 14  1  0  0  0  0
  5 24  1  0  0  0  0
  6 20  1  0  0  0  0
  6 21  2  0  0  0  0
  6 23  1  0  0  0  0
  7  8  1  0  0  0  0
  7  9  1  0  0  0  0
  8 12  1  0  0  0  0
  9 13  1  0  0  0  0
 10 12  1  0  0  0  0
 10 14  1  0  0  0  0
 11 13  1  0  0  0  0
 11 14  1  0  0  0  0
 12 20  1  0  0  0  0
 13 20  1  0  0  0  0
 14 22  1  0  0  0  0
 15 18  1  0  0  0  0
 16 18  1  0  0  0  0
 17 18  1  0  0  0  0
 18 23  1  0  0  0  0
  1 25  1  0  0  0  0
  2 26  1  0  0  0  0
  3 27  1  0  0  0  0
  7 28  1  0  0  0  0
  7 29  1  0  0  0  0
  8 30  1  0  0  0  0
  8 31  1  0  0  0  0
  9 32  1  0  0  0  0
  9 33  1  0  0  0  0
 10 34  1  0  0  0  0
 10 35  1  0  0  0  0
 11 36  1  0  0  0  0
 11 37  1  0  0  0  0
 12 38  1  0  0  0  0
 13 39  1  0  0  0  0
 15 40  1  0  0  0  0
 15 41  1  0  0  0  0
 15 42  1  0  0  0  0
 16 43  1  0  0  0  0
 16 44  1  0  0  0  0
 16 45  1  0  0  0  0
 17 46  1  0  0  0  0
 17 47  1  0  0  0  0
 17 48  1  0  0  0  0
 22 49  1  0  0  0  0
M  END
> <id>
EN300-7428205

> <smiles>
CC(C)(C)OC(=O)N1C2CCCC1CC(O)(C2)C=3C=CN=CC3Br

> <IUPAC Name>
tert-butyl 3-(3-bromopyridin-4-yl)-3-hydroxy-9-azabicyclo[3.3.1]nonane-9-carboxylate

> <CAS>
2309459-65-0

> <URL>
https://www.enaminestore.com/catalog/EN300-7428205

> <ROCS_ShapeQuery>
A71EV2A-x0451_0A_A71EV2A-x0310_0A_A71EV2A-x0416_0A_peptide

> <ROCS_TanimotoCombo>
0.511 

> <ROCS_ShapeTanimoto>
0.342 

> <ROCS_ColorTanimoto>
0.169 

> <ROCS_RefTversky>
0.305 

> <ROCS_RefColorTversky>
0.194 

> <ROCS_RefTverskyCombo>
0.499 

> <ROCS_FitTversky>
1.538 

> <ROCS_FitColorTversky>
0.572 

> <ROCS_FitTverskyCombo>
2.111 

> <ROCS_ColorScore>
-5.926

> <ROCS_Overlap>
2120.216

> <ROCS_Rank>
372                 

$$$$
untitled-dbase-106543_3
  -OEChem-11132313473D

 35 37  0     1  0  0  0  0  0999 V2000
    6.8582   12.1644   26.2005 C   0  0  0  0  0  0  0  0  0  0  0  0
    8.0436   12.6819   25.6803 C   0  0  0  0  0  0  0  0  0  0  0  0
    6.4026   10.9145   25.7867 C   0  0  0  0  0  0  0  0  0  0  0  0
    8.7714   11.9407   24.7426 C   0  0  0  0  0  0  0  0  0  0  0  0
    8.3242   10.6862   24.3203 C   0  0  0  0  0  0  0  0  0  0  0  0
    7.1325   10.1795   24.8512 C   0  0  0  0  0  0  0  0  0  0  0  0
   10.0310   12.4715   24.1791 C   0  0  0  0  0  0  0  0  0  0  0  0
   11.9370   15.0317   22.7374 C   0  0  0  0  0  0  0  0  0  0  0  0
   12.6341   12.8500   23.7560 C   0  0  0  0  0  0  0  0  0  0  0  0
   10.1319   10.3993   22.8987 C   0  0  0  0  0  0  0  0  0  0  0  0
   11.1034   14.2874   21.7243 C   0  0  0  0  0  0  0  0  0  0  0  0
   11.6973   12.9265   21.4066 C   0  0  0  0  0  0  0  0  0  0  0  0
   11.8998   12.0986   22.6659 C   0  0  2  0  0  0  0  0  0  0  0  0
   10.8782    9.5591   21.8899 C   0  0  0  0  0  0  0  0  0  0  0  0
    9.0292    9.9196   23.3834 N   0  0  0  0  0  0  0  0  0  0  0  0
   12.6093   14.2380   23.6602 N   0  0  0  0  0  0  0  0  0  0  0  0
   10.6690   11.6364   23.2492 N   0  0  0  0  0  0  0  0  0  0  0  0
    6.6452    8.9137   24.4492 N   0  0  0  0  0  0  0  0  0  0  0  0
   10.4329   13.5729   24.5436 O   0  0  0  0  0  0  0  0  0  0  0  0
   11.9594   16.2618   22.7712 O   0  0  0  0  0  0  0  0  0  0  0  0
   13.1382   12.2638   24.7152 O   0  0  0  0  0  0  0  0  0  0  0  0
    6.2894   12.7364   26.9277 H   0  0  0  0  0  0  0  0  0  0  0  0
    8.3814   13.6586   26.0152 H   0  0  0  0  0  0  0  0  0  0  0  0
    5.4764   10.5214   26.1988 H   0  0  0  0  0  0  0  0  0  0  0  0
   10.0931   14.1614   22.1292 H   0  0  0  0  0  0  0  0  0  0  0  0
   11.0345   14.9036   20.8205 H   0  0  0  0  0  0  0  0  0  0  0  0
   11.0280   12.3944   20.7033 H   0  0  0  0  0  0  0  0  0  0  0  0
   12.6589   13.0612   20.8785 H   0  0  0  0  0  0  0  0  0  0  0  0
   12.5053   11.1919   22.4370 H   0  0  0  0  0  0  0  0  0  0  0  0
   10.5257    9.8067   20.8949 H   0  0  0  0  0  0  0  0  0  0  0  0
   10.6961    8.5107   22.0996 H   0  0  0  0  0  0  0  0  0  0  0  0
   11.9392    9.7685   21.9723 H   0  0  0  0  0  0  0  0  0  0  0  0
   13.1552   14.7393   24.3576 H   0  0  0  0  0  0  0  0  0  0  0  0
    5.8181    8.5556   24.8775 H   0  0  0  0  0  0  0  0  0  0  0  0
    7.1883    8.3654   23.8166 H   0  0  0  0  0  0  0  0  0  0  0  0
  1  2  1  0  0  0  0
  1  3  2  0  0  0  0
  2  4  2  0  0  0  0
  3  6  1  0  0  0  0
  4  5  1  0  0  0  0
  4  7  1  0  0  0  0
  5  6  2  0  0  0  0
  5 15  1  0  0  0  0
  6 18  1  0  0  0  0
  7 17  1  0  0  0  0
  7 19  2  0  0  0  0
  8 11  1  0  0  0  0
  8 16  1  0  0  0  0
  8 20  2  0  0  0  0
  9 13  1  0  0  0  0
  9 16  1  0  0  0  0
  9 21  2  0  0  0  0
 10 14  1  0  0  0  0
 10 15  2  0  0  0  0
 10 17  1  0  0  0  0
 11 12  1  0  0  0  0
 12 13  1  0  0  0  0
 13 17  1  0  0  0  0
  1 22  1  0  0  0  0
  2 23  1  0  0  0  0
  3 24  1  0  0  0  0
 11 25  1  0  0  0  0
 11 26  1  0  0  0  0
 12 27  1  0  0  0  0
 12 28  1  0  0  0  0
 13 29  1  0  0  0  0
 14 30  1  0  0  0  0
 14 31  1  0  0  0  0
 14 32  1  0  0  0  0
 16 33  1  0  0  0  0
 18 34  1  0  0  0  0
 18 35  1  0  0  0  0
M  END
> <id>
EN300-26682850

> <smiles>
CC1=NC=2C(N)=CC=CC2C(=O)N1C3CCC(=O)NC3=O

> <IUPAC Name>
3-(8-amino-2-methyl-4-oxo-3,4-dihydroquinazolin-3-yl)piperidine-2,6-dione

> <CAS>
2154341-73-6

> <Purity>
95

> <URL>
https://www.enaminestore.com/catalog/EN300-26682850

> <ROCS_ShapeQuery>
A71EV2A-x0451_0A_A71EV2A-x0310_0A_A71EV2A-x0416_0A_peptide

> <ROCS_TanimotoCombo>
0.511 

> <ROCS_ShapeTanimoto>
0.348 

> <ROCS_ColorTanimoto>
0.163 

> <ROCS_RefTversky>
0.306 

> <ROCS_RefColorTversky>
0.191 

> <ROCS_RefTverskyCombo>
0.497 

> <ROCS_FitTversky>
1.646 

> <ROCS_FitColorTversky>
0.526 

> <ROCS_FitTverskyCombo>
2.172 

> <ROCS_ColorScore>
-5.835

> <ROCS_Overlap>
2127.115

> <ROCS_Rank>
373                 

$$$$
untitled-dbase-111494_118
  -OEChem-11132313473D

 39 40  0     1  0  0  0  0  0999 V2000
   10.9029   12.9662   24.1212 C   0  0  0  0  0  0  0  0  0  0  0  0
    7.6357   12.3237   24.2190 C   0  0  0  0  0  0  0  0  0  0  0  0
    8.4923   10.6878   22.5781 C   0  0  0  0  0  0  0  0  0  0  0  0
   10.2644   10.5473   24.1758 C   0  0  0  0  0  0  0  0  0  0  0  0
    7.6847   11.2448   25.3078 C   0  0  0  0  0  0  0  0  0  0  0  0
    8.7163   12.0830   23.1578 C   0  0  2  0  0  0  0  0  0  0  0  0
    8.9548    9.8497   23.7726 C   0  0  2  0  0  0  0  0  0  0  0  0
   13.1300   14.6565   23.5299 C   0  0  0  0  0  0  0  0  0  0  0  0
   14.4803   12.5399   23.4542 C   0  0  0  0  0  0  0  0  0  0  0  0
   12.6052   12.8863   21.8195 C   0  0  0  0  0  0  0  0  0  0  0  0
    9.1496    8.3834   23.4259 C   0  0  0  0  0  0  0  0  0  0  0  0
   13.0998   13.1566   23.2397 C   0  0  0  0  0  0  0  0  0  0  0  0
   10.0232   11.9442   23.8145 N   0  0  0  0  0  0  0  0  0  0  0  0
    7.8914    7.7105   23.4174 N   0  0  0  0  0  0  0  0  0  0  0  0
   10.5627   14.1285   24.3297 O   0  0  0  0  0  0  0  0  0  0  0  0
    7.9504    9.9314   24.8009 O   0  0  0  0  0  0  0  0  0  0  0  0
   12.2002   12.5321   24.1623 O   0  0  0  0  0  0  0  0  0  0  0  0
    6.6530   12.2929   23.7320 H   0  0  0  0  0  0  0  0  0  0  0  0
    7.7358   13.3163   24.6719 H   0  0  0  0  0  0  0  0  0  0  0  0
    7.4453   10.5098   22.3108 H   0  0  0  0  0  0  0  0  0  0  0  0
    9.1221   10.5249   21.6953 H   0  0  0  0  0  0  0  0  0  0  0  0
   10.4932   10.4740   25.2444 H   0  0  0  0  0  0  0  0  0  0  0  0
   11.1263   10.2024   23.5927 H   0  0  0  0  0  0  0  0  0  0  0  0
    8.4504   11.4865   26.0539 H   0  0  0  0  0  0  0  0  0  0  0  0
    6.7305   11.2104   25.8440 H   0  0  0  0  0  0  0  0  0  0  0  0
    8.7277   12.8750   22.4054 H   0  0  0  0  0  0  0  0  0  0  0  0
   12.1409   15.1030   23.3771 H   0  0  0  0  0  0  0  0  0  0  0  0
   13.4496   14.8624   24.5567 H   0  0  0  0  0  0  0  0  0  0  0  0
   13.8117   15.1736   22.8450 H   0  0  0  0  0  0  0  0  0  0  0  0
   14.4632   11.4637   23.2471 H   0  0  0  0  0  0  0  0  0  0  0  0
   14.7985   12.6484   24.4973 H   0  0  0  0  0  0  0  0  0  0  0  0
   15.2347   13.0047   22.8113 H   0  0  0  0  0  0  0  0  0  0  0  0
   12.5834   11.8105   21.6111 H   0  0  0  0  0  0  0  0  0  0  0  0
   11.6002   13.2899   21.6587 H   0  0  0  0  0  0  0  0  0  0  0  0
   13.2813   13.3308   21.0802 H   0  0  0  0  0  0  0  0  0  0  0  0
    9.6110    8.3357   22.4383 H   0  0  0  0  0  0  0  0  0  0  0  0
    9.8059    7.9493   24.1817 H   0  0  0  0  0  0  0  0  0  0  0  0
    7.9003    6.9558   24.0787 H   0  0  0  0  0  0  0  0  0  0  0  0
    7.1582    8.3499   23.6636 H   0  0  0  0  0  0  0  0  0  0  0  0
  1 13  1  0  0  0  0
  1 15  2  0  0  0  0
  1 17  1  0  0  0  0
  2  5  1  0  0  0  0
  2  6  1  0  0  0  0
  3  6  1  0  0  0  0
  3  7  1  0  0  0  0
  4  7  1  0  0  0  0
  4 13  1  0  0  0  0
  5 16  1  0  0  0  0
  6 13  1  0  0  0  0
  7 11  1  0  0  0  0
  7 16  1  0  0  0  0
  8 12  1  0  0  0  0
  9 12  1  0  0  0  0
 10 12  1  0  0  0  0
 11 14  1  0  0  0  0
 12 17  1  0  0  0  0
  2 18  1  0  0  0  0
  2 19  1  0  0  0  0
  3 20  1  0  0  0  0
  3 21  1  0  0  0  0
  4 22  1  0  0  0  0
  4 23  1  0  0  0  0
  5 24  1  0  0  0  0
  5 25  1  0  0  0  0
  6 26  1  0  0  0  0
  8 27  1  0  0  0  0
  8 28  1  0  0  0  0
  8 29  1  0  0  0  0
  9 30  1  0  0  0  0
  9 31  1  0  0  0  0
  9 32  1  0  0  0  0
 10 33  1  0  0  0  0
 10 34  1  0  0  0  0
 10 35  1  0  0  0  0
 11 36  1  0  0  0  0
 11 37  1  0  0  0  0
 14 38  1  0  0  0  0
 14 39  1  0  0  0  0
M  END
> <id>
EN300-37139110

> <smiles>
CC(C)(C)OC(=O)N1CC2(CN)CC1CCO2

> <IUPAC Name>
tert-butyl 1-(aminomethyl)-2-oxa-6-azabicyclo[3.2.1]octane-6-carboxylate

> <CAS>
2825006-13-9

> <Purity>
95

> <URL>
https://www.enaminestore.com/catalog/EN300-37139110

> <ROCS_ShapeQuery>
A71EV2A-x0451_0A_A71EV2A-x0310_0A_A71EV2A-x0416_0A_peptide

> <ROCS_TanimotoCombo>
0.511 

> <ROCS_ShapeTanimoto>
0.279 

> <ROCS_ColorTanimoto>
0.231 

> <ROCS_RefTversky>
0.252 

> <ROCS_RefColorTversky>
0.261 

> <ROCS_RefTverskyCombo>
0.514 

> <ROCS_FitTversky>
1.617 

> <ROCS_FitColorTversky>
0.670 

> <ROCS_FitTverskyCombo>
2.287 

> <ROCS_ColorScore>
-8.010

> <ROCS_Overlap>
1750.223

> <ROCS_Rank>
374                 

$$$$
untitled-dbase-150914_14
  -OEChem-11132313473D

 31 32  0     0  0  0  0  0  0999 V2000
    9.3828    9.9061   23.1315 C   0  0  0  0  0  0  0  0  0  0  0  0
   10.3197   10.9055   22.7670 C   0  0  0  0  0  0  0  0  0  0  0  0
    8.4802   10.4914   23.9926 C   0  0  0  0  0  0  0  0  0  0  0  0
    9.9604   12.0678   23.4156 C   0  0  0  0  0  0  0  0  0  0  0  0
    7.1299   12.1536   25.5378 C   0  0  0  0  0  0  0  0  0  0  0  0
    7.3173    9.9957   24.6892 C   0  0  0  0  0  0  0  0  0  0  0  0
   10.6114   13.3405   23.3526 C   0  0  0  0  0  0  0  0  0  0  0  0
   12.1380   15.7100   22.7015 C   0  0  0  0  0  0  0  0  0  0  0  0
   12.0716   14.8690   20.3356 C   0  0  0  0  0  0  0  0  0  0  0  0
    9.9345   15.4726   21.5088 C   0  0  0  0  0  0  0  0  0  0  0  0
   11.3422   14.9028   21.6769 C   0  0  0  0  0  0  0  0  0  0  0  0
    8.1652   12.6775   24.9445 N   0  0  0  0  0  0  0  0  0  0  0  0
    6.6752   10.8509   25.4459 N   0  0  0  0  0  0  0  0  0  0  0  0
    8.8395   11.8039   24.1586 N   0  0  0  0  0  0  0  0  0  0  0  0
    6.8902    8.6942   24.5766 N   0  0  0  0  0  0  0  0  0  0  0  0
   10.6332   14.1885   24.2728 O   0  0  0  0  0  0  0  0  0  0  0  0
   11.2351   13.5536   22.1436 O   0  0  0  0  0  0  0  0  0  0  0  0
    9.3733    8.8772   22.7995 H   0  0  0  0  0  0  0  0  0  0  0  0
   11.1644   10.7860   22.1023 H   0  0  0  0  0  0  0  0  0  0  0  0
    6.5370   12.8128   26.1930 H   0  0  0  0  0  0  0  0  0  0  0  0
   11.6178   15.7366   23.6657 H   0  0  0  0  0  0  0  0  0  0  0  0
   13.1374   15.2908   22.8571 H   0  0  0  0  0  0  0  0  0  0  0  0
   12.2461   16.7521   22.3798 H   0  0  0  0  0  0  0  0  0  0  0  0
   11.5042   14.2909   19.5974 H   0  0  0  0  0  0  0  0  0  0  0  0
   13.0449   14.3746   20.4329 H   0  0  0  0  0  0  0  0  0  0  0  0
   12.2326   15.8762   19.9378 H   0  0  0  0  0  0  0  0  0  0  0  0
    9.3634   14.8938   20.7739 H   0  0  0  0  0  0  0  0  0  0  0  0
    9.3829   15.4703   22.4545 H   0  0  0  0  0  0  0  0  0  0  0  0
    9.9728   16.5006   21.1305 H   0  0  0  0  0  0  0  0  0  0  0  0
    6.0825    8.4221   25.0841 H   0  0  0  0  0  0  0  0  0  0  0  0
    7.4074    8.0816   23.9925 H   0  0  0  0  0  0  0  0  0  0  0  0
  1  2  1  0  0  0  0
  1  3  2  0  0  0  0
  2  4  2  0  0  0  0
  3  6  1  0  0  0  0
  3 14  1  0  0  0  0
  4  7  1  0  0  0  0
  4 14  1  0  0  0  0
  5 12  2  0  0  0  0
  5 13  1  0  0  0  0
  6 13  2  0  0  0  0
  6 15  1  0  0  0  0
  7 16  2  0  0  0  0
  7 17  1  0  0  0  0
  8 11  1  0  0  0  0
  9 11  1  0  0  0  0
 10 11  1  0  0  0  0
 11 17  1  0  0  0  0
 12 14  1  0  0  0  0
  1 18  1  0  0  0  0
  2 19  1  0  0  0  0
  5 20  1  0  0  0  0
  8 21  1  0  0  0  0
  8 22  1  0  0  0  0
  8 23  1  0  0  0  0
  9 24  1  0  0  0  0
  9 25  1  0  0  0  0
  9 26  1  0  0  0  0
 10 27  1  0  0  0  0
 10 28  1  0  0  0  0
 10 29  1  0  0  0  0
 15 30  1  0  0  0  0
 15 31  1  0  0  0  0
M  END
> <id>
EN300-28275908

> <smiles>
CC(C)(C)OC(=O)C1=CC=C2C(N)=NC=NN12

> <IUPAC Name>
tert-butyl 4-aminopyrrolo[2,1-f][1,2,4]triazine-7-carboxylate

> <CAS>
2680870-19-1

> <URL>
https://www.enaminestore.com/catalog/EN300-28275908

> <ROCS_ShapeQuery>
A71EV2A-x0451_0A_A71EV2A-x0310_0A_A71EV2A-x0416_0A_peptide

> <ROCS_TanimotoCombo>
0.511 

> <ROCS_ShapeTanimoto>
0.337 

> <ROCS_ColorTanimoto>
0.173 

> <ROCS_RefTversky>
0.293 

> <ROCS_RefColorTversky>
0.192 

> <ROCS_RefTverskyCombo>
0.485 

> <ROCS_FitTversky>
1.829 

> <ROCS_FitColorTversky>
0.637 

> <ROCS_FitTverskyCombo>
2.466 

> <ROCS_ColorScore>
-5.873

> <ROCS_Overlap>
2029.089

> <ROCS_Rank>
375                 

$$$$
untitled-dbase-155085_9
  -OEChem-11132313473D

 37 38  0     0  0  0  0  0  0999 V2000
    7.8624    8.3876   24.3235 C   0  0  0  0  0  0  0  0  0  0  0  0
    8.7368    7.5398   23.6391 C   0  0  0  0  0  0  0  0  0  0  0  0
    9.9868    9.4505   22.8888 C   0  0  0  0  0  0  0  0  0  0  0  0
    8.3858   12.5096   24.2523 C   0  0  0  0  0  0  0  0  0  0  0  0
    9.1072   10.3031   23.5774 C   0  0  0  0  0  0  0  0  0  0  0  0
    8.0252    9.7701   24.3089 C   0  0  0  0  0  0  0  0  0  0  0  0
    9.2715   11.6948   23.5621 C   0  0  0  0  0  0  0  0  0  0  0  0
    9.8005    8.0716   22.9207 C   0  0  0  0  0  0  0  0  0  0  0  0
    7.3578   11.8966   24.9395 C   0  0  0  0  0  0  0  0  0  0  0  0
   10.9657   13.5039   23.1529 C   0  0  0  0  0  0  0  0  0  0  0  0
    6.3787   12.7338   25.6930 C   0  0  0  0  0  0  0  0  0  0  0  0
   11.8304   16.1276   22.4128 C   0  0  0  0  0  0  0  0  0  0  0  0
   12.9539   15.0075   20.4654 C   0  0  0  0  0  0  0  0  0  0  0  0
   10.4558   14.8972   20.7008 C   0  0  0  0  0  0  0  0  0  0  0  0
   11.7873   14.9428   21.4489 C   0  0  0  0  0  0  0  0  0  0  0  0
    7.1640   10.5584   24.9796 N   0  0  0  0  0  0  0  0  0  0  0  0
   10.3154   12.3107   22.8616 N   0  0  0  0  0  0  0  0  0  0  0  0
   10.7469   14.2584   24.0929 O   0  0  0  0  0  0  0  0  0  0  0  0
   11.9270   13.7345   22.2052 O   0  0  0  0  0  0  0  0  0  0  0  0
   10.9878    6.9289   21.9972 Br  0  0  0  0  0  0  0  0  0  0  0  0
    7.0367    7.9460   24.8788 H   0  0  0  0  0  0  0  0  0  0  0  0
    8.5692    6.4665   23.6810 H   0  0  0  0  0  0  0  0  0  0  0  0
   10.8226    9.8558   22.3217 H   0  0  0  0  0  0  0  0  0  0  0  0
    8.4941   13.5897   24.2516 H   0  0  0  0  0  0  0  0  0  0  0  0
    5.5344   13.0057   25.0483 H   0  0  0  0  0  0  0  0  0  0  0  0
    5.9903   12.1994   26.5693 H   0  0  0  0  0  0  0  0  0  0  0  0
    6.8458   13.6553   26.0633 H   0  0  0  0  0  0  0  0  0  0  0  0
   10.9946   16.0849   23.1204 H   0  0  0  0  0  0  0  0  0  0  0  0
   12.7661   16.1517   22.9809 H   0  0  0  0  0  0  0  0  0  0  0  0
   11.7294   17.0756   21.8721 H   0  0  0  0  0  0  0  0  0  0  0  0
   12.9269   14.1593   19.7719 H   0  0  0  0  0  0  0  0  0  0  0  0
   13.9127   14.9448   20.9926 H   0  0  0  0  0  0  0  0  0  0  0  0
   12.9392   15.9334   19.8815 H   0  0  0  0  0  0  0  0  0  0  0  0
   10.4246   14.0475   20.0092 H   0  0  0  0  0  0  0  0  0  0  0  0
    9.6088   14.8135   21.3895 H   0  0  0  0  0  0  0  0  0  0  0  0
   10.3206   15.7976   20.0905 H   0  0  0  0  0  0  0  0  0  0  0  0
   10.6421   11.8183   22.0264 H   0  0  0  0  0  0  0  0  0  0  0  0
  1  2  2  0  0  0  0
  1  6  1  0  0  0  0
  2  8  1  0  0  0  0
  3  5  1  0  0  0  0
  3  8  2  0  0  0  0
  4  7  1  0  0  0  0
  4  9  2  0  0  0  0
  5  6  1  0  0  0  0
  5  7  2  0  0  0  0
  6 16  2  0  0  0  0
  7 17  1  0  0  0  0
  8 20  1  0  0  0  0
  9 11  1  0  0  0  0
  9 16  1  0  0  0  0
 10 17  1  0  0  0  0
 10 18  2  0  0  0  0
 10 19  1  0  0  0  0
 12 15  1  0  0  0  0
 13 15  1  0  0  0  0
 14 15  1  0  0  0  0
 15 19  1  0  0  0  0
  1 21  1  0  0  0  0
  2 22  1  0  0  0  0
  3 23  1  0  0  0  0
  4 24  1  0  0  0  0
 11 25  1  0  0  0  0
 11 26  1  0  0  0  0
 11 27  1  0  0  0  0
 12 28  1  0  0  0  0
 12 29  1  0  0  0  0
 12 30  1  0  0  0  0
 13 31  1  0  0  0  0
 13 32  1  0  0  0  0
 13 33  1  0  0  0  0
 14 34  1  0  0  0  0
 14 35  1  0  0  0  0
 14 36  1  0  0  0  0
 17 37  1  0  0  0  0
M  END
> <id>
EN300-28296554

> <smiles>
CC=1C=C(NC(=O)OC(C)(C)C)C=2C=C(Br)C=CC2N1

> <IUPAC Name>
tert-butyl N-(6-bromo-2-methylquinolin-4-yl)carbamate

> <CAS>
2680756-59-4

> <URL>
https://www.enaminestore.com/catalog/EN300-28296554

> <ROCS_ShapeQuery>
A71EV2A-x0451_0A_A71EV2A-x0310_0A_A71EV2A-x0416_0A_peptide

> <ROCS_TanimotoCombo>
0.511 

> <ROCS_ShapeTanimoto>
0.361 

> <ROCS_ColorTanimoto>
0.150 

> <ROCS_RefTversky>
0.312 

> <ROCS_RefColorTversky>
0.165 

> <ROCS_RefTverskyCombo>
0.477 

> <ROCS_FitTversky>
1.786 

> <ROCS_FitColorTversky>
0.611 

> <ROCS_FitTverskyCombo>
2.397 

> <ROCS_ColorScore>
-5.039

> <ROCS_Overlap>
2162.406

> <ROCS_Rank>
376                 

$$$$
untitled-dbase-20503_208
  -OEChem-11132313473D

 37 38  0     1  0  0  0  0  0999 V2000
    6.9309   12.8797   25.6574 C   0  0  0  0  0  0  0  0  0  0  0  0
    6.2251   11.6842   25.8603 C   0  0  0  0  0  0  0  0  0  0  0  0
    8.1515   12.8805   24.9783 C   0  0  0  0  0  0  0  0  0  0  0  0
    6.7299   10.4712   25.3886 C   0  0  0  0  0  0  0  0  0  0  0  0
    8.6403   11.6762   24.4948 C   0  0  0  0  0  0  0  0  0  0  0  0
    7.9345   10.4807   24.7031 C   0  0  0  0  0  0  0  0  0  0  0  0
   10.5914   13.7017   23.0204 C   0  0  0  0  0  0  0  0  0  0  0  0
    9.6373   10.0248   23.1613 C   0  0  0  0  0  0  0  0  0  0  0  0
    9.9374   11.4036   23.7824 C   0  0  1  0  0  0  0  0  0  0  0  0
    8.6947    9.3138   24.1457 C   0  0  2  0  0  0  0  0  0  0  0  0
   13.2435   13.8243   21.9711 C   0  0  0  0  0  0  0  0  0  0  0  0
   12.3518   15.5930   20.4265 C   0  0  0  0  0  0  0  0  0  0  0  0
   12.3277   15.9728   22.9091 C   0  0  0  0  0  0  0  0  0  0  0  0
   12.2067   14.9330   21.7960 C   0  0  0  0  0  0  0  0  0  0  0  0
   10.3051   12.3719   22.7613 N   0  0  0  0  0  0  0  0  0  0  0  0
   10.5729   14.2295   24.1275 O   0  0  0  0  0  0  0  0  0  0  0  0
    7.8513    8.4019   23.4708 O   0  0  0  0  0  0  0  0  0  0  0  0
   10.9005   14.3492   21.8574 O   0  0  0  0  0  0  0  0  0  0  0  0
    6.5265   13.8130   26.0399 H   0  0  0  0  0  0  0  0  0  0  0  0
    5.2808   11.7028   26.3977 H   0  0  0  0  0  0  0  0  0  0  0  0
    8.6994   13.8065   24.8396 H   0  0  0  0  0  0  0  0  0  0  0  0
    6.1897    9.5466   25.5616 H   0  0  0  0  0  0  0  0  0  0  0  0
    9.1386   10.1317   22.1865 H   0  0  0  0  0  0  0  0  0  0  0  0
   10.5492    9.4448   22.9810 H   0  0  0  0  0  0  0  0  0  0  0  0
   10.7611   11.3357   24.5013 H   0  0  0  0  0  0  0  0  0  0  0  0
    9.2447    8.8028   24.9434 H   0  0  0  0  0  0  0  0  0  0  0  0
   13.1427   13.3480   22.9529 H   0  0  0  0  0  0  0  0  0  0  0  0
   13.1447   13.0541   21.1992 H   0  0  0  0  0  0  0  0  0  0  0  0
   14.2608   14.2298   21.9272 H   0  0  0  0  0  0  0  0  0  0  0  0
   11.6098   16.3891   20.2966 H   0  0  0  0  0  0  0  0  0  0  0  0
   12.1717   14.8692   19.6234 H   0  0  0  0  0  0  0  0  0  0  0  0
   13.3492   16.0228   20.2887 H   0  0  0  0  0  0  0  0  0  0  0  0
   11.5841   16.7682   22.7838 H   0  0  0  0  0  0  0  0  0  0  0  0
   12.1895   15.5232   23.8978 H   0  0  0  0  0  0  0  0  0  0  0  0
   13.3091   16.4600   22.8822 H   0  0  0  0  0  0  0  0  0  0  0  0
   10.3552   12.0514   21.7940 H   0  0  0  0  0  0  0  0  0  0  0  0
    8.4139    7.6795   23.1411 H   0  0  0  0  0  0  0  0  0  0  0  0
  1  2  2  0  0  0  0
  1  3  1  0  0  0  0
  2  4  1  0  0  0  0
  3  5  2  0  0  0  0
  4  6  2  0  0  0  0
  5  6  1  0  0  0  0
  5  9  1  0  0  0  0
  6 10  1  0  0  0  0
  7 15  1  0  0  0  0
  7 16  2  0  0  0  0
  7 18  1  0  0  0  0
  8  9  1  0  0  0  0
  8 10  1  0  0  0  0
  9 15  1  6  0  0  0
 10 17  1  6  0  0  0
 11 14  1  0  0  0  0
 12 14  1  0  0  0  0
 13 14  1  0  0  0  0
 14 18  1  0  0  0  0
  1 19  1  0  0  0  0
  2 20  1  0  0  0  0
  3 21  1  0  0  0  0
  4 22  1  0  0  0  0
  8 23  1  0  0  0  0
  8 24  1  0  0  0  0
  9 25  1  0  0  0  0
 10 26  1  0  0  0  0
 11 27  1  0  0  0  0
 11 28  1  0  0  0  0
 11 29  1  0  0  0  0
 12 30  1  0  0  0  0
 12 31  1  0  0  0  0
 12 32  1  0  0  0  0
 13 33  1  0  0  0  0
 13 34  1  0  0  0  0
 13 35  1  0  0  0  0
 15 36  1  0  0  0  0
 17 37  1  0  0  0  0
M  END
> <id>
EN300-20813513

> <smiles>
CC(C)(C)OC(=O)N[C@@H]1C[C@H](O)C=2C=CC=CC12 |&1:8,10,r|

> <MDLNUMBER>
MFCD10566330

> <IUPAC Name>
rac-tert-butyl N-[(1R,3S)-3-hydroxy-2,3-dihydro-1H-inden-1-yl]carbamate

> <CAS>
1932263-39-2

> <URL>
https://www.enaminestore.com/catalog/EN300-20813513

> <ROCS_ShapeQuery>
A71EV2A-x0451_0A_A71EV2A-x0310_0A_A71EV2A-x0416_0A_peptide

> <ROCS_TanimotoCombo>
0.511 

> <ROCS_ShapeTanimoto>
0.344 

> <ROCS_ColorTanimoto>
0.166 

> <ROCS_RefTversky>
0.297 

> <ROCS_RefColorTversky>
0.181 

> <ROCS_RefTverskyCombo>
0.479 

> <ROCS_FitTversky>
1.839 

> <ROCS_FitColorTversky>
0.670 

> <ROCS_FitTverskyCombo>
2.509 

> <ROCS_ColorScore>
-5.524

> <ROCS_Overlap>
2062.767

> <ROCS_Rank>
377                 

$$$$
untitled-dbase-175612_51
  -OEChem-11132313473D

 40 41  0     0  0  0  0  0  0999 V2000
    6.1286   10.9181   25.6880 C   0  0  0  0  0  0  0  0  0  0  0  0
    6.9131   10.0097   24.9771 C   0  0  0  0  0  0  0  0  0  0  0  0
    6.4973   12.2689   25.7632 C   0  0  0  0  0  0  0  0  0  0  0  0
    8.0590   10.4760   24.3516 C   0  0  0  0  0  0  0  0  0  0  0  0
    8.4280   11.8207   24.4250 C   0  0  0  0  0  0  0  0  0  0  0  0
    7.6547   12.7313   25.1293 C   0  0  0  0  0  0  0  0  0  0  0  0
    5.6431   13.1778   26.5177 C   0  0  0  0  0  0  0  0  0  0  0  0
   10.2948   13.2323   23.5554 C   0  0  0  0  0  0  0  0  0  0  0  0
    9.0331    9.6798   23.5445 C   0  0  0  0  0  0  0  0  0  0  0  0
   10.0592   10.7419   23.1350 C   0  0  0  0  0  0  0  0  0  0  0  0
   11.9068   15.4556   22.7457 C   0  0  0  0  0  0  0  0  0  0  0  0
   11.9042   14.3931   20.4697 C   0  0  0  0  0  0  0  0  0  0  0  0
    9.7423   15.1536   21.4973 C   0  0  0  0  0  0  0  0  0  0  0  0
    4.1367   13.3218   28.3586 C   0  0  0  0  0  0  0  0  0  0  0  0
   11.1280   14.5715   21.7727 C   0  0  0  0  0  0  0  0  0  0  0  0
    9.6219   12.0287   23.7094 N   0  0  0  0  0  0  0  0  0  0  0  0
    5.5083   14.3800   26.2631 O   0  0  0  0  0  0  0  0  0  0  0  0
   10.3065   14.1583   24.3613 O   0  0  0  0  0  0  0  0  0  0  0  0
    7.9584   14.0488   25.2412 O   0  0  0  0  0  0  0  0  0  0  0  0
    5.0085   12.5325   27.5421 O   0  0  0  0  0  0  0  0  0  0  0  0
   10.9694   13.2756   22.3614 O   0  0  0  0  0  0  0  0  0  0  0  0
    5.2267   10.5654   26.1829 H   0  0  0  0  0  0  0  0  0  0  0  0
    6.6282    8.9646   24.9180 H   0  0  0  0  0  0  0  0  0  0  0  0
    9.4957    8.8966   24.1527 H   0  0  0  0  0  0  0  0  0  0  0  0
    8.5472    9.2401   22.6682 H   0  0  0  0  0  0  0  0  0  0  0  0
   11.0596   10.5015   23.5135 H   0  0  0  0  0  0  0  0  0  0  0  0
   10.1236   10.8403   22.0450 H   0  0  0  0  0  0  0  0  0  0  0  0
   11.3529   15.5861   23.6823 H   0  0  0  0  0  0  0  0  0  0  0  0
   12.8888   15.0313   22.9787 H   0  0  0  0  0  0  0  0  0  0  0  0
   12.0531   16.4594   22.3307 H   0  0  0  0  0  0  0  0  0  0  0  0
   11.3491   13.7595   19.7686 H   0  0  0  0  0  0  0  0  0  0  0  0
   12.8604   13.8889   20.6509 H   0  0  0  0  0  0  0  0  0  0  0  0
   12.1052   15.3536   19.9844 H   0  0  0  0  0  0  0  0  0  0  0  0
    9.1835   14.5197   20.7994 H   0  0  0  0  0  0  0  0  0  0  0  0
    9.1571   15.2543   22.4171 H   0  0  0  0  0  0  0  0  0  0  0  0
    9.8207   16.1394   21.0247 H   0  0  0  0  0  0  0  0  0  0  0  0
    3.6948   12.6927   29.1352 H   0  0  0  0  0  0  0  0  0  0  0  0
    3.3506   13.7585   27.7375 H   0  0  0  0  0  0  0  0  0  0  0  0
    4.7154   14.1218   28.8264 H   0  0  0  0  0  0  0  0  0  0  0  0
    8.7797   14.2510   24.7621 H   0  0  0  0  0  0  0  0  0  0  0  0
  1  2  1  0  0  0  0
  1  3  2  0  0  0  0
  2  4  2  0  0  0  0
  3  6  1  0  0  0  0
  3  7  1  0  0  0  0
  4  5  1  0  0  0  0
  4  9  1  0  0  0  0
  5  6  2  0  0  0  0
  5 16  1  0  0  0  0
  6 19  1  0  0  0  0
  7 17  2  0  0  0  0
  7 20  1  0  0  0  0
  8 16  1  0  0  0  0
  8 18  2  0  0  0  0
  8 21  1  0  0  0  0
  9 10  1  0  0  0  0
 10 16  1  0  0  0  0
 11 15  1  0  0  0  0
 12 15  1  0  0  0  0
 13 15  1  0  0  0  0
 14 20  1  0  0  0  0
 15 21  1  0  0  0  0
  1 22  1  0  0  0  0
  2 23  1  0  0  0  0
  9 24  1  0  0  0  0
  9 25  1  0  0  0  0
 10 26  1  0  0  0  0
 10 27  1  0  0  0  0
 11 28  1  0  0  0  0
 11 29  1  0  0  0  0
 11 30  1  0  0  0  0
 12 31  1  0  0  0  0
 12 32  1  0  0  0  0
 12 33  1  0  0  0  0
 13 34  1  0  0  0  0
 13 35  1  0  0  0  0
 13 36  1  0  0  0  0
 14 37  1  0  0  0  0
 14 38  1  0  0  0  0
 14 39  1  0  0  0  0
 19 40  1  0  0  0  0
M  END
> <id>
EN300-28573393

> <smiles>
COC(=O)C=1C=CC=2CCN(C(=O)OC(C)(C)C)C2C1O

> <IUPAC Name>
1-tert-butyl 6-methyl 7-hydroxy-2,3-dihydro-1H-indole-1,6-dicarboxylate

> <CAS>
1784603-74-2

> <Purity>
95

> <URL>
https://www.enaminestore.com/catalog/EN300-28573393

> <ROCS_ShapeQuery>
A71EV2A-x0451_0A_A71EV2A-x0310_0A_A71EV2A-x0416_0A_peptide

> <ROCS_TanimotoCombo>
0.510 

> <ROCS_ShapeTanimoto>
0.361 

> <ROCS_ColorTanimoto>
0.150 

> <ROCS_RefTversky>
0.314 

> <ROCS_RefColorTversky>
0.166 

> <ROCS_RefTverskyCombo>
0.479 

> <ROCS_FitTversky>
1.712 

> <ROCS_FitColorTversky>
0.612 

> <ROCS_FitTverskyCombo>
2.324 

> <ROCS_ColorScore>
-5.052

> <ROCS_Overlap>
2176.963

> <ROCS_Rank>
378                 

$$$$
untitled-dbase-50047_2
  -OEChem-11132313473D

 38 41  0     0  0  0  0  0  0999 V2000
    9.7408    8.9137   21.7934 C   0  0  0  0  0  0  0  0  0  0  0  0
   13.8218   13.7256   20.8703 C   0  0  0  0  0  0  0  0  0  0  0  0
   13.0464   12.5671   20.9045 C   0  0  0  0  0  0  0  0  0  0  0  0
   12.4805   14.6656   22.6422 C   0  0  0  0  0  0  0  0  0  0  0  0
    8.2554   12.9216   25.4896 C   0  0  0  0  0  0  0  0  0  0  0  0
   11.7011   13.5001   22.6764 C   0  0  0  0  0  0  0  0  0  0  0  0
   13.5384   14.7748   21.7395 C   0  0  0  0  0  0  0  0  0  0  0  0
   11.9817   12.4480   21.8077 C   0  0  0  0  0  0  0  0  0  0  0  0
    8.6998   12.0034   24.5472 C   0  0  0  0  0  0  0  0  0  0  0  0
    7.9576   10.8351   24.5439 C   0  0  0  0  0  0  0  0  0  0  0  0
    6.5883   11.5449   26.2110 C   0  0  0  0  0  0  0  0  0  0  0  0
    9.4298    9.9768   22.6979 C   0  0  0  0  0  0  0  0  0  0  0  0
   10.5704   13.3777   23.6382 C   0  0  0  0  0  0  0  0  0  0  0  0
    8.2859    9.7576   23.6146 C   0  0  0  0  0  0  0  0  0  0  0  0
   10.1410   11.1326   22.7221 C   0  0  0  0  0  0  0  0  0  0  0  0
   14.3658   16.0152   21.7059 C   0  0  0  0  0  0  0  0  0  0  0  0
    5.9289   11.3658   28.9104 C   0  0  0  0  0  0  0  0  0  0  0  0
    9.9931    8.0512   21.0598 N   0  0  0  0  0  0  0  0  0  0  0  0
    7.2099   12.7256   26.3316 N   0  0  0  0  0  0  0  0  0  0  0  0
    6.9044   10.5681   25.3513 N   0  0  0  0  0  0  0  0  0  0  0  0
   11.2048   11.2959   21.8459 N   0  0  0  0  0  0  0  0  0  0  0  0
    9.8060   12.1722   23.6342 N   0  0  0  0  0  0  0  0  0  0  0  0
   10.3941   14.3528   24.3659 O   0  0  0  0  0  0  0  0  0  0  0  0
    7.6294    8.7229   23.6099 O   0  0  0  0  0  0  0  0  0  0  0  0
    4.2915   12.3478   27.1134 O   0  0  0  0  0  0  0  0  0  0  0  0
    4.7863    9.8779   27.1009 O   0  0  0  0  0  0  0  0  0  0  0  0
    5.2530   11.2557   27.2630 S   0  0  0  0  0  0  0  0  0  0  0  0
   14.6431   13.7989   20.1628 H   0  0  0  0  0  0  0  0  0  0  0  0
   13.2784   11.7548   20.2196 H   0  0  0  0  0  0  0  0  0  0  0  0
   12.2749   15.4958   23.3137 H   0  0  0  0  0  0  0  0  0  0  0  0
    8.7033   13.8923   25.6468 H   0  0  0  0  0  0  0  0  0  0  0  0
   13.9407   16.7388   20.9997 H   0  0  0  0  0  0  0  0  0  0  0  0
   14.4189   16.4856   22.6963 H   0  0  0  0  0  0  0  0  0  0  0  0
   15.3980   15.7974   21.4020 H   0  0  0  0  0  0  0  0  0  0  0  0
    5.1236   11.1901   29.6255 H   0  0  0  0  0  0  0  0  0  0  0  0
    6.7058   10.6070   29.0153 H   0  0  0  0  0  0  0  0  0  0  0  0
    6.3483   12.3640   29.0444 H   0  0  0  0  0  0  0  0  0  0  0  0
   11.4325   10.5492   21.2022 H   0  0  0  0  0  0  0  0  0  0  0  0
  1 12  1  0  0  0  0
  1 18  3  0  0  0  0
  2  3  1  0  0  0  0
  2  7  2  0  0  0  0
  3  8  2  0  0  0  0
  4  6  2  0  0  0  0
  4  7  1  0  0  0  0
  5  9  2  0  0  0  0
  5 19  1  0  0  0  0
  6  8  1  0  0  0  0
  6 13  1  0  0  0  0
  7 16  1  0  0  0  0
  8 21  1  0  0  0  0
  9 10  1  0  0  0  0
  9 22  1  0  0  0  0
 10 14  1  0  0  0  0
 10 20  2  0  0  0  0
 11 19  2  0  0  0  0
 11 20  1  0  0  0  0
 11 27  1  0  0  0  0
 12 14  1  0  0  0  0
 12 15  2  0  0  0  0
 13 22  1  0  0  0  0
 13 23  2  0  0  0  0
 14 24  2  0  0  0  0
 15 21  1  0  0  0  0
 15 22  1  0  0  0  0
 17 27  1  0  0  0  0
 25 27  2  0  0  0  0
 26 27  2  0  0  0  0
  2 28  1  0  0  0  0
  3 29  1  0  0  0  0
  4 30  1  0  0  0  0
  5 31  1  0  0  0  0
 16 32  1  0  0  0  0
 16 33  1  0  0  0  0
 16 34  1  0  0  0  0
 17 35  1  0  0  0  0
 17 36  1  0  0  0  0
 17 37  1  0  0  0  0
 21 38  1  0  0  0  0
M  END
> <id>
EN300-26612334

> <smiles>
CC=1C=CC=2NC3=C(C#N)C(=O)C=4N=C(N=CC4N3C(=O)C2C1)S(=O)(=O)C

> <IUPAC Name>
2-methanesulfonyl-8-methyl-6,13-dioxo-11,13-dihydro-6H-1,3,5a,11-tetraazatetraphene-12-carbonitrile

> <CAS>
301325-50-8

> <URL>
https://www.enaminestore.com/catalog/EN300-26612334

> <ROCS_ShapeQuery>
A71EV2A-x0451_0A_A71EV2A-x0310_0A_A71EV2A-x0416_0A_peptide

> <ROCS_TanimotoCombo>
0.510 

> <ROCS_ShapeTanimoto>
0.357 

> <ROCS_ColorTanimoto>
0.154 

> <ROCS_RefTversky>
0.322 

> <ROCS_RefColorTversky>
0.190 

> <ROCS_RefTverskyCombo>
0.511 

> <ROCS_FitTversky>
1.437 

> <ROCS_FitColorTversky>
0.448 

> <ROCS_FitTverskyCombo>
1.885 

> <ROCS_ColorScore>
-5.825

> <ROCS_Overlap>
2239.863

> <ROCS_Rank>
379                 

$$$$
untitled-dbase-23367_9
  -OEChem-11132313473D

 38 39  0     0  0  0  0  0  0999 V2000
    6.9733   10.6107   25.1912 C   0  0  0  0  0  0  0  0  0  0  0  0
    7.2366   11.9803   25.2109 C   0  0  0  0  0  0  0  0  0  0  0  0
    7.7533    9.7506   24.4068 C   0  0  0  0  0  0  0  0  0  0  0  0
    8.8228   10.2740   23.6587 C   0  0  0  0  0  0  0  0  0  0  0  0
    9.0730   11.6522   23.6771 C   0  0  0  0  0  0  0  0  0  0  0  0
    8.2835   12.5006   24.4531 C   0  0  0  0  0  0  0  0  0  0  0  0
   10.8708   13.3438   23.2115 C   0  0  0  0  0  0  0  0  0  0  0  0
    9.6574    9.3661   22.7916 C   0  0  0  0  0  0  0  0  0  0  0  0
    7.4842    8.2658   24.4222 C   0  0  0  0  0  0  0  0  0  0  0  0
    9.5035    7.8910   23.1661 C   0  0  0  0  0  0  0  0  0  0  0  0
   11.8844   15.9171   22.4833 C   0  0  0  0  0  0  0  0  0  0  0  0
   12.8091   14.7723   20.4477 C   0  0  0  0  0  0  0  0  0  0  0  0
   10.3271   14.8377   20.8267 C   0  0  0  0  0  0  0  0  0  0  0  0
   11.6988   14.7656   21.4961 C   0  0  0  0  0  0  0  0  0  0  0  0
    8.0879    7.5471   23.2941 N   0  0  0  0  0  0  0  0  0  0  0  0
   10.1169   12.2090   22.9320 N   0  0  0  0  0  0  0  0  0  0  0  0
   10.7624   14.0860   24.1800 O   0  0  0  0  0  0  0  0  0  0  0  0
   11.7912   13.5300   22.2146 O   0  0  0  0  0  0  0  0  0  0  0  0
    8.5226   13.8198   24.4797 F   0  0  0  0  0  0  0  0  0  0  0  0
    6.1570   10.2173   25.7916 H   0  0  0  0  0  0  0  0  0  0  0  0
    6.6248   12.6419   25.8170 H   0  0  0  0  0  0  0  0  0  0  0  0
    9.3766    9.4786   21.7379 H   0  0  0  0  0  0  0  0  0  0  0  0
   10.7091    9.6625   22.8953 H   0  0  0  0  0  0  0  0  0  0  0  0
    7.8777    7.8308   25.3485 H   0  0  0  0  0  0  0  0  0  0  0  0
    6.3997    8.1011   24.4206 H   0  0  0  0  0  0  0  0  0  0  0  0
    9.9812    7.2462   22.4177 H   0  0  0  0  0  0  0  0  0  0  0  0
   10.0127    7.6993   24.1170 H   0  0  0  0  0  0  0  0  0  0  0  0
   11.0893   15.9157   23.2375 H   0  0  0  0  0  0  0  0  0  0  0  0
   12.8500   15.8573   22.9958 H   0  0  0  0  0  0  0  0  0  0  0  0
   11.8234   16.8844   21.9716 H   0  0  0  0  0  0  0  0  0  0  0  0
   12.6799   13.9478   19.7373 H   0  0  0  0  0  0  0  0  0  0  0  0
   13.7891   14.6255   20.9160 H   0  0  0  0  0  0  0  0  0  0  0  0
   12.8300   15.7126   19.8874 H   0  0  0  0  0  0  0  0  0  0  0  0
   10.1937   14.0118   20.1185 H   0  0  0  0  0  0  0  0  0  0  0  0
    9.5169   14.7968   21.5618 H   0  0  0  0  0  0  0  0  0  0  0  0
   10.2247   15.7620   20.2466 H   0  0  0  0  0  0  0  0  0  0  0  0
    7.9975    6.5425   23.4477 H   0  0  0  0  0  0  0  0  0  0  0  0
   10.3581   11.7167   22.0672 H   0  0  0  0  0  0  0  0  0  0  0  0
  1  2  2  0  0  0  0
  1  3  1  0  0  0  0
  2  6  1  0  0  0  0
  3  4  2  0  0  0  0
  3  9  1  0  0  0  0
  4  5  1  0  0  0  0
  4  8  1  0  0  0  0
  5  6  2  0  0  0  0
  5 16  1  0  0  0  0
  6 19  1  0  0  0  0
  7 16  1  0  0  0  0
  7 17  2  0  0  0  0
  7 18  1  0  0  0  0
  8 10  1  0  0  0  0
  9 15  1  0  0  0  0
 10 15  1  0  0  0  0
 11 14  1  0  0  0  0
 12 14  1  0  0  0  0
 13 14  1  0  0  0  0
 14 18  1  0  0  0  0
  1 20  1  0  0  0  0
  2 21  1  0  0  0  0
  8 22  1  0  0  0  0
  8 23  1  0  0  0  0
  9 24  1  0  0  0  0
  9 25  1  0  0  0  0
 10 26  1  0  0  0  0
 10 27  1  0  0  0  0
 11 28  1  0  0  0  0
 11 29  1  0  0  0  0
 11 30  1  0  0  0  0
 12 31  1  0  0  0  0
 12 32  1  0  0  0  0
 12 33  1  0  0  0  0
 13 34  1  0  0  0  0
 13 35  1  0  0  0  0
 13 36  1  0  0  0  0
 15 37  1  0  0  0  0
 16 38  1  0  0  0  0
M  END
> <id>
EN300-328816

> <smiles>
CC(C)(C)OC(=O)NC=1C(F)=CC=C2CNCCC12

> <MDLNUMBER>
MFCD30488936

> <IUPAC Name>
tert-butyl N-(6-fluoro-1,2,3,4-tetrahydroisoquinolin-5-yl)carbamate

> <CAS>
2059936-53-5

> <URL>
https://www.enaminestore.com/catalog/EN300-328816

> <ROCS_ShapeQuery>
A71EV2A-x0451_0A_A71EV2A-x0310_0A_A71EV2A-x0416_0A_peptide

> <ROCS_TanimotoCombo>
0.510 

> <ROCS_ShapeTanimoto>
0.351 

> <ROCS_ColorTanimoto>
0.159 

> <ROCS_RefTversky>
0.304 

> <ROCS_RefColorTversky>
0.174 

> <ROCS_RefTverskyCombo>
0.478 

> <ROCS_FitTversky>
1.797 

> <ROCS_FitColorTversky>
0.645 

> <ROCS_FitTverskyCombo>
2.442 

> <ROCS_ColorScore>
-5.315

> <ROCS_Overlap>
2109.060

> <ROCS_Rank>
380                 

$$$$
untitled-dbase-153035_9
  -OEChem-11132313473D

 29 30  0     0  0  0  0  0  0999 V2000
    8.5105   12.0170   24.2825 C   0  0  0  0  0  0  0  0  0  0  0  0
    7.6260    9.7909   24.6813 C   0  0  0  0  0  0  0  0  0  0  0  0
    9.4324   11.4556   23.3569 C   0  0  0  0  0  0  0  0  0  0  0  0
    9.3473   10.1089   23.1950 C   0  0  0  0  0  0  0  0  0  0  0  0
   10.8110   13.4465   23.2481 C   0  0  0  0  0  0  0  0  0  0  0  0
   11.2512   16.2654   23.1363 C   0  0  0  0  0  0  0  0  0  0  0  0
   12.3896   15.8139   20.9433 C   0  0  0  0  0  0  0  0  0  0  0  0
    9.9524   15.2750   21.2214 C   0  0  0  0  0  0  0  0  0  0  0  0
   11.3108   15.3458   21.9175 C   0  0  0  0  0  0  0  0  0  0  0  0
    8.2463   13.2248   24.7332 N   0  0  0  0  0  0  0  0  0  0  0  0
    7.2094   13.0703   25.6349 N   0  0  0  0  0  0  0  0  0  0  0  0
    6.8440   11.7961   25.7358 N   0  0  0  0  0  0  0  0  0  0  0  0
    8.4597    9.2599   23.8407 N   0  0  0  0  0  0  0  0  0  0  0  0
    7.6552   11.1486   24.8951 N   0  0  0  0  0  0  0  0  0  0  0  0
   10.3116   12.2750   22.7139 N   0  0  0  0  0  0  0  0  0  0  0  0
   10.5412   13.9079   24.3527 O   0  0  0  0  0  0  0  0  0  0  0  0
   11.6663   14.0337   22.3552 O   0  0  0  0  0  0  0  0  0  0  0  0
   10.4226    9.2983   22.0874 Cl  0  0  0  0  0  0  0  0  0  0  0  0
    6.8950    9.1739   25.2272 H   0  0  0  0  0  0  0  0  0  0  0  0
   10.4779   15.9328   23.8380 H   0  0  0  0  0  0  0  0  0  0  0  0
   12.2096   16.2976   23.6646 H   0  0  0  0  0  0  0  0  0  0  0  0
   10.9834   17.2869   22.8427 H   0  0  0  0  0  0  0  0  0  0  0  0
   12.4359   15.1569   20.0673 H   0  0  0  0  0  0  0  0  0  0  0  0
   13.3804   15.7758   21.4104 H   0  0  0  0  0  0  0  0  0  0  0  0
   12.2074   16.8373   20.5999 H   0  0  0  0  0  0  0  0  0  0  0  0
    9.9948   14.6154   20.3471 H   0  0  0  0  0  0  0  0  0  0  0  0
    9.1726   14.9057   21.8954 H   0  0  0  0  0  0  0  0  0  0  0  0
    9.6529   16.2617   20.8500 H   0  0  0  0  0  0  0  0  0  0  0  0
   10.6188   12.0072   21.7834 H   0  0  0  0  0  0  0  0  0  0  0  0
  1  3  1  0  0  0  0
  1 10  2  0  0  0  0
  1 14  1  0  0  0  0
  2 13  2  0  0  0  0
  2 14  1  0  0  0  0
  3  4  2  0  0  0  0
  3 15  1  0  0  0  0
  4 13  1  0  0  0  0
  4 18  1  0  0  0  0
  5 15  1  0  0  0  0
  5 16  2  0  0  0  0
  5 17  1  0  0  0  0
  6  9  1  0  0  0  0
  7  9  1  0  0  0  0
  8  9  1  0  0  0  0
  9 17  1  0  0  0  0
 10 11  1  0  0  0  0
 11 12  2  0  0  0  0
 12 14  1  0  0  0  0
  2 19  1  0  0  0  0
  6 20  1  0  0  0  0
  6 21  1  0  0  0  0
  6 22  1  0  0  0  0
  7 23  1  0  0  0  0
  7 24  1  0  0  0  0
  7 25  1  0  0  0  0
  8 26  1  0  0  0  0
  8 27  1  0  0  0  0
  8 28  1  0  0  0  0
 15 29  1  0  0  0  0
M  END
> <id>
EN300-28283400

> <smiles>
CC(C)(C)OC(=O)NC1=C(Cl)N=CN2N=NN=C12

> <IUPAC Name>
tert-butyl N-{7-chloro-[1,2,3,4]tetrazolo[1,5-c]pyrimidin-8-yl}carbamate

> <CAS>
2680844-04-4

> <URL>
https://www.enaminestore.com/catalog/EN300-28283400

> <ROCS_ShapeQuery>
A71EV2A-x0451_0A_A71EV2A-x0310_0A_A71EV2A-x0416_0A_peptide

> <ROCS_TanimotoCombo>
0.510 

> <ROCS_ShapeTanimoto>
0.350 

> <ROCS_ColorTanimoto>
0.161 

> <ROCS_RefTversky>
0.302 

> <ROCS_RefColorTversky>
0.187 

> <ROCS_RefTverskyCombo>
0.489 

> <ROCS_FitTversky>
1.816 

> <ROCS_FitColorTversky>
0.531 

> <ROCS_FitTverskyCombo>
2.347 

> <ROCS_ColorScore>
-5.731

> <ROCS_Overlap>
2096.486

> <ROCS_Rank>
381                 

$$$$
untitled-dbase-77740_212
  -OEChem-11132313473D

 37 38  0     1  0  0  0  0  0999 V2000
    6.9436   12.8864   25.6565 C   0  0  0  0  0  0  0  0  0  0  0  0
    6.2303   11.6948   25.8561 C   0  0  0  0  0  0  0  0  0  0  0  0
    8.1658   12.8809   24.9803 C   0  0  0  0  0  0  0  0  0  0  0  0
    6.7290   10.4794   25.3837 C   0  0  0  0  0  0  0  0  0  0  0  0
    8.6486   11.6744   24.4963 C   0  0  0  0  0  0  0  0  0  0  0  0
    7.9353   10.4828   24.7013 C   0  0  0  0  0  0  0  0  0  0  0  0
   10.5846   13.6966   23.0219 C   0  0  0  0  0  0  0  0  0  0  0  0
    9.6391   10.0204   23.1635 C   0  0  0  0  0  0  0  0  0  0  0  0
    9.9456   11.3959   23.7879 C   0  0  1  0  0  0  0  0  0  0  0  0
    8.6899    9.3125   24.1436 C   0  0  2  0  0  0  0  0  0  0  0  0
   13.2304   13.8315   21.9584 C   0  0  0  0  0  0  0  0  0  0  0  0
   12.3220   15.5954   20.4180 C   0  0  0  0  0  0  0  0  0  0  0  0
   12.3094   15.9760   22.9006 C   0  0  0  0  0  0  0  0  0  0  0  0
   12.1875   14.9352   21.7885 C   0  0  0  0  0  0  0  0  0  0  0  0
   10.3032   12.3654   22.7648 N   0  0  0  0  0  0  0  0  0  0  0  0
   10.5695   14.2248   24.1289 O   0  0  0  0  0  0  0  0  0  0  0  0
    7.8430    8.4072   23.4643 O   0  0  0  0  0  0  0  0  0  0  0  0
   10.8844   14.3452   21.8571 O   0  0  0  0  0  0  0  0  0  0  0  0
    6.5440   13.8215   26.0397 H   0  0  0  0  0  0  0  0  0  0  0  0
    5.2849   11.7183   26.3913 H   0  0  0  0  0  0  0  0  0  0  0  0
    8.7195   13.8039   24.8444 H   0  0  0  0  0  0  0  0  0  0  0  0
    6.1823    9.5582   25.5542 H   0  0  0  0  0  0  0  0  0  0  0  0
    9.1438   10.1322   22.1875 H   0  0  0  0  0  0  0  0  0  0  0  0
   10.5481    9.4357   22.9844 H   0  0  0  0  0  0  0  0  0  0  0  0
   10.7676   11.3296   24.5014 H   0  0  0  0  0  0  0  0  0  0  0  0
    9.2350    8.7964   24.9412 H   0  0  0  0  0  0  0  0  0  0  0  0
   13.1372   13.3552   22.9409 H   0  0  0  0  0  0  0  0  0  0  0  0
   13.1312   13.0606   21.1873 H   0  0  0  0  0  0  0  0  0  0  0  0
   14.2456   14.2418   21.9089 H   0  0  0  0  0  0  0  0  0  0  0  0
   11.5756   16.3880   20.2918 H   0  0  0  0  0  0  0  0  0  0  0  0
   12.1412   14.8705   19.6161 H   0  0  0  0  0  0  0  0  0  0  0  0
   13.3167   16.0299   20.2748 H   0  0  0  0  0  0  0  0  0  0  0  0
   11.5614   16.7678   22.7789 H   0  0  0  0  0  0  0  0  0  0  0  0
   12.1786   15.5261   23.8901 H   0  0  0  0  0  0  0  0  0  0  0  0
   13.2883   16.4678   22.8683 H   0  0  0  0  0  0  0  0  0  0  0  0
   10.3497   12.0448   21.7973 H   0  0  0  0  0  0  0  0  0  0  0  0
    8.4020    7.6821   23.1347 H   0  0  0  0  0  0  0  0  0  0  0  0
  1  2  2  0  0  0  0
  1  3  1  0  0  0  0
  2  4  1  0  0  0  0
  3  5  2  0  0  0  0
  4  6  2  0  0  0  0
  5  6  1  0  0  0  0
  5  9  1  0  0  0  0
  6 10  1  0  0  0  0
  7 15  1  0  0  0  0
  7 16  2  0  0  0  0
  7 18  1  0  0  0  0
  8  9  1  0  0  0  0
  8 10  1  0  0  0  0
  9 15  1  0  0  0  0
 10 17  1  0  0  0  0
 11 14  1  0  0  0  0
 12 14  1  0  0  0  0
 13 14  1  0  0  0  0
 14 18  1  0  0  0  0
  1 19  1  0  0  0  0
  2 20  1  0  0  0  0
  3 21  1  0  0  0  0
  4 22  1  0  0  0  0
  8 23  1  0  0  0  0
  8 24  1  0  0  0  0
  9 25  1  0  0  0  0
 10 26  1  0  0  0  0
 11 27  1  0  0  0  0
 11 28  1  0  0  0  0
 11 29  1  0  0  0  0
 12 30  1  0  0  0  0
 12 31  1  0  0  0  0
 12 32  1  0  0  0  0
 13 33  1  0  0  0  0
 13 34  1  0  0  0  0
 13 35  1  0  0  0  0
 15 36  1  0  0  0  0
 17 37  1  0  0  0  0
M  END
> <id>
EN300-6898749

> <smiles>
CC(C)(C)OC(=O)NC1CC(O)C=2C=CC=CC12

> <MDLNUMBER>
MFCD09864900

> <IUPAC Name>
tert-butyl N-(3-hydroxy-2,3-dihydro-1H-inden-1-yl)carbamate

> <CAS>
1086378-71-3

> <URL>
https://www.enaminestore.com/catalog/EN300-6898749

> <ROCS_ShapeQuery>
A71EV2A-x0451_0A_A71EV2A-x0310_0A_A71EV2A-x0416_0A_peptide

> <ROCS_TanimotoCombo>
0.510 

> <ROCS_ShapeTanimoto>
0.344 

> <ROCS_ColorTanimoto>
0.166 

> <ROCS_RefTversky>
0.297 

> <ROCS_RefColorTversky>
0.181 

> <ROCS_RefTverskyCombo>
0.479 

> <ROCS_FitTversky>
1.839 

> <ROCS_FitColorTversky>
0.669 

> <ROCS_FitTverskyCombo>
2.508 

> <ROCS_ColorScore>
-5.518

> <ROCS_Overlap>
2062.955

> <ROCS_Rank>
382                 

$$$$
untitled-dbase-151256_44
  -OEChem-11132313473D

 30 30  0     0  0  0  0  0  0999 V2000
    9.2386   11.5116   23.5378 C   0  0  0  0  0  0  0  0  0  0  0  0
    9.1437   10.1392   23.4280 C   0  0  0  0  0  0  0  0  0  0  0  0
    8.3040   12.1110   24.3572 C   0  0  0  0  0  0  0  0  0  0  0  0
    7.3582   10.0998   24.8343 C   0  0  0  0  0  0  0  0  0  0  0  0
   10.8301   13.4316   23.2352 C   0  0  0  0  0  0  0  0  0  0  0  0
   10.0991    9.3763   22.5693 C   0  0  0  0  0  0  0  0  0  0  0  0
   11.5456   16.1516   22.7165 C   0  0  0  0  0  0  0  0  0  0  0  0
   12.6364   15.2736   20.6312 C   0  0  0  0  0  0  0  0  0  0  0  0
   10.1576   15.0213   20.9471 C   0  0  0  0  0  0  0  0  0  0  0  0
   11.5156   15.0612   21.6464 C   0  0  0  0  0  0  0  0  0  0  0  0
    8.2125    9.3989   24.0645 N   0  0  0  0  0  0  0  0  0  0  0  0
    7.3461   11.4331   25.0230 N   0  0  0  0  0  0  0  0  0  0  0  0
   10.2314   12.2473   22.8515 N   0  0  0  0  0  0  0  0  0  0  0  0
   10.6192   14.0839   24.2503 O   0  0  0  0  0  0  0  0  0  0  0  0
   11.7396   13.7995   22.2769 O   0  0  0  0  0  0  0  0  0  0  0  0
    8.2569   13.8104   24.6234 Cl  0  0  0  0  0  0  0  0  0  0  0  0
    6.1614    9.2017   25.6592 Cl  0  0  0  0  0  0  0  0  0  0  0  0
   10.9761    9.0746   23.1531 H   0  0  0  0  0  0  0  0  0  0  0  0
    9.6276    8.4766   22.1554 H   0  0  0  0  0  0  0  0  0  0  0  0
   10.4360    9.9809   21.7183 H   0  0  0  0  0  0  0  0  0  0  0  0
   10.7425   16.0027   23.4471 H   0  0  0  0  0  0  0  0  0  0  0  0
   12.5019   16.1677   23.2493 H   0  0  0  0  0  0  0  0  0  0  0  0
   11.3801   17.1398   22.2724 H   0  0  0  0  0  0  0  0  0  0  0  0
   12.6187   14.4935   19.8616 H   0  0  0  0  0  0  0  0  0  0  0  0
   13.6181   15.2084   21.1142 H   0  0  0  0  0  0  0  0  0  0  0  0
   12.5563   16.2481   20.1389 H   0  0  0  0  0  0  0  0  0  0  0  0
   10.1358   14.2392   20.1795 H   0  0  0  0  0  0  0  0  0  0  0  0
    9.3445   14.8328   21.6556 H   0  0  0  0  0  0  0  0  0  0  0  0
    9.9573   15.9670   20.4307 H   0  0  0  0  0  0  0  0  0  0  0  0
   10.5435   11.8564   21.9658 H   0  0  0  0  0  0  0  0  0  0  0  0
  1  2  1  0  0  0  0
  1  3  2  0  0  0  0
  1 13  1  0  0  0  0
  2  6  1  0  0  0  0
  2 11  2  0  0  0  0
  3 12  1  0  0  0  0
  3 16  1  0  0  0  0
  4 11  1  0  0  0  0
  4 12  2  0  0  0  0
  4 17  1  0  0  0  0
  5 13  1  0  0  0  0
  5 14  2  0  0  0  0
  5 15  1  0  0  0  0
  7 10  1  0  0  0  0
  8 10  1  0  0  0  0
  9 10  1  0  0  0  0
 10 15  1  0  0  0  0
  6 18  1  0  0  0  0
  6 19  1  0  0  0  0
  6 20  1  0  0  0  0
  7 21  1  0  0  0  0
  7 22  1  0  0  0  0
  7 23  1  0  0  0  0
  8 24  1  0  0  0  0
  8 25  1  0  0  0  0
  8 26  1  0  0  0  0
  9 27  1  0  0  0  0
  9 28  1  0  0  0  0
  9 29  1  0  0  0  0
 13 30  1  0  0  0  0
M  END
> <id>
EN300-28285256

> <smiles>
CC=1N=C(Cl)N=C(Cl)C1NC(=O)OC(C)(C)C

> <MDLNUMBER>
MFCD33466091

> <IUPAC Name>
tert-butyl N-(2,4-dichloro-6-methylpyrimidin-5-yl)carbamate

> <CAS>
2680730-54-3

> <URL>
https://www.enaminestore.com/catalog/EN300-28285256

> <ROCS_ShapeQuery>
A71EV2A-x0451_0A_A71EV2A-x0310_0A_A71EV2A-x0416_0A_peptide

> <ROCS_TanimotoCombo>
0.510 

> <ROCS_ShapeTanimoto>
0.324 

> <ROCS_ColorTanimoto>
0.186 

> <ROCS_RefTversky>
0.282 

> <ROCS_RefColorTversky>
0.195 

> <ROCS_RefTverskyCombo>
0.477 

> <ROCS_FitTversky>
1.842 

> <ROCS_FitColorTversky>
0.813 

> <ROCS_FitTverskyCombo>
2.655 

> <ROCS_ColorScore>
-5.924

> <ROCS_Overlap>
1956.180

> <ROCS_Rank>
383                 

$$$$
untitled-dbase-174445_79
  -OEChem-11132313473D

 30 31  0     0  0  0  0  0  0999 V2000
    6.7591   12.9821   25.8596 C   0  0  0  0  0  0  0  0  0  0  0  0
    7.7468   13.1222   24.8850 C   0  0  0  0  0  0  0  0  0  0  0  0
    7.0349   10.6055   25.7460 C   0  0  0  0  0  0  0  0  0  0  0  0
    6.4010   11.7187   26.2917 C   0  0  0  0  0  0  0  0  0  0  0  0
    8.4136   12.0088   24.3208 C   0  0  0  0  0  0  0  0  0  0  0  0
    8.0453   10.7206   24.7624 C   0  0  0  0  0  0  0  0  0  0  0  0
    9.6034    9.0936   23.5364 C   0  0  0  0  0  0  0  0  0  0  0  0
    5.3756   11.5550   27.3094 C   0  0  0  0  0  0  0  0  0  0  0  0
   10.2224   13.3834   23.3365 C   0  0  0  0  0  0  0  0  0  0  0  0
   10.3697   10.1131   22.7462 C   0  0  0  0  0  0  0  0  0  0  0  0
    9.4881   11.2311   22.2500 C   0  0  0  0  0  0  0  0  0  0  0  0
   10.7815   13.8664   22.0183 C   0  0  0  0  0  0  0  0  0  0  0  0
    8.5981    9.4702   24.3850 N   0  0  0  0  0  0  0  0  0  0  0  0
    9.3769   12.2568   23.2858 N   0  0  0  0  0  0  0  0  0  0  0  0
    9.9225    7.9019   23.4402 O   0  0  0  0  0  0  0  0  0  0  0  0
    4.2036   11.9345   27.2131 O   0  0  0  0  0  0  0  0  0  0  0  0
   10.5588   13.9767   24.3652 O   0  0  0  0  0  0  0  0  0  0  0  0
    5.8409   10.9203   28.4203 O   0  0  0  0  0  0  0  0  0  0  0  0
   10.3432   13.0923   21.0110 F   0  0  0  0  0  0  0  0  0  0  0  0
   10.3972   15.1318   21.7793 F   0  0  0  0  0  0  0  0  0  0  0  0
   12.1248   13.8264   22.0308 F   0  0  0  0  0  0  0  0  0  0  0  0
    6.2940   13.8695   26.2805 H   0  0  0  0  0  0  0  0  0  0  0  0
    8.0228   14.1390   24.6145 H   0  0  0  0  0  0  0  0  0  0  0  0
    6.7260    9.6176   26.0896 H   0  0  0  0  0  0  0  0  0  0  0  0
   11.1261   10.5397   23.4173 H   0  0  0  0  0  0  0  0  0  0  0  0
   10.9084    9.6091   21.9358 H   0  0  0  0  0  0  0  0  0  0  0  0
    9.8613   11.6875   21.3241 H   0  0  0  0  0  0  0  0  0  0  0  0
    8.5026   10.8297   22.0037 H   0  0  0  0  0  0  0  0  0  0  0  0
    8.1491    8.6808   24.8459 H   0  0  0  0  0  0  0  0  0  0  0  0
    5.1560   10.8041   29.1129 H   0  0  0  0  0  0  0  0  0  0  0  0
  1  2  1  0  0  0  0
  1  4  2  0  0  0  0
  2  5  2  0  0  0  0
  3  4  1  0  0  0  0
  3  6  2  0  0  0  0
  4  8  1  0  0  0  0
  5  6  1  0  0  0  0
  5 14  1  0  0  0  0
  6 13  1  0  0  0  0
  7 10  1  0  0  0  0
  7 13  1  0  0  0  0
  7 15  2  0  0  0  0
  8 16  2  0  0  0  0
  8 18  1  0  0  0  0
  9 12  1  0  0  0  0
  9 14  1  0  0  0  0
  9 17  2  0  0  0  0
 10 11  1  0  0  0  0
 11 14  1  0  0  0  0
 12 19  1  0  0  0  0
 12 20  1  0  0  0  0
 12 21  1  0  0  0  0
  1 22  1  0  0  0  0
  2 23  1  0  0  0  0
  3 24  1  0  0  0  0
 10 25  1  0  0  0  0
 10 26  1  0  0  0  0
 11 27  1  0  0  0  0
 11 28  1  0  0  0  0
 13 29  1  0  0  0  0
 18 30  1  0  0  0  0
M  END
> <id>
EN300-39702191

> <smiles>
OC(=O)C=1C=CC=2N(CCC(=O)NC2C1)C(=O)C(F)(F)F

> <IUPAC Name>
4-oxo-1-(2,2,2-trifluoroacetyl)-2,3,4,5-tetrahydro-1H-1,5-benzodiazepine-7-carboxylic acid

> <URL>
https://www.enaminestore.com/catalog/EN300-39702191

> <ROCS_ShapeQuery>
A71EV2A-x0451_0A_A71EV2A-x0310_0A_A71EV2A-x0416_0A_peptide

> <ROCS_TanimotoCombo>
0.510 

> <ROCS_ShapeTanimoto>
0.354 

> <ROCS_ColorTanimoto>
0.156 

> <ROCS_RefTversky>
0.310 

> <ROCS_RefColorTversky>
0.176 

> <ROCS_RefTverskyCombo>
0.486 

> <ROCS_FitTversky>
1.672 

> <ROCS_FitColorTversky>
0.584 

> <ROCS_FitTverskyCombo>
2.255 

> <ROCS_ColorScore>
-5.368

> <ROCS_Overlap>
2152.575

> <ROCS_Rank>
384                 

$$$$
untitled-dbase-174110_5
  -OEChem-11132313473D

 35 38  0     1  0  0  0  0  0999 V2000
    6.9133   12.5201   25.9993 C   0  0  0  0  0  0  0  0  0  0  0  0
    6.7431   11.1817   25.5728 C   0  0  0  0  0  0  0  0  0  0  0  0
    8.0102   13.2922   25.5786 C   0  0  0  0  0  0  0  0  0  0  0  0
    9.7889    9.7480   22.9617 C   0  0  0  0  0  0  0  0  0  0  0  0
    8.7417    8.8756   23.3087 C   0  0  0  0  0  0  0  0  0  0  0  0
    7.6830   10.5857   24.7050 C   0  0  0  0  0  0  0  0  0  0  0  0
    8.7450   11.3986   24.3240 C   0  0  0  0  0  0  0  0  0  0  0  0
    8.9187   12.6952   24.7311 C   0  0  0  0  0  0  0  0  0  0  0  0
    9.7639   11.0217   23.4921 C   0  0  0  0  0  0  0  0  0  0  0  0
    7.6960    9.2808   24.1700 C   0  0  0  0  0  0  0  0  0  0  0  0
   10.1616   13.1899   24.1007 C   0  0  0  0  0  0  0  0  0  0  0  0
   11.7105   14.2832   20.6039 C   0  0  0  0  0  0  0  0  0  0  0  0
   12.5457   13.3938   22.7937 C   0  0  0  0  0  0  0  0  0  0  0  0
   10.8955   13.0288   20.4103 C   0  0  0  0  0  0  0  0  0  0  0  0
   11.5540   11.8298   21.0693 C   0  0  0  0  0  0  0  0  0  0  0  0
   11.8284   12.0842   22.5432 C   0  0  2  0  0  0  0  0  0  0  0  0
   12.4446   14.3452   21.7832 N   0  0  0  0  0  0  0  0  0  0  0  0
   10.6373   12.1127   23.3490 N   0  0  0  0  0  0  0  0  0  0  0  0
    6.6702    8.3609   24.4822 N   0  0  0  0  0  0  0  0  0  0  0  0
   10.6144   14.3088   24.2490 O   0  0  0  0  0  0  0  0  0  0  0  0
   11.6680   15.2082   19.7931 O   0  0  0  0  0  0  0  0  0  0  0  0
   13.1016   13.6286   23.8677 O   0  0  0  0  0  0  0  0  0  0  0  0
    6.1776   12.9603   26.6685 H   0  0  0  0  0  0  0  0  0  0  0  0
    5.8788   10.6237   25.9241 H   0  0  0  0  0  0  0  0  0  0  0  0
    8.1282   14.3162   25.9134 H   0  0  0  0  0  0  0  0  0  0  0  0
   10.5814    9.4177   22.2997 H   0  0  0  0  0  0  0  0  0  0  0  0
    8.7446    7.8672   22.8990 H   0  0  0  0  0  0  0  0  0  0  0  0
    9.9027   13.1876   20.8456 H   0  0  0  0  0  0  0  0  0  0  0  0
   10.7736   12.8641   19.3336 H   0  0  0  0  0  0  0  0  0  0  0  0
   10.8985   10.9456   20.9500 H   0  0  0  0  0  0  0  0  0  0  0  0
   12.4950   11.5925   20.5403 H   0  0  0  0  0  0  0  0  0  0  0  0
   12.4693   11.2779   22.9636 H   0  0  0  0  0  0  0  0  0  0  0  0
   12.9785   15.1999   21.9256 H   0  0  0  0  0  0  0  0  0  0  0  0
    5.9567    8.6298   25.1272 H   0  0  0  0  0  0  0  0  0  0  0  0
    6.7292    7.4294   24.1266 H   0  0  0  0  0  0  0  0  0  0  0  0
  1  2  1  0  0  0  0
  1  3  2  0  0  0  0
  2  6  2  0  0  0  0
  3  8  1  0  0  0  0
  4  5  1  0  0  0  0
  4  9  2  0  0  0  0
  5 10  2  0  0  0  0
  6  7  1  0  0  0  0
  6 10  1  0  0  0  0
  7  8  2  0  0  0  0
  7  9  1  0  0  0  0
  8 11  1  0  0  0  0
  9 18  1  0  0  0  0
 10 19  1  0  0  0  0
 11 18  1  0  0  0  0
 11 20  2  0  0  0  0
 12 14  1  0  0  0  0
 12 17  1  0  0  0  0
 12 21  2  0  0  0  0
 13 16  1  0  0  0  0
 13 17  1  0  0  0  0
 13 22  2  0  0  0  0
 14 15  1  0  0  0  0
 15 16  1  0  0  0  0
 16 18  1  0  0  0  0
  1 23  1  0  0  0  0
  2 24  1  0  0  0  0
  3 25  1  0  0  0  0
  4 26  1  0  0  0  0
  5 27  1  0  0  0  0
 14 28  1  0  0  0  0
 14 29  1  0  0  0  0
 15 30  1  0  0  0  0
 15 31  1  0  0  0  0
 16 32  1  0  0  0  0
 17 33  1  0  0  0  0
 19 34  1  0  0  0  0
 19 35  1  0  0  0  0
M  END
> <id>
EN300-43359137

> <smiles>
NC=1C=CC=2N(C3CCC(=O)NC3=O)C(=O)C4=CC=CC1C24

> <IUPAC Name>
3-{9-amino-3-oxo-2-azatricyclo[6.3.1.0,4,12]dodeca-1(12),4,6,8,10-pentaen-2-yl}piperidine-2,6-dione

> <URL>
https://www.enaminestore.com/catalog/EN300-43359137

> <ROCS_ShapeQuery>
A71EV2A-x0451_0A_A71EV2A-x0310_0A_A71EV2A-x0416_0A_peptide

> <ROCS_TanimotoCombo>
0.510 

> <ROCS_ShapeTanimoto>
0.365 

> <ROCS_ColorTanimoto>
0.145 

> <ROCS_RefTversky>
0.320 

> <ROCS_RefColorTversky>
0.173 

> <ROCS_RefTverskyCombo>
0.492 

> <ROCS_FitTversky>
1.637 

> <ROCS_FitColorTversky>
0.475 

> <ROCS_FitTverskyCombo>
2.113 

> <ROCS_ColorScore>
-5.291

> <ROCS_Overlap>
2221.556

> <ROCS_Rank>
385                 

$$$$
untitled-dbase-87549_20
  -OEChem-11132313473D

 36 37  0     0  0  0  0  0  0999 V2000
    7.0024   12.8129   25.8509 C   0  0  0  0  0  0  0  0  0  0  0  0
    6.4342   11.5771   26.1536 C   0  0  0  0  0  0  0  0  0  0  0  0
    8.0366   12.9155   24.9134 C   0  0  0  0  0  0  0  0  0  0  0  0
    6.8795   10.4073   25.5314 C   0  0  0  0  0  0  0  0  0  0  0  0
    9.5069   10.1332   23.0540 C   0  0  0  0  0  0  0  0  0  0  0  0
    8.5021   11.7498   24.2732 C   0  0  0  0  0  0  0  0  0  0  0  0
    7.9140   10.5250   24.5964 C   0  0  0  0  0  0  0  0  0  0  0  0
    9.5052   11.4871   23.2988 C   0  0  0  0  0  0  0  0  0  0  0  0
   10.8471   13.6079   23.1872 C   0  0  0  0  0  0  0  0  0  0  0  0
   11.2130   16.4388   23.0100 C   0  0  0  0  0  0  0  0  0  0  0  0
   12.2575   15.9779   20.7727 C   0  0  0  0  0  0  0  0  0  0  0  0
    9.8496   15.3875   21.1742 C   0  0  0  0  0  0  0  0  0  0  0  0
    8.2434    8.1461   23.8639 C   0  0  0  0  0  0  0  0  0  0  0  0
   11.2371   15.5010   21.8039 C   0  0  0  0  0  0  0  0  0  0  0  0
    8.5436    9.5615   23.8411 N   0  0  0  0  0  0  0  0  0  0  0  0
   10.3409   12.3960   22.6899 N   0  0  0  0  0  0  0  0  0  0  0  0
   10.6282   14.0919   24.2910 O   0  0  0  0  0  0  0  0  0  0  0  0
   11.6452   14.2009   22.2455 O   0  0  0  0  0  0  0  0  0  0  0  0
    6.6392   13.7087   26.3477 H   0  0  0  0  0  0  0  0  0  0  0  0
    5.6320   11.5205   26.8849 H   0  0  0  0  0  0  0  0  0  0  0  0
    8.4691   13.8862   24.6883 H   0  0  0  0  0  0  0  0  0  0  0  0
    6.4335    9.4478   25.7710 H   0  0  0  0  0  0  0  0  0  0  0  0
   10.1103    9.5301   22.3880 H   0  0  0  0  0  0  0  0  0  0  0  0
   10.4818   16.0999   23.7526 H   0  0  0  0  0  0  0  0  0  0  0  0
   12.1942   16.5017   23.4918 H   0  0  0  0  0  0  0  0  0  0  0  0
   10.9075   17.4489   22.7140 H   0  0  0  0  0  0  0  0  0  0  0  0
   12.2782   15.3080   19.9055 H   0  0  0  0  0  0  0  0  0  0  0  0
   13.2698   15.9703   21.1928 H   0  0  0  0  0  0  0  0  0  0  0  0
   12.0350   16.9911   20.4227 H   0  0  0  0  0  0  0  0  0  0  0  0
    9.8666   14.7149   20.3090 H   0  0  0  0  0  0  0  0  0  0  0  0
    9.1114   15.0114   21.8899 H   0  0  0  0  0  0  0  0  0  0  0  0
    9.5096   16.3609   20.8024 H   0  0  0  0  0  0  0  0  0  0  0  0
    8.8730    7.6801   24.6264 H   0  0  0  0  0  0  0  0  0  0  0  0
    7.1856    8.0020   24.1010 H   0  0  0  0  0  0  0  0  0  0  0  0
    8.4515    7.7167   22.8799 H   0  0  0  0  0  0  0  0  0  0  0  0
   10.6379   12.1518   21.7302 H   0  0  0  0  0  0  0  0  0  0  0  0
  1  2  2  0  0  0  0
  1  3  1  0  0  0  0
  2  4  1  0  0  0  0
  3  6  2  0  0  0  0
  4  7  2  0  0  0  0
  5  8  2  0  0  0  0
  5 15  1  0  0  0  0
  6  7  1  0  0  0  0
  6  8  1  0  0  0  0
  7 15  1  0  0  0  0
  8 16  1  0  0  0  0
  9 16  1  0  0  0  0
  9 17  2  0  0  0  0
  9 18  1  0  0  0  0
 10 14  1  0  0  0  0
 11 14  1  0  0  0  0
 12 14  1  0  0  0  0
 13 15  1  0  0  0  0
 14 18  1  0  0  0  0
  1 19  1  0  0  0  0
  2 20  1  0  0  0  0
  3 21  1  0  0  0  0
  4 22  1  0  0  0  0
  5 23  1  0  0  0  0
 10 24  1  0  0  0  0
 10 25  1  0  0  0  0
 10 26  1  0  0  0  0
 11 27  1  0  0  0  0
 11 28  1  0  0  0  0
 11 29  1  0  0  0  0
 12 30  1  0  0  0  0
 12 31  1  0  0  0  0
 12 32  1  0  0  0  0
 13 33  1  0  0  0  0
 13 34  1  0  0  0  0
 13 35  1  0  0  0  0
 16 36  1  0  0  0  0
M  END
> <id>
EN300-215969

> <smiles>
CN1C=C(NC(=O)OC(C)(C)C)C=2C=CC=CC12

> <MDLNUMBER>
MFCD24467076

> <IUPAC Name>
tert-butyl N-(1-methyl-1H-indol-3-yl)carbamate

> <CAS>
933800-38-5

> <Purity>
95

> <URL>
https://www.enaminestore.com/catalog/EN300-215969

> <ROCS_ShapeQuery>
A71EV2A-x0451_0A_A71EV2A-x0310_0A_A71EV2A-x0416_0A_peptide

> <ROCS_TanimotoCombo>
0.510 

> <ROCS_ShapeTanimoto>
0.347 

> <ROCS_ColorTanimoto>
0.163 

> <ROCS_RefTversky>
0.300 

> <ROCS_RefColorTversky>
0.169 

> <ROCS_RefTverskyCombo>
0.469 

> <ROCS_FitTversky>
1.830 

> <ROCS_FitColorTversky>
0.810 

> <ROCS_FitTverskyCombo>
2.640 

> <ROCS_ColorScore>
-5.148

> <ROCS_Overlap>
2080.648

> <ROCS_Rank>
386                 

$$$$
untitled-dbase-104656_28
  -OEChem-11132313473D

 33 34  0     0  0  0  0  0  0999 V2000
    6.7038   10.5751   25.5593 C   0  0  0  0  0  0  0  0  0  0  0  0
    8.7167   13.0199   23.8421 C   0  0  0  0  0  0  0  0  0  0  0  0
    6.0439   11.7318   25.9060 C   0  0  0  0  0  0  0  0  0  0  0  0
    7.8015   10.9358   24.7301 C   0  0  0  0  0  0  0  0  0  0  0  0
    7.7754   12.3247   24.5955 C   0  0  0  0  0  0  0  0  0  0  0  0
    9.6758   12.2199   23.2407 C   0  0  0  0  0  0  0  0  0  0  0  0
    8.8143   10.2229   24.0809 C   0  0  0  0  0  0  0  0  0  0  0  0
   11.1632   14.1507   22.6322 C   0  0  0  0  0  0  0  0  0  0  0  0
   11.7370   16.7630   21.6192 C   0  0  0  0  0  0  0  0  0  0  0  0
   12.9780   15.5778   19.7850 C   0  0  0  0  0  0  0  0  0  0  0  0
   10.5067   15.2213   20.0559 C   0  0  0  0  0  0  0  0  0  0  0  0
   11.8245   15.4879   20.7818 C   0  0  0  0  0  0  0  0  0  0  0  0
    9.7444   10.8723   23.3402 N   0  0  0  0  0  0  0  0  0  0  0  0
    6.6980   12.7822   25.3197 N   0  0  0  0  0  0  0  0  0  0  0  0
   10.6483   12.8709   22.4702 N   0  0  0  0  0  0  0  0  0  0  0  0
   10.8624   14.9693   23.4923 O   0  0  0  0  0  0  0  0  0  0  0  0
    8.9086    8.8554   24.1661 O   0  0  0  0  0  0  0  0  0  0  0  0
   12.0946   14.3860   21.6561 O   0  0  0  0  0  0  0  0  0  0  0  0
    6.4233    9.5780   25.8700 H   0  0  0  0  0  0  0  0  0  0  0  0
    8.6914   14.0979   23.7403 H   0  0  0  0  0  0  0  0  0  0  0  0
    5.1686   11.9005   26.5174 H   0  0  0  0  0  0  0  0  0  0  0  0
   10.9102   16.7024   22.3360 H   0  0  0  0  0  0  0  0  0  0  0  0
   12.6639   16.9468   22.1723 H   0  0  0  0  0  0  0  0  0  0  0  0
   11.5336   17.6338   20.9856 H   0  0  0  0  0  0  0  0  0  0  0  0
   13.0446   14.6650   19.1820 H   0  0  0  0  0  0  0  0  0  0  0  0
   13.9375   15.6741   20.3060 H   0  0  0  0  0  0  0  0  0  0  0  0
   12.8629   16.4318   19.1097 H   0  0  0  0  0  0  0  0  0  0  0  0
   10.5692   14.3067   19.4551 H   0  0  0  0  0  0  0  0  0  0  0  0
    9.6733   15.1171   20.7582 H   0  0  0  0  0  0  0  0  0  0  0  0
   10.2746   16.0342   19.3583 H   0  0  0  0  0  0  0  0  0  0  0  0
    6.4281   13.7525   25.4041 H   0  0  0  0  0  0  0  0  0  0  0  0
   11.0281   12.3342   21.6870 H   0  0  0  0  0  0  0  0  0  0  0  0
    9.6686    8.5505   23.6532 H   0  0  0  0  0  0  0  0  0  0  0  0
  1  3  2  0  0  0  0
  1  4  1  0  0  0  0
  2  5  1  0  0  0  0
  2  6  2  0  0  0  0
  3 14  1  0  0  0  0
  4  5  2  0  0  0  0
  4  7  1  0  0  0  0
  5 14  1  0  0  0  0
  6 13  1  0  0  0  0
  6 15  1  0  0  0  0
  7 13  2  0  0  0  0
  7 17  1  0  0  0  0
  8 15  1  0  0  0  0
  8 16  2  0  0  0  0
  8 18  1  0  0  0  0
  9 12  1  0  0  0  0
 10 12  1  0  0  0  0
 11 12  1  0  0  0  0
 12 18  1  0  0  0  0
  1 19  1  0  0  0  0
  2 20  1  0  0  0  0
  3 21  1  0  0  0  0
  9 22  1  0  0  0  0
  9 23  1  0  0  0  0
  9 24  1  0  0  0  0
 10 25  1  0  0  0  0
 10 26  1  0  0  0  0
 10 27  1  0  0  0  0
 11 28  1  0  0  0  0
 11 29  1  0  0  0  0
 11 30  1  0  0  0  0
 14 31  1  0  0  0  0
 15 32  1  0  0  0  0
 17 33  1  0  0  0  0
M  END
> <id>
EN300-26665267

> <smiles>
CC(C)(C)OC(=O)NC=1C=C2NC=CC2=C(O)N1

> <IUPAC Name>
tert-butyl N-{4-hydroxy-1H-pyrrolo[3,2-c]pyridin-6-yl}carbamate

> <CAS>
2413867-83-9

> <URL>
https://www.enaminestore.com/catalog/EN300-26665267

> <ROCS_ShapeQuery>
A71EV2A-x0451_0A_A71EV2A-x0310_0A_A71EV2A-x0416_0A_peptide

> <ROCS_TanimotoCombo>
0.510 

> <ROCS_ShapeTanimoto>
0.332 

> <ROCS_ColorTanimoto>
0.179 

> <ROCS_RefTversky>
0.290 

> <ROCS_RefColorTversky>
0.202 

> <ROCS_RefTverskyCombo>
0.492 

> <ROCS_FitTversky>
1.756 

> <ROCS_FitColorTversky>
0.607 

> <ROCS_FitTverskyCombo>
2.363 

> <ROCS_ColorScore>
-6.173

> <ROCS_Overlap>
2012.920

> <ROCS_Rank>
387                 

$$$$
untitled-dbase-153872_24
  -OEChem-11132313473D

 32 33  0     0  0  0  0  0  0999 V2000
    6.9784   12.7279   25.7552 C   0  0  0  0  0  0  0  0  0  0  0  0
    8.0343   12.8325   24.8410 C   0  0  0  0  0  0  0  0  0  0  0  0
    6.4744   11.4812   26.1307 C   0  0  0  0  0  0  0  0  0  0  0  0
    8.5786   11.6527   24.3069 C   0  0  0  0  0  0  0  0  0  0  0  0
    8.0578   10.4242   24.6979 C   0  0  0  0  0  0  0  0  0  0  0  0
    7.0059   10.2978   25.6078 C   0  0  0  0  0  0  0  0  0  0  0  0
    9.6054   11.3234   23.3960 C   0  0  0  0  0  0  0  0  0  0  0  0
   10.8134   13.5152   23.1780 C   0  0  0  0  0  0  0  0  0  0  0  0
   11.0041   16.3462   22.8198 C   0  0  0  0  0  0  0  0  0  0  0  0
   12.1453   15.8087   20.6477 C   0  0  0  0  0  0  0  0  0  0  0  0
    9.7683   15.0897   21.0231 C   0  0  0  0  0  0  0  0  0  0  0  0
   11.1255   15.3348   21.6809 C   0  0  0  0  0  0  0  0  0  0  0  0
    9.7356   10.0072   23.2154 N   0  0  0  0  0  0  0  0  0  0  0  0
    8.7877    9.4894   24.0144 N   0  0  0  0  0  0  0  0  0  0  0  0
   10.4042   12.2466   22.7475 N   0  0  0  0  0  0  0  0  0  0  0  0
   10.5297   14.0554   24.2402 O   0  0  0  0  0  0  0  0  0  0  0  0
   11.6013   14.0961   22.2202 O   0  0  0  0  0  0  0  0  0  0  0  0
    6.3168    8.6218   26.1257 Br  0  0  0  0  0  0  0  0  0  0  0  0
    6.5467   13.6312   26.1784 H   0  0  0  0  0  0  0  0  0  0  0  0
    8.4167   13.8085   24.5583 H   0  0  0  0  0  0  0  0  0  0  0  0
    5.6543   11.4458   26.8452 H   0  0  0  0  0  0  0  0  0  0  0  0
   10.2730   16.0097   23.5636 H   0  0  0  0  0  0  0  0  0  0  0  0
   11.9638   16.5047   23.3225 H   0  0  0  0  0  0  0  0  0  0  0  0
   10.6445   17.3125   22.4480 H   0  0  0  0  0  0  0  0  0  0  0  0
   12.2356   15.0860   19.8287 H   0  0  0  0  0  0  0  0  0  0  0  0
   13.1424   15.8950   21.0945 H   0  0  0  0  0  0  0  0  0  0  0  0
   11.8699   16.7800   20.2242 H   0  0  0  0  0  0  0  0  0  0  0  0
    9.8550   14.3642   20.2061 H   0  0  0  0  0  0  0  0  0  0  0  0
    9.0334   14.7138   21.7424 H   0  0  0  0  0  0  0  0  0  0  0  0
    9.3790   16.0122   20.5774 H   0  0  0  0  0  0  0  0  0  0  0  0
    8.6906    8.4824   24.0499 H   0  0  0  0  0  0  0  0  0  0  0  0
   10.7464   11.9617   21.8175 H   0  0  0  0  0  0  0  0  0  0  0  0
  1  2  1  0  0  0  0
  1  3  2  0  0  0  0
  2  4  2  0  0  0  0
  3  6  1  0  0  0  0
  4  5  1  0  0  0  0
  4  7  1  0  0  0  0
  5  6  2  0  0  0  0
  5 14  1  0  0  0  0
  6 18  1  0  0  0  0
  7 13  2  0  0  0  0
  7 15  1  0  0  0  0
  8 15  1  0  0  0  0
  8 16  2  0  0  0  0
  8 17  1  0  0  0  0
  9 12  1  0  0  0  0
 10 12  1  0  0  0  0
 11 12  1  0  0  0  0
 12 17  1  0  0  0  0
 13 14  1  0  0  0  0
  1 19  1  0  0  0  0
  2 20  1  0  0  0  0
  3 21  1  0  0  0  0
  9 22  1  0  0  0  0
  9 23  1  0  0  0  0
  9 24  1  0  0  0  0
 10 25  1  0  0  0  0
 10 26  1  0  0  0  0
 10 27  1  0  0  0  0
 11 28  1  0  0  0  0
 11 29  1  0  0  0  0
 11 30  1  0  0  0  0
 14 31  1  0  0  0  0
 15 32  1  0  0  0  0
M  END
> <id>
EN300-28292370

> <smiles>
CC(C)(C)OC(=O)NC1=NNC=2C(Br)=CC=CC12

> <IUPAC Name>
tert-butyl N-(7-bromo-1H-indazol-3-yl)carbamate

> <CAS>
2680756-29-8

> <URL>
https://www.enaminestore.com/catalog/EN300-28292370

> <ROCS_ShapeQuery>
A71EV2A-x0451_0A_A71EV2A-x0310_0A_A71EV2A-x0416_0A_peptide

> <ROCS_TanimotoCombo>
0.510 

> <ROCS_ShapeTanimoto>
0.337 

> <ROCS_ColorTanimoto>
0.173 

> <ROCS_RefTversky>
0.293 

> <ROCS_RefColorTversky>
0.192 

> <ROCS_RefTverskyCombo>
0.485 

> <ROCS_FitTversky>
1.797 

> <ROCS_FitColorTversky>
0.638 

> <ROCS_FitTverskyCombo>
2.435 

> <ROCS_ColorScore>
-5.873

> <ROCS_Overlap>
2031.858

> <ROCS_Rank>
388                 

$$$$
untitled-dbase-119253_130
  -OEChem-11132313473D

 36 37  0     0  0  0  0  0  0999 V2000
    7.8431   13.2397   25.1624 C   0  0  0  0  0  0  0  0  0  0  0  0
   10.4641   13.1007   23.4996 C   0  0  0  0  0  0  0  0  0  0  0  0
    7.3872   11.1341   23.5632 C   0  0  0  0  0  0  0  0  0  0  0  0
    8.4568   10.6313   25.2905 C   0  0  0  0  0  0  0  0  0  0  0  0
    9.7987   10.6637   23.2008 C   0  0  0  0  0  0  0  0  0  0  0  0
    8.3503   11.9815   24.4815 C   0  0  0  0  0  0  0  0  0  0  0  0
    8.5189   10.0705   23.8208 C   0  0  0  0  0  0  0  0  0  0  0  0
   13.0966   14.1255   23.0627 C   0  0  0  0  0  0  0  0  0  0  0  0
   12.6332   13.7627   20.6208 C   0  0  0  0  0  0  0  0  0  0  0  0
   11.2261   15.3759   21.9346 C   0  0  0  0  0  0  0  0  0  0  0  0
    8.2655    8.6149   23.5540 C   0  0  0  0  0  0  0  0  0  0  0  0
   12.0161   14.0688   21.9838 C   0  0  0  0  0  0  0  0  0  0  0  0
    9.6217   12.0288   23.7080 N   0  0  0  0  0  0  0  0  0  0  0  0
    8.3008   14.3606   24.9967 O   0  0  0  0  0  0  0  0  0  0  0  0
   10.6205   14.0316   24.2849 O   0  0  0  0  0  0  0  0  0  0  0  0
    6.8073   12.9528   25.9883 O   0  0  0  0  0  0  0  0  0  0  0  0
   11.1137   13.0023   22.2981 O   0  0  0  0  0  0  0  0  0  0  0  0
    7.9489    8.4067   22.2576 F   0  0  0  0  0  0  0  0  0  0  0  0
    9.3572    7.8720   23.8377 F   0  0  0  0  0  0  0  0  0  0  0  0
    7.2441    8.1538   24.3082 F   0  0  0  0  0  0  0  0  0  0  0  0
    6.3957   10.9071   23.9722 H   0  0  0  0  0  0  0  0  0  0  0  0
    7.2742   11.4765   22.5296 H   0  0  0  0  0  0  0  0  0  0  0  0
    9.3588   10.4965   25.8960 H   0  0  0  0  0  0  0  0  0  0  0  0
    7.5826   10.3492   25.8887 H   0  0  0  0  0  0  0  0  0  0  0  0
   10.7217   10.2327   23.5988 H   0  0  0  0  0  0  0  0  0  0  0  0
    9.7980   10.6671   22.1072 H   0  0  0  0  0  0  0  0  0  0  0  0
   12.6577   14.3450   24.0426 H   0  0  0  0  0  0  0  0  0  0  0  0
   13.6474   13.1818   23.1319 H   0  0  0  0  0  0  0  0  0  0  0  0
   13.8123   14.9297   22.8575 H   0  0  0  0  0  0  0  0  0  0  0  0
   11.8615   13.7211   19.8436 H   0  0  0  0  0  0  0  0  0  0  0  0
   13.1206   12.7811   20.6246 H   0  0  0  0  0  0  0  0  0  0  0  0
   13.3737   14.5164   20.3341 H   0  0  0  0  0  0  0  0  0  0  0  0
   10.4511   15.3355   21.1607 H   0  0  0  0  0  0  0  0  0  0  0  0
   10.7456   15.5930   22.8940 H   0  0  0  0  0  0  0  0  0  0  0  0
   11.8795   16.2165   21.6743 H   0  0  0  0  0  0  0  0  0  0  0  0
    6.4660   13.7539   26.4400 H   0  0  0  0  0  0  0  0  0  0  0  0
  1  6  1  0  0  0  0
  1 14  2  0  0  0  0
  1 16  1  0  0  0  0
  2 13  1  0  0  0  0
  2 15  2  0  0  0  0
  2 17  1  0  0  0  0
  3  6  1  0  0  0  0
  3  7  1  0  0  0  0
  4  6  1  0  0  0  0
  4  7  1  0  0  0  0
  5  7  1  0  0  0  0
  5 13  1  0  0  0  0
  6 13  1  0  0  0  0
  7 11  1  0  0  0  0
  8 12  1  0  0  0  0
  9 12  1  0  0  0  0
 10 12  1  0  0  0  0
 11 18  1  0  0  0  0
 11 19  1  0  0  0  0
 11 20  1  0  0  0  0
 12 17  1  0  0  0  0
  3 21  1  0  0  0  0
  3 22  1  0  0  0  0
  4 23  1  0  0  0  0
  4 24  1  0  0  0  0
  5 25  1  0  0  0  0
  5 26  1  0  0  0  0
  8 27  1  0  0  0  0
  8 28  1  0  0  0  0
  8 29  1  0  0  0  0
  9 30  1  0  0  0  0
  9 31  1  0  0  0  0
  9 32  1  0  0  0  0
 10 33  1  0  0  0  0
 10 34  1  0  0  0  0
 10 35  1  0  0  0  0
 16 36  1  0  0  0  0
M  END
> <id>
EN300-1071507

> <smiles>
CC(C)(C)OC(=O)N1CC2(CC1(C2)C(=O)O)C(F)(F)F

> <MDLNUMBER>
MFCD28389047

> <IUPAC Name>
2-[(tert-butoxy)carbonyl]-4-(trifluoromethyl)-2-azabicyclo[2.1.1]hexane-1-carboxylic acid

> <CAS>
1993323-08-2

> <Purity>
95

> <URL>
https://www.enaminestore.com/catalog/EN300-1071507

> <ROCS_ShapeQuery>
A71EV2A-x0451_0A_A71EV2A-x0310_0A_A71EV2A-x0416_0A_peptide

> <ROCS_TanimotoCombo>
0.510 

> <ROCS_ShapeTanimoto>
0.339 

> <ROCS_ColorTanimoto>
0.171 

> <ROCS_RefTversky>
0.298 

> <ROCS_RefColorTversky>
0.207 

> <ROCS_RefTverskyCombo>
0.505 

> <ROCS_FitTversky>
1.684 

> <ROCS_FitColorTversky>
0.498 

> <ROCS_FitTverskyCombo>
2.182 

> <ROCS_ColorScore>
-6.367

> <ROCS_Overlap>
2066.219

> <ROCS_Rank>
389                 

$$$$
untitled-dbase-131580_2
  -OEChem-11132313473D

 35 38  0     0  0  0  0  0  0999 V2000
    9.7381    8.9146   21.7906 C   0  0  0  0  0  0  0  0  0  0  0  0
   13.0457   12.5664   20.9043 C   0  0  0  0  0  0  0  0  0  0  0  0
   13.8218   13.7244   20.8711 C   0  0  0  0  0  0  0  0  0  0  0  0
   12.4818   14.6635   22.6443 C   0  0  0  0  0  0  0  0  0  0  0  0
    8.2563   12.9197   25.4912 C   0  0  0  0  0  0  0  0  0  0  0  0
   11.7015   13.4986   22.6776 C   0  0  0  0  0  0  0  0  0  0  0  0
   11.9812   12.4472   21.8077 C   0  0  0  0  0  0  0  0  0  0  0  0
    8.6997   12.0022   24.5477 C   0  0  0  0  0  0  0  0  0  0  0  0
   13.5394   14.7729   21.7414 C   0  0  0  0  0  0  0  0  0  0  0  0
    7.9567   10.8344   24.5435 C   0  0  0  0  0  0  0  0  0  0  0  0
    6.5883   11.5435   26.2117 C   0  0  0  0  0  0  0  0  0  0  0  0
    9.4277    9.9768   22.6963 C   0  0  0  0  0  0  0  0  0  0  0  0
   10.5710   13.3760   23.6395 C   0  0  0  0  0  0  0  0  0  0  0  0
    8.2840    9.7576   23.6131 C   0  0  0  0  0  0  0  0  0  0  0  0
   10.1398   11.1322   22.7214 C   0  0  0  0  0  0  0  0  0  0  0  0
    5.9291   11.3624   28.9110 C   0  0  0  0  0  0  0  0  0  0  0  0
    9.9898    8.0527   21.0561 N   0  0  0  0  0  0  0  0  0  0  0  0
    7.2108   12.7237   26.3333 N   0  0  0  0  0  0  0  0  0  0  0  0
    6.9036   10.5673   25.3510 N   0  0  0  0  0  0  0  0  0  0  0  0
   11.2034   11.2955   21.8451 N   0  0  0  0  0  0  0  0  0  0  0  0
    9.8057   12.1710   23.6346 N   0  0  0  0  0  0  0  0  0  0  0  0
   10.3955   14.3504   24.3684 O   0  0  0  0  0  0  0  0  0  0  0  0
    7.6268    8.7232   23.6076 O   0  0  0  0  0  0  0  0  0  0  0  0
    4.2922   12.3472   27.1151 O   0  0  0  0  0  0  0  0  0  0  0  0
    4.7853    9.8768   27.1002 O   0  0  0  0  0  0  0  0  0  0  0  0
    5.2530   11.2542   27.2635 S   0  0  0  0  0  0  0  0  0  0  0  0
   14.4955   16.2035   21.7031 Cl  0  0  0  0  0  0  0  0  0  0  0  0
   13.2769   11.7543   20.2188 H   0  0  0  0  0  0  0  0  0  0  0  0
   14.6424   13.7935   20.1617 H   0  0  0  0  0  0  0  0  0  0  0  0
   12.2730   15.4907   23.3190 H   0  0  0  0  0  0  0  0  0  0  0  0
    8.7046   13.8901   25.6486 H   0  0  0  0  0  0  0  0  0  0  0  0
    5.1238   11.1865   29.6260 H   0  0  0  0  0  0  0  0  0  0  0  0
    6.7055   10.6030   29.0151 H   0  0  0  0  0  0  0  0  0  0  0  0
    6.3491   12.3602   29.0459 H   0  0  0  0  0  0  0  0  0  0  0  0
   11.4315   10.5486   21.2017 H   0  0  0  0  0  0  0  0  0  0  0  0
  1 12  1  0  0  0  0
  1 17  3  0  0  0  0
  2  3  1  0  0  0  0
  2  7  2  0  0  0  0
  3  9  2  0  0  0  0
  4  6  2  0  0  0  0
  4  9  1  0  0  0  0
  5  8  2  0  0  0  0
  5 18  1  0  0  0  0
  6  7  1  0  0  0  0
  6 13  1  0  0  0  0
  7 20  1  0  0  0  0
  8 10  1  0  0  0  0
  8 21  1  0  0  0  0
  9 27  1  0  0  0  0
 10 14  1  0  0  0  0
 10 19  2  0  0  0  0
 11 18  2  0  0  0  0
 11 19  1  0  0  0  0
 11 26  1  0  0  0  0
 12 14  1  0  0  0  0
 12 15  2  0  0  0  0
 13 21  1  0  0  0  0
 13 22  2  0  0  0  0
 14 23  2  0  0  0  0
 15 20  1  0  0  0  0
 15 21  1  0  0  0  0
 16 26  1  0  0  0  0
 24 26  2  0  0  0  0
 25 26  2  0  0  0  0
  2 28  1  0  0  0  0
  3 29  1  0  0  0  0
  4 30  1  0  0  0  0
  5 31  1  0  0  0  0
 16 32  1  0  0  0  0
 16 33  1  0  0  0  0
 16 34  1  0  0  0  0
 20 35  1  0  0  0  0
M  END
> <id>
EN300-26614735

> <smiles>
CS(=O)(=O)C=1N=CC2=C(N1)C(=O)C(C#N)=C3NC=4C=CC(Cl)=CC4C(=O)N23

> <IUPAC Name>
8-chloro-2-methanesulfonyl-6,13-dioxo-11,13-dihydro-6H-1,3,5a,11-tetraazatetraphene-12-carbonitrile

> <CAS>
301522-49-6

> <URL>
https://www.enaminestore.com/catalog/EN300-26614735

> <ROCS_ShapeQuery>
A71EV2A-x0451_0A_A71EV2A-x0310_0A_A71EV2A-x0416_0A_peptide

> <ROCS_TanimotoCombo>
0.510 

> <ROCS_ShapeTanimoto>
0.356 

> <ROCS_ColorTanimoto>
0.154 

> <ROCS_RefTversky>
0.321 

> <ROCS_RefColorTversky>
0.190 

> <ROCS_RefTverskyCombo>
0.511 

> <ROCS_FitTversky>
1.441 

> <ROCS_FitColorTversky>
0.448 

> <ROCS_FitTverskyCombo>
1.888 

> <ROCS_ColorScore>
-5.825

> <ROCS_Overlap>
2236.151

> <ROCS_Rank>
390                 

$$$$
untitled-dbase-50347_166
  -OEChem-11132313473D

 51 53  0     1  0  0  0  0  0999 V2000
    9.9826   13.2597   23.3029 C   0  0  0  0  0  0  0  0  0  0  0  0
   11.3269   14.8034   22.5827 C   0  0  0  0  0  0  0  0  0  0  0  0
    5.7852   13.4670   26.7822 C   0  0  0  0  0  0  0  0  0  0  0  0
    8.9882   11.8344   25.9944 C   0  0  0  0  0  0  0  0  0  0  0  0
    7.8295   12.0536   26.9612 C   0  0  0  0  0  0  0  0  0  0  0  0
    9.2580    9.5730   23.0537 C   0  0  0  0  0  0  0  0  0  0  0  0
    7.2138   12.8698   24.7778 C   0  0  0  0  0  0  0  0  0  0  0  0
    8.3718    9.3964   24.2736 C   0  0  0  0  0  0  0  0  0  0  0  0
    9.1818   11.9653   23.3570 C   0  0  2  0  0  0  0  0  0  0  0  0
    8.2917   11.7812   24.6172 C   0  0  1  0  0  0  0  0  0  0  0  0
   12.2715   15.5263   21.7127 C   0  0  0  0  0  0  0  0  0  0  0  0
    3.6255   12.0372   26.3892 C   0  0  0  0  0  0  0  0  0  0  0  0
    3.8994   11.0723   28.6921 C   0  0  0  0  0  0  0  0  0  0  0  0
    3.0777   13.4293   28.4133 C   0  0  0  0  0  0  0  0  0  0  0  0
   11.0415   12.8193   21.0676 C   0  0  0  0  0  0  0  0  0  0  0  0
    3.9843   12.3391   27.8435 C   0  0  0  0  0  0  0  0  0  0  0  0
   10.0131   14.2107   24.2090 N   0  0  0  0  0  0  0  0  0  0  0  0
   10.8684   15.1928   23.7508 N   0  0  0  0  0  0  0  0  0  0  0  0
   10.7953   13.5913   22.2617 N   0  0  0  0  0  0  0  0  0  0  0  0
   10.0592   10.7897   23.1782 N   0  0  0  0  0  0  0  0  0  0  0  0
    6.8693   12.8337   26.1991 N   0  0  0  0  0  0  0  0  0  0  0  0
    5.2791   14.5024   26.3556 O   0  0  0  0  0  0  0  0  0  0  0  0
    7.5516   10.5442   24.4792 O   0  0  0  0  0  0  0  0  0  0  0  0
    5.3388   12.8011   27.8922 O   0  0  0  0  0  0  0  0  0  0  0  0
    9.6750   12.6865   26.0572 H   0  0  0  0  0  0  0  0  0  0  0  0
    9.5438   10.9311   26.2553 H   0  0  0  0  0  0  0  0  0  0  0  0
    7.3495   11.1091   27.2402 H   0  0  0  0  0  0  0  0  0  0  0  0
    8.1247   12.5819   27.8724 H   0  0  0  0  0  0  0  0  0  0  0  0
    9.9189    8.7078   22.9384 H   0  0  0  0  0  0  0  0  0  0  0  0
    8.6461    9.6372   22.1462 H   0  0  0  0  0  0  0  0  0  0  0  0
    7.5870   13.8773   24.5672 H   0  0  0  0  0  0  0  0  0  0  0  0
    6.3165   12.6834   24.1787 H   0  0  0  0  0  0  0  0  0  0  0  0
    7.7038    8.5424   24.1203 H   0  0  0  0  0  0  0  0  0  0  0  0
    8.9573    9.1805   25.1729 H   0  0  0  0  0  0  0  0  0  0  0  0
    8.5056   11.9970   22.4602 H   0  0  0  0  0  0  0  0  0  0  0  0
   13.3154   15.2533   21.9423 H   0  0  0  0  0  0  0  0  0  0  0  0
   12.0989   15.3128   20.6430 H   0  0  0  0  0  0  0  0  0  0  0  0
   12.1820   16.6217   21.8209 H   0  0  0  0  0  0  0  0  0  0  0  0
    3.6852   12.9440   25.7768 H   0  0  0  0  0  0  0  0  0  0  0  0
    4.2907   11.2820   25.9581 H   0  0  0  0  0  0  0  0  0  0  0  0
    2.5937   11.6766   26.3078 H   0  0  0  0  0  0  0  0  0  0  0  0
    4.1561   11.2843   29.7363 H   0  0  0  0  0  0  0  0  0  0  0  0
    4.6173   10.3207   28.3443 H   0  0  0  0  0  0  0  0  0  0  0  0
    2.8969   10.6334   28.6637 H   0  0  0  0  0  0  0  0  0  0  0  0
    3.3349   13.6460   29.4564 H   0  0  0  0  0  0  0  0  0  0  0  0
    3.1535   14.3580   27.8385 H   0  0  0  0  0  0  0  0  0  0  0  0
    2.0309   13.1046   28.4139 H   0  0  0  0  0  0  0  0  0  0  0  0
   10.3023   13.1130   20.3177 H   0  0  0  0  0  0  0  0  0  0  0  0
   12.0537   13.0207   20.7060 H   0  0  0  0  0  0  0  0  0  0  0  0
   10.9495   11.7547   21.3002 H   0  0  0  0  0  0  0  0  0  0  0  0
   10.6705   10.7006   23.9906 H   0  0  0  0  0  0  0  0  0  0  0  0
  1  9  1  0  0  0  0
  1 17  2  0  0  0  0
  1 19  1  0  0  0  0
  2 11  1  0  0  0  0
  2 18  2  0  0  0  0
  2 19  1  0  0  0  0
  3 21  1  0  0  0  0
  3 22  2  0  0  0  0
  3 24  1  0  0  0  0
  4  5  1  0  0  0  0
  4 10  1  0  0  0  0
  5 21  1  0  0  0  0
  6  8  1  0  0  0  0
  6 20  1  0  0  0  0
  7 10  1  0  0  0  0
  7 21  1  0  0  0  0
  8 23  1  0  0  0  0
  9 10  1  0  0  0  0
  9 20  1  0  0  0  0
 10 23  1  0  0  0  0
 12 16  1  0  0  0  0
 13 16  1  0  0  0  0
 14 16  1  0  0  0  0
 15 19  1  0  0  0  0
 16 24  1  0  0  0  0
 17 18  1  0  0  0  0
  4 25  1  0  0  0  0
  4 26  1  0  0  0  0
  5 27  1  0  0  0  0
  5 28  1  0  0  0  0
  6 29  1  0  0  0  0
  6 30  1  0  0  0  0
  7 31  1  0  0  0  0
  7 32  1  0  0  0  0
  8 33  1  0  0  0  0
  8 34  1  0  0  0  0
  9 35  1  0  0  0  0
 11 36  1  0  0  0  0
 11 37  1  0  0  0  0
 11 38  1  0  0  0  0
 12 39  1  0  0  0  0
 12 40  1  0  0  0  0
 12 41  1  0  0  0  0
 13 42  1  0  0  0  0
 13 43  1  0  0  0  0
 13 44  1  0  0  0  0
 14 45  1  0  0  0  0
 14 46  1  0  0  0  0
 14 47  1  0  0  0  0
 15 48  1  0  0  0  0
 15 49  1  0  0  0  0
 15 50  1  0  0  0  0
 20 51  1  0  0  0  0
M  END
> <id>
EN300-1640675

> <smiles>
CC1=NN=C(C2NCCOC32CCN(C3)C(=O)OC(C)(C)C)N1C

> <IUPAC Name>
tert-butyl 10-(dimethyl-4H-1,2,4-triazol-3-yl)-6-oxa-2,9-diazaspiro[4.5]decane-2-carboxylate

> <CAS>
2171638-05-2

> <URL>
https://www.enaminestore.com/catalog/EN300-1640675

> <ROCS_ShapeQuery>
A71EV2A-x0451_0A_A71EV2A-x0310_0A_A71EV2A-x0416_0A_peptide

> <ROCS_TanimotoCombo>
0.510 

> <ROCS_ShapeTanimoto>
0.345 

> <ROCS_ColorTanimoto>
0.165 

> <ROCS_RefTversky>
0.308 

> <ROCS_RefColorTversky>
0.194 

> <ROCS_RefTverskyCombo>
0.502 

> <ROCS_FitTversky>
1.530 

> <ROCS_FitColorTversky>
0.524 

> <ROCS_FitTverskyCombo>
2.054 

> <ROCS_ColorScore>
-5.958

> <ROCS_Overlap>
2140.209

> <ROCS_Rank>
391                 

$$$$
untitled-dbase-115580_79
  -OEChem-11132313473D

 38 41  0     0  0  0  0  0  0999 V2000
   11.0578    8.0082   23.1181 C   0  0  0  0  0  0  0  0  0  0  0  0
    9.7961    7.4182   23.0395 C   0  0  0  0  0  0  0  0  0  0  0  0
   11.7860   15.6447   19.8036 C   0  0  0  0  0  0  0  0  0  0  0  0
   11.1745    9.3881   23.2721 C   0  0  0  0  0  0  0  0  0  0  0  0
   11.0523   14.9407   20.7519 C   0  0  0  0  0  0  0  0  0  0  0  0
    8.6454    8.2073   23.1061 C   0  0  0  0  0  0  0  0  0  0  0  0
   13.1422   15.8167   20.0296 C   0  0  0  0  0  0  0  0  0  0  0  0
   10.0183   10.1674   23.3540 C   0  0  0  0  0  0  0  0  0  0  0  0
   11.6882   14.4372   21.8813 C   0  0  0  0  0  0  0  0  0  0  0  0
    8.7470    9.5947   23.2580 C   0  0  0  0  0  0  0  0  0  0  0  0
   13.0488   14.6631   22.0142 C   0  0  0  0  0  0  0  0  0  0  0  0
    6.9338   12.5726   26.9662 C   0  0  0  0  0  0  0  0  0  0  0  0
    8.1166   12.7531   26.3615 C   0  0  0  0  0  0  0  0  0  0  0  0
    6.1920   11.0269   25.2808 C   0  0  0  0  0  0  0  0  0  0  0  0
   10.1379   11.6205   23.5245 C   0  0  0  0  0  0  0  0  0  0  0  0
    5.9373   11.6794   26.4234 C   0  0  0  0  0  0  0  0  0  0  0  0
    8.4058   11.9904   25.0847 C   0  0  0  0  0  0  0  0  0  0  0  0
   10.8917   13.6826   22.8920 C   0  0  0  0  0  0  0  0  0  0  0  0
    7.5264   10.4692   23.2809 C   0  0  0  0  0  0  0  0  0  0  0  0
   13.7948   15.3423   21.1143 N   0  0  0  0  0  0  0  0  0  0  0  0
    9.6082   12.2300   24.6283 N   0  0  0  0  0  0  0  0  0  0  0  0
   10.8161   12.3245   22.6785 N   0  0  0  0  0  0  0  0  0  0  0  0
    7.3878   11.1489   24.5719 N   0  0  0  0  0  0  0  0  0  0  0  0
   10.3729   14.3020   23.8169 O   0  0  0  0  0  0  0  0  0  0  0  0
   13.9500   14.0940   23.3652 Cl  0  0  0  0  0  0  0  0  0  0  0  0
    4.4436   11.4914   27.2546 Cl  0  0  0  0  0  0  0  0  0  0  0  0
   11.9496    7.3909   23.0605 H   0  0  0  0  0  0  0  0  0  0  0  0
    9.7080    6.3422   22.9195 H   0  0  0  0  0  0  0  0  0  0  0  0
   11.3117   16.0454   18.9150 H   0  0  0  0  0  0  0  0  0  0  0  0
   12.1609    9.8383   23.3391 H   0  0  0  0  0  0  0  0  0  0  0  0
    9.9871   14.7894   20.5988 H   0  0  0  0  0  0  0  0  0  0  0  0
    7.6719    7.7299   23.0298 H   0  0  0  0  0  0  0  0  0  0  0  0
   13.7592   16.3579   19.3197 H   0  0  0  0  0  0  0  0  0  0  0  0
    6.7120   13.1077   27.8841 H   0  0  0  0  0  0  0  0  0  0  0  0
    8.8717   13.4188   26.7627 H   0  0  0  0  0  0  0  0  0  0  0  0
    5.4700   10.3534   24.8317 H   0  0  0  0  0  0  0  0  0  0  0  0
    7.5873   11.2132   22.4758 H   0  0  0  0  0  0  0  0  0  0  0  0
    6.6389    9.8655   23.0510 H   0  0  0  0  0  0  0  0  0  0  0  0
  1  2  2  0  0  0  0
  1  4  1  0  0  0  0
  2  6  1  0  0  0  0
  3  5  1  0  0  0  0
  3  7  2  0  0  0  0
  4  8  2  0  0  0  0
  5  9  2  0  0  0  0
  6 10  2  0  0  0  0
  7 20  1  0  0  0  0
  8 10  1  0  0  0  0
  8 15  1  0  0  0  0
  9 11  1  0  0  0  0
  9 18  1  0  0  0  0
 10 19  1  0  0  0  0
 11 20  2  0  0  0  0
 11 25  1  0  0  0  0
 12 13  2  0  0  0  0
 12 16  1  0  0  0  0
 13 17  1  0  0  0  0
 14 16  2  0  0  0  0
 14 23  1  0  0  0  0
 15 21  1  0  0  0  0
 15 22  2  3  0  0  0
 16 26  1  0  0  0  0
 17 21  2  0  0  0  0
 17 23  1  0  0  0  0
 18 22  1  0  0  0  0
 18 24  2  0  0  0  0
 19 23  1  0  0  0  0
  1 27  1  0  0  0  0
  2 28  1  0  0  0  0
  3 29  1  0  0  0  0
  4 30  1  0  0  0  0
  5 31  1  0  0  0  0
  6 32  1  0  0  0  0
  7 33  1  0  0  0  0
 12 34  1  0  0  0  0
 13 35  1  0  0  0  0
 14 36  1  0  0  0  0
 19 37  1  0  0  0  0
 19 38  1  0  0  0  0
M  END
> <id>
EN300-26621060

> <smiles>
ClC1=CN2CC=3C=CC=CC3C(=NC(=O)C=4C=CC=NC4Cl)N=C2C=C1

> <IUPAC Name>
2-chloro-N-{14-chloro-1,10-diazatricyclo[9.4.0.0,3,8]pentadeca-3(8),4,6,10,12,14-hexaen-9-ylidene}pyridine-3-carboxamide

> <CAS>
326011-51-2

> <URL>
https://www.enaminestore.com/catalog/EN300-26621060

> <ROCS_ShapeQuery>
A71EV2A-x0451_0A_A71EV2A-x0310_0A_A71EV2A-x0416_0A_peptide

> <ROCS_TanimotoCombo>
0.510 

> <ROCS_ShapeTanimoto>
0.386 

> <ROCS_ColorTanimoto>
0.124 

> <ROCS_RefTversky>
0.338 

> <ROCS_RefColorTversky>
0.144 

> <ROCS_RefTverskyCombo>
0.482 

> <ROCS_FitTversky>
1.566 

> <ROCS_FitColorTversky>
0.478 

> <ROCS_FitTverskyCombo>
2.044 

> <ROCS_ColorScore>
-4.395

> <ROCS_Overlap>
2353.665

> <ROCS_Rank>
392                 

$$$$
untitled-dbase-91216_89
  -OEChem-11132313473D

 43 45  0     1  0  0  0  0  0999 V2000
    5.7007   10.9409   26.5554 C   0  0  0  0  0  0  0  0  0  0  0  0
    4.9424   11.7415   27.4023 C   0  0  0  0  0  0  0  0  0  0  0  0
    6.4042   12.9050   25.4137 C   0  0  0  0  0  0  0  0  0  0  0  0
    6.4485   11.5259   25.5396 C   0  0  0  0  0  0  0  0  0  0  0  0
    4.9657   13.1110   27.1931 C   0  0  0  0  0  0  0  0  0  0  0  0
   10.0311   13.4521   23.3987 C   0  0  0  0  0  0  0  0  0  0  0  0
    9.3918    9.9159   23.7084 C   0  0  0  0  0  0  0  0  0  0  0  0
    7.4829   11.2388   23.1499 C   0  0  0  0  0  0  0  0  0  0  0  0
    9.5448   11.7335   25.2028 C   0  0  0  0  0  0  0  0  0  0  0  0
    8.7699   10.4095   25.0296 C   0  0  1  0  0  0  0  0  0  0  0  0
    9.0139   11.1876   22.9579 C   0  0  1  0  0  0  0  0  0  0  0  0
    7.2864   10.6807   24.5998 C   0  0  1  0  0  0  0  0  0  0  0  0
   12.2968   13.8835   21.7117 C   0  0  0  0  0  0  0  0  0  0  0  0
   10.6257   14.4393   19.9207 C   0  0  0  0  0  0  0  0  0  0  0  0
   10.7464   15.8454   21.9983 C   0  0  0  0  0  0  0  0  0  0  0  0
   10.9029   14.4387   21.4225 C   0  0  0  0  0  0  0  0  0  0  0  0
    5.6795   13.7155   26.2171 N   0  0  0  0  0  0  0  0  0  0  0  0
    9.5876   12.2184   23.8264 N   0  0  0  0  0  0  0  0  0  0  0  0
   10.4607   14.3294   24.1437 O   0  0  0  0  0  0  0  0  0  0  0  0
    6.5877    9.4287   24.5396 O   0  0  0  0  0  0  0  0  0  0  0  0
    9.9346   13.5832   22.0395 O   0  0  0  0  0  0  0  0  0  0  0  0
    3.9364   14.2231   28.3378 Br  0  0  0  0  0  0  0  0  0  0  0  0
    5.7033    9.8630   26.6946 H   0  0  0  0  0  0  0  0  0  0  0  0
    4.3575   11.2891   28.1961 H   0  0  0  0  0  0  0  0  0  0  0  0
    6.9680   13.4173   24.6401 H   0  0  0  0  0  0  0  0  0  0  0  0
   10.4746    9.7606   23.7745 H   0  0  0  0  0  0  0  0  0  0  0  0
    8.9249    9.0137   23.3033 H   0  0  0  0  0  0  0  0  0  0  0  0
    7.1018   12.2587   23.0235 H   0  0  0  0  0  0  0  0  0  0  0  0
    6.9894   10.5949   22.4124 H   0  0  0  0  0  0  0  0  0  0  0  0
    9.0695   12.4658   25.8604 H   0  0  0  0  0  0  0  0  0  0  0  0
   10.5743   11.5657   25.5378 H   0  0  0  0  0  0  0  0  0  0  0  0
    8.8769    9.7102   25.8621 H   0  0  0  0  0  0  0  0  0  0  0  0
    9.3447   11.2700   21.9210 H   0  0  0  0  0  0  0  0  0  0  0  0
   12.4996   13.8814   22.7887 H   0  0  0  0  0  0  0  0  0  0  0  0
   12.4104   12.8619   21.3345 H   0  0  0  0  0  0  0  0  0  0  0  0
   13.0702   14.5099   21.2527 H   0  0  0  0  0  0  0  0  0  0  0  0
    9.6266   14.8368   19.7085 H   0  0  0  0  0  0  0  0  0  0  0  0
   10.6434   13.4192   19.5201 H   0  0  0  0  0  0  0  0  0  0  0  0
   11.3607   15.0391   19.3744 H   0  0  0  0  0  0  0  0  0  0  0  0
    9.7467   16.2438   21.7910 H   0  0  0  0  0  0  0  0  0  0  0  0
   10.9055   15.8578   23.0814 H   0  0  0  0  0  0  0  0  0  0  0  0
   11.4577   16.5379   21.5339 H   0  0  0  0  0  0  0  0  0  0  0  0
    5.7006    9.6196   24.1947 H   0  0  0  0  0  0  0  0  0  0  0  0
  1  2  1  0  0  0  0
  1  4  2  0  0  0  0
  2  5  2  0  0  0  0
  3  4  1  0  0  0  0
  3 17  2  0  0  0  0
  4 12  1  0  0  0  0
  5 17  1  0  0  0  0
  5 22  1  0  0  0  0
  6 18  1  0  0  0  0
  6 19  2  0  0  0  0
  6 21  1  0  0  0  0
  7 10  1  0  0  0  0
  7 11  1  0  0  0  0
  8 11  1  0  0  0  0
  8 12  1  0  0  0  0
  9 10  1  0  0  0  0
  9 18  1  0  0  0  0
 10 12  1  0  0  0  0
 11 18  1  0  0  0  0
 12 20  1  0  0  0  0
 13 16  1  0  0  0  0
 14 16  1  0  0  0  0
 15 16  1  0  0  0  0
 16 21  1  0  0  0  0
  1 23  1  0  0  0  0
  2 24  1  0  0  0  0
  3 25  1  0  0  0  0
  7 26  1  0  0  0  0
  7 27  1  0  0  0  0
  8 28  1  0  0  0  0
  8 29  1  0  0  0  0
  9 30  1  0  0  0  0
  9 31  1  0  0  0  0
 10 32  1  0  0  0  0
 11 33  1  0  0  0  0
 13 34  1  0  0  0  0
 13 35  1  0  0  0  0
 13 36  1  0  0  0  0
 14 37  1  0  0  0  0
 14 38  1  0  0  0  0
 14 39  1  0  0  0  0
 15 40  1  0  0  0  0
 15 41  1  0  0  0  0
 15 42  1  0  0  0  0
 20 43  1  0  0  0  0
M  END
> <id>
EN300-7428458

> <smiles>
CC(C)(C)OC(=O)N1CC2CC1CC2(O)C=3C=CC(Br)=NC3

> <IUPAC Name>
tert-butyl 5-(6-bromopyridin-3-yl)-5-hydroxy-2-azabicyclo[2.2.1]heptane-2-carboxylate

> <CAS>
2309465-80-1

> <URL>
https://www.enaminestore.com/catalog/EN300-7428458

> <ROCS_ShapeQuery>
A71EV2A-x0451_0A_A71EV2A-x0310_0A_A71EV2A-x0416_0A_peptide

> <ROCS_TanimotoCombo>
0.510 

> <ROCS_ShapeTanimoto>
0.326 

> <ROCS_ColorTanimoto>
0.183 

> <ROCS_RefTversky>
0.292 

> <ROCS_RefColorTversky>
0.227 

> <ROCS_RefTverskyCombo>
0.519 

> <ROCS_FitTversky>
1.556 

> <ROCS_FitColorTversky>
0.490 

> <ROCS_FitTverskyCombo>
2.046 

> <ROCS_ColorScore>
-6.985

> <ROCS_Overlap>
2030.201

> <ROCS_Rank>
393                 

$$$$
untitled-dbase-119261_65
  -OEChem-11132313473D

 37 38  0     0  0  0  0  0  0999 V2000
    9.5608    9.8037   22.8303 C   0  0  0  0  0  0  0  0  0  0  0  0
   10.2299   11.0206   22.7671 C   0  0  0  0  0  0  0  0  0  0  0  0
    8.4442    9.6701   23.6521 C   0  0  0  0  0  0  0  0  0  0  0  0
    9.7711   12.1075   23.5129 C   0  0  0  0  0  0  0  0  0  0  0  0
    8.6335   12.0010   24.3345 C   0  0  0  0  0  0  0  0  0  0  0  0
    7.9940   10.7508   24.4224 C   0  0  0  0  0  0  0  0  0  0  0  0
   10.5396   13.3452   23.3960 C   0  0  0  0  0  0  0  0  0  0  0  0
    8.1891   13.2404   25.0823 C   0  0  0  0  0  0  0  0  0  0  0  0
    6.2184   12.5241   26.3302 C   0  0  0  0  0  0  0  0  0  0  0  0
    6.8753   11.1538   26.4508 C   0  0  0  0  0  0  0  0  0  0  0  0
   12.2245   15.5379   22.6326 C   0  0  0  0  0  0  0  0  0  0  0  0
   11.9965   14.6495   20.2942 C   0  0  0  0  0  0  0  0  0  0  0  0
    9.9636   15.4548   21.5299 C   0  0  0  0  0  0  0  0  0  0  0  0
   11.3258   14.7750   21.6605 C   0  0  0  0  0  0  0  0  0  0  0  0
    6.7411   13.3460   25.2401 N   0  0  0  0  0  0  0  0  0  0  0  0
   10.6449   14.1877   24.2936 O   0  0  0  0  0  0  0  0  0  0  0  0
    6.8913   10.4783   25.1947 O   0  0  0  0  0  0  0  0  0  0  0  0
   11.1276   13.4507   22.1669 O   0  0  0  0  0  0  0  0  0  0  0  0
    9.9072    8.9592   22.2427 H   0  0  0  0  0  0  0  0  0  0  0  0
   11.1141   11.1085   22.1416 H   0  0  0  0  0  0  0  0  0  0  0  0
    7.9135    8.7178   23.6844 H   0  0  0  0  0  0  0  0  0  0  0  0
    8.6995   13.2740   26.0531 H   0  0  0  0  0  0  0  0  0  0  0  0
    8.5145   14.1445   24.5603 H   0  0  0  0  0  0  0  0  0  0  0  0
    5.1416   12.3726   26.1417 H   0  0  0  0  0  0  0  0  0  0  0  0
    6.2896   13.0741   27.2864 H   0  0  0  0  0  0  0  0  0  0  0  0
    7.9232   11.2980   26.7342 H   0  0  0  0  0  0  0  0  0  0  0  0
    6.4228   10.5438   27.2436 H   0  0  0  0  0  0  0  0  0  0  0  0
   11.7466   15.6301   23.6145 H   0  0  0  0  0  0  0  0  0  0  0  0
   13.1918   15.0416   22.7619 H   0  0  0  0  0  0  0  0  0  0  0  0
   12.4043   16.5597   22.2792 H   0  0  0  0  0  0  0  0  0  0  0  0
   11.3552   14.1028   19.5935 H   0  0  0  0  0  0  0  0  0  0  0  0
   12.9294   14.0790   20.3683 H   0  0  0  0  0  0  0  0  0  0  0  0
   12.2232   15.6303   19.8638 H   0  0  0  0  0  0  0  0  0  0  0  0
    9.3188   14.9078   20.8327 H   0  0  0  0  0  0  0  0  0  0  0  0
    9.4514   15.5204   22.4953 H   0  0  0  0  0  0  0  0  0  0  0  0
   10.0706   16.4669   21.1230 H   0  0  0  0  0  0  0  0  0  0  0  0
    6.5101   14.3229   25.4438 H   0  0  0  0  0  0  0  0  0  0  0  0
  1  2  1  0  0  0  0
  1  3  2  0  0  0  0
  2  4  2  0  0  0  0
  3  6  1  0  0  0  0
  4  5  1  0  0  0  0
  4  7  1  0  0  0  0
  5  6  2  0  0  0  0
  5  8  1  0  0  0  0
  6 17  1  0  0  0  0
  7 16  2  0  0  0  0
  7 18  1  0  0  0  0
  8 15  1  0  0  0  0
  9 10  1  0  0  0  0
  9 15  1  0  0  0  0
 10 17  1  0  0  0  0
 11 14  1  0  0  0  0
 12 14  1  0  0  0  0
 13 14  1  0  0  0  0
 14 18  1  0  0  0  0
  1 19  1  0  0  0  0
  2 20  1  0  0  0  0
  3 21  1  0  0  0  0
  8 22  1  0  0  0  0
  8 23  1  0  0  0  0
  9 24  1  0  0  0  0
  9 25  1  0  0  0  0
 10 26  1  0  0  0  0
 10 27  1  0  0  0  0
 11 28  1  0  0  0  0
 11 29  1  0  0  0  0
 11 30  1  0  0  0  0
 12 31  1  0  0  0  0
 12 32  1  0  0  0  0
 12 33  1  0  0  0  0
 13 34  1  0  0  0  0
 13 35  1  0  0  0  0
 13 36  1  0  0  0  0
 15 37  1  0  0  0  0
M  END
> <id>
EN300-1128959

> <smiles>
CC(C)(C)OC(=O)C=1C=CC=C2OCCNCC12

> <MDLNUMBER>
MFCD31597199

> <IUPAC Name>
tert-butyl 2,3,4,5-tetrahydro-1,4-benzoxazepine-6-carboxylate

> <CAS>
2137533-35-6

> <URL>
https://www.enaminestore.com/catalog/EN300-1128959

> <ROCS_ShapeQuery>
A71EV2A-x0451_0A_A71EV2A-x0310_0A_A71EV2A-x0416_0A_peptide

> <ROCS_TanimotoCombo>
0.510 

> <ROCS_ShapeTanimoto>
0.342 

> <ROCS_ColorTanimoto>
0.167 

> <ROCS_RefTversky>
0.296 

> <ROCS_RefColorTversky>
0.182 

> <ROCS_RefTverskyCombo>
0.479 

> <ROCS_FitTversky>
1.827 

> <ROCS_FitColorTversky>
0.674 

> <ROCS_FitTverskyCombo>
2.501 

> <ROCS_ColorScore>
-5.552

> <ROCS_Overlap>
2056.311

> <ROCS_Rank>
394                 

$$$$
untitled-dbase-139884_172
  -OEChem-11132313473D

 45 46  0     1  0  0  0  0  0999 V2000
   11.0036   13.8070   22.9619 C   0  0  0  0  0  0  0  0  0  0  0  0
    9.7083   11.7698   24.8270 C   0  0  0  0  0  0  0  0  0  0  0  0
    8.7780   10.7620   22.6808 C   0  0  0  0  0  0  0  0  0  0  0  0
    9.2782   12.0363   23.3831 C   0  0  2  0  0  0  0  0  0  0  0  0
    8.5632   11.2004   25.6730 C   0  0  2  0  0  0  0  0  0  0  0  0
    7.5534   10.3691   24.8942 C   0  0  2  0  0  0  0  0  0  0  0  0
    8.1080    9.7477   23.6209 C   0  0  2  0  0  0  0  0  0  0  0  0
    6.4926   12.2050   25.6866 C   0  0  0  0  0  0  0  0  0  0  0  0
    6.0905   13.5815   25.1749 C   0  0  0  0  0  0  0  0  0  0  0  0
    5.5180   11.7331   26.7654 C   0  0  0  0  0  0  0  0  0  0  0  0
   13.3998   15.1956   23.6546 C   0  0  0  0  0  0  0  0  0  0  0  0
   13.7674   15.4162   21.1796 C   0  0  0  0  0  0  0  0  0  0  0  0
   11.7528   16.4731   22.2439 C   0  0  0  0  0  0  0  0  0  0  0  0
   12.7238   15.2941   22.2878 C   0  0  0  0  0  0  0  0  0  0  0  0
   10.3788   12.6250   22.6200 N   0  0  0  0  0  0  0  0  0  0  0  0
   10.7274   14.5082   23.9297 O   0  0  0  0  0  0  0  0  0  0  0  0
    7.8060   12.2726   26.2515 O   0  0  0  0  0  0  0  0  0  0  0  0
    6.4915   11.2773   24.5980 O   0  0  0  0  0  0  0  0  0  0  0  0
    9.0598    8.7527   24.0006 O   0  0  0  0  0  0  0  0  0  0  0  0
   11.9872   14.0881   22.0558 O   0  0  0  0  0  0  0  0  0  0  0  0
   10.5338   11.0513   24.8362 H   0  0  0  0  0  0  0  0  0  0  0  0
   10.0621   12.7002   25.2797 H   0  0  0  0  0  0  0  0  0  0  0  0
    8.0601   11.0274   21.8753 H   0  0  0  0  0  0  0  0  0  0  0  0
    9.6145   10.2636   22.1435 H   0  0  0  0  0  0  0  0  0  0  0  0
    8.4780   12.7949   23.3646 H   0  0  0  0  0  0  0  0  0  0  0  0
    8.9961   10.6262   26.4964 H   0  0  0  0  0  0  0  0  0  0  0  0
    7.1434    9.5638   25.5474 H   0  0  0  0  0  0  0  0  0  0  0  0
    7.3209    9.2134   23.0655 H   0  0  0  0  0  0  0  0  0  0  0  0
    6.7890   13.9125   24.4062 H   0  0  0  0  0  0  0  0  0  0  0  0
    6.0991   14.3011   25.9938 H   0  0  0  0  0  0  0  0  0  0  0  0
    5.0879   13.5429   24.7486 H   0  0  0  0  0  0  0  0  0  0  0  0
    5.8136   10.7488   27.1247 H   0  0  0  0  0  0  0  0  0  0  0  0
    4.5118   11.6752   26.3537 H   0  0  0  0  0  0  0  0  0  0  0  0
    5.5228   12.4336   27.5989 H   0  0  0  0  0  0  0  0  0  0  0  0
   12.6540   15.1078   24.4528 H   0  0  0  0  0  0  0  0  0  0  0  0
   14.0724   14.3335   23.7107 H   0  0  0  0  0  0  0  0  0  0  0  0
   13.9787   16.1009   23.8706 H   0  0  0  0  0  0  0  0  0  0  0  0
   13.2867   15.4871   20.1972 H   0  0  0  0  0  0  0  0  0  0  0  0
   14.4075   14.5272   21.1466 H   0  0  0  0  0  0  0  0  0  0  0  0
   14.4033   16.2964   21.3188 H   0  0  0  0  0  0  0  0  0  0  0  0
   11.2678   16.5440   21.2636 H   0  0  0  0  0  0  0  0  0  0  0  0
   10.9747   16.3835   23.0088 H   0  0  0  0  0  0  0  0  0  0  0  0
   12.2830   17.4203   22.3957 H   0  0  0  0  0  0  0  0  0  0  0  0
   10.7018   12.1352   21.7902 H   0  0  0  0  0  0  0  0  0  0  0  0
    9.3524    8.3261   23.1810 H   0  0  0  0  0  0  0  0  0  0  0  0
  1 15  1  0  0  0  0
  1 16  2  0  0  0  0
  1 20  1  0  0  0  0
  2  4  1  0  0  0  0
  2  5  1  1  0  0  0
  3  4  1  0  0  0  0
  3  7  1  0  0  0  0
  4 15  1  6  0  0  0
  5  6  1  0  0  0  0
  5 17  1  0  0  0  0
  6  7  1  0  0  0  0
  6 18  1  1  0  0  0
  7 19  1  6  0  0  0
  8  9  1  0  0  0  0
  8 10  1  0  0  0  0
  8 17  1  0  0  0  0
  8 18  1  0  0  0  0
 11 14  1  0  0  0  0
 12 14  1  0  0  0  0
 13 14  1  0  0  0  0
 14 20  1  0  0  0  0
  2 21  1  0  0  0  0
  2 22  1  0  0  0  0
  3 23  1  0  0  0  0
  3 24  1  0  0  0  0
  4 25  1  0  0  0  0
  5 26  1  0  0  0  0
  6 27  1  0  0  0  0
  7 28  1  0  0  0  0
  9 29  1  0  0  0  0
  9 30  1  0  0  0  0
  9 31  1  0  0  0  0
 10 32  1  0  0  0  0
 10 33  1  0  0  0  0
 10 34  1  0  0  0  0
 11 35  1  0  0  0  0
 11 36  1  0  0  0  0
 11 37  1  0  0  0  0
 12 38  1  0  0  0  0
 12 39  1  0  0  0  0
 12 40  1  0  0  0  0
 13 41  1  0  0  0  0
 13 42  1  0  0  0  0
 13 43  1  0  0  0  0
 15 44  1  0  0  0  0
 19 45  1  0  0  0  0
M  END
> <id>
EN300-39669285

> <smiles>
CC(C)(C)OC(=O)N[C@@H]1C[C@H]2OC(C)(C)O[C@H]2[C@H](O)C1

> <IUPAC Name>
tert-butyl N-[(3aR,5S,7R,7aS)-7-hydroxy-2,2-dimethyl-hexahydro-1,3-dioxaindan-5-yl]carbamate

> <CAS>
2839128-88-8

> <Purity>
95

> <URL>
https://www.enaminestore.com/catalog/EN300-39669285

> <ROCS_ShapeQuery>
A71EV2A-x0451_0A_A71EV2A-x0310_0A_A71EV2A-x0416_0A_peptide

> <ROCS_TanimotoCombo>
0.510 

> <ROCS_ShapeTanimoto>
0.322 

> <ROCS_ColorTanimoto>
0.188 

> <ROCS_RefTversky>
0.286 

> <ROCS_RefColorTversky>
0.216 

> <ROCS_RefTverskyCombo>
0.501 

> <ROCS_FitTversky>
1.653 

> <ROCS_FitColorTversky>
0.593 

> <ROCS_FitTverskyCombo>
2.246 

> <ROCS_ColorScore>
-6.608

> <ROCS_Overlap>
1981.680

> <ROCS_Rank>
395                 

$$$$
untitled-dbase-29351_4
  -OEChem-11132313473D

 33 34  0     0  0  0  0  0  0999 V2000
    6.9079   12.1949   25.9176 C   0  0  0  0  0  0  0  0  0  0  0  0
    8.0080   12.6889   25.2089 C   0  0  0  0  0  0  0  0  0  0  0  0
    6.4846   10.8691   25.7529 C   0  0  0  0  0  0  0  0  0  0  0  0
    8.2461   10.5164   24.1773 C   0  0  0  0  0  0  0  0  0  0  0  0
    8.6716   11.8367   24.3380 C   0  0  0  0  0  0  0  0  0  0  0  0
    7.1567   10.0183   24.8763 C   0  0  0  0  0  0  0  0  0  0  0  0
   10.4825   13.3008   23.4242 C   0  0  0  0  0  0  0  0  0  0  0  0
    9.0983    9.7755   23.2004 C   0  0  0  0  0  0  0  0  0  0  0  0
   10.1060   10.8469   22.7726 C   0  0  0  0  0  0  0  0  0  0  0  0
   11.6535   15.0721   20.4114 C   0  0  0  0  0  0  0  0  0  0  0  0
   13.2716   14.4931   22.2533 C   0  0  0  0  0  0  0  0  0  0  0  0
   11.8138   14.7268   21.8848 C   0  0  0  0  0  0  0  0  0  0  0  0
    9.7928   12.0873   23.5168 N   0  0  0  0  0  0  0  0  0  0  0  0
    6.7296    8.6874   24.7148 N   0  0  0  0  0  0  0  0  0  0  0  0
   11.0602   13.5289   22.1747 N   0  0  0  0  0  0  0  0  0  0  0  0
   10.5904   14.1170   24.3420 O   0  0  0  0  0  0  0  0  0  0  0  0
    6.3750   12.8464   26.6051 H   0  0  0  0  0  0  0  0  0  0  0  0
    8.3054   13.7188   25.3624 H   0  0  0  0  0  0  0  0  0  0  0  0
    5.6267   10.5135   26.3185 H   0  0  0  0  0  0  0  0  0  0  0  0
    9.6023    8.9310   23.6803 H   0  0  0  0  0  0  0  0  0  0  0  0
    8.5088    9.4278   22.3464 H   0  0  0  0  0  0  0  0  0  0  0  0
   11.1339   10.5432   23.0017 H   0  0  0  0  0  0  0  0  0  0  0  0
   10.0403   11.0520   21.6978 H   0  0  0  0  0  0  0  0  0  0  0  0
   12.0529   14.2734   19.7780 H   0  0  0  0  0  0  0  0  0  0  0  0
   10.6004   15.2222   20.1481 H   0  0  0  0  0  0  0  0  0  0  0  0
   12.1882   15.9969   20.1686 H   0  0  0  0  0  0  0  0  0  0  0  0
   13.6993   13.6840   21.6511 H   0  0  0  0  0  0  0  0  0  0  0  0
   13.3677   14.2175   23.3086 H   0  0  0  0  0  0  0  0  0  0  0  0
   13.8775   15.3892   22.0781 H   0  0  0  0  0  0  0  0  0  0  0  0
   11.4080   15.5386   22.4984 H   0  0  0  0  0  0  0  0  0  0  0  0
    7.1916    8.1008   24.0473 H   0  0  0  0  0  0  0  0  0  0  0  0
    5.9115    8.3721   25.1991 H   0  0  0  0  0  0  0  0  0  0  0  0
   10.9476   12.8323   21.4477 H   0  0  0  0  0  0  0  0  0  0  0  0
  1  2  2  0  0  0  0
  1  3  1  0  0  0  0
  2  5  1  0  0  0  0
  3  6  2  0  0  0  0
  4  5  2  0  0  0  0
  4  6  1  0  0  0  0
  4  8  1  0  0  0  0
  5 13  1  0  0  0  0
  6 14  1  0  0  0  0
  7 13  1  0  0  0  0
  7 15  1  0  0  0  0
  7 16  2  0  0  0  0
  8  9  1  0  0  0  0
  9 13  1  0  0  0  0
 10 12  1  0  0  0  0
 11 12  1  0  0  0  0
 12 15  1  0  0  0  0
  1 17  1  0  0  0  0
  2 18  1  0  0  0  0
  3 19  1  0  0  0  0
  8 20  1  0  0  0  0
  8 21  1  0  0  0  0
  9 22  1  0  0  0  0
  9 23  1  0  0  0  0
 10 24  1  0  0  0  0
 10 25  1  0  0  0  0
 10 26  1  0  0  0  0
 11 27  1  0  0  0  0
 11 28  1  0  0  0  0
 11 29  1  0  0  0  0
 12 30  1  0  0  0  0
 14 31  1  0  0  0  0
 14 32  1  0  0  0  0
 15 33  1  0  0  0  0
M  END
> <id>
EN300-692343

> <smiles>
CC(C)NC(=O)N1CCC=2C1=CC=CC2N

> <MDLNUMBER>
MFCD20302700

> <IUPAC Name>
4-amino-N-(propan-2-yl)-2,3-dihydro-1H-indole-1-carboxamide

> <CAS>
1343017-23-1

> <URL>
https://www.enaminestore.com/catalog/EN300-692343

> <ROCS_ShapeQuery>
A71EV2A-x0451_0A_A71EV2A-x0310_0A_A71EV2A-x0416_0A_peptide

> <ROCS_TanimotoCombo>
0.510 

> <ROCS_ShapeTanimoto>
0.315 

> <ROCS_ColorTanimoto>
0.195 

> <ROCS_RefTversky>
0.275 

> <ROCS_RefColorTversky>
0.207 

> <ROCS_RefTverskyCombo>
0.483 

> <ROCS_FitTversky>
1.837 

> <ROCS_FitColorTversky>
0.766 

> <ROCS_FitTverskyCombo>
2.603 

> <ROCS_ColorScore>
-6.317

> <ROCS_Overlap>
1908.640

> <ROCS_Rank>
396                 

$$$$
untitled-dbase-74406_22
  -OEChem-11132313473D

 40 44  0     1  0  0  0  0  0999 V2000
   10.4629   13.4887   23.2221 C   0  0  0  0  0  0  0  0  0  0  0  0
    8.1362    9.9844   22.5617 C   0  0  0  0  0  0  0  0  0  0  0  0
    7.0372   11.8147   25.5044 C   0  0  0  0  0  0  0  0  0  0  0  0
    9.6662   12.2406   22.9978 C   0  0  2  0  0  0  0  0  0  0  0  0
    7.3414   11.1286   23.1980 C   0  0  1  0  0  0  0  0  0  0  0  0
    7.1241   10.5819   24.6293 C   0  0  1  0  0  0  0  0  0  0  0  0
    9.2436    9.7729   23.5981 C   0  0  1  0  0  0  0  0  0  0  0  0
    8.3452   12.3965   25.0061 C   0  0  2  0  0  0  0  0  0  0  0  0
    8.2112   12.4153   23.4605 C   0  0  1  0  0  0  0  0  0  0  0  0
   10.1061   11.0519   23.8596 C   0  0  2  0  0  0  0  0  0  0  0  0
    8.5197    9.9960   24.9432 C   0  0  1  0  0  0  0  0  0  0  0  0
    9.3669   11.2555   25.2034 C   0  0  2  0  0  0  0  0  0  0  0  0
   13.2652   13.6881   22.7704 C   0  0  0  0  0  0  0  0  0  0  0  0
   12.6537   14.9968   20.7154 C   0  0  0  0  0  0  0  0  0  0  0  0
   12.0209   15.8653   22.9855 C   0  0  0  0  0  0  0  0  0  0  0  0
   12.2315   14.6152   22.1325 C   0  0  0  0  0  0  0  0  0  0  0  0
   10.6044   14.0244   24.3130 O   0  0  0  0  0  0  0  0  0  0  0  0
   10.9877   13.9136   22.0376 O   0  0  0  0  0  0  0  0  0  0  0  0
    7.5180    9.0834   22.4696 H   0  0  0  0  0  0  0  0  0  0  0  0
    8.5252   10.2257   21.5687 H   0  0  0  0  0  0  0  0  0  0  0  0
    6.1715   12.4438   25.2779 H   0  0  0  0  0  0  0  0  0  0  0  0
    7.0660   11.5742   26.5718 H   0  0  0  0  0  0  0  0  0  0  0  0
    9.7344   12.0218   21.9272 H   0  0  0  0  0  0  0  0  0  0  0  0
    6.4087   11.3669   22.6797 H   0  0  0  0  0  0  0  0  0  0  0  0
    6.3112    9.8584   24.7218 H   0  0  0  0  0  0  0  0  0  0  0  0
    9.8134    8.8441   23.5123 H   0  0  0  0  0  0  0  0  0  0  0  0
    8.6491   13.3459   25.4520 H   0  0  0  0  0  0  0  0  0  0  0  0
    7.7197   13.3211   23.0930 H   0  0  0  0  0  0  0  0  0  0  0  0
   11.1811   10.8643   23.9286 H   0  0  0  0  0  0  0  0  0  0  0  0
    8.5866    9.2070   25.6947 H   0  0  0  0  0  0  0  0  0  0  0  0
    9.9640   11.2536   26.1173 H   0  0  0  0  0  0  0  0  0  0  0  0
   12.9657   13.4119   23.7877 H   0  0  0  0  0  0  0  0  0  0  0  0
   13.3998   12.7717   22.1866 H   0  0  0  0  0  0  0  0  0  0  0  0
   14.2366   14.1878   22.8590 H   0  0  0  0  0  0  0  0  0  0  0  0
   11.9149   15.6619   20.2539 H   0  0  0  0  0  0  0  0  0  0  0  0
   12.7140   14.1101   20.0740 H   0  0  0  0  0  0  0  0  0  0  0  0
   13.6265   15.4989   20.7051 H   0  0  0  0  0  0  0  0  0  0  0  0
   11.2795   16.5304   22.5282 H   0  0  0  0  0  0  0  0  0  0  0  0
   11.6819   15.6122   23.9953 H   0  0  0  0  0  0  0  0  0  0  0  0
   12.9484   16.4439   23.0644 H   0  0  0  0  0  0  0  0  0  0  0  0
  1  4  1  0  0  0  0
  1 17  2  0  0  0  0
  1 18  1  0  0  0  0
  2  5  1  0  0  0  0
  2  7  1  0  0  0  0
  3  6  1  0  0  0  0
  3  8  1  0  0  0  0
  4  9  1  0  0  0  0
  4 10  1  0  0  0  0
  5  6  1  0  0  0  0
  5  9  1  0  0  0  0
  6 11  1  0  0  0  0
  7 10  1  0  0  0  0
  7 11  1  0  0  0  0
  8  9  1  0  0  0  0
  8 12  1  0  0  0  0
 10 12  1  0  0  0  0
 11 12  1  0  0  0  0
 13 16  1  0  0  0  0
 14 16  1  0  0  0  0
 15 16  1  0  0  0  0
 16 18  1  0  0  0  0
  2 19  1  0  0  0  0
  2 20  1  0  0  0  0
  3 21  1  0  0  0  0
  3 22  1  0  0  0  0
  4 23  1  0  0  0  0
  5 24  1  0  0  0  0
  6 25  1  0  0  0  0
  7 26  1  0  0  0  0
  8 27  1  0  0  0  0
  9 28  1  0  0  0  0
 10 29  1  0  0  0  0
 11 30  1  0  0  0  0
 12 31  1  0  0  0  0
 13 32  1  0  0  0  0
 13 33  1  0  0  0  0
 13 34  1  0  0  0  0
 14 35  1  0  0  0  0
 14 36  1  0  0  0  0
 14 37  1  0  0  0  0
 15 38  1  0  0  0  0
 15 39  1  0  0  0  0
 15 40  1  0  0  0  0
M  END
> <id>
EN300-27701177

> <smiles>
CC(C)(C)OC(=O)C1C2C3CC4C5CC(C2C35)C14

> <MDLNUMBER>
MFCD34167909

> <IUPAC Name>
tert-butyl pentacyclo[5.4.0.0^{2,6}.0^{3,10}.0^{5,9}]undecane-8-carboxylate

> <CAS>
2648938-88-7

> <Purity>
95

> <URL>
https://www.enaminestore.com/catalog/EN300-27701177

> <ROCS_ShapeQuery>
A71EV2A-x0451_0A_A71EV2A-x0310_0A_A71EV2A-x0416_0A_peptide

> <ROCS_TanimotoCombo>
0.510 

> <ROCS_ShapeTanimoto>
0.328 

> <ROCS_ColorTanimoto>
0.182 

> <ROCS_RefTversky>
0.289 

> <ROCS_RefColorTversky>
0.544 

> <ROCS_RefTverskyCombo>
0.833 

> <ROCS_FitTversky>
1.700 

> <ROCS_FitColorTversky>
0.214 

> <ROCS_FitTverskyCombo>
1.914 

> <ROCS_ColorScore>
-18.877

> <ROCS_Overlap>
2005.879

> <ROCS_Rank>
397                 

$$$$
untitled-dbase-153264_22
  -OEChem-11132313473D

 30 30  0     0  0  0  0  0  0999 V2000
    9.2422   11.5081   23.5343 C   0  0  0  0  0  0  0  0  0  0  0  0
    9.1438   10.1358   23.4275 C   0  0  0  0  0  0  0  0  0  0  0  0
    8.3098   12.1117   24.3531 C   0  0  0  0  0  0  0  0  0  0  0  0
    7.3593   10.1039   24.8353 C   0  0  0  0  0  0  0  0  0  0  0  0
   10.8290   13.4324   23.2340 C   0  0  0  0  0  0  0  0  0  0  0  0
    6.3125    9.3247   25.5571 C   0  0  0  0  0  0  0  0  0  0  0  0
   11.5376   16.1550   22.7195 C   0  0  0  0  0  0  0  0  0  0  0  0
   12.6295   15.2831   20.6322 C   0  0  0  0  0  0  0  0  0  0  0  0
   10.1514   15.0244   20.9490 C   0  0  0  0  0  0  0  0  0  0  0  0
   11.5097   15.0664   21.6477 C   0  0  0  0  0  0  0  0  0  0  0  0
    8.2112    9.3993   24.0664 N   0  0  0  0  0  0  0  0  0  0  0  0
    7.3507   11.4377   25.0211 N   0  0  0  0  0  0  0  0  0  0  0  0
   10.2329   12.2473   22.8486 N   0  0  0  0  0  0  0  0  0  0  0  0
   10.6171   14.0825   24.2503 O   0  0  0  0  0  0  0  0  0  0  0  0
   11.7370   13.8042   22.2759 O   0  0  0  0  0  0  0  0  0  0  0  0
   10.2122    9.1993   22.4563 Cl  0  0  0  0  0  0  0  0  0  0  0  0
    8.2647   13.8121   24.6146 Cl  0  0  0  0  0  0  0  0  0  0  0  0
    6.6784    9.0164   26.5442 H   0  0  0  0  0  0  0  0  0  0  0  0
    5.3985    9.9170   25.6944 H   0  0  0  0  0  0  0  0  0  0  0  0
    6.0268    8.4256   24.9955 H   0  0  0  0  0  0  0  0  0  0  0  0
   10.7353   16.0030   23.4504 H   0  0  0  0  0  0  0  0  0  0  0  0
   12.4942   16.1725   23.2518 H   0  0  0  0  0  0  0  0  0  0  0  0
   11.3695   17.1436   22.2772 H   0  0  0  0  0  0  0  0  0  0  0  0
   12.6132   14.5043   19.8612 H   0  0  0  0  0  0  0  0  0  0  0  0
   13.6115   15.2195   21.1145 H   0  0  0  0  0  0  0  0  0  0  0  0
   12.5467   16.2583   20.1415 H   0  0  0  0  0  0  0  0  0  0  0  0
   10.1311   14.2436   20.1801 H   0  0  0  0  0  0  0  0  0  0  0  0
    9.3391   14.8328   21.6576 H   0  0  0  0  0  0  0  0  0  0  0  0
    9.9486   15.9705   20.4343 H   0  0  0  0  0  0  0  0  0  0  0  0
   10.5454   11.8587   21.9621 H   0  0  0  0  0  0  0  0  0  0  0  0
  1  2  2  0  0  0  0
  1  3  1  0  0  0  0
  1 13  1  0  0  0  0
  2 11  1  0  0  0  0
  2 16  1  0  0  0  0
  3 12  2  0  0  0  0
  3 17  1  0  0  0  0
  4  6  1  0  0  0  0
  4 11  2  0  0  0  0
  4 12  1  0  0  0  0
  5 13  1  0  0  0  0
  5 14  2  0  0  0  0
  5 15  1  0  0  0  0
  7 10  1  0  0  0  0
  8 10  1  0  0  0  0
  9 10  1  0  0  0  0
 10 15  1  0  0  0  0
  6 18  1  0  0  0  0
  6 19  1  0  0  0  0
  6 20  1  0  0  0  0
  7 21  1  0  0  0  0
  7 22  1  0  0  0  0
  7 23  1  0  0  0  0
  8 24  1  0  0  0  0
  8 25  1  0  0  0  0
  8 26  1  0  0  0  0
  9 27  1  0  0  0  0
  9 28  1  0  0  0  0
  9 29  1  0  0  0  0
 13 30  1  0  0  0  0
M  END
> <id>
EN300-28285258

> <smiles>
CC=1N=C(Cl)C(NC(=O)OC(C)(C)C)=C(Cl)N1

> <MDLNUMBER>
MFCD33548519

> <IUPAC Name>
tert-butyl N-(4,6-dichloro-2-methylpyrimidin-5-yl)carbamate

> <CAS>
2680659-39-4

> <URL>
https://www.enaminestore.com/catalog/EN300-28285258

> <ROCS_ShapeQuery>
A71EV2A-x0451_0A_A71EV2A-x0310_0A_A71EV2A-x0416_0A_peptide

> <ROCS_TanimotoCombo>
0.510 

> <ROCS_ShapeTanimoto>
0.323 

> <ROCS_ColorTanimoto>
0.186 

> <ROCS_RefTversky>
0.282 

> <ROCS_RefColorTversky>
0.195 

> <ROCS_RefTverskyCombo>
0.476 

> <ROCS_FitTversky>
1.841 

> <ROCS_FitColorTversky>
0.812 

> <ROCS_FitTverskyCombo>
2.653 

> <ROCS_ColorScore>
-5.923

> <ROCS_Overlap>
1953.585

> <ROCS_Rank>
398                 

$$$$
untitled-dbase-27456_1
  -OEChem-11132313473D

 19 20  0     0  0  0  0  0  0999 V2000
    9.2741    9.7315   23.2937 C   0  0  0  0  0  0  0  0  0  0  0  0
    6.7133   12.1975   25.7641 C   0  0  0  0  0  0  0  0  0  0  0  0
    8.4691   11.9381   24.4560 C   0  0  0  0  0  0  0  0  0  0  0  0
    9.6035   11.9898   23.6700 C   0  0  0  0  0  0  0  0  0  0  0  0
    7.7747   10.7478   24.6249 C   0  0  0  0  0  0  0  0  0  0  0  0
   10.3776   13.1894   23.4475 C   0  0  0  0  0  0  0  0  0  0  0  0
   10.0110   10.8464   23.0745 N   0  0  0  0  0  0  0  0  0  0  0  0
    8.1587    9.5871   24.0412 N   0  0  0  0  0  0  0  0  0  0  0  0
    6.6855   10.9223   25.4400 N   0  0  0  0  0  0  0  0  0  0  0  0
    7.7727   12.8526   25.1937 N   0  0  0  0  0  0  0  0  0  0  0  0
   11.7840   14.4129   21.9196 N   0  0  0  0  0  0  0  0  0  0  0  0
   11.0431   13.2839   22.2176 N   0  0  0  0  0  0  0  0  0  0  0  0
   10.4488   14.1178   24.2767 O   0  0  0  0  0  0  0  0  0  0  0  0
    9.6289    8.8325   22.8012 H   0  0  0  0  0  0  0  0  0  0  0  0
    6.0041   12.7062   26.4013 H   0  0  0  0  0  0  0  0  0  0  0  0
    7.9947   13.8335   25.3015 H   0  0  0  0  0  0  0  0  0  0  0  0
   12.1824   14.7437   22.7974 H   0  0  0  0  0  0  0  0  0  0  0  0
   12.5724   14.1062   21.3515 H   0  0  0  0  0  0  0  0  0  0  0  0
   10.9814   12.5253   21.5471 H   0  0  0  0  0  0  0  0  0  0  0  0
  1  7  1  0  0  0  0
  1  8  2  0  0  0  0
  2  9  2  0  0  0  0
  2 10  1  0  0  0  0
  3  4  1  0  0  0  0
  3  5  2  0  0  0  0
  3 10  1  0  0  0  0
  4  6  1  0  0  0  0
  4  7  2  0  0  0  0
  5  8  1  0  0  0  0
  5  9  1  0  0  0  0
  6 12  1  0  0  0  0
  6 13  2  0  0  0  0
 11 12  1  0  0  0  0
  1 14  1  0  0  0  0
  2 15  1  0  0  0  0
 10 16  1  0  0  0  0
 11 17  1  0  0  0  0
 11 18  1  0  0  0  0
 12 19  1  0  0  0  0
M  END
> <id>
EN300-384463

> <smiles>
NNC(=O)C=1N=CN=C2N=CNC12

> <MDLNUMBER>
MFCD20669479

> <IUPAC Name>
7H-purine-6-carbohydrazide

> <CAS>
98198-25-5

> <Purity>
95

> <URL>
https://www.enaminestore.com/catalog/EN300-384463

> <ROCS_ShapeQuery>
A71EV2A-x0451_0A_A71EV2A-x0310_0A_A71EV2A-x0416_0A_peptide

> <ROCS_TanimotoCombo>
0.510 

> <ROCS_ShapeTanimoto>
0.294 

> <ROCS_ColorTanimoto>
0.216 

> <ROCS_RefTversky>
0.258 

> <ROCS_RefColorTversky>
0.243 

> <ROCS_RefTverskyCombo>
0.502 

> <ROCS_FitTversky>
1.894 

> <ROCS_FitColorTversky>
0.654 

> <ROCS_FitTverskyCombo>
2.548 

> <ROCS_ColorScore>
-7.459

> <ROCS_Overlap>
1788.217

> <ROCS_Rank>
399                 

$$$$
untitled-dbase-104791_56
  -OEChem-11132313473D

 44 46  0     1  0  0  0  0  0999 V2000
    8.5013   11.9524   24.1430 C   0  0  0  0  0  0  0  0  0  0  0  0
    9.3798   12.9558   23.6118 C   0  0  0  0  0  0  0  0  0  0  0  0
   10.4311   12.3956   22.9101 C   0  0  0  0  0  0  0  0  0  0  0  0
    7.3230   12.0147   24.8964 C   0  0  0  0  0  0  0  0  0  0  0  0
    8.9489   10.6777   23.8166 C   0  0  0  0  0  0  0  0  0  0  0  0
    7.2401    9.7147   24.8798 C   0  0  0  0  0  0  0  0  0  0  0  0
    5.6148   13.4810   26.0112 C   0  0  0  0  0  0  0  0  0  0  0  0
    9.2176   14.4411   23.7394 C   0  0  0  0  0  0  0  0  0  0  0  0
   11.5357   13.1615   22.2496 C   0  0  0  0  0  0  0  0  0  0  0  0
   10.5101   15.1937   23.3864 C   0  0  0  0  0  0  0  0  0  0  0  0
   11.1508   14.6494   22.0920 C   0  0  1  0  0  0  0  0  0  0  0  0
   12.3726   15.4782   21.7009 C   0  0  0  0  0  0  0  0  0  0  0  0
    4.0358   13.1281   28.3695 C   0  0  0  0  0  0  0  0  0  0  0  0
    4.2525   10.6658   27.9231 C   0  0  0  0  0  0  0  0  0  0  0  0
    6.3041   12.0376   28.3894 C   0  0  0  0  0  0  0  0  0  0  0  0
    4.9114   12.0339   27.7607 C   0  0  0  0  0  0  0  0  0  0  0  0
    6.6898   10.8814   25.2669 N   0  0  0  0  0  0  0  0  0  0  0  0
    8.3576    9.5166   24.1590 N   0  0  0  0  0  0  0  0  0  0  0  0
    6.7681   13.2415   25.2709 N   0  0  0  0  0  0  0  0  0  0  0  0
    5.1491   14.5693   26.3264 O   0  0  0  0  0  0  0  0  0  0  0  0
    5.0443   12.2849   26.3567 O   0  0  0  0  0  0  0  0  0  0  0  0
   10.3823   10.6954   22.8963 S   0  0  0  0  0  0  0  0  0  0  0  0
    6.3722    8.2402   25.3899 S   0  0  0  0  0  0  0  0  0  0  0  0
    8.4134   14.7658   23.0677 H   0  0  0  0  0  0  0  0  0  0  0  0
    8.9300   14.7138   24.7603 H   0  0  0  0  0  0  0  0  0  0  0  0
   12.4402   13.0711   22.8650 H   0  0  0  0  0  0  0  0  0  0  0  0
   11.7655   12.7386   21.2641 H   0  0  0  0  0  0  0  0  0  0  0  0
   10.2853   16.2619   23.2821 H   0  0  0  0  0  0  0  0  0  0  0  0
   11.2252   15.0985   24.2146 H   0  0  0  0  0  0  0  0  0  0  0  0
   10.4105   14.7346   21.2844 H   0  0  0  0  0  0  0  0  0  0  0  0
   13.1273   15.4145   22.4830 H   0  0  0  0  0  0  0  0  0  0  0  0
   12.0844   16.5195   21.5672 H   0  0  0  0  0  0  0  0  0  0  0  0
   12.7913   15.1012   20.7693 H   0  0  0  0  0  0  0  0  0  0  0  0
    4.5053   14.1117   28.2549 H   0  0  0  0  0  0  0  0  0  0  0  0
    3.0459   13.1589   27.9028 H   0  0  0  0  0  0  0  0  0  0  0  0
    3.9061   12.9711   29.4464 H   0  0  0  0  0  0  0  0  0  0  0  0
    4.8773    9.8777   27.4876 H   0  0  0  0  0  0  0  0  0  0  0  0
    3.2943   10.6286   27.3923 H   0  0  0  0  0  0  0  0  0  0  0  0
    4.0750   10.4253   28.9763 H   0  0  0  0  0  0  0  0  0  0  0  0
    6.9323   11.2528   27.9529 H   0  0  0  0  0  0  0  0  0  0  0  0
    6.8069   13.0001   28.2502 H   0  0  0  0  0  0  0  0  0  0  0  0
    6.2473   11.8265   29.4634 H   0  0  0  0  0  0  0  0  0  0  0  0
    7.2775   14.0737   24.9594 H   0  0  0  0  0  0  0  0  0  0  0  0
    7.2066    7.3522   24.8295 H   0  0  0  0  0  0  0  0  0  0  0  0
  1  2  1  0  0  0  0
  1  4  2  0  0  0  0
  1  5  1  0  0  0  0
  2  3  2  0  0  0  0
  2  8  1  0  0  0  0
  3  9  1  0  0  0  0
  3 22  1  0  0  0  0
  4 17  1  0  0  0  0
  4 19  1  0  0  0  0
  5 18  2  0  0  0  0
  5 22  1  0  0  0  0
  6 17  2  0  0  0  0
  6 18  1  0  0  0  0
  6 23  1  0  0  0  0
  7 19  1  0  0  0  0
  7 20  2  0  0  0  0
  7 21  1  0  0  0  0
  8 10  1  0  0  0  0
  9 11  1  0  0  0  0
 10 11  1  0  0  0  0
 11 12  1  0  0  0  0
 13 16  1  0  0  0  0
 14 16  1  0  0  0  0
 15 16  1  0  0  0  0
 16 21  1  0  0  0  0
  8 24  1  0  0  0  0
  8 25  1  0  0  0  0
  9 26  1  0  0  0  0
  9 27  1  0  0  0  0
 10 28  1  0  0  0  0
 10 29  1  0  0  0  0
 11 30  1  0  0  0  0
 12 31  1  0  0  0  0
 12 32  1  0  0  0  0
 12 33  1  0  0  0  0
 13 34  1  0  0  0  0
 13 35  1  0  0  0  0
 13 36  1  0  0  0  0
 14 37  1  0  0  0  0
 14 38  1  0  0  0  0
 14 39  1  0  0  0  0
 15 40  1  0  0  0  0
 15 41  1  0  0  0  0
 15 42  1  0  0  0  0
 19 43  1  0  0  0  0
 23 44  1  0  0  0  0
M  END
> <id>
EN300-26666293

> <smiles>
CC1CCC2=C(C1)SC=3N=C(S)N=C(NC(=O)OC(C)(C)C)C23

> <IUPAC Name>
tert-butyl N-{11-methyl-5-sulfanyl-8-thia-4,6-diazatricyclo[7.4.0.0,2,7]trideca-1(9),2,4,6-tetraen-3-yl}carbamate

> <CAS>
2413897-80-8

> <URL>
https://www.enaminestore.com/catalog/EN300-26666293

> <ROCS_ShapeQuery>
A71EV2A-x0451_0A_A71EV2A-x0310_0A_A71EV2A-x0416_0A_peptide

> <ROCS_TanimotoCombo>
0.510 

> <ROCS_ShapeTanimoto>
0.353 

> <ROCS_ColorTanimoto>
0.157 

> <ROCS_RefTversky>
0.311 

> <ROCS_RefColorTversky>
0.181 

> <ROCS_RefTverskyCombo>
0.491 

> <ROCS_FitTversky>
1.623 

> <ROCS_FitColorTversky>
0.543 

> <ROCS_FitTverskyCombo>
2.166 

> <ROCS_ColorScore>
-5.519

> <ROCS_Overlap>
2159.313

> <ROCS_Rank>
400                 

$$$$
untitled-dbase-146815_329
  -OEChem-11132313473D

 41 42  0     1  0  0  0  0  0999 V2000
   10.6996   13.7105   23.0712 C   0  0  0  0  0  0  0  0  0  0  0  0
    8.0783    9.7072   25.0701 C   0  0  0  0  0  0  0  0  0  0  0  0
    8.7997   10.8621   25.7773 C   0  0  0  0  0  0  0  0  0  0  0  0
    9.1319   10.3187   22.8811 C   0  0  0  0  0  0  0  0  0  0  0  0
    7.7923   10.0778   23.6024 C   0  0  2  0  0  0  0  0  0  0  0  0
    9.1036   11.9939   24.7719 C   0  0  1  0  0  0  0  0  0  0  0  0
    9.9592   11.3829   23.6345 C   0  0  2  0  0  0  0  0  0  0  0  0
    6.9672   11.3832   23.5544 C   0  0  2  0  0  0  0  0  0  0  0  0
    7.7724   12.5342   24.1958 C   0  0  1  0  0  0  0  0  0  0  0  0
   13.4523   13.8645   22.3302 C   0  0  0  0  0  0  0  0  0  0  0  0
   12.7425   15.7176   20.7903 C   0  0  0  0  0  0  0  0  0  0  0  0
   12.4436   15.9696   23.2713 C   0  0  0  0  0  0  0  0  0  0  0  0
   12.4444   14.9894   22.0991 C   0  0  0  0  0  0  0  0  0  0  0  0
   10.4431   12.4042   22.7077 N   0  0  0  0  0  0  0  0  0  0  0  0
   10.5596   14.1809   24.1953 O   0  0  0  0  0  0  0  0  0  0  0  0
    5.7176   11.2014   24.2101 O   0  0  0  0  0  0  0  0  0  0  0  0
    7.0316   13.2185   25.1993 O   0  0  0  0  0  0  0  0  0  0  0  0
   11.1379   14.4143   21.9849 O   0  0  0  0  0  0  0  0  0  0  0  0
    8.6978    8.8030   25.1129 H   0  0  0  0  0  0  0  0  0  0  0  0
    7.1488    9.4691   25.6002 H   0  0  0  0  0  0  0  0  0  0  0  0
    8.1824   11.2373   26.6020 H   0  0  0  0  0  0  0  0  0  0  0  0
    9.7294   10.4958   26.2292 H   0  0  0  0  0  0  0  0  0  0  0  0
    9.7043    9.3844   22.8276 H   0  0  0  0  0  0  0  0  0  0  0  0
    8.9383   10.6221   21.8443 H   0  0  0  0  0  0  0  0  0  0  0  0
    7.2382    9.2617   23.1251 H   0  0  0  0  0  0  0  0  0  0  0  0
    9.6480   12.7897   25.2944 H   0  0  0  0  0  0  0  0  0  0  0  0
   10.8565   10.9242   24.0475 H   0  0  0  0  0  0  0  0  0  0  0  0
    6.7519   11.6358   22.5100 H   0  0  0  0  0  0  0  0  0  0  0  0
    8.0059   13.2809   23.4141 H   0  0  0  0  0  0  0  0  0  0  0  0
   13.2417   13.3393   23.2687 H   0  0  0  0  0  0  0  0  0  0  0  0
   13.4378   13.1358   21.5132 H   0  0  0  0  0  0  0  0  0  0  0  0
   14.4692   14.2631   22.4206 H   0  0  0  0  0  0  0  0  0  0  0  0
   12.0218   16.5256   20.6205 H   0  0  0  0  0  0  0  0  0  0  0  0
   12.6510   15.0376   19.9357 H   0  0  0  0  0  0  0  0  0  0  0  0
   13.7503   16.1455   20.7865 H   0  0  0  0  0  0  0  0  0  0  0  0
   11.7207   16.7766   23.1058 H   0  0  0  0  0  0  0  0  0  0  0  0
   12.1951   15.4710   24.2138 H   0  0  0  0  0  0  0  0  0  0  0  0
   13.4232   16.4492   23.3788 H   0  0  0  0  0  0  0  0  0  0  0  0
   10.5997   12.1369   21.7399 H   0  0  0  0  0  0  0  0  0  0  0  0
    5.2449   12.0469   24.1497 H   0  0  0  0  0  0  0  0  0  0  0  0
    6.8563   12.5749   25.9043 H   0  0  0  0  0  0  0  0  0  0  0  0
  1 14  1  0  0  0  0
  1 15  2  0  0  0  0
  1 18  1  0  0  0  0
  2  3  1  0  0  0  0
  2  5  1  0  0  0  0
  3  6  1  1  0  0  0
  4  5  1  6  0  0  0
  4  7  1  0  0  0  0
  5  8  1  0  0  0  0
  6  7  1  0  0  0  0
  6  9  1  0  0  0  0
  7 14  1  6  0  0  0
  8  9  1  0  0  0  0
  8 16  1  1  0  0  0
  9 17  1  1  0  0  0
 10 13  1  0  0  0  0
 11 13  1  0  0  0  0
 12 13  1  0  0  0  0
 13 18  1  0  0  0  0
  2 19  1  0  0  0  0
  2 20  1  0  0  0  0
  3 21  1  0  0  0  0
  3 22  1  0  0  0  0
  4 23  1  0  0  0  0
  4 24  1  0  0  0  0
  5 25  1  0  0  0  0
  6 26  1  0  0  0  0
  7 27  1  0  0  0  0
  8 28  1  0  0  0  0
  9 29  1  0  0  0  0
 10 30  1  0  0  0  0
 10 31  1  0  0  0  0
 10 32  1  0  0  0  0
 11 33  1  0  0  0  0
 11 34  1  0  0  0  0
 11 35  1  0  0  0  0
 12 36  1  0  0  0  0
 12 37  1  0  0  0  0
 12 38  1  0  0  0  0
 14 39  1  0  0  0  0
 16 40  1  0  0  0  0
 17 41  1  0  0  0  0
M  END
> <id>
EN300-28228780

> <smiles>
CC(C)(C)OC(=O)N[C@@H]1C[C@H]2CC[C@@H]1[C@H](O)[C@@H]2O |&1:8,10,13,14,16,r|

> <IUPAC Name>
rac-tert-butyl N-[(1R,2S,4S,5S,6R)-5,6-dihydroxybicyclo[2.2.2]octan-2-yl]carbamate

> <CAS>
2188213-18-3

> <URL>
https://www.enaminestore.com/catalog/EN300-28228780

> <ROCS_ShapeQuery>
A71EV2A-x0451_0A_A71EV2A-x0310_0A_A71EV2A-x0416_0A_peptide

> <ROCS_TanimotoCombo>
0.510 

> <ROCS_ShapeTanimoto>
0.296 

> <ROCS_ColorTanimoto>
0.213 

> <ROCS_RefTversky>
0.265 

> <ROCS_RefColorTversky>
0.255 

> <ROCS_RefTverskyCombo>
0.520 

> <ROCS_FitTversky>
1.657 

> <ROCS_FitColorTversky>
0.564 

> <ROCS_FitTverskyCombo>
2.222 

> <ROCS_ColorScore>
-7.855

> <ROCS_Overlap>
1839.154

> <ROCS_Rank>
401                 

$$$$
untitled-dbase-143239_60
  -OEChem-11132313473D

 42 43  0     0  0  0  0  0  0999 V2000
    7.2649   12.0921   25.5926 C   0  0  0  0  0  0  0  0  0  0  0  0
    8.4400   12.5574   25.0138 C   0  0  0  0  0  0  0  0  0  0  0  0
    8.6600   10.4178   23.9579 C   0  0  0  0  0  0  0  0  0  0  0  0
    9.1495   11.7250   24.1403 C   0  0  0  0  0  0  0  0  0  0  0  0
    7.4612   10.0589   24.5742 C   0  0  0  0  0  0  0  0  0  0  0  0
    8.9143   13.8140   25.5752 C   0  0  0  0  0  0  0  0  0  0  0  0
   10.7898   13.4666   23.2708 C   0  0  0  0  0  0  0  0  0  0  0  0
    9.3823    9.4206   23.1026 C   0  0  0  0  0  0  0  0  0  0  0  0
   10.8733    9.6683   23.2221 C   0  0  0  0  0  0  0  0  0  0  0  0
   11.1917   11.1022   22.8344 C   0  0  0  0  0  0  0  0  0  0  0  0
   12.9676   15.3206   23.0817 C   0  0  0  0  0  0  0  0  0  0  0  0
   12.7981   14.9756   20.5995 C   0  0  0  0  0  0  0  0  0  0  0  0
   10.8647   15.9671   21.8592 C   0  0  0  0  0  0  0  0  0  0  0  0
   10.2896   14.7688   27.2724 C   0  0  0  0  0  0  0  0  0  0  0  0
   12.0327   14.9839   21.9209 C   0  0  0  0  0  0  0  0  0  0  0  0
    6.7471   10.8674   25.3818 N   0  0  0  0  0  0  0  0  0  0  0  0
   10.3610   12.1333   23.4725 N   0  0  0  0  0  0  0  0  0  0  0  0
    8.5964   14.9316   25.1514 O   0  0  0  0  0  0  0  0  0  0  0  0
   10.5978   14.3676   24.0892 O   0  0  0  0  0  0  0  0  0  0  0  0
    6.9400    8.8055   24.3861 O   0  0  0  0  0  0  0  0  0  0  0  0
    9.7559   13.6046   26.6324 O   0  0  0  0  0  0  0  0  0  0  0  0
   11.5091   13.6659   22.1248 O   0  0  0  0  0  0  0  0  0  0  0  0
    6.7020   12.6975   26.2975 H   0  0  0  0  0  0  0  0  0  0  0  0
    9.1385    8.4172   23.4454 H   0  0  0  0  0  0  0  0  0  0  0  0
    9.1024    9.5186   22.0565 H   0  0  0  0  0  0  0  0  0  0  0  0
   11.2005    9.4739   24.2499 H   0  0  0  0  0  0  0  0  0  0  0  0
   11.4296    8.9793   22.5734 H   0  0  0  0  0  0  0  0  0  0  0  0
   12.2455   11.3445   23.0788 H   0  0  0  0  0  0  0  0  0  0  0  0
   11.1168   11.1736   21.7320 H   0  0  0  0  0  0  0  0  0  0  0  0
   12.4219   15.3275   24.0321 H   0  0  0  0  0  0  0  0  0  0  0  0
   13.7903   14.6023   23.1584 H   0  0  0  0  0  0  0  0  0  0  0  0
   13.3935   16.3234   22.9625 H   0  0  0  0  0  0  0  0  0  0  0  0
   12.1312   14.7345   19.7638 H   0  0  0  0  0  0  0  0  0  0  0  0
   13.5775   14.2050   20.6047 H   0  0  0  0  0  0  0  0  0  0  0  0
   13.2689   15.9435   20.3992 H   0  0  0  0  0  0  0  0  0  0  0  0
   10.1940   15.7258   21.0266 H   0  0  0  0  0  0  0  0  0  0  0  0
   10.2818   15.9596   22.7859 H   0  0  0  0  0  0  0  0  0  0  0  0
   11.2233   16.9875   21.6816 H   0  0  0  0  0  0  0  0  0  0  0  0
   10.9420   14.4664   28.0952 H   0  0  0  0  0  0  0  0  0  0  0  0
    9.4704   15.3856   27.6505 H   0  0  0  0  0  0  0  0  0  0  0  0
   10.8679   15.3415   26.5435 H   0  0  0  0  0  0  0  0  0  0  0  0
    6.1125    8.7202   24.8790 H   0  0  0  0  0  0  0  0  0  0  0  0
  1  2  2  0  0  0  0
  1 16  1  0  0  0  0
  2  4  1  0  0  0  0
  2  6  1  0  0  0  0
  3  4  2  0  0  0  0
  3  5  1  0  0  0  0
  3  8  1  0  0  0  0
  4 17  1  0  0  0  0
  5 16  2  0  0  0  0
  5 20  1  0  0  0  0
  6 18  2  0  0  0  0
  6 21  1  0  0  0  0
  7 17  1  0  0  0  0
  7 19  2  0  0  0  0
  7 22  1  0  0  0  0
  8  9  1  0  0  0  0
  9 10  1  0  0  0  0
 10 17  1  0  0  0  0
 11 15  1  0  0  0  0
 12 15  1  0  0  0  0
 13 15  1  0  0  0  0
 14 21  1  0  0  0  0
 15 22  1  0  0  0  0
  1 23  1  0  0  0  0
  8 24  1  0  0  0  0
  8 25  1  0  0  0  0
  9 26  1  0  0  0  0
  9 27  1  0  0  0  0
 10 28  1  0  0  0  0
 10 29  1  0  0  0  0
 11 30  1  0  0  0  0
 11 31  1  0  0  0  0
 11 32  1  0  0  0  0
 12 33  1  0  0  0  0
 12 34  1  0  0  0  0
 12 35  1  0  0  0  0
 13 36  1  0  0  0  0
 13 37  1  0  0  0  0
 13 38  1  0  0  0  0
 14 39  1  0  0  0  0
 14 40  1  0  0  0  0
 14 41  1  0  0  0  0
 20 42  1  0  0  0  0
M  END
> <id>
EN300-27718564

> <smiles>
COC(=O)C=1C=NC(O)=C2CCCN(C(=O)OC(C)(C)C)C12

> <IUPAC Name>
1-tert-butyl 8-methyl 5-hydroxy-1,2,3,4-tetrahydro-1,6-naphthyridine-1,8-dicarboxylate

> <CAS>
2580244-32-0

> <URL>
https://www.enaminestore.com/catalog/EN300-27718564

> <ROCS_ShapeQuery>
A71EV2A-x0451_0A_A71EV2A-x0310_0A_A71EV2A-x0416_0A_peptide

> <ROCS_TanimotoCombo>
0.510 

> <ROCS_ShapeTanimoto>
0.357 

> <ROCS_ColorTanimoto>
0.152 

> <ROCS_RefTversky>
0.313 

> <ROCS_RefColorTversky>
0.172 

> <ROCS_RefTverskyCombo>
0.485 

> <ROCS_FitTversky>
1.657 

> <ROCS_FitColorTversky>
0.570 

> <ROCS_FitTverskyCombo>
2.227 

> <ROCS_ColorScore>
-5.245

> <ROCS_Overlap>
2174.850

> <ROCS_Rank>
402                 

$$$$
untitled-dbase-178413_204
  -OEChem-11132313473D

 37 38  0     0  0  0  0  0  0999 V2000
   10.4783   13.2410   23.4108 C   0  0  0  0  0  0  0  0  0  0  0  0
    9.2562    9.6683   23.5801 C   0  0  0  0  0  0  0  0  0  0  0  0
    7.2222   11.2288   23.7883 C   0  0  0  0  0  0  0  0  0  0  0  0
    8.4243   11.1169   25.5299 C   0  0  0  0  0  0  0  0  0  0  0  0
    9.8562   10.8768   22.8506 C   0  0  0  0  0  0  0  0  0  0  0  0
    8.0519   10.0823   24.4261 C   0  0  0  0  0  0  0  0  0  0  0  0
    8.3274   12.1755   24.3848 C   0  0  0  0  0  0  0  0  0  0  0  0
   12.4171   15.2126   22.6604 C   0  0  0  0  0  0  0  0  0  0  0  0
   12.1560   14.3150   20.3290 C   0  0  0  0  0  0  0  0  0  0  0  0
   10.1916   15.3596   21.4942 C   0  0  0  0  0  0  0  0  0  0  0  0
    7.8080   13.5473   24.7617 C   0  0  0  0  0  0  0  0  0  0  0  0
   11.4664   14.5366   21.6734 C   0  0  0  0  0  0  0  0  0  0  0  0
    9.5969   12.1564   23.5446 N   0  0  0  0  0  0  0  0  0  0  0  0
   10.6805   14.1011   24.2637 O   0  0  0  0  0  0  0  0  0  0  0  0
    6.5215   13.4096   25.3457 O   0  0  0  0  0  0  0  0  0  0  0  0
   11.1095   13.2502   22.1926 O   0  0  0  0  0  0  0  0  0  0  0  0
    8.9460    8.9085   22.8530 H   0  0  0  0  0  0  0  0  0  0  0  0
   10.0248    9.2117   24.2139 H   0  0  0  0  0  0  0  0  0  0  0  0
    7.1281   11.2207   22.6996 H   0  0  0  0  0  0  0  0  0  0  0  0
    6.2256   11.3623   24.2237 H   0  0  0  0  0  0  0  0  0  0  0  0
    7.6650   11.2078   26.3190 H   0  0  0  0  0  0  0  0  0  0  0  0
    9.3975   10.9887   26.0154 H   0  0  0  0  0  0  0  0  0  0  0  0
   10.9469   10.7784   22.7934 H   0  0  0  0  0  0  0  0  0  0  0  0
    9.4832   10.9049   21.8219 H   0  0  0  0  0  0  0  0  0  0  0  0
    7.4632    9.2264   24.7698 H   0  0  0  0  0  0  0  0  0  0  0  0
   11.9258   15.3734   23.6267 H   0  0  0  0  0  0  0  0  0  0  0  0
   13.3199   14.6152   22.8244 H   0  0  0  0  0  0  0  0  0  0  0  0
   12.7180   16.2022   22.2981 H   0  0  0  0  0  0  0  0  0  0  0  0
   11.4775   13.8302   19.6177 H   0  0  0  0  0  0  0  0  0  0  0  0
   13.0179   13.6468   20.4379 H   0  0  0  0  0  0  0  0  0  0  0  0
   12.5010   15.2575   19.8917 H   0  0  0  0  0  0  0  0  0  0  0  0
    9.5095   14.8750   20.7863 H   0  0  0  0  0  0  0  0  0  0  0  0
    9.6637   15.4975   22.4434 H   0  0  0  0  0  0  0  0  0  0  0  0
   10.4205   16.3467   21.0765 H   0  0  0  0  0  0  0  0  0  0  0  0
    7.7269   14.1831   23.8753 H   0  0  0  0  0  0  0  0  0  0  0  0
    8.4750   14.0242   25.4857 H   0  0  0  0  0  0  0  0  0  0  0  0
    6.2187   14.3037   25.5747 H   0  0  0  0  0  0  0  0  0  0  0  0
  1 13  1  0  0  0  0
  1 14  2  0  0  0  0
  1 16  1  0  0  0  0
  2  5  1  0  0  0  0
  2  6  1  0  0  0  0
  3  6  1  0  0  0  0
  3  7  1  0  0  0  0
  4  6  1  0  0  0  0
  4  7  1  0  0  0  0
  5 13  1  0  0  0  0
  7 11  1  0  0  0  0
  7 13  1  0  0  0  0
  8 12  1  0  0  0  0
  9 12  1  0  0  0  0
 10 12  1  0  0  0  0
 11 15  1  0  0  0  0
 12 16  1  0  0  0  0
  2 17  1  0  0  0  0
  2 18  1  0  0  0  0
  3 19  1  0  0  0  0
  3 20  1  0  0  0  0
  4 21  1  0  0  0  0
  4 22  1  0  0  0  0
  5 23  1  0  0  0  0
  5 24  1  0  0  0  0
  6 25  1  0  0  0  0
  8 26  1  0  0  0  0
  8 27  1  0  0  0  0
  8 28  1  0  0  0  0
  9 29  1  0  0  0  0
  9 30  1  0  0  0  0
  9 31  1  0  0  0  0
 10 32  1  0  0  0  0
 10 33  1  0  0  0  0
 10 34  1  0  0  0  0
 11 35  1  0  0  0  0
 11 36  1  0  0  0  0
 15 37  1  0  0  0  0
M  END
> <id>
EN300-365107

> <smiles>
CC(C)(C)OC(=O)N1CCC2CC1(CO)C2

> <MDLNUMBER>
MFCD23106184

> <IUPAC Name>
tert-butyl 1-(hydroxymethyl)-2-azabicyclo[3.1.1]heptane-2-carboxylate

> <CAS>
1392803-56-3

> <Purity>
95

> <URL>
https://www.enaminestore.com/catalog/EN300-365107

> <ROCS_ShapeQuery>
A71EV2A-x0451_0A_A71EV2A-x0310_0A_A71EV2A-x0416_0A_peptide

> <ROCS_TanimotoCombo>
0.510 

> <ROCS_ShapeTanimoto>
0.300 

> <ROCS_ColorTanimoto>
0.209 

> <ROCS_RefTversky>
0.265 

> <ROCS_RefColorTversky>
0.236 

> <ROCS_RefTverskyCombo>
0.502 

> <ROCS_FitTversky>
1.782 

> <ROCS_FitColorTversky>
0.647 

> <ROCS_FitTverskyCombo>
2.429 

> <ROCS_ColorScore>
-7.238

> <ROCS_Overlap>
1838.838

> <ROCS_Rank>
403                 

$$$$
untitled-dbase-155670_10
  -OEChem-11132313473D

 36 37  0     0  0  0  0  0  0999 V2000
    9.9962    9.4559   22.8591 C   0  0  0  0  0  0  0  0  0  0  0  0
    9.8108    8.0771   22.8814 C   0  0  0  0  0  0  0  0  0  0  0  0
    7.8746    8.3807   24.2942 C   0  0  0  0  0  0  0  0  0  0  0  0
    9.1128   10.2953   23.5601 C   0  0  0  0  0  0  0  0  0  0  0  0
    8.0365    9.7640   24.2893 C   0  0  0  0  0  0  0  0  0  0  0  0
    8.7487    7.5393   23.5997 C   0  0  0  0  0  0  0  0  0  0  0  0
    9.2422   11.6812   23.5789 C   0  0  0  0  0  0  0  0  0  0  0  0
    7.4182   11.8845   24.9034 C   0  0  0  0  0  0  0  0  0  0  0  0
   10.9510   13.4763   23.1685 C   0  0  0  0  0  0  0  0  0  0  0  0
    6.4708   12.7578   25.6542 C   0  0  0  0  0  0  0  0  0  0  0  0
   11.8356   16.0944   22.4320 C   0  0  0  0  0  0  0  0  0  0  0  0
   12.9420   14.9698   20.4775 C   0  0  0  0  0  0  0  0  0  0  0  0
   10.4439   14.8805   20.7220 C   0  0  0  0  0  0  0  0  0  0  0  0
   11.7786   14.9126   21.4651 C   0  0  0  0  0  0  0  0  0  0  0  0
    7.1859   10.5575   24.9634 N   0  0  0  0  0  0  0  0  0  0  0  0
    8.4090   12.5046   24.2426 N   0  0  0  0  0  0  0  0  0  0  0  0
   10.2926   12.2915   22.8743 N   0  0  0  0  0  0  0  0  0  0  0  0
   10.7422   14.2301   24.1113 O   0  0  0  0  0  0  0  0  0  0  0  0
   11.9107   13.7011   22.2178 O   0  0  0  0  0  0  0  0  0  0  0  0
    8.4840    5.6676   23.6374 Br  0  0  0  0  0  0  0  0  0  0  0  0
   10.8333    9.8527   22.2909 H   0  0  0  0  0  0  0  0  0  0  0  0
   10.5002    7.4389   22.3356 H   0  0  0  0  0  0  0  0  0  0  0  0
    7.0447    7.9508   24.8537 H   0  0  0  0  0  0  0  0  0  0  0  0
    6.8266   12.9144   26.6799 H   0  0  0  0  0  0  0  0  0  0  0  0
    6.3626   13.7372   25.1702 H   0  0  0  0  0  0  0  0  0  0  0  0
    5.4680   12.3129   25.6979 H   0  0  0  0  0  0  0  0  0  0  0  0
   11.0022   16.0570   23.1427 H   0  0  0  0  0  0  0  0  0  0  0  0
   12.7736   16.1088   22.9966 H   0  0  0  0  0  0  0  0  0  0  0  0
   11.7408   17.0446   21.8942 H   0  0  0  0  0  0  0  0  0  0  0  0
   12.9051   14.1237   19.7818 H   0  0  0  0  0  0  0  0  0  0  0  0
   13.9023   14.8973   21.0009 H   0  0  0  0  0  0  0  0  0  0  0  0
   12.9331   15.8973   19.8960 H   0  0  0  0  0  0  0  0  0  0  0  0
   10.4028   14.0329   20.0283 H   0  0  0  0  0  0  0  0  0  0  0  0
    9.5989   14.8022   21.4137 H   0  0  0  0  0  0  0  0  0  0  0  0
   10.3143   15.7836   20.1146 H   0  0  0  0  0  0  0  0  0  0  0  0
   10.6126   11.8001   22.0383 H   0  0  0  0  0  0  0  0  0  0  0  0
  1  2  2  0  0  0  0
  1  4  1  0  0  0  0
  2  6  1  0  0  0  0
  3  5  1  0  0  0  0
  3  6  2  0  0  0  0
  4  5  1  0  0  0  0
  4  7  2  0  0  0  0
  5 15  2  0  0  0  0
  6 20  1  0  0  0  0
  7 16  1  0  0  0  0
  7 17  1  0  0  0  0
  8 10  1  0  0  0  0
  8 15  1  0  0  0  0
  8 16  2  0  0  0  0
  9 17  1  0  0  0  0
  9 18  2  0  0  0  0
  9 19  1  0  0  0  0
 11 14  1  0  0  0  0
 12 14  1  0  0  0  0
 13 14  1  0  0  0  0
 14 19  1  0  0  0  0
  1 21  1  0  0  0  0
  2 22  1  0  0  0  0
  3 23  1  0  0  0  0
 10 24  1  0  0  0  0
 10 25  1  0  0  0  0
 10 26  1  0  0  0  0
 11 27  1  0  0  0  0
 11 28  1  0  0  0  0
 11 29  1  0  0  0  0
 12 30  1  0  0  0  0
 12 31  1  0  0  0  0
 12 32  1  0  0  0  0
 13 33  1  0  0  0  0
 13 34  1  0  0  0  0
 13 35  1  0  0  0  0
 17 36  1  0  0  0  0
M  END
> <id>
EN300-28296708

> <smiles>
CC=1N=C(NC(=O)OC(C)(C)C)C=2C=CC(Br)=CC2N1

> <IUPAC Name>
tert-butyl N-(7-bromo-2-methylquinazolin-4-yl)carbamate

> <CAS>
2680781-27-3

> <URL>
https://www.enaminestore.com/catalog/EN300-28296708

> <ROCS_ShapeQuery>
A71EV2A-x0451_0A_A71EV2A-x0310_0A_A71EV2A-x0416_0A_peptide

> <ROCS_TanimotoCombo>
0.510 

> <ROCS_ShapeTanimoto>
0.363 

> <ROCS_ColorTanimoto>
0.147 

> <ROCS_RefTversky>
0.313 

> <ROCS_RefColorTversky>
0.166 

> <ROCS_RefTverskyCombo>
0.479 

> <ROCS_FitTversky>
1.786 

> <ROCS_FitColorTversky>
0.552 

> <ROCS_FitTverskyCombo>
2.338 

> <ROCS_ColorScore>
-5.081

> <ROCS_Overlap>
2171.960

> <ROCS_Rank>
404                 

$$$$
untitled-dbase-174044_12
  -OEChem-11132313473D

 34 37  0     1  0  0  0  0  0999 V2000
    6.6946   12.2746   26.1992 C   0  0  0  0  0  0  0  0  0  0  0  0
    6.4340   10.9464   25.7868 C   0  0  0  0  0  0  0  0  0  0  0  0
    7.8084   12.9876   25.7225 C   0  0  0  0  0  0  0  0  0  0  0  0
    7.2165    8.9963   24.3466 C   0  0  0  0  0  0  0  0  0  0  0  0
    9.2694    9.3516   23.0359 C   0  0  0  0  0  0  0  0  0  0  0  0
    7.2979   10.3008   24.8765 C   0  0  0  0  0  0  0  0  0  0  0  0
    8.3810   11.0564   24.4410 C   0  0  0  0  0  0  0  0  0  0  0  0
    8.6419   12.3427   24.8340 C   0  0  0  0  0  0  0  0  0  0  0  0
    9.3370   10.6256   23.5619 C   0  0  0  0  0  0  0  0  0  0  0  0
    8.1962    8.5357   23.4370 C   0  0  0  0  0  0  0  0  0  0  0  0
    9.8767   12.7708   24.1419 C   0  0  0  0  0  0  0  0  0  0  0  0
   11.2896   13.8370   20.6091 C   0  0  0  0  0  0  0  0  0  0  0  0
   12.1832   12.8949   22.7532 C   0  0  0  0  0  0  0  0  0  0  0  0
   10.4271   12.6119   20.4353 C   0  0  0  0  0  0  0  0  0  0  0  0
   11.0722   11.3845   21.0540 C   0  0  0  0  0  0  0  0  0  0  0  0
   11.4141   11.6121   22.5181 C   0  0  2  0  0  0  0  0  0  0  0  0
   12.0724   13.8612   21.7581 N   0  0  0  0  0  0  0  0  0  0  0  0
   10.2581   11.6691   23.3720 N   0  0  0  0  0  0  0  0  0  0  0  0
   10.3939   13.8646   24.2634 O   0  0  0  0  0  0  0  0  0  0  0  0
   11.2445   14.7727   19.8107 O   0  0  0  0  0  0  0  0  0  0  0  0
   12.7894   13.0987   23.8062 O   0  0  0  0  0  0  0  0  0  0  0  0
    8.0970    7.2696   22.9377 O   0  0  0  0  0  0  0  0  0  0  0  0
    6.0166   12.7533   26.9018 H   0  0  0  0  0  0  0  0  0  0  0  0
    5.5619   10.4283   26.1777 H   0  0  0  0  0  0  0  0  0  0  0  0
    7.9957   14.0047   26.0467 H   0  0  0  0  0  0  0  0  0  0  0  0
    6.3992    8.3406   24.6372 H   0  0  0  0  0  0  0  0  0  0  0  0
   10.0137    8.9844   22.3375 H   0  0  0  0  0  0  0  0  0  0  0  0
    9.4583   12.7972   20.9125 H   0  0  0  0  0  0  0  0  0  0  0  0
   10.2564   12.4643   19.3627 H   0  0  0  0  0  0  0  0  0  0  0  0
   10.3840   10.5233   20.9520 H   0  0  0  0  0  0  0  0  0  0  0  0
   11.9828   11.1235   20.4845 H   0  0  0  0  0  0  0  0  0  0  0  0
   12.0448   10.7806   22.9034 H   0  0  0  0  0  0  0  0  0  0  0  0
   12.6392   14.6965   21.8877 H   0  0  0  0  0  0  0  0  0  0  0  0
    7.3136    6.8291   23.3007 H   0  0  0  0  0  0  0  0  0  0  0  0
  1  2  2  0  0  0  0
  1  3  1  0  0  0  0
  2  6  1  0  0  0  0
  3  8  2  0  0  0  0
  4  6  2  0  0  0  0
  4 10  1  0  0  0  0
  5  9  1  0  0  0  0
  5 10  2  0  0  0  0
  6  7  1  0  0  0  0
  7  8  1  0  0  0  0
  7  9  2  0  0  0  0
  8 11  1  0  0  0  0
  9 18  1  0  0  0  0
 10 22  1  0  0  0  0
 11 18  1  0  0  0  0
 11 19  2  0  0  0  0
 12 14  1  0  0  0  0
 12 17  1  0  0  0  0
 12 20  2  0  0  0  0
 13 16  1  0  0  0  0
 13 17  1  0  0  0  0
 13 21  2  0  0  0  0
 14 15  1  0  0  0  0
 15 16  1  0  0  0  0
 16 18  1  0  0  0  0
  1 23  1  0  0  0  0
  2 24  1  0  0  0  0
  3 25  1  0  0  0  0
  4 26  1  0  0  0  0
  5 27  1  0  0  0  0
 14 28  1  0  0  0  0
 14 29  1  0  0  0  0
 15 30  1  0  0  0  0
 15 31  1  0  0  0  0
 16 32  1  0  0  0  0
 17 33  1  0  0  0  0
 22 34  1  0  0  0  0
M  END
> <id>
EN300-43360437

> <smiles>
OC=1C=C2N(C3CCC(=O)NC3=O)C(=O)C=4C=CC=C(C1)C24

> <IUPAC Name>
3-{10-hydroxy-3-oxo-2-azatricyclo[6.3.1.0,4,12]dodeca-1(11),4(12),5,7,9-pentaen-2-yl}piperidine-2,6-dione

> <URL>
https://www.enaminestore.com/catalog/EN300-43360437

> <ROCS_ShapeQuery>
A71EV2A-x0451_0A_A71EV2A-x0310_0A_A71EV2A-x0416_0A_peptide

> <ROCS_TanimotoCombo>
0.510 

> <ROCS_ShapeTanimoto>
0.359 

> <ROCS_ColorTanimoto>
0.151 

> <ROCS_RefTversky>
0.316 

> <ROCS_RefColorTversky>
0.179 

> <ROCS_RefTverskyCombo>
0.494 

> <ROCS_FitTversky>
1.615 

> <ROCS_FitColorTversky>
0.492 

> <ROCS_FitTverskyCombo>
2.107 

> <ROCS_ColorScore>
-5.475

> <ROCS_Overlap>
2192.579

> <ROCS_Rank>
405                 

$$$$
untitled-dbase-104330_13
  -OEChem-11132313473D

 34 35  0     0  0  0  0  0  0999 V2000
    5.5888   11.7409   26.4257 C   0  0  0  0  0  0  0  0  0  0  0  0
    5.4863   10.3598   26.3493 C   0  0  0  0  0  0  0  0  0  0  0  0
    6.5942   12.3959   25.7168 C   0  0  0  0  0  0  0  0  0  0  0  0
    6.3903    9.6457   25.5649 C   0  0  0  0  0  0  0  0  0  0  0  0
    7.5027   11.6916   24.9300 C   0  0  0  0  0  0  0  0  0  0  0  0
    7.3988   10.2906   24.8526 C   0  0  0  0  0  0  0  0  0  0  0  0
    9.3144   11.6168   23.5109 C   0  0  0  0  0  0  0  0  0  0  0  0
    9.2134   10.2530   23.4357 C   0  0  0  0  0  0  0  0  0  0  0  0
   10.9466   13.4901   23.1405 C   0  0  0  0  0  0  0  0  0  0  0  0
   11.7164   16.1736   22.5194 C   0  0  0  0  0  0  0  0  0  0  0  0
   12.7860   15.1958   20.4677 C   0  0  0  0  0  0  0  0  0  0  0  0
   10.3030   15.0061   20.7948 C   0  0  0  0  0  0  0  0  0  0  0  0
   11.6626   15.0446   21.4911 C   0  0  0  0  0  0  0  0  0  0  0  0
    8.4640   12.3462   24.2553 N   0  0  0  0  0  0  0  0  0  0  0  0
    8.2589    9.5796   24.1028 N   0  0  0  0  0  0  0  0  0  0  0  0
   10.3148   12.2991   22.8062 N   0  0  0  0  0  0  0  0  0  0  0  0
   10.7483   14.1840   24.1303 O   0  0  0  0  0  0  0  0  0  0  0  0
   11.8625   13.7995   22.1704 O   0  0  0  0  0  0  0  0  0  0  0  0
   10.3188    9.2496   22.4619 S   0  0  0  0  0  0  0  0  0  0  0  0
    4.8910   12.3093   27.0330 H   0  0  0  0  0  0  0  0  0  0  0  0
    4.7067    9.8377   26.8954 H   0  0  0  0  0  0  0  0  0  0  0  0
    6.6634   13.4797   25.7864 H   0  0  0  0  0  0  0  0  0  0  0  0
    6.2980    8.5626   25.5129 H   0  0  0  0  0  0  0  0  0  0  0  0
   10.9116   16.0686   23.2558 H   0  0  0  0  0  0  0  0  0  0  0  0
   12.6737   16.1902   23.0504 H   0  0  0  0  0  0  0  0  0  0  0  0
   11.5704   17.1476   22.0386 H   0  0  0  0  0  0  0  0  0  0  0  0
   12.7512   14.3878   19.7280 H   0  0  0  0  0  0  0  0  0  0  0  0
   13.7669   15.1288   20.9521 H   0  0  0  0  0  0  0  0  0  0  0  0
   12.7249   16.1526   19.9392 H   0  0  0  0  0  0  0  0  0  0  0  0
   10.2642   14.1964   20.0572 H   0  0  0  0  0  0  0  0  0  0  0  0
    9.4873   14.8610   21.5106 H   0  0  0  0  0  0  0  0  0  0  0  0
   10.1212   15.9357   20.2434 H   0  0  0  0  0  0  0  0  0  0  0  0
   10.6194   11.8638   21.9324 H   0  0  0  0  0  0  0  0  0  0  0  0
    9.7713    8.0602   22.7539 H   0  0  0  0  0  0  0  0  0  0  0  0
  1  2  2  0  0  0  0
  1  3  1  0  0  0  0
  2  4  1  0  0  0  0
  3  5  2  0  0  0  0
  4  6  2  0  0  0  0
  5  6  1  0  0  0  0
  5 14  1  0  0  0  0
  6 15  1  0  0  0  0
  7  8  1  0  0  0  0
  7 14  2  0  0  0  0
  7 16  1  0  0  0  0
  8 15  2  0  0  0  0
  8 19  1  0  0  0  0
  9 16  1  0  0  0  0
  9 17  2  0  0  0  0
  9 18  1  0  0  0  0
 10 13  1  0  0  0  0
 11 13  1  0  0  0  0
 12 13  1  0  0  0  0
 13 18  1  0  0  0  0
  1 20  1  0  0  0  0
  2 21  1  0  0  0  0
  3 22  1  0  0  0  0
  4 23  1  0  0  0  0
 10 24  1  0  0  0  0
 10 25  1  0  0  0  0
 10 26  1  0  0  0  0
 11 27  1  0  0  0  0
 11 28  1  0  0  0  0
 11 29  1  0  0  0  0
 12 30  1  0  0  0  0
 12 31  1  0  0  0  0
 12 32  1  0  0  0  0
 16 33  1  0  0  0  0
 19 34  1  0  0  0  0
M  END
> <id>
EN300-26666415

> <smiles>
CC(C)(C)OC(=O)NC=1N=C2C=CC=CC2=NC1S

> <IUPAC Name>
tert-butyl N-(3-sulfanylquinoxalin-2-yl)carbamate

> <CAS>
2413898-30-1

> <URL>
https://www.enaminestore.com/catalog/EN300-26666415

> <ROCS_ShapeQuery>
A71EV2A-x0451_0A_A71EV2A-x0310_0A_A71EV2A-x0416_0A_peptide

> <ROCS_TanimotoCombo>
0.510 

> <ROCS_ShapeTanimoto>
0.350 

> <ROCS_ColorTanimoto>
0.159 

> <ROCS_RefTversky>
0.303 

> <ROCS_RefColorTversky>
0.179 

> <ROCS_RefTverskyCombo>
0.482 

> <ROCS_FitTversky>
1.785 

> <ROCS_FitColorTversky>
0.594 

> <ROCS_FitTverskyCombo>
2.380 

> <ROCS_ColorScore>
-5.463

> <ROCS_Overlap>
2104.753

> <ROCS_Rank>
406                 

$$$$
untitled-dbase-172347_410
  -OEChem-11132313473D

 41 43  0     0  0  0  0  0  0999 V2000
    9.3690   13.5259   24.1182 C   0  0  0  0  0  0  0  0  0  0  0  0
    5.8448   13.3014   26.7617 C   0  0  0  0  0  0  0  0  0  0  0  0
   10.1617   10.9588   24.2055 C   0  0  0  0  0  0  0  0  0  0  0  0
    8.9057   11.3703   22.5808 C   0  0  0  0  0  0  0  0  0  0  0  0
    6.5085   12.1201   24.5845 C   0  0  0  0  0  0  0  0  0  0  0  0
    7.8019   11.6970   26.2566 C   0  0  0  0  0  0  0  0  0  0  0  0
    9.0339   12.0483   24.0032 C   0  0  0  0  0  0  0  0  0  0  0  0
    7.8339   11.3736   24.7602 C   0  0  0  0  0  0  0  0  0  0  0  0
    9.0546   10.0854   23.4901 C   0  0  0  0  0  0  0  0  0  0  0  0
    9.4249    8.7685   22.8700 C   0  0  0  0  0  0  0  0  0  0  0  0
    3.4884   12.4752   28.1459 C   0  0  0  0  0  0  0  0  0  0  0  0
    4.8779   12.6429   30.2317 C   0  0  0  0  0  0  0  0  0  0  0  0
    4.4566   14.6918   28.8416 C   0  0  0  0  0  0  0  0  0  0  0  0
    4.6671   13.1786   28.8172 C   0  0  0  0  0  0  0  0  0  0  0  0
    6.6174   12.4857   25.9824 N   0  0  0  0  0  0  0  0  0  0  0  0
   10.4779   13.9771   24.3635 O   0  0  0  0  0  0  0  0  0  0  0  0
    5.2239   14.2733   26.3403 O   0  0  0  0  0  0  0  0  0  0  0  0
    7.8859    9.9771   24.3662 O   0  0  0  0  0  0  0  0  0  0  0  0
    8.2646   14.2846   23.9134 O   0  0  0  0  0  0  0  0  0  0  0  0
    5.8537   12.8955   28.0675 O   0  0  0  0  0  0  0  0  0  0  0  0
   11.0994   11.1153   23.6601 H   0  0  0  0  0  0  0  0  0  0  0  0
   10.3907   10.6807   25.2384 H   0  0  0  0  0  0  0  0  0  0  0  0
    7.9432   11.4824   22.0728 H   0  0  0  0  0  0  0  0  0  0  0  0
    9.7132   11.5693   21.8670 H   0  0  0  0  0  0  0  0  0  0  0  0
    6.5101   12.9789   23.9084 H   0  0  0  0  0  0  0  0  0  0  0  0
    5.6400   11.4877   24.3789 H   0  0  0  0  0  0  0  0  0  0  0  0
    7.6018   10.8455   26.9134 H   0  0  0  0  0  0  0  0  0  0  0  0
    8.6351   12.2835   26.6527 H   0  0  0  0  0  0  0  0  0  0  0  0
    8.5497    8.2865   22.4158 H   0  0  0  0  0  0  0  0  0  0  0  0
    9.8356    8.0809   23.6205 H   0  0  0  0  0  0  0  0  0  0  0  0
   10.1810    8.9008   22.0855 H   0  0  0  0  0  0  0  0  0  0  0  0
    3.3339   12.8570   27.1303 H   0  0  0  0  0  0  0  0  0  0  0  0
    3.6429   11.3927   28.0907 H   0  0  0  0  0  0  0  0  0  0  0  0
    2.5574   12.6645   28.6923 H   0  0  0  0  0  0  0  0  0  0  0  0
    5.7226   13.1448   30.7171 H   0  0  0  0  0  0  0  0  0  0  0  0
    5.1232   11.5749   30.2120 H   0  0  0  0  0  0  0  0  0  0  0  0
    3.9877   12.7827   30.8535 H   0  0  0  0  0  0  0  0  0  0  0  0
    5.3019   15.1966   29.3230 H   0  0  0  0  0  0  0  0  0  0  0  0
    4.3403   15.0992   27.8320 H   0  0  0  0  0  0  0  0  0  0  0  0
    3.5671   14.9521   29.4266 H   0  0  0  0  0  0  0  0  0  0  0  0
    8.4601   15.2432   23.9854 H   0  0  0  0  0  0  0  0  0  0  0  0
  1  7  1  1  0  0  0
  1 16  2  0  0  0  0
  1 19  1  0  0  0  0
  2 15  1  0  0  0  0
  2 17  2  0  0  0  0
  2 20  1  0  0  0  0
  3  7  1  0  0  0  0
  3  9  1  0  0  0  0
  4  7  1  0  0  0  0
  4  9  1  0  0  0  0
  5  8  1  0  0  0  0
  5 15  1  0  0  0  0
  6  8  1  0  0  0  0
  6 15  1  0  0  0  0
  7  8  1  0  0  0  0
  8 18  1  0  0  0  0
  9 10  1  1  0  0  0
  9 18  1  0  0  0  0
 11 14  1  0  0  0  0
 12 14  1  0  0  0  0
 13 14  1  0  0  0  0
 14 20  1  0  0  0  0
  3 21  1  0  0  0  0
  3 22  1  0  0  0  0
  4 23  1  0  0  0  0
  4 24  1  0  0  0  0
  5 25  1  0  0  0  0
  5 26  1  0  0  0  0
  6 27  1  0  0  0  0
  6 28  1  0  0  0  0
 10 29  1  0  0  0  0
 10 30  1  0  0  0  0
 10 31  1  0  0  0  0
 11 32  1  0  0  0  0
 11 33  1  0  0  0  0
 11 34  1  0  0  0  0
 12 35  1  0  0  0  0
 12 36  1  0  0  0  0
 12 37  1  0  0  0  0
 13 38  1  0  0  0  0
 13 39  1  0  0  0  0
 13 40  1  0  0  0  0
 19 41  1  0  0  0  0
M  END
> <id>
EN300-37375215

> <smiles>
CC(C)(C)OC(=O)N1CC2(C1)O[C@]3(C)C[C@]2(C3)C(=O)O

> <IUPAC Name>
1-[(tert-butoxy)carbonyl]-4'-methyl-3'-oxaspiro[azetidine-3,2'-bicyclo[2.1.1]hexane]-1'-carboxylic acid

> <CAS>
2490400-53-6

> <URL>
https://www.enaminestore.com/catalog/EN300-37375215

> <ROCS_ShapeQuery>
A71EV2A-x0451_0A_A71EV2A-x0310_0A_A71EV2A-x0416_0A_peptide

> <ROCS_TanimotoCombo>
0.510 

> <ROCS_ShapeTanimoto>
0.276 

> <ROCS_ColorTanimoto>
0.234 

> <ROCS_RefTversky>
0.254 

> <ROCS_RefColorTversky>
0.280 

> <ROCS_RefTverskyCombo>
0.534 

> <ROCS_FitTversky>
1.441 

> <ROCS_FitColorTversky>
0.587 

> <ROCS_FitTverskyCombo>
2.028 

> <ROCS_ColorScore>
-8.629

> <ROCS_Overlap>
1763.977

> <ROCS_Rank>
407                 

$$$$
untitled-dbase-154574_11
  -OEChem-11132313473D

 41 43  0     1  0  0  0  0  0999 V2000
    7.3824   11.6735   26.2950 C   0  0  0  0  0  0  0  0  0  0  0  0
    5.3371   11.8512   25.0879 C   0  0  0  0  0  0  0  0  0  0  0  0
    8.0419   11.4927   25.0817 C   0  0  0  0  0  0  0  0  0  0  0  0
    6.0052   11.8595   26.3027 C   0  0  0  0  0  0  0  0  0  0  0  0
    7.2770   11.4916   23.8995 C   0  0  0  0  0  0  0  0  0  0  0  0
   10.6544   13.0279   23.6253 C   0  0  0  0  0  0  0  0  0  0  0  0
    7.9650   11.3206   22.5532 C   0  0  0  0  0  0  0  0  0  0  0  0
    9.7921    9.7523   24.7801 C   0  0  0  0  0  0  0  0  0  0  0  0
    9.6719    9.5617   23.2521 C   0  0  0  0  0  0  0  0  0  0  0  0
    9.5359   11.2466   25.0030 C   0  0  1  0  0  0  0  0  0  0  0  0
    9.4677   10.9784   22.6860 C   0  0  2  0  0  0  0  0  0  0  0  0
   13.0711   14.5537   23.6060 C   0  0  0  0  0  0  0  0  0  0  0  0
   13.1505   14.0517   21.1461 C   0  0  0  0  0  0  0  0  0  0  0  0
   11.2368   15.3756   22.0912 C   0  0  0  0  0  0  0  0  0  0  0  0
   12.2427   14.2564   22.3569 C   0  0  0  0  0  0  0  0  0  0  0  0
    5.9361   11.6738   23.8883 N   0  0  0  0  0  0  0  0  0  0  0  0
   10.0047   11.8164   23.7502 N   0  0  0  0  0  0  0  0  0  0  0  0
    5.3022   12.0476   27.5191 N   0  3  0  0  0  0  0  0  0  0  0  0
    5.9412   12.0446   28.6004 O   0  5  0  0  0  0  0  0  0  0  0  0
   10.4762   13.9878   24.3715 O   0  0  0  0  0  0  0  0  0  0  0  0
    4.0574   12.2123   27.4857 O   0  0  0  0  0  0  0  0  0  0  0  0
   11.5226   13.0367   22.5674 O   0  0  0  0  0  0  0  0  0  0  0  0
    7.9438   11.6652   27.2260 H   0  0  0  0  0  0  0  0  0  0  0  0
    4.2611   11.9920   25.0350 H   0  0  0  0  0  0  0  0  0  0  0  0
    7.4473   10.5450   21.9775 H   0  0  0  0  0  0  0  0  0  0  0  0
    7.8612   12.2669   22.0082 H   0  0  0  0  0  0  0  0  0  0  0  0
    9.0993    9.1003   25.3228 H   0  0  0  0  0  0  0  0  0  0  0  0
   10.8112    9.4946   25.0924 H   0  0  0  0  0  0  0  0  0  0  0  0
   10.6022    9.1271   22.8686 H   0  0  0  0  0  0  0  0  0  0  0  0
    8.8541    8.8805   22.9951 H   0  0  0  0  0  0  0  0  0  0  0  0
   10.0660   11.6649   25.8641 H   0  0  0  0  0  0  0  0  0  0  0  0
    9.9843   11.1186   21.7320 H   0  0  0  0  0  0  0  0  0  0  0  0
   12.4231   14.7013   24.4773 H   0  0  0  0  0  0  0  0  0  0  0  0
   13.7722   13.7424   23.8275 H   0  0  0  0  0  0  0  0  0  0  0  0
   13.6422   15.4812   23.4848 H   0  0  0  0  0  0  0  0  0  0  0  0
   12.5603   13.8381   20.2476 H   0  0  0  0  0  0  0  0  0  0  0  0
   13.8101   13.1890   21.2943 H   0  0  0  0  0  0  0  0  0  0  0  0
   13.7704   14.9329   20.9523 H   0  0  0  0  0  0  0  0  0  0  0  0
   10.6424   15.1626   21.1954 H   0  0  0  0  0  0  0  0  0  0  0  0
   10.5530   15.5120   22.9353 H   0  0  0  0  0  0  0  0  0  0  0  0
   11.7510   16.3250   21.9027 H   0  0  0  0  0  0  0  0  0  0  0  0
  1  3  2  0  0  0  0
  1  4  1  0  0  0  0
  2  4  2  0  0  0  0
  2 16  1  0  0  0  0
  3  5  1  0  0  0  0
  3 10  1  0  0  0  0
  4 18  1  0  0  0  0
  5  7  1  0  0  0  0
  5 16  2  0  0  0  0
  6 17  1  0  0  0  0
  6 20  2  0  0  0  0
  6 22  1  0  0  0  0
  7 11  1  0  0  0  0
  8  9  1  0  0  0  0
  8 10  1  0  0  0  0
  9 11  1  0  0  0  0
 10 17  1  0  0  0  0
 11 17  1  0  0  0  0
 12 15  1  0  0  0  0
 13 15  1  0  0  0  0
 14 15  1  0  0  0  0
 15 22  1  0  0  0  0
 18 19  1  0  0  0  0
 18 21  2  0  0  0  0
  1 23  1  0  0  0  0
  2 24  1  0  0  0  0
  7 25  1  0  0  0  0
  7 26  1  0  0  0  0
  8 27  1  0  0  0  0
  8 28  1  0  0  0  0
  9 29  1  0  0  0  0
  9 30  1  0  0  0  0
 10 31  1  0  0  0  0
 11 32  1  0  0  0  0
 12 33  1  0  0  0  0
 12 34  1  0  0  0  0
 12 35  1  0  0  0  0
 13 36  1  0  0  0  0
 13 37  1  0  0  0  0
 13 38  1  0  0  0  0
 14 39  1  0  0  0  0
 14 40  1  0  0  0  0
 14 41  1  0  0  0  0
M  CHG  2  18   1  19  -1
M  END
> <id>
EN300-20070468

> <smiles>
CC(C)(C)OC(=O)N1C2CCC1C=3C=C(C=NC3C2)[N+](=O)[O-]

> <MDLNUMBER>
MFCD32672337

> <IUPAC Name>
tert-butyl 4-nitro-6,12-diazatricyclo[7.2.1.0,2,7]dodeca-2,4,6-triene-12-carboxylate

> <CAS>
355819-29-3

> <URL>
https://www.enaminestore.com/catalog/EN300-20070468

> <ROCS_ShapeQuery>
A71EV2A-x0451_0A_A71EV2A-x0310_0A_A71EV2A-x0416_0A_peptide

> <ROCS_TanimotoCombo>
0.510 

> <ROCS_ShapeTanimoto>
0.321 

> <ROCS_ColorTanimoto>
0.188 

> <ROCS_RefTversky>
0.290 

> <ROCS_RefColorTversky>
0.225 

> <ROCS_RefTverskyCombo>
0.514 

> <ROCS_FitTversky>
1.516 

> <ROCS_FitColorTversky>
0.538 

> <ROCS_FitTverskyCombo>
2.053 

> <ROCS_ColorScore>
-6.899

> <ROCS_Overlap>
2011.579

> <ROCS_Rank>
408                 

$$$$
untitled-dbase-172255_277
  -OEChem-11132313473D

 34 35  0     0  0  0  0  0  0999 V2000
    6.4618   10.9334   25.7409 C   0  0  0  0  0  0  0  0  0  0  0  0
    7.1265    9.9891   24.9644 C   0  0  0  0  0  0  0  0  0  0  0  0
    6.9488   12.2304   25.7664 C   0  0  0  0  0  0  0  0  0  0  0  0
   10.0922   10.7264   22.9801 C   0  0  0  0  0  0  0  0  0  0  0  0
    8.2603   10.4036   24.2458 C   0  0  0  0  0  0  0  0  0  0  0  0
    9.1792    9.7756   23.3753 C   0  0  0  0  0  0  0  0  0  0  0  0
    8.6481   11.7376   24.3560 C   0  0  0  0  0  0  0  0  0  0  0  0
   10.4688   13.1478   23.4247 C   0  0  0  0  0  0  0  0  0  0  0  0
   12.0492   15.3526   22.5991 C   0  0  0  0  0  0  0  0  0  0  0  0
   11.8504   14.3894   20.2878 C   0  0  0  0  0  0  0  0  0  0  0  0
    9.7892   15.1372   21.5127 C   0  0  0  0  0  0  0  0  0  0  0  0
    9.1713    8.3597   22.9560 C   0  0  0  0  0  0  0  0  0  0  0  0
   11.1812   14.5231   21.6540 C   0  0  0  0  0  0  0  0  0  0  0  0
    8.0316   12.6838   25.0969 N   0  0  0  0  0  0  0  0  0  0  0  0
    9.7791   11.9365   23.5749 N   0  0  0  0  0  0  0  0  0  0  0  0
   10.4954   13.9752   24.3216 O   0  0  0  0  0  0  0  0  0  0  0  0
    7.9132    7.7649   23.2730 O   0  0  0  0  0  0  0  0  0  0  0  0
   11.0453   13.2070   22.1980 O   0  0  0  0  0  0  0  0  0  0  0  0
    5.5822   10.6590   26.3128 H   0  0  0  0  0  0  0  0  0  0  0  0
    6.7729    8.9639   24.9212 H   0  0  0  0  0  0  0  0  0  0  0  0
    6.4450   12.9839   26.3657 H   0  0  0  0  0  0  0  0  0  0  0  0
   10.9434   10.6331   22.3182 H   0  0  0  0  0  0  0  0  0  0  0  0
   11.5723   15.4509   23.5808 H   0  0  0  0  0  0  0  0  0  0  0  0
   13.0385   14.9040   22.7364 H   0  0  0  0  0  0  0  0  0  0  0  0
   12.1812   16.3711   22.2162 H   0  0  0  0  0  0  0  0  0  0  0  0
   11.2310   13.7950   19.6065 H   0  0  0  0  0  0  0  0  0  0  0  0
   12.8083   13.8636   20.3722 H   0  0  0  0  0  0  0  0  0  0  0  0
   12.0307   15.3669   19.8288 H   0  0  0  0  0  0  0  0  0  0  0  0
    9.1663   14.5424   20.8348 H   0  0  0  0  0  0  0  0  0  0  0  0
    9.2791   15.2070   22.4789 H   0  0  0  0  0  0  0  0  0  0  0  0
    9.8486   16.1412   21.0770 H   0  0  0  0  0  0  0  0  0  0  0  0
    9.3374    8.2469   21.8704 H   0  0  0  0  0  0  0  0  0  0  0  0
    9.9624    7.7771   23.4595 H   0  0  0  0  0  0  0  0  0  0  0  0
    7.9638    6.8430   22.9781 H   0  0  0  0  0  0  0  0  0  0  0  0
  1  2  1  0  0  0  0
  1  3  2  0  0  0  0
  2  5  2  0  0  0  0
  3 14  1  0  0  0  0
  4  6  2  0  0  0  0
  4 15  1  0  0  0  0
  5  6  1  0  0  0  0
  5  7  1  0  0  0  0
  6 12  1  0  0  0  0
  7 14  2  0  0  0  0
  7 15  1  0  0  0  0
  8 15  1  0  0  0  0
  8 16  2  0  0  0  0
  8 18  1  0  0  0  0
  9 13  1  0  0  0  0
 10 13  1  0  0  0  0
 11 13  1  0  0  0  0
 12 17  1  0  0  0  0
 13 18  1  0  0  0  0
  1 19  1  0  0  0  0
  2 20  1  0  0  0  0
  3 21  1  0  0  0  0
  4 22  1  0  0  0  0
  9 23  1  0  0  0  0
  9 24  1  0  0  0  0
  9 25  1  0  0  0  0
 10 26  1  0  0  0  0
 10 27  1  0  0  0  0
 10 28  1  0  0  0  0
 11 29  1  0  0  0  0
 11 30  1  0  0  0  0
 11 31  1  0  0  0  0
 12 32  1  0  0  0  0
 12 33  1  0  0  0  0
 17 34  1  0  0  0  0
M  END
> <id>
EN300-23996946

> <smiles>
CC(C)(C)OC(=O)N1C=C(CO)C=2C=CC=NC12

> <MDLNUMBER>
MFCD11054204

> <IUPAC Name>
tert-butyl 3-(hydroxymethyl)-1H-pyrrolo[2,3-b]pyridine-1-carboxylate

> <CAS>
144657-67-0

> <Purity>
95

> <URL>
https://www.enaminestore.com/catalog/EN300-23996946

> <MP>
156-158

> <ROCS_ShapeQuery>
A71EV2A-x0451_0A_A71EV2A-x0310_0A_A71EV2A-x0416_0A_peptide

> <ROCS_TanimotoCombo>
0.510 

> <ROCS_ShapeTanimoto>
0.356 

> <ROCS_ColorTanimoto>
0.153 

> <ROCS_RefTversky>
0.306 

> <ROCS_RefColorTversky>
0.169 

> <ROCS_RefTverskyCombo>
0.475 

> <ROCS_FitTversky>
1.855 

> <ROCS_FitColorTversky>
0.623 

> <ROCS_FitTverskyCombo>
2.479 

> <ROCS_ColorScore>
-5.147

> <ROCS_Overlap>
2122.710

> <ROCS_Rank>
409                 

$$$$
untitled-dbase-78132_195
  -OEChem-11132313473D

 47 49  0     1  0  0  0  0  0999 V2000
    7.1649   13.0979   25.0683 C   0  0  0  0  0  0  0  0  0  0  0  0
    8.3986   13.0451   24.4221 C   0  0  0  0  0  0  0  0  0  0  0  0
    6.5255   11.9070   25.3852 C   0  0  0  0  0  0  0  0  0  0  0  0
   10.0462    9.9145   23.5137 C   0  0  0  0  0  0  0  0  0  0  0  0
    8.9298   11.7795   24.1255 C   0  0  0  0  0  0  0  0  0  0  0  0
   10.1083   11.2914   23.5016 C   0  0  0  0  0  0  0  0  0  0  0  0
    8.1818   10.6672   24.5002 C   0  0  0  0  0  0  0  0  0  0  0  0
   10.8322   14.6015   22.9243 C   0  0  0  0  0  0  0  0  0  0  0  0
   13.3795   12.8598   24.7739 C   0  0  0  0  0  0  0  0  0  0  0  0
   11.9937   13.4896   24.8737 C   0  0  0  0  0  0  0  0  0  0  0  0
   12.6597   11.5067   22.9037 C   0  0  0  0  0  0  0  0  0  0  0  0
   11.2453   12.1311   22.9192 C   0  0  2  0  0  0  0  0  0  0  0  0
   12.3299   15.1729   20.8464 C   0  0  0  0  0  0  0  0  0  0  0  0
   10.6448   14.0296   19.3758 C   0  0  0  0  0  0  0  0  0  0  0  0
   10.1320   16.2906   20.3418 C   0  0  0  0  0  0  0  0  0  0  0  0
    8.4442    8.1814   24.3254 C   0  0  0  0  0  0  0  0  0  0  0  0
   10.8422   14.9575   20.5726 C   0  0  0  0  0  0  0  0  0  0  0  0
    6.9887   10.6624   25.1242 N   0  0  0  0  0  0  0  0  0  0  0  0
    8.8737    9.5470   24.1213 N   0  0  0  0  0  0  0  0  0  0  0  0
   13.3219   11.5085   24.2144 N   0  0  0  0  0  0  0  0  0  0  0  0
   11.3285   13.4600   23.5665 N   0  0  0  0  0  0  0  0  0  0  0  0
   10.9008   15.7401   23.3843 O   0  0  0  0  0  0  0  0  0  0  0  0
   10.2563   14.3202   21.7138 O   0  0  0  0  0  0  0  0  0  0  0  0
    6.7138   14.0522   25.3186 H   0  0  0  0  0  0  0  0  0  0  0  0
    8.9247   13.9575   24.1605 H   0  0  0  0  0  0  0  0  0  0  0  0
    5.5628   11.9297   25.8892 H   0  0  0  0  0  0  0  0  0  0  0  0
   10.7361    9.1685   23.1418 H   0  0  0  0  0  0  0  0  0  0  0  0
   14.0428   13.4941   24.1699 H   0  0  0  0  0  0  0  0  0  0  0  0
   13.8209   12.8077   25.7769 H   0  0  0  0  0  0  0  0  0  0  0  0
   11.3690   12.9262   25.5624 H   0  0  0  0  0  0  0  0  0  0  0  0
   12.0735   14.5082   25.2371 H   0  0  0  0  0  0  0  0  0  0  0  0
   12.6133   10.4757   22.5378 H   0  0  0  0  0  0  0  0  0  0  0  0
   13.2841   12.0650   22.1964 H   0  0  0  0  0  0  0  0  0  0  0  0
   10.9740   12.3172   21.8367 H   0  0  0  0  0  0  0  0  0  0  0  0
   12.4758   15.8384   21.7048 H   0  0  0  0  0  0  0  0  0  0  0  0
   12.8440   14.2275   21.0480 H   0  0  0  0  0  0  0  0  0  0  0  0
   12.8184   15.6573   19.9932 H   0  0  0  0  0  0  0  0  0  0  0  0
    9.5788   13.8722   19.1758 H   0  0  0  0  0  0  0  0  0  0  0  0
   11.0709   13.0397   19.5750 H   0  0  0  0  0  0  0  0  0  0  0  0
   11.1116   14.4323   18.4711 H   0  0  0  0  0  0  0  0  0  0  0  0
    9.0648   16.1363   20.1454 H   0  0  0  0  0  0  0  0  0  0  0  0
   10.2318   16.9556   21.2058 H   0  0  0  0  0  0  0  0  0  0  0  0
   10.5379   16.8009   19.4609 H   0  0  0  0  0  0  0  0  0  0  0  0
    8.8257    7.8491   25.2944 H   0  0  0  0  0  0  0  0  0  0  0  0
    7.3517    8.1370   24.3090 H   0  0  0  0  0  0  0  0  0  0  0  0
    8.8401    7.5541   23.5218 H   0  0  0  0  0  0  0  0  0  0  0  0
   14.2685   11.1437   24.1118 H   0  0  0  0  0  0  0  0  0  0  0  0
  1  2  1  0  0  0  0
  1  3  2  0  0  0  0
  2  5  2  0  0  0  0
  3 18  1  0  0  0  0
  4  6  2  0  0  0  0
  4 19  1  0  0  0  0
  5  6  1  0  0  0  0
  5  7  1  0  0  0  0
  6 12  1  0  0  0  0
  7 18  2  0  0  0  0
  7 19  1  0  0  0  0
  8 21  1  0  0  0  0
  8 22  2  0  0  0  0
  8 23  1  0  0  0  0
  9 10  1  0  0  0  0
  9 20  1  0  0  0  0
 10 21  1  0  0  0  0
 11 12  1  0  0  0  0
 11 20  1  0  0  0  0
 12 21  1  0  0  0  0
 13 17  1  0  0  0  0
 14 17  1  0  0  0  0
 15 17  1  0  0  0  0
 16 19  1  0  0  0  0
 17 23  1  0  0  0  0
  1 24  1  0  0  0  0
  2 25  1  0  0  0  0
  3 26  1  0  0  0  0
  4 27  1  0  0  0  0
  9 28  1  0  0  0  0
  9 29  1  0  0  0  0
 10 30  1  0  0  0  0
 10 31  1  0  0  0  0
 11 32  1  0  0  0  0
 11 33  1  0  0  0  0
 12 34  1  0  0  0  0
 13 35  1  0  0  0  0
 13 36  1  0  0  0  0
 13 37  1  0  0  0  0
 14 38  1  0  0  0  0
 14 39  1  0  0  0  0
 14 40  1  0  0  0  0
 15 41  1  0  0  0  0
 15 42  1  0  0  0  0
 15 43  1  0  0  0  0
 16 44  1  0  0  0  0
 16 45  1  0  0  0  0
 16 46  1  0  0  0  0
 20 47  1  0  0  0  0
M  END
> <id>
EN300-1902152

> <smiles>
CN1C=C(C2CNCCN2C(=O)OC(C)(C)C)C=3C=CC=NC13

> <IUPAC Name>
tert-butyl 2-{1-methyl-1H-pyrrolo[2,3-b]pyridin-3-yl}piperazine-1-carboxylate

> <CAS>
2228644-37-7

> <URL>
https://www.enaminestore.com/catalog/EN300-1902152

> <ROCS_ShapeQuery>
A71EV2A-x0451_0A_A71EV2A-x0310_0A_A71EV2A-x0416_0A_peptide

> <ROCS_TanimotoCombo>
0.509 

> <ROCS_ShapeTanimoto>
0.374 

> <ROCS_ColorTanimoto>
0.136 

> <ROCS_RefTversky>
0.325 

> <ROCS_RefColorTversky>
0.156 

> <ROCS_RefTverskyCombo>
0.481 

> <ROCS_FitTversky>
1.663 

> <ROCS_FitColorTversky>
0.516 

> <ROCS_FitTverskyCombo>
2.179 

> <ROCS_ColorScore>
-4.747

> <ROCS_Overlap>
2260.139

> <ROCS_Rank>
410                 

$$$$
untitled-dbase-48838_85
  -OEChem-11132313473D

 45 46  0     1  0  0  0  0  0999 V2000
    5.9930   13.7452   26.1663 C   0  0  0  0  0  0  0  0  0  0  0  0
    5.0959   11.6408   26.6385 C   0  0  0  0  0  0  0  0  0  0  0  0
    3.9720   13.5392   27.1862 C   0  0  0  0  0  0  0  0  0  0  0  0
    6.1370   12.3740   26.1069 C   0  0  0  0  0  0  0  0  0  0  0  0
   10.4849   12.7154   23.8125 C   0  0  0  0  0  0  0  0  0  0  0  0
    7.1264   10.3030   24.9209 C   0  0  0  0  0  0  0  0  0  0  0  0
    9.1662   10.5915   23.4565 C   0  0  0  0  0  0  0  0  0  0  0  0
    7.3635   11.7132   25.4939 C   0  0  1  0  0  0  0  0  0  0  0  0
    8.4553    9.6881   24.4665 C   0  0  2  0  0  0  0  0  0  0  0  0
    8.0844   12.6278   24.4687 C   0  0  2  0  0  0  0  0  0  0  0  0
    7.2063   13.0838   23.2956 C   0  0  0  0  0  0  0  0  0  0  0  0
   13.0932   13.7950   23.3391 C   0  0  0  0  0  0  0  0  0  0  0  0
   13.4102   11.8544   21.7761 C   0  0  0  0  0  0  0  0  0  0  0  0
   11.6185   13.5527   21.3140 C   0  0  0  0  0  0  0  0  0  0  0  0
   12.3966   12.8113   22.4000 C   0  0  0  0  0  0  0  0  0  0  0  0
    4.9197   14.3637   26.7009 N   0  0  0  0  0  0  0  0  0  0  0  0
    3.9943   12.1927   27.1882 N   0  0  0  0  0  0  0  0  0  0  0  0
    9.3051   11.9693   23.9543 N   0  0  0  0  0  0  0  0  0  0  0  0
    8.2337    8.3681   23.8757 N   0  0  0  0  0  0  0  0  0  0  0  0
   10.6285   13.8675   24.2184 O   0  0  0  0  0  0  0  0  0  0  0  0
   11.4755   12.0254   23.1651 O   0  0  0  0  0  0  0  0  0  0  0  0
    6.7563   14.4106   25.7750 H   0  0  0  0  0  0  0  0  0  0  0  0
    5.1131   10.5554   26.6406 H   0  0  0  0  0  0  0  0  0  0  0  0
    3.0994   14.0098   27.6223 H   0  0  0  0  0  0  0  0  0  0  0  0
    6.6658    9.6652   25.6877 H   0  0  0  0  0  0  0  0  0  0  0  0
    6.4136   10.3435   24.0862 H   0  0  0  0  0  0  0  0  0  0  0  0
   10.1512   10.1807   23.2146 H   0  0  0  0  0  0  0  0  0  0  0  0
    8.6068   10.6493   22.5163 H   0  0  0  0  0  0  0  0  0  0  0  0
    8.0806   11.6019   26.3580 H   0  0  0  0  0  0  0  0  0  0  0  0
    9.1091    9.5625   25.3446 H   0  0  0  0  0  0  0  0  0  0  0  0
    8.3764   13.5406   25.0071 H   0  0  0  0  0  0  0  0  0  0  0  0
    6.8871   12.2165   22.7252 H   0  0  0  0  0  0  0  0  0  0  0  0
    7.7772   13.7495   22.6550 H   0  0  0  0  0  0  0  0  0  0  0  0
    6.3352   13.6070   23.6789 H   0  0  0  0  0  0  0  0  0  0  0  0
   12.3691   14.4836   23.7890 H   0  0  0  0  0  0  0  0  0  0  0  0
   13.6262   13.2769   24.1430 H   0  0  0  0  0  0  0  0  0  0  0  0
   13.8116   14.4161   22.7918 H   0  0  0  0  0  0  0  0  0  0  0  0
   12.9148   11.1468   21.1016 H   0  0  0  0  0  0  0  0  0  0  0  0
   13.9040   11.2519   22.5471 H   0  0  0  0  0  0  0  0  0  0  0  0
   14.1786   12.3920   21.2111 H   0  0  0  0  0  0  0  0  0  0  0  0
   11.1187   12.8473   20.6403 H   0  0  0  0  0  0  0  0  0  0  0  0
   10.8610   14.2169   21.7427 H   0  0  0  0  0  0  0  0  0  0  0  0
   12.2931   14.1506   20.6906 H   0  0  0  0  0  0  0  0  0  0  0  0
    7.2595    8.1819   23.8916 H   0  0  0  0  0  0  0  0  0  0  0  0
    8.5733    8.3863   22.9437 H   0  0  0  0  0  0  0  0  0  0  0  0
  1  4  2  0  0  0  0
  1 16  1  0  0  0  0
  2  4  1  0  0  0  0
  2 17  2  0  0  0  0
  3 16  2  0  0  0  0
  3 17  1  0  0  0  0
  4  8  1  0  0  0  0
  5 18  1  0  0  0  0
  5 20  2  0  0  0  0
  5 21  1  0  0  0  0
  6  8  1  0  0  0  0
  6  9  1  0  0  0  0
  7  9  1  0  0  0  0
  7 18  1  0  0  0  0
  8 10  1  0  0  0  0
  9 19  1  0  0  0  0
 10 11  1  0  0  0  0
 10 18  1  0  0  0  0
 12 15  1  0  0  0  0
 13 15  1  0  0  0  0
 14 15  1  0  0  0  0
 15 21  1  0  0  0  0
  1 22  1  0  0  0  0
  2 23  1  0  0  0  0
  3 24  1  0  0  0  0
  6 25  1  0  0  0  0
  6 26  1  0  0  0  0
  7 27  1  0  0  0  0
  7 28  1  0  0  0  0
  8 29  1  0  0  0  0
  9 30  1  0  0  0  0
 10 31  1  0  0  0  0
 11 32  1  0  0  0  0
 11 33  1  0  0  0  0
 11 34  1  0  0  0  0
 12 35  1  0  0  0  0
 12 36  1  0  0  0  0
 12 37  1  0  0  0  0
 13 38  1  0  0  0  0
 13 39  1  0  0  0  0
 13 40  1  0  0  0  0
 14 41  1  0  0  0  0
 14 42  1  0  0  0  0
 14 43  1  0  0  0  0
 19 44  1  0  0  0  0
 19 45  1  0  0  0  0
M  END
> <id>
EN300-1616178

> <smiles>
CC1C(CC(N)CN1C(=O)OC(C)(C)C)C=2C=NC=NC2

> <IUPAC Name>
tert-butyl 5-amino-2-methyl-3-(pyrimidin-5-yl)piperidine-1-carboxylate

> <CAS>
2172023-51-5

> <URL>
https://www.enaminestore.com/catalog/EN300-1616178

> <ROCS_ShapeQuery>
A71EV2A-x0451_0A_A71EV2A-x0310_0A_A71EV2A-x0416_0A_peptide

> <ROCS_TanimotoCombo>
0.509 

> <ROCS_ShapeTanimoto>
0.312 

> <ROCS_ColorTanimoto>
0.198 

> <ROCS_RefTversky>
0.280 

> <ROCS_RefColorTversky>
0.215 

> <ROCS_RefTverskyCombo>
0.495 

> <ROCS_FitTversky>
1.567 

> <ROCS_FitColorTversky>
0.714 

> <ROCS_FitTverskyCombo>
2.281 

> <ROCS_ColorScore>
-6.561

> <ROCS_Overlap>
1943.699

> <ROCS_Rank>
411                 

$$$$
untitled-dbase-153604_39
  -OEChem-11132313473D

 40 41  0     1  0  0  0  0  0999 V2000
    4.8614   11.9494   26.6951 C   0  0  0  0  0  0  0  0  0  0  0  0
    6.8275   13.0048   25.7029 C   0  0  0  0  0  0  0  0  0  0  0  0
    8.0082   12.9186   24.9644 C   0  0  0  0  0  0  0  0  0  0  0  0
    6.5086   10.6297   25.4608 C   0  0  0  0  0  0  0  0  0  0  0  0
    6.0746   11.8616   25.9460 C   0  0  0  0  0  0  0  0  0  0  0  0
    8.4505   11.6882   24.4458 C   0  0  0  0  0  0  0  0  0  0  0  0
    7.7017   10.5272   24.7268 C   0  0  0  0  0  0  0  0  0  0  0  0
   10.4607   13.9147   23.0442 C   0  0  0  0  0  0  0  0  0  0  0  0
    8.1205    9.1702   24.2186 C   0  0  0  0  0  0  0  0  0  0  0  0
    9.5953    9.1083   23.8347 C   0  0  0  0  0  0  0  0  0  0  0  0
    9.9476   10.2826   22.9339 C   0  0  0  0  0  0  0  0  0  0  0  0
    9.7539   11.6138   23.6711 C   0  0  1  0  0  0  0  0  0  0  0  0
   12.7672   14.1080   21.8242 C   0  0  0  0  0  0  0  0  0  0  0  0
   11.6299   15.3663   19.9716 C   0  0  0  0  0  0  0  0  0  0  0  0
   12.0562   16.4969   22.1735 C   0  0  0  0  0  0  0  0  0  0  0  0
   11.7269   15.1739   21.4835 C   0  0  0  0  0  0  0  0  0  0  0  0
    3.8757   12.0207   27.3035 N   0  0  0  0  0  0  0  0  0  0  0  0
    9.8944   12.7008   22.7275 N   0  0  0  0  0  0  0  0  0  0  0  0
   10.9120   14.2340   24.1392 O   0  0  0  0  0  0  0  0  0  0  0  0
   10.4473   14.7256   21.9443 O   0  0  0  0  0  0  0  0  0  0  0  0
    6.5113   13.9743   26.0817 H   0  0  0  0  0  0  0  0  0  0  0  0
    8.5882   13.8242   24.7928 H   0  0  0  0  0  0  0  0  0  0  0  0
    5.9218    9.7324   25.6518 H   0  0  0  0  0  0  0  0  0  0  0  0
    7.9220    8.4378   25.0084 H   0  0  0  0  0  0  0  0  0  0  0  0
    7.5183    8.8955   23.3473 H   0  0  0  0  0  0  0  0  0  0  0  0
   10.2103    9.1279   24.7397 H   0  0  0  0  0  0  0  0  0  0  0  0
    9.8088    8.1645   23.3210 H   0  0  0  0  0  0  0  0  0  0  0  0
   10.9955   10.1925   22.6193 H   0  0  0  0  0  0  0  0  0  0  0  0
    9.3466   10.2566   22.0176 H   0  0  0  0  0  0  0  0  0  0  0  0
   10.5983   11.7200   24.3761 H   0  0  0  0  0  0  0  0  0  0  0  0
   12.8399   13.9669   22.9086 H   0  0  0  0  0  0  0  0  0  0  0  0
   12.5237   13.1449   21.3638 H   0  0  0  0  0  0  0  0  0  0  0  0
   13.7640   14.4117   21.4846 H   0  0  0  0  0  0  0  0  0  0  0  0
   10.8845   16.1303   19.7226 H   0  0  0  0  0  0  0  0  0  0  0  0
   11.3013   14.4430   19.4810 H   0  0  0  0  0  0  0  0  0  0  0  0
   12.5905   15.6654   19.5400 H   0  0  0  0  0  0  0  0  0  0  0  0
   11.3101   17.2617   21.9292 H   0  0  0  0  0  0  0  0  0  0  0  0
   12.0935   16.3857   23.2620 H   0  0  0  0  0  0  0  0  0  0  0  0
   13.0216   16.8858   21.8299 H   0  0  0  0  0  0  0  0  0  0  0  0
    9.5578   12.5612   21.7822 H   0  0  0  0  0  0  0  0  0  0  0  0
  1  5  1  0  0  0  0
  1 17  3  0  0  0  0
  2  3  1  0  0  0  0
  2  5  2  0  0  0  0
  3  6  2  0  0  0  0
  4  5  1  0  0  0  0
  4  7  2  0  0  0  0
  6  7  1  0  0  0  0
  6 12  1  0  0  0  0
  7  9  1  0  0  0  0
  8 18  1  0  0  0  0
  8 19  2  0  0  0  0
  8 20  1  0  0  0  0
  9 10  1  0  0  0  0
 10 11  1  0  0  0  0
 11 12  1  0  0  0  0
 12 18  1  0  0  0  0
 13 16  1  0  0  0  0
 14 16  1  0  0  0  0
 15 16  1  0  0  0  0
 16 20  1  0  0  0  0
  2 21  1  0  0  0  0
  3 22  1  0  0  0  0
  4 23  1  0  0  0  0
  9 24  1  0  0  0  0
  9 25  1  0  0  0  0
 10 26  1  0  0  0  0
 10 27  1  0  0  0  0
 11 28  1  0  0  0  0
 11 29  1  0  0  0  0
 12 30  1  0  0  0  0
 13 31  1  0  0  0  0
 13 32  1  0  0  0  0
 13 33  1  0  0  0  0
 14 34  1  0  0  0  0
 14 35  1  0  0  0  0
 14 36  1  0  0  0  0
 15 37  1  0  0  0  0
 15 38  1  0  0  0  0
 15 39  1  0  0  0  0
 18 40  1  0  0  0  0
M  END
> <id>
EN300-28283754

> <smiles>
CC(C)(C)OC(=O)NC1CCCC=2C=C(C#N)C=CC12

> <IUPAC Name>
tert-butyl N-(6-cyano-1,2,3,4-tetrahydronaphthalen-1-yl)carbamate

> <CAS>
849928-24-1

> <URL>
https://www.enaminestore.com/catalog/EN300-28283754

> <ROCS_ShapeQuery>
A71EV2A-x0451_0A_A71EV2A-x0310_0A_A71EV2A-x0416_0A_peptide

> <ROCS_TanimotoCombo>
0.509 

> <ROCS_ShapeTanimoto>
0.353 

> <ROCS_ColorTanimoto>
0.156 

> <ROCS_RefTversky>
0.306 

> <ROCS_RefColorTversky>
0.167 

> <ROCS_RefTverskyCombo>
0.474 

> <ROCS_FitTversky>
1.772 

> <ROCS_FitColorTversky>
0.698 

> <ROCS_FitTverskyCombo>
2.469 

> <ROCS_ColorScore>
-5.087

> <ROCS_Overlap>
2125.959

> <ROCS_Rank>
412                 

$$$$
untitled-dbase-155395_17
  -OEChem-11132313473D

 34 35  0     0  0  0  0  0  0999 V2000
    8.2177    9.2242   23.9641 C   0  0  0  0  0  0  0  0  0  0  0  0
   10.0074   10.1273   22.5690 C   0  0  0  0  0  0  0  0  0  0  0  0
    7.9697   10.5233   24.4300 C   0  0  0  0  0  0  0  0  0  0  0  0
    9.7729   11.4295   23.0235 C   0  0  0  0  0  0  0  0  0  0  0  0
    8.7462   11.5673   23.9495 C   0  0  0  0  0  0  0  0  0  0  0  0
    9.2468    9.0450   23.0284 C   0  0  0  0  0  0  0  0  0  0  0  0
    7.3015   12.2971   25.3548 C   0  0  0  0  0  0  0  0  0  0  0  0
   10.8546   13.6866   23.2383 C   0  0  0  0  0  0  0  0  0  0  0  0
    6.6325   13.3435   26.1423 C   0  0  0  0  0  0  0  0  0  0  0  0
   10.8890   16.5406   23.4195 C   0  0  0  0  0  0  0  0  0  0  0  0
   12.0795   16.4823   21.2086 C   0  0  0  0  0  0  0  0  0  0  0  0
    9.7433   15.5794   21.3952 C   0  0  0  0  0  0  0  0  0  0  0  0
   11.0781   15.7690   22.1143 C   0  0  0  0  0  0  0  0  0  0  0  0
    7.0497   11.0068   25.3285 N   0  0  0  0  0  0  0  0  0  0  0  0
   10.5385   12.5243   22.5620 N   0  0  0  0  0  0  0  0  0  0  0  0
   10.5329   14.0025   24.3773 O   0  0  0  0  0  0  0  0  0  0  0  0
    8.3152   12.7169   24.5470 O   0  0  0  0  0  0  0  0  0  0  0  0
   11.6161   14.4821   22.4210 O   0  0  0  0  0  0  0  0  0  0  0  0
    9.6122    7.3050   22.3765 Br  0  0  0  0  0  0  0  0  0  0  0  0
    7.6246    8.3894   24.3240 H   0  0  0  0  0  0  0  0  0  0  0  0
   10.8005    9.9589   21.8415 H   0  0  0  0  0  0  0  0  0  0  0  0
    7.1206   13.4835   27.1229 H   0  0  0  0  0  0  0  0  0  0  0  0
    6.6366   14.3222   25.6284 H   0  0  0  0  0  0  0  0  0  0  0  0
    5.5690   13.1093   26.3328 H   0  0  0  0  0  0  0  0  0  0  0  0
   10.1709   16.0318   24.0725 H   0  0  0  0  0  0  0  0  0  0  0  0
   11.8333   16.6530   23.9621 H   0  0  0  0  0  0  0  0  0  0  0  0
   10.4791   17.5388   23.2278 H   0  0  0  0  0  0  0  0  0  0  0  0
   12.2183   15.9322   20.2709 H   0  0  0  0  0  0  0  0  0  0  0  0
   13.0658   16.5364   21.6835 H   0  0  0  0  0  0  0  0  0  0  0  0
   11.7540   17.4997   20.9687 H   0  0  0  0  0  0  0  0  0  0  0  0
    9.8787   15.0260   20.4589 H   0  0  0  0  0  0  0  0  0  0  0  0
    9.0239   15.0364   22.0167 H   0  0  0  0  0  0  0  0  0  0  0  0
    9.3070   16.5470   21.1221 H   0  0  0  0  0  0  0  0  0  0  0  0
   10.9015   12.4468   21.6150 H   0  0  0  0  0  0  0  0  0  0  0  0
  1  3  2  0  0  0  0
  1  6  1  0  0  0  0
  2  4  1  0  0  0  0
  2  6  2  0  0  0  0
  3  5  1  0  0  0  0
  3 14  1  0  0  0  0
  4  5  2  0  0  0  0
  4 15  1  0  0  0  0
  5 17  1  0  0  0  0
  6 19  1  0  0  0  0
  7  9  1  0  0  0  0
  7 14  2  0  0  0  0
  7 17  1  0  0  0  0
  8 15  1  0  0  0  0
  8 16  2  0  0  0  0
  8 18  1  0  0  0  0
 10 13  1  0  0  0  0
 11 13  1  0  0  0  0
 12 13  1  0  0  0  0
 13 18  1  0  0  0  0
  1 20  1  0  0  0  0
  2 21  1  0  0  0  0
  9 22  1  0  0  0  0
  9 23  1  0  0  0  0
  9 24  1  0  0  0  0
 10 25  1  0  0  0  0
 10 26  1  0  0  0  0
 10 27  1  0  0  0  0
 11 28  1  0  0  0  0
 11 29  1  0  0  0  0
 11 30  1  0  0  0  0
 12 31  1  0  0  0  0
 12 32  1  0  0  0  0
 12 33  1  0  0  0  0
 15 34  1  0  0  0  0
M  END
> <id>
EN300-28294943

> <smiles>
CC1=NC=2C=C(Br)C=C(NC(=O)OC(C)(C)C)C2O1

> <IUPAC Name>
tert-butyl N-(5-bromo-2-methyl-1,3-benzoxazol-7-yl)carbamate

> <CAS>
2680887-11-8

> <URL>
https://www.enaminestore.com/catalog/EN300-28294943

> <ROCS_ShapeQuery>
A71EV2A-x0451_0A_A71EV2A-x0310_0A_A71EV2A-x0416_0A_peptide

> <ROCS_TanimotoCombo>
0.509 

> <ROCS_ShapeTanimoto>
0.346 

> <ROCS_ColorTanimoto>
0.164 

> <ROCS_RefTversky>
0.300 

> <ROCS_RefColorTversky>
0.179 

> <ROCS_RefTverskyCombo>
0.479 

> <ROCS_FitTversky>
1.776 

> <ROCS_FitColorTversky>
0.659 

> <ROCS_FitTverskyCombo>
2.435 

> <ROCS_ColorScore>
-5.444

> <ROCS_Overlap>
2084.744

> <ROCS_Rank>
413                 

$$$$
untitled-dbase-94299_26
  -OEChem-11132313473D

 32 33  0     1  0  0  0  0  0999 V2000
   11.0773   14.2103   23.1526 C   0  0  0  0  0  0  0  0  0  0  0  0
   12.1062   15.1291   22.5257 C   0  0  0  0  0  0  0  0  0  0  0  0
    7.7685   10.0643   22.9857 C   0  0  0  0  0  0  0  0  0  0  0  0
    8.8686    9.4400   23.8794 C   0  0  0  0  0  0  0  0  0  0  0  0
    8.5711   12.4734   22.7755 C   0  0  0  0  0  0  0  0  0  0  0  0
   10.4134   11.4282   24.2718 C   0  0  0  0  0  0  0  0  0  0  0  0
   10.0309   11.9761   22.8789 C   0  0  0  0  0  0  0  0  0  0  0  0
    7.5498   11.5241   23.4285 C   0  0  2  0  0  0  0  0  0  0  0  0
    9.3437   10.5061   24.8856 C   0  0  1  0  0  0  0  0  0  0  0  0
   13.6330   15.2759   20.7469 C   0  0  0  0  0  0  0  0  0  0  0  0
   10.9496   13.0169   22.4755 N   0  0  0  0  0  0  0  0  0  0  0  0
   10.4734   14.5735   24.1500 O   0  0  0  0  0  0  0  0  0  0  0  0
   12.3585   16.2283   22.9813 O   0  0  0  0  0  0  0  0  0  0  0  0
    8.1858   12.7701   25.7044 O   0  0  0  0  0  0  0  0  0  0  0  0
    6.8673   10.6152   25.8222 O   0  0  0  0  0  0  0  0  0  0  0  0
   12.6384   14.5212   21.4460 O   0  0  0  0  0  0  0  0  0  0  0  0
    7.8602   11.4583   25.1889 S   0  0  0  0  0  0  0  0  0  0  0  0
    8.0191    9.9890   21.9224 H   0  0  0  0  0  0  0  0  0  0  0  0
    6.8406    9.4965   23.1293 H   0  0  0  0  0  0  0  0  0  0  0  0
    8.4346    8.5916   24.4233 H   0  0  0  0  0  0  0  0  0  0  0  0
    9.6951    9.0390   23.2831 H   0  0  0  0  0  0  0  0  0  0  0  0
    8.4851   13.4683   23.2305 H   0  0  0  0  0  0  0  0  0  0  0  0
    8.3152   12.5937   21.7150 H   0  0  0  0  0  0  0  0  0  0  0  0
   11.3539   10.8693   24.1833 H   0  0  0  0  0  0  0  0  0  0  0  0
   10.6111   12.2620   24.9573 H   0  0  0  0  0  0  0  0  0  0  0  0
   10.1764   11.1775   22.1414 H   0  0  0  0  0  0  0  0  0  0  0  0
    6.5251   11.8633   23.2571 H   0  0  0  0  0  0  0  0  0  0  0  0
    9.6882   10.0682   25.8258 H   0  0  0  0  0  0  0  0  0  0  0  0
   13.9976   14.6977   19.8944 H   0  0  0  0  0  0  0  0  0  0  0  0
   14.4590   15.5071   21.4241 H   0  0  0  0  0  0  0  0  0  0  0  0
   13.1865   16.2065   20.3888 H   0  0  0  0  0  0  0  0  0  0  0  0
   11.5125   12.8527   21.6466 H   0  0  0  0  0  0  0  0  0  0  0  0
  1  2  1  0  0  0  0
  1 11  1  0  0  0  0
  1 12  2  0  0  0  0
  2 13  2  0  0  0  0
  2 16  1  0  0  0  0
  3  4  1  0  0  0  0
  3  8  1  0  0  0  0
  4  9  1  0  0  0  0
  5  7  1  0  0  0  0
  5  8  1  0  0  0  0
  6  7  1  0  0  0  0
  6  9  1  0  0  0  0
  7 11  1  0  0  0  0
  8 17  1  0  0  0  0
  9 17  1  0  0  0  0
 10 16  1  0  0  0  0
 14 17  2  0  0  0  0
 15 17  2  0  0  0  0
  3 18  1  0  0  0  0
  3 19  1  0  0  0  0
  4 20  1  0  0  0  0
  4 21  1  0  0  0  0
  5 22  1  0  0  0  0
  5 23  1  0  0  0  0
  6 24  1  0  0  0  0
  6 25  1  0  0  0  0
  7 26  1  0  0  0  0
  8 27  1  0  0  0  0
  9 28  1  0  0  0  0
 10 29  1  0  0  0  0
 10 30  1  0  0  0  0
 10 31  1  0  0  0  0
 11 32  1  0  0  0  0
M  END
> <id>
EN300-741722

> <smiles>
COC(=O)C(=O)NC1CC2CCC(C1)S2(=O)=O

> <IUPAC Name>
methyl ({8,8-dioxo-8lambda6-thiabicyclo[3.2.1]octan-3-yl}carbamoyl)formate

> <CAS>
2137840-95-8

> <URL>
https://www.enaminestore.com/catalog/EN300-741722

> <ROCS_ShapeQuery>
A71EV2A-x0451_0A_A71EV2A-x0310_0A_A71EV2A-x0416_0A_peptide

> <ROCS_TanimotoCombo>
0.509 

> <ROCS_ShapeTanimoto>
0.282 

> <ROCS_ColorTanimoto>
0.227 

> <ROCS_RefTversky>
0.254 

> <ROCS_RefColorTversky>
0.256 

> <ROCS_RefTverskyCombo>
0.510 

> <ROCS_FitTversky>
1.669 

> <ROCS_FitColorTversky>
0.667 

> <ROCS_FitTverskyCombo>
2.337 

> <ROCS_ColorScore>
-7.852

> <ROCS_Overlap>
1757.660

> <ROCS_Rank>
414                 

$$$$
untitled-dbase-169560_7
  -OEChem-11132313473D

 34 36  0     1  0  0  0  0  0999 V2000
    7.5596   11.3625   24.8017 C   0  0  0  0  0  0  0  0  0  0  0  0
   10.4619   13.2502   23.5259 C   0  0  0  0  0  0  0  0  0  0  0  0
    8.2025    9.4650   23.4260 C   0  0  0  0  0  0  0  0  0  0  0  0
    9.6590    9.5408   23.9445 C   0  0  0  0  0  0  0  0  0  0  0  0
    8.4571   11.8559   22.6643 C   0  0  0  0  0  0  0  0  0  0  0  0
    7.5280   10.8450   23.3766 C   0  0  2  0  0  0  0  0  0  0  0  0
    8.9556   11.8006   25.0395 C   0  0  1  0  0  0  0  0  0  0  0  0
   10.0312   10.9076   24.4647 C   0  0  2  0  0  0  0  0  0  0  0  0
    9.5519   12.1088   23.6833 C   0  0  2  0  0  0  0  0  0  0  0  0
   12.4218   15.1369   22.6921 C   0  0  0  0  0  0  0  0  0  0  0  0
   12.2550   14.0371   20.4400 C   0  0  0  0  0  0  0  0  0  0  0  0
   10.2446   15.1714   21.4298 C   0  0  0  0  0  0  0  0  0  0  0  0
   11.5120   14.3728   21.7313 C   0  0  0  0  0  0  0  0  0  0  0  0
    6.6725   11.3619   25.6341 O   0  0  0  0  0  0  0  0  0  0  0  0
   10.5772   14.1524   24.3444 O   0  0  0  0  0  0  0  0  0  0  0  0
   11.1360   13.1365   22.3463 O   0  0  0  0  0  0  0  0  0  0  0  0
    8.1979    9.0076   22.4294 H   0  0  0  0  0  0  0  0  0  0  0  0
    7.6275    8.7956   24.0785 H   0  0  0  0  0  0  0  0  0  0  0  0
    9.8038    8.7967   24.7360 H   0  0  0  0  0  0  0  0  0  0  0  0
   10.3468    9.2752   23.1329 H   0  0  0  0  0  0  0  0  0  0  0  0
    8.8562   11.4628   21.7237 H   0  0  0  0  0  0  0  0  0  0  0  0
    7.9183   12.7885   22.4589 H   0  0  0  0  0  0  0  0  0  0  0  0
    6.5188   10.8224   22.9611 H   0  0  0  0  0  0  0  0  0  0  0  0
    9.1783   12.4455   25.8772 H   0  0  0  0  0  0  0  0  0  0  0  0
   11.0150   10.9339   24.9147 H   0  0  0  0  0  0  0  0  0  0  0  0
   11.8921   15.3798   23.6202 H   0  0  0  0  0  0  0  0  0  0  0  0
   13.3178   14.5602   22.9437 H   0  0  0  0  0  0  0  0  0  0  0  0
   12.7362   16.0923   22.2565 H   0  0  0  0  0  0  0  0  0  0  0  0
   11.6060   13.4888   19.7477 H   0  0  0  0  0  0  0  0  0  0  0  0
   13.1125   13.3848   20.6414 H   0  0  0  0  0  0  0  0  0  0  0  0
   12.6165   14.9391   19.9356 H   0  0  0  0  0  0  0  0  0  0  0  0
    9.5918   14.6235   20.7407 H   0  0  0  0  0  0  0  0  0  0  0  0
    9.6791   15.3897   22.3415 H   0  0  0  0  0  0  0  0  0  0  0  0
   10.4893   16.1190   20.9364 H   0  0  0  0  0  0  0  0  0  0  0  0
  1  6  1  0  0  0  0
  1  7  1  0  0  0  0
  1 14  2  0  0  0  0
  2  9  1  0  0  0  0
  2 15  2  0  0  0  0
  2 16  1  0  0  0  0
  3  4  1  0  0  0  0
  3  6  1  0  0  0  0
  4  8  1  0  0  0  0
  5  6  1  0  0  0  0
  5  9  1  0  0  0  0
  7  8  1  0  0  0  0
  7  9  1  0  0  0  0
  8  9  1  0  0  0  0
 10 13  1  0  0  0  0
 11 13  1  0  0  0  0
 12 13  1  0  0  0  0
 13 16  1  0  0  0  0
  3 17  1  0  0  0  0
  3 18  1  0  0  0  0
  4 19  1  0  0  0  0
  4 20  1  0  0  0  0
  5 21  1  0  0  0  0
  5 22  1  0  0  0  0
  6 23  1  0  0  0  0
  7 24  1  0  0  0  0
  8 25  1  0  0  0  0
 10 26  1  0  0  0  0
 10 27  1  0  0  0  0
 10 28  1  0  0  0  0
 11 29  1  0  0  0  0
 11 30  1  0  0  0  0
 11 31  1  0  0  0  0
 12 32  1  0  0  0  0
 12 33  1  0  0  0  0
 12 34  1  0  0  0  0
M  END
> <id>
EN300-37354083

> <smiles>
CC(C)(C)OC(=O)C12CC3CCC2C1C3=O

> <IUPAC Name>
tert-butyl 6-oxotricyclo[3.2.1.0,2,7]octane-1-carboxylate

> <Purity>
95

> <URL>
https://www.enaminestore.com/catalog/EN300-37354083

> <ROCS_ShapeQuery>
A71EV2A-x0451_0A_A71EV2A-x0310_0A_A71EV2A-x0416_0A_peptide

> <ROCS_TanimotoCombo>
0.509 

> <ROCS_ShapeTanimoto>
0.295 

> <ROCS_ColorTanimoto>
0.214 

> <ROCS_RefTversky>
0.262 

> <ROCS_RefColorTversky>
0.338 

> <ROCS_RefTverskyCombo>
0.601 

> <ROCS_FitTversky>
1.730 

> <ROCS_FitColorTversky>
0.369 

> <ROCS_FitTverskyCombo>
2.099 

> <ROCS_ColorScore>
-10.679

> <ROCS_Overlap>
1818.119

> <ROCS_Rank>
415                 

$$$$
untitled-dbase-177320_16
  -OEChem-11132313473D

 31 32  0     0  0  0  0  0  0999 V2000
    8.3589    8.1753   23.8245 C   0  0  0  0  0  0  0  0  0  0  0  0
    8.6173   10.2908   23.8561 C   0  0  0  0  0  0  0  0  0  0  0  0
    7.4517   10.0393   24.5622 C   0  0  0  0  0  0  0  0  0  0  0  0
    9.0046   11.6216   23.7352 C   0  0  0  0  0  0  0  0  0  0  0  0
    7.1238   12.1895   24.9627 C   0  0  0  0  0  0  0  0  0  0  0  0
   11.0206   13.0393   23.2488 C   0  0  0  0  0  0  0  0  0  0  0  0
   13.7692   12.7792   23.9949 C   0  0  0  0  0  0  0  0  0  0  0  0
   14.2821   13.3869   21.6123 C   0  0  0  0  0  0  0  0  0  0  0  0
   13.0815   15.0248   23.0901 C   0  0  0  0  0  0  0  0  0  0  0  0
   13.2913   13.5470   22.7633 C   0  0  0  0  0  0  0  0  0  0  0  0
    9.1721    9.1207   23.4020 N   0  0  0  0  0  0  0  0  0  0  0  0
    6.6470   10.9391   25.1473 N   0  0  0  0  0  0  0  0  0  0  0  0
    8.2386   12.5848   24.3017 N   0  0  0  0  0  0  0  0  0  0  0  0
    7.3013    8.6822   24.5320 N   0  0  0  0  0  0  0  0  0  0  0  0
   10.1817   11.9636   23.0313 N   0  0  0  0  0  0  0  0  0  0  0  0
   10.9119   13.9153   24.0981 O   0  0  0  0  0  0  0  0  0  0  0  0
    6.3751   13.2007   25.5230 O   0  0  0  0  0  0  0  0  0  0  0  0
   12.0451   12.9939   22.3383 O   0  0  0  0  0  0  0  0  0  0  0  0
    8.4769    7.1142   23.6556 H   0  0  0  0  0  0  0  0  0  0  0  0
   13.0607   12.8916   24.8234 H   0  0  0  0  0  0  0  0  0  0  0  0
   13.8901   11.7118   23.7831 H   0  0  0  0  0  0  0  0  0  0  0  0
   14.7280   13.1717   24.3527 H   0  0  0  0  0  0  0  0  0  0  0  0
   13.9432   13.9362   20.7265 H   0  0  0  0  0  0  0  0  0  0  0  0
   14.3642   12.3363   21.3113 H   0  0  0  0  0  0  0  0  0  0  0  0
   15.2790   13.7486   21.8841 H   0  0  0  0  0  0  0  0  0  0  0  0
   12.7387   15.5758   22.2068 H   0  0  0  0  0  0  0  0  0  0  0  0
   12.3456   15.1607   23.8892 H   0  0  0  0  0  0  0  0  0  0  0  0
   14.0228   15.4928   23.4003 H   0  0  0  0  0  0  0  0  0  0  0  0
    6.5513    8.1503   24.9532 H   0  0  0  0  0  0  0  0  0  0  0  0
   10.4434   11.3408   22.2709 H   0  0  0  0  0  0  0  0  0  0  0  0
    5.6077   12.8216   25.9687 H   0  0  0  0  0  0  0  0  0  0  0  0
  1 11  2  0  0  0  0
  1 14  1  0  0  0  0
  2  3  2  0  0  0  0
  2  4  1  0  0  0  0
  2 11  1  0  0  0  0
  3 12  1  0  0  0  0
  3 14  1  0  0  0  0
  4 13  2  0  0  0  0
  4 15  1  0  0  0  0
  5 12  2  0  0  0  0
  5 13  1  0  0  0  0
  5 17  1  0  0  0  0
  6 15  1  0  0  0  0
  6 16  2  0  0  0  0
  6 18  1  0  0  0  0
  7 10  1  0  0  0  0
  8 10  1  0  0  0  0
  9 10  1  0  0  0  0
 10 18  1  0  0  0  0
  1 19  1  0  0  0  0
  7 20  1  0  0  0  0
  7 21  1  0  0  0  0
  7 22  1  0  0  0  0
  8 23  1  0  0  0  0
  8 24  1  0  0  0  0
  8 25  1  0  0  0  0
  9 26  1  0  0  0  0
  9 27  1  0  0  0  0
  9 28  1  0  0  0  0
 14 29  1  0  0  0  0
 15 30  1  0  0  0  0
 17 31  1  0  0  0  0
M  END
> <id>
EN300-45377371

> <smiles>
CC(C)(C)OC(=O)NC=1N=C(O)N=C2NC=NC12

> <IUPAC Name>
tert-butyl N-(2-hydroxy-9H-purin-6-yl)carbamate

> <URL>
https://www.enaminestore.com/catalog/EN300-45377371

> <ROCS_ShapeQuery>
A71EV2A-x0451_0A_A71EV2A-x0310_0A_A71EV2A-x0416_0A_peptide

> <ROCS_TanimotoCombo>
0.509 

> <ROCS_ShapeTanimoto>
0.323 

> <ROCS_ColorTanimoto>
0.186 

> <ROCS_RefTversky>
0.285 

> <ROCS_RefColorTversky>
0.224 

> <ROCS_RefTverskyCombo>
0.508 

> <ROCS_FitTversky>
1.710 

> <ROCS_FitColorTversky>
0.527 

> <ROCS_FitTverskyCombo>
2.237 

> <ROCS_ColorScore>
-6.868

> <ROCS_Overlap>
1976.732

> <ROCS_Rank>
416                 

$$$$
untitled-dbase-153288_10
  -OEChem-11132313473D

 25 26  0     0  0  0  0  0  0999 V2000
    7.6109   12.7884   25.0485 C   0  0  0  0  0  0  0  0  0  0  0  0
    6.2218   10.9030   25.5674 C   0  0  0  0  0  0  0  0  0  0  0  0
    6.4615   12.2732   25.6464 C   0  0  0  0  0  0  0  0  0  0  0  0
    8.4578   11.9058   24.4045 C   0  0  0  0  0  0  0  0  0  0  0  0
    8.1308   10.5583   24.3809 C   0  0  0  0  0  0  0  0  0  0  0  0
    5.5306   13.1473   26.3400 C   0  0  0  0  0  0  0  0  0  0  0  0
   10.2855   13.3626   23.5565 C   0  0  0  0  0  0  0  0  0  0  0  0
    9.1593    9.7542   23.6424 C   0  0  0  0  0  0  0  0  0  0  0  0
   10.1634   10.8332   23.2201 C   0  0  0  0  0  0  0  0  0  0  0  0
   11.0990   13.4962   22.2911 C   0  0  0  0  0  0  0  0  0  0  0  0
    7.0348   10.0193   24.9433 N   0  0  0  0  0  0  0  0  0  0  0  0
    9.6677   12.1319   23.7240 N   0  0  0  0  0  0  0  0  0  0  0  0
    5.6535   14.3708   26.4656 O   0  0  0  0  0  0  0  0  0  0  0  0
   10.2192   14.3136   24.3358 O   0  0  0  0  0  0  0  0  0  0  0  0
    4.4682   12.4716   26.8587 O   0  0  0  0  0  0  0  0  0  0  0  0
   11.0477   12.3585   21.5773 F   0  0  0  0  0  0  0  0  0  0  0  0
   10.6245   14.4965   21.5289 F   0  0  0  0  0  0  0  0  0  0  0  0
   12.3855   13.7576   22.5800 F   0  0  0  0  0  0  0  0  0  0  0  0
    7.8133   13.8517   25.0986 H   0  0  0  0  0  0  0  0  0  0  0  0
    5.3388   10.4616   26.0204 H   0  0  0  0  0  0  0  0  0  0  0  0
    9.6191    9.0143   24.3040 H   0  0  0  0  0  0  0  0  0  0  0  0
    8.7126    9.2602   22.7747 H   0  0  0  0  0  0  0  0  0  0  0  0
   11.1571   10.6414   23.6399 H   0  0  0  0  0  0  0  0  0  0  0  0
   10.2589   10.8853   22.1300 H   0  0  0  0  0  0  0  0  0  0  0  0
    3.8331   13.0532   27.3285 H   0  0  0  0  0  0  0  0  0  0  0  0
  1  3  1  0  0  0  0
  1  4  2  0  0  0  0
  2  3  2  0  0  0  0
  2 11  1  0  0  0  0
  3  6  1  0  0  0  0
  4  5  1  0  0  0  0
  4 12  1  0  0  0  0
  5  8  1  0  0  0  0
  5 11  2  0  0  0  0
  6 13  2  0  0  0  0
  6 15  1  0  0  0  0
  7 10  1  0  0  0  0
  7 12  1  0  0  0  0
  7 14  2  0  0  0  0
  8  9  1  0  0  0  0
  9 12  1  0  0  0  0
 10 16  1  0  0  0  0
 10 17  1  0  0  0  0
 10 18  1  0  0  0  0
  1 19  1  0  0  0  0
  2 20  1  0  0  0  0
  8 21  1  0  0  0  0
  8 22  1  0  0  0  0
  9 23  1  0  0  0  0
  9 24  1  0  0  0  0
 15 25  1  0  0  0  0
M  END
> <id>
EN300-28280724

> <smiles>
OC(=O)C=1C=NC=2CCN(C(=O)C(F)(F)F)C2C1

> <IUPAC Name>
1-(2,2,2-trifluoroacetyl)-1H,2H,3H-pyrrolo[3,2-b]pyridine-6-carboxylic acid

> <CAS>
2680659-87-2

> <URL>
https://www.enaminestore.com/catalog/EN300-28280724

> <ROCS_ShapeQuery>
A71EV2A-x0451_0A_A71EV2A-x0310_0A_A71EV2A-x0416_0A_peptide

> <ROCS_TanimotoCombo>
0.509 

> <ROCS_ShapeTanimoto>
0.334 

> <ROCS_ColorTanimoto>
0.175 

> <ROCS_RefTversky>
0.292 

> <ROCS_RefColorTversky>
0.189 

> <ROCS_RefTverskyCombo>
0.482 

> <ROCS_FitTversky>
1.745 

> <ROCS_FitColorTversky>
0.698 

> <ROCS_FitTverskyCombo>
2.444 

> <ROCS_ColorScore>
-5.772

> <ROCS_Overlap>
2027.561

> <ROCS_Rank>
417                 

$$$$
untitled-dbase-173031_122
  -OEChem-11132313473D

 40 41  0     0  0  0  0  0  0999 V2000
   10.4774   13.3015   23.4540 C   0  0  0  0  0  0  0  0  0  0  0  0
    8.7039    9.9532   25.0524 C   0  0  0  0  0  0  0  0  0  0  0  0
    7.3609   10.3578   23.4521 C   0  0  0  0  0  0  0  0  0  0  0  0
    8.3755   12.4483   24.5161 C   0  0  0  0  0  0  0  0  0  0  0  0
    9.7845   10.9905   22.9589 C   0  0  0  0  0  0  0  0  0  0  0  0
    7.6909   11.1081   24.7766 C   0  0  0  0  0  0  0  0  0  0  0  0
    8.8519    9.9094   23.4993 C   0  0  0  0  0  0  0  0  0  0  0  0
    6.5378   11.2206   25.7582 C   0  0  0  0  0  0  0  0  0  0  0  0
   13.1477   14.2167   22.9934 C   0  0  0  0  0  0  0  0  0  0  0  0
   12.6320   13.9208   20.5530 C   0  0  0  0  0  0  0  0  0  0  0  0
   11.3188   15.5704   21.9178 C   0  0  0  0  0  0  0  0  0  0  0  0
    9.1332    8.5414   22.9032 C   0  0  0  0  0  0  0  0  0  0  0  0
   12.0498   14.2287   21.9309 C   0  0  0  0  0  0  0  0  0  0  0  0
    9.5739   12.2526   23.6816 N   0  0  0  0  0  0  0  0  0  0  0  0
   10.6916   14.2133   24.2508 O   0  0  0  0  0  0  0  0  0  0  0  0
    8.0703    7.6664   23.2436 O   0  0  0  0  0  0  0  0  0  0  0  0
   11.1051   13.1978   22.2402 O   0  0  0  0  0  0  0  0  0  0  0  0
    9.6002   10.2114   25.6245 H   0  0  0  0  0  0  0  0  0  0  0  0
    8.2612    9.0521   25.4956 H   0  0  0  0  0  0  0  0  0  0  0  0
    6.6337    9.5426   23.5569 H   0  0  0  0  0  0  0  0  0  0  0  0
    7.0612   10.9755   22.5999 H   0  0  0  0  0  0  0  0  0  0  0  0
    7.7094   13.1430   23.9913 H   0  0  0  0  0  0  0  0  0  0  0  0
    8.6859   12.9199   25.4557 H   0  0  0  0  0  0  0  0  0  0  0  0
   10.8365   10.7041   23.0743 H   0  0  0  0  0  0  0  0  0  0  0  0
    9.6042   11.1788   21.8940 H   0  0  0  0  0  0  0  0  0  0  0  0
    5.8873   12.0531   25.4831 H   0  0  0  0  0  0  0  0  0  0  0  0
    6.9164   11.3915   26.7678 H   0  0  0  0  0  0  0  0  0  0  0  0
    5.9489   10.3012   25.7563 H   0  0  0  0  0  0  0  0  0  0  0  0
   12.7339   14.4373   23.9839 H   0  0  0  0  0  0  0  0  0  0  0  0
   13.6565   13.2482   23.0369 H   0  0  0  0  0  0  0  0  0  0  0  0
   13.8958   14.9919   22.7914 H   0  0  0  0  0  0  0  0  0  0  0  0
   11.8476   13.9284   19.7875 H   0  0  0  0  0  0  0  0  0  0  0  0
   13.0747   12.9185   20.5314 H   0  0  0  0  0  0  0  0  0  0  0  0
   13.4013   14.6459   20.2683 H   0  0  0  0  0  0  0  0  0  0  0  0
   10.5311   15.5792   21.1557 H   0  0  0  0  0  0  0  0  0  0  0  0
   10.8629   15.7908   22.8885 H   0  0  0  0  0  0  0  0  0  0  0  0
   12.0053   16.3857   21.6623 H   0  0  0  0  0  0  0  0  0  0  0  0
   10.0670    8.1387   23.3024 H   0  0  0  0  0  0  0  0  0  0  0  0
    9.2037    8.6090   21.8152 H   0  0  0  0  0  0  0  0  0  0  0  0
    8.0382    7.6238   24.2139 H   0  0  0  0  0  0  0  0  0  0  0  0
  1 14  1  0  0  0  0
  1 15  2  0  0  0  0
  1 17  1  0  0  0  0
  2  6  1  0  0  0  0
  2  7  1  0  0  0  0
  3  6  1  0  0  0  0
  3  7  1  0  0  0  0
  4  6  1  0  0  0  0
  4 14  1  0  0  0  0
  5  7  1  0  0  0  0
  5 14  1  0  0  0  0
  6  8  1  0  0  0  0
  7 12  1  0  0  0  0
  9 13  1  0  0  0  0
 10 13  1  0  0  0  0
 11 13  1  0  0  0  0
 12 16  1  0  0  0  0
 13 17  1  0  0  0  0
  2 18  1  0  0  0  0
  2 19  1  0  0  0  0
  3 20  1  0  0  0  0
  3 21  1  0  0  0  0
  4 22  1  0  0  0  0
  4 23  1  0  0  0  0
  5 24  1  0  0  0  0
  5 25  1  0  0  0  0
  8 26  1  0  0  0  0
  8 27  1  0  0  0  0
  8 28  1  0  0  0  0
  9 29  1  0  0  0  0
  9 30  1  0  0  0  0
  9 31  1  0  0  0  0
 10 32  1  0  0  0  0
 10 33  1  0  0  0  0
 10 34  1  0  0  0  0
 11 35  1  0  0  0  0
 11 36  1  0  0  0  0
 11 37  1  0  0  0  0
 12 38  1  0  0  0  0
 12 39  1  0  0  0  0
 16 40  1  0  0  0  0
M  END
> <id>
EN300-37139266

> <smiles>
CC(C)(C)OC(=O)N1CC2(C)CC(CO)(C2)C1

> <IUPAC Name>
tert-butyl 1-(hydroxymethyl)-5-methyl-3-azabicyclo[3.1.1]heptane-3-carboxylate

> <CAS>
2763758-81-0

> <Purity>
95

> <URL>
https://www.enaminestore.com/catalog/EN300-37139266

> <ROCS_ShapeQuery>
A71EV2A-x0451_0A_A71EV2A-x0310_0A_A71EV2A-x0416_0A_peptide

> <ROCS_TanimotoCombo>
0.509 

> <ROCS_ShapeTanimoto>
0.318 

> <ROCS_ColorTanimoto>
0.191 

> <ROCS_RefTversky>
0.279 

> <ROCS_RefColorTversky>
0.219 

> <ROCS_RefTverskyCombo>
0.497 

> <ROCS_FitTversky>
1.806 

> <ROCS_FitColorTversky>
0.597 

> <ROCS_FitTverskyCombo>
2.404 

> <ROCS_ColorScore>
-6.696

> <ROCS_Overlap>
1933.109

> <ROCS_Rank>
418                 

$$$$
untitled-dbase-33342_122
  -OEChem-11132313473D

 40 41  0     0  0  0  0  0  0999 V2000
   10.4787   13.3011   23.4548 C   0  0  0  0  0  0  0  0  0  0  0  0
    8.7038    9.9539   25.0516 C   0  0  0  0  0  0  0  0  0  0  0  0
    7.3617   10.3576   23.4503 C   0  0  0  0  0  0  0  0  0  0  0  0
    8.3751   12.4487   24.5139 C   0  0  0  0  0  0  0  0  0  0  0  0
    9.7852   10.9906   22.9582 C   0  0  0  0  0  0  0  0  0  0  0  0
    7.6906   11.1084   24.7747 C   0  0  0  0  0  0  0  0  0  0  0  0
    8.8527    9.9094   23.4987 C   0  0  0  0  0  0  0  0  0  0  0  0
    6.5371   11.2210   25.7558 C   0  0  0  0  0  0  0  0  0  0  0  0
   13.1501   14.2151   22.9983 C   0  0  0  0  0  0  0  0  0  0  0  0
   12.6380   13.9190   20.5571 C   0  0  0  0  0  0  0  0  0  0  0  0
   11.3234   15.5694   21.9196 C   0  0  0  0  0  0  0  0  0  0  0  0
    9.1345    8.5412   22.9033 C   0  0  0  0  0  0  0  0  0  0  0  0
   12.0538   14.2273   21.9340 C   0  0  0  0  0  0  0  0  0  0  0  0
    9.5745   12.2525   23.6812 N   0  0  0  0  0  0  0  0  0  0  0  0
   10.6920   14.2128   24.2518 O   0  0  0  0  0  0  0  0  0  0  0  0
    8.0716    7.6662   23.2434 O   0  0  0  0  0  0  0  0  0  0  0  0
   11.1082   13.1969   22.2420 O   0  0  0  0  0  0  0  0  0  0  0  0
    9.5996   10.2126   25.6241 H   0  0  0  0  0  0  0  0  0  0  0  0
    8.2609    9.0530   25.4950 H   0  0  0  0  0  0  0  0  0  0  0  0
    6.6347    9.5419   23.5545 H   0  0  0  0  0  0  0  0  0  0  0  0
    7.0620   10.9753   22.5981 H   0  0  0  0  0  0  0  0  0  0  0  0
    7.7095   13.1427   23.9878 H   0  0  0  0  0  0  0  0  0  0  0  0
    8.6841   12.9211   25.4535 H   0  0  0  0  0  0  0  0  0  0  0  0
   10.8370   10.7042   23.0733 H   0  0  0  0  0  0  0  0  0  0  0  0
    9.6045   11.1791   21.8933 H   0  0  0  0  0  0  0  0  0  0  0  0
    5.8865   12.0532   25.4800 H   0  0  0  0  0  0  0  0  0  0  0  0
    6.9153   11.3924   26.7654 H   0  0  0  0  0  0  0  0  0  0  0  0
    5.9486   10.3014   25.7540 H   0  0  0  0  0  0  0  0  0  0  0  0
   12.7348   14.4359   23.9881 H   0  0  0  0  0  0  0  0  0  0  0  0
   13.6584   13.2463   23.0427 H   0  0  0  0  0  0  0  0  0  0  0  0
   13.8988   14.9898   22.7973 H   0  0  0  0  0  0  0  0  0  0  0  0
   11.8549   13.9268   19.7904 H   0  0  0  0  0  0  0  0  0  0  0  0
   13.0804   12.9165   20.5364 H   0  0  0  0  0  0  0  0  0  0  0  0
   13.4081   14.6437   20.2735 H   0  0  0  0  0  0  0  0  0  0  0  0
   10.5370   15.5784   21.1563 H   0  0  0  0  0  0  0  0  0  0  0  0
   10.8661   15.7901   22.8895 H   0  0  0  0  0  0  0  0  0  0  0  0
   12.0107   16.3843   21.6651 H   0  0  0  0  0  0  0  0  0  0  0  0
   10.0681    8.1388   23.3031 H   0  0  0  0  0  0  0  0  0  0  0  0
    9.2056    8.6083   21.8152 H   0  0  0  0  0  0  0  0  0  0  0  0
    8.0389    7.6240   24.2137 H   0  0  0  0  0  0  0  0  0  0  0  0
  1 14  1  0  0  0  0
  1 15  2  0  0  0  0
  1 17  1  0  0  0  0
  2  6  1  0  0  0  0
  2  7  1  0  0  0  0
  3  6  1  0  0  0  0
  3  7  1  0  0  0  0
  4  6  1  0  0  0  0
  4 14  1  0  0  0  0
  5  7  1  0  0  0  0
  5 14  1  0  0  0  0
  6  8  1  1  0  0  0
  7 12  1  1  0  0  0
  9 13  1  0  0  0  0
 10 13  1  0  0  0  0
 11 13  1  0  0  0  0
 12 16  1  0  0  0  0
 13 17  1  0  0  0  0
  2 18  1  0  0  0  0
  2 19  1  0  0  0  0
  3 20  1  0  0  0  0
  3 21  1  0  0  0  0
  4 22  1  0  0  0  0
  4 23  1  0  0  0  0
  5 24  1  0  0  0  0
  5 25  1  0  0  0  0
  8 26  1  0  0  0  0
  8 27  1  0  0  0  0
  8 28  1  0  0  0  0
  9 29  1  0  0  0  0
  9 30  1  0  0  0  0
  9 31  1  0  0  0  0
 10 32  1  0  0  0  0
 10 33  1  0  0  0  0
 10 34  1  0  0  0  0
 11 35  1  0  0  0  0
 11 36  1  0  0  0  0
 11 37  1  0  0  0  0
 12 38  1  0  0  0  0
 12 39  1  0  0  0  0
 16 40  1  0  0  0  0
M  END
> <id>
EN300-37139268

> <smiles>
CC(C)(C)OC(=O)N1C[C@]2(C)C[C@@](CO)(C2)C1

> <IUPAC Name>
tert-butyl 1-(hydroxymethyl)-5-methyl-3-azabicyclo[3.1.1]heptane-3-carboxylate

> <CAS>
2763758-81-0

> <URL>
https://www.enaminestore.com/catalog/EN300-37139268

> <ROCS_ShapeQuery>
A71EV2A-x0451_0A_A71EV2A-x0310_0A_A71EV2A-x0416_0A_peptide

> <ROCS_TanimotoCombo>
0.509 

> <ROCS_ShapeTanimoto>
0.318 

> <ROCS_ColorTanimoto>
0.191 

> <ROCS_RefTversky>
0.279 

> <ROCS_RefColorTversky>
0.219 

> <ROCS_RefTverskyCombo>
0.497 

> <ROCS_FitTversky>
1.806 

> <ROCS_FitColorTversky>
0.597 

> <ROCS_FitTverskyCombo>
2.403 

> <ROCS_ColorScore>
-6.696

> <ROCS_Overlap>
1933.046

> <ROCS_Rank>
419                 

$$$$
untitled-dbase-19538_878
  -OEChem-11132313473D

 41 42  0     0  0  0  0  0  0999 V2000
    6.2158   10.8710   26.4544 C   0  0  0  0  0  0  0  0  0  0  0  0
    7.0194    9.9864   25.7386 C   0  0  0  0  0  0  0  0  0  0  0  0
    6.8854   12.6697   24.9837 C   0  0  0  0  0  0  0  0  0  0  0  0
    7.6997   11.7936   24.2526 C   0  0  0  0  0  0  0  0  0  0  0  0
    6.1525   12.2119   26.0807 C   0  0  0  0  0  0  0  0  0  0  0  0
    7.7722   10.4511   24.6575 C   0  0  0  0  0  0  0  0  0  0  0  0
   10.7594   13.0975   23.6308 C   0  0  0  0  0  0  0  0  0  0  0  0
    8.4441   12.2915   23.0407 C   0  0  0  0  0  0  0  0  0  0  0  0
   10.3872   10.7378   22.9577 C   0  0  0  0  0  0  0  0  0  0  0  0
    9.9275    9.8039   24.0717 C   0  0  0  0  0  0  0  0  0  0  0  0
   12.4769   15.3495   23.2186 C   0  0  0  0  0  0  0  0  0  0  0  0
   13.8677   13.7980   21.8159 C   0  0  0  0  0  0  0  0  0  0  0  0
   11.5037   14.3130   21.1418 C   0  0  0  0  0  0  0  0  0  0  0  0
    5.2910   13.1581   26.8471 C   0  0  0  0  0  0  0  0  0  0  0  0
   12.4605   14.1161   22.3168 C   0  0  0  0  0  0  0  0  0  0  0  0
    9.8908   12.0977   23.1749 N   0  0  0  0  0  0  0  0  0  0  0  0
   10.4433   13.9818   24.4247 O   0  0  0  0  0  0  0  0  0  0  0  0
    8.5246    9.5260   23.9780 O   0  0  0  0  0  0  0  0  0  0  0  0
    4.1772   12.4544   27.3829 O   0  0  0  0  0  0  0  0  0  0  0  0
   12.0127   12.9946   23.0866 O   0  0  0  0  0  0  0  0  0  0  0  0
    5.6404   10.5060   27.3009 H   0  0  0  0  0  0  0  0  0  0  0  0
    7.0626    8.9409   26.0313 H   0  0  0  0  0  0  0  0  0  0  0  0
    6.8147   13.7157   24.6925 H   0  0  0  0  0  0  0  0  0  0  0  0
    8.0977   11.7578   22.1471 H   0  0  0  0  0  0  0  0  0  0  0  0
    8.2286   13.3509   22.8658 H   0  0  0  0  0  0  0  0  0  0  0  0
   11.4810   10.7464   22.9201 H   0  0  0  0  0  0  0  0  0  0  0  0
   10.0159   10.3992   21.9840 H   0  0  0  0  0  0  0  0  0  0  0  0
   10.4373    8.8413   23.9502 H   0  0  0  0  0  0  0  0  0  0  0  0
   10.2054   10.1779   25.0667 H   0  0  0  0  0  0  0  0  0  0  0  0
   11.4686   15.5812   23.5802 H   0  0  0  0  0  0  0  0  0  0  0  0
   13.1326   15.2078   24.0839 H   0  0  0  0  0  0  0  0  0  0  0  0
   12.8179   16.2329   22.6669 H   0  0  0  0  0  0  0  0  0  0  0  0
   13.8607   12.9137   21.1684 H   0  0  0  0  0  0  0  0  0  0  0  0
   14.5358   13.5628   22.6523 H   0  0  0  0  0  0  0  0  0  0  0  0
   14.2958   14.6350   21.2550 H   0  0  0  0  0  0  0  0  0  0  0  0
   11.4918   13.4284   20.4948 H   0  0  0  0  0  0  0  0  0  0  0  0
   10.4812   14.5058   21.4823 H   0  0  0  0  0  0  0  0  0  0  0  0
   11.8254   15.1514   20.5135 H   0  0  0  0  0  0  0  0  0  0  0  0
    5.8440   13.6227   27.6748 H   0  0  0  0  0  0  0  0  0  0  0  0
    4.9208   13.9676   26.2033 H   0  0  0  0  0  0  0  0  0  0  0  0
    3.6456   13.1034   27.8711 H   0  0  0  0  0  0  0  0  0  0  0  0
  1  2  1  0  0  0  0
  1  5  2  0  0  0  0
  2  6  2  0  0  0  0
  3  4  2  0  0  0  0
  3  5  1  0  0  0  0
  4  6  1  0  0  0  0
  4  8  1  0  0  0  0
  5 14  1  0  0  0  0
  6 18  1  0  0  0  0
  7 16  1  0  0  0  0
  7 17  2  0  0  0  0
  7 20  1  0  0  0  0
  8 16  1  0  0  0  0
  9 10  1  0  0  0  0
  9 16  1  0  0  0  0
 10 18  1  0  0  0  0
 11 15  1  0  0  0  0
 12 15  1  0  0  0  0
 13 15  1  0  0  0  0
 14 19  1  0  0  0  0
 15 20  1  0  0  0  0
  1 21  1  0  0  0  0
  2 22  1  0  0  0  0
  3 23  1  0  0  0  0
  8 24  1  0  0  0  0
  8 25  1  0  0  0  0
  9 26  1  0  0  0  0
  9 27  1  0  0  0  0
 10 28  1  0  0  0  0
 10 29  1  0  0  0  0
 11 30  1  0  0  0  0
 11 31  1  0  0  0  0
 11 32  1  0  0  0  0
 12 33  1  0  0  0  0
 12 34  1  0  0  0  0
 12 35  1  0  0  0  0
 13 36  1  0  0  0  0
 13 37  1  0  0  0  0
 13 38  1  0  0  0  0
 14 39  1  0  0  0  0
 14 40  1  0  0  0  0
 19 41  1  0  0  0  0
M  END
> <id>
EN300-265085

> <smiles>
CC(C)(C)OC(=O)N1CCOC=2C=CC(CO)=CC2C1

> <MDLNUMBER>
MFCD29046019

> <IUPAC Name>
tert-butyl 7-(hydroxymethyl)-2,3,4,5-tetrahydro-1,4-benzoxazepine-4-carboxylate

> <CAS>
1955507-10-4

> <URL>
https://www.enaminestore.com/catalog/EN300-265085

> <ROCS_ShapeQuery>
A71EV2A-x0451_0A_A71EV2A-x0310_0A_A71EV2A-x0416_0A_peptide

> <ROCS_TanimotoCombo>
0.509 

> <ROCS_ShapeTanimoto>
0.340 

> <ROCS_ColorTanimoto>
0.169 

> <ROCS_RefTversky>
0.298 

> <ROCS_RefColorTversky>
0.183 

> <ROCS_RefTverskyCombo>
0.481 

> <ROCS_FitTversky>
1.714 

> <ROCS_FitColorTversky>
0.678 

> <ROCS_FitTverskyCombo>
2.392 

> <ROCS_ColorScore>
-5.583

> <ROCS_Overlap>
2069.118

> <ROCS_Rank>
420                 

$$$$
untitled-dbase-106948_534
  -OEChem-11132313473D

 47 49  0     1  0  0  0  0  0999 V2000
    5.5292   11.5999   28.8113 C   0  0  0  0  0  0  0  0  0  0  0  0
    6.3764   11.1203   27.8123 C   0  0  0  0  0  0  0  0  0  0  0  0
    4.5969   12.5948   28.5168 C   0  0  0  0  0  0  0  0  0  0  0  0
    5.3591   12.6306   26.2245 C   0  0  0  0  0  0  0  0  0  0  0  0
    6.2914   11.6357   26.5190 C   0  0  0  0  0  0  0  0  0  0  0  0
    4.5119   13.1102   27.2235 C   0  0  0  0  0  0  0  0  0  0  0  0
    9.8656   13.3589   23.5665 C   0  0  0  0  0  0  0  0  0  0  0  0
    8.4365   10.1742   22.7245 C   0  0  0  0  0  0  0  0  0  0  0  0
    9.4853    9.7752   23.7806 C   0  0  0  0  0  0  0  0  0  0  0  0
    6.9740   11.8099   24.0422 C   0  0  0  0  0  0  0  0  0  0  0  0
    8.7420   11.1544   25.8069 C   0  0  0  0  0  0  0  0  0  0  0  0
    8.1215   11.6431   23.0224 C   0  0  1  0  0  0  0  0  0  0  0  0
    9.7091   11.0442   24.6091 C   0  0  2  0  0  0  0  0  0  0  0  0
    7.2238   11.1076   25.4204 C   0  0  0  0  0  0  0  0  0  0  0  0
   11.8570   13.3219   21.8644 C   0  0  0  0  0  0  0  0  0  0  0  0
   10.2947   14.1663   20.0881 C   0  0  0  0  0  0  0  0  0  0  0  0
   11.1101   15.7253   21.8805 C   0  0  0  0  0  0  0  0  0  0  0  0
   10.7142   14.2866   21.5515 C   0  0  0  0  0  0  0  0  0  0  0  0
    9.3311   12.0906   23.6780 N   0  0  0  0  0  0  0  0  0  0  0  0
   10.5192   13.9129   24.4473 O   0  0  0  0  0  0  0  0  0  0  0  0
    6.8617    9.7255   25.2555 O   0  0  0  0  0  0  0  0  0  0  0  0
    9.5839   13.9298   22.3550 O   0  0  0  0  0  0  0  0  0  0  0  0
    3.2485   14.4582   26.8253 Br  0  0  0  0  0  0  0  0  0  0  0  0
    5.5955   11.1986   29.8183 H   0  0  0  0  0  0  0  0  0  0  0  0
    7.0996   10.3450   28.0510 H   0  0  0  0  0  0  0  0  0  0  0  0
    3.9443   12.9574   29.3068 H   0  0  0  0  0  0  0  0  0  0  0  0
    5.2986   13.0277   25.2137 H   0  0  0  0  0  0  0  0  0  0  0  0
    8.8781   10.0773   21.7255 H   0  0  0  0  0  0  0  0  0  0  0  0
    7.5519    9.5310   22.7575 H   0  0  0  0  0  0  0  0  0  0  0  0
    9.1622    8.9208   24.3828 H   0  0  0  0  0  0  0  0  0  0  0  0
   10.4131    9.4873   23.2717 H   0  0  0  0  0  0  0  0  0  0  0  0
    6.8278   12.8871   24.2044 H   0  0  0  0  0  0  0  0  0  0  0  0
    6.0451   11.4308   23.5967 H   0  0  0  0  0  0  0  0  0  0  0  0
    8.9639   10.3477   26.5178 H   0  0  0  0  0  0  0  0  0  0  0  0
    8.9583   12.0993   26.3251 H   0  0  0  0  0  0  0  0  0  0  0  0
    7.9132   12.2195   22.1155 H   0  0  0  0  0  0  0  0  0  0  0  0
   10.7460   11.1416   24.9440 H   0  0  0  0  0  0  0  0  0  0  0  0
   12.1610   13.4052   22.9140 H   0  0  0  0  0  0  0  0  0  0  0  0
   11.5738   12.2831   21.6658 H   0  0  0  0  0  0  0  0  0  0  0  0
   12.7440   13.5592   21.2659 H   0  0  0  0  0  0  0  0  0  0  0  0
    9.4749   14.8568   19.8592 H   0  0  0  0  0  0  0  0  0  0  0  0
    9.9200   13.1595   19.8709 H   0  0  0  0  0  0  0  0  0  0  0  0
   11.1274   14.3800   19.4102 H   0  0  0  0  0  0  0  0  0  0  0  0
   10.2905   16.4175   21.6562 H   0  0  0  0  0  0  0  0  0  0  0  0
   11.3789   15.8384   22.9358 H   0  0  0  0  0  0  0  0  0  0  0  0
   11.9611   16.0449   21.2682 H   0  0  0  0  0  0  0  0  0  0  0  0
    5.9282    9.7161   24.9953 H   0  0  0  0  0  0  0  0  0  0  0  0
  1  2  1  0  0  0  0
  1  3  2  0  0  0  0
  2  5  2  0  0  0  0
  3  6  1  0  0  0  0
  4  5  1  0  0  0  0
  4  6  2  0  0  0  0
  5 14  1  0  0  0  0
  6 23  1  0  0  0  0
  7 19  1  0  0  0  0
  7 20  2  0  0  0  0
  7 22  1  0  0  0  0
  8  9  1  0  0  0  0
  8 12  1  0  0  0  0
  9 13  1  0  0  0  0
 10 12  1  0  0  0  0
 10 14  1  0  0  0  0
 11 13  1  0  0  0  0
 11 14  1  0  0  0  0
 12 19  1  0  0  0  0
 13 19  1  0  0  0  0
 14 21  1  0  0  0  0
 15 18  1  0  0  0  0
 16 18  1  0  0  0  0
 17 18  1  0  0  0  0
 18 22  1  0  0  0  0
  1 24  1  0  0  0  0
  2 25  1  0  0  0  0
  3 26  1  0  0  0  0
  4 27  1  0  0  0  0
  8 28  1  0  0  0  0
  8 29  1  0  0  0  0
  9 30  1  0  0  0  0
  9 31  1  0  0  0  0
 10 32  1  0  0  0  0
 10 33  1  0  0  0  0
 11 34  1  0  0  0  0
 11 35  1  0  0  0  0
 12 36  1  0  0  0  0
 13 37  1  0  0  0  0
 15 38  1  0  0  0  0
 15 39  1  0  0  0  0
 15 40  1  0  0  0  0
 16 41  1  0  0  0  0
 16 42  1  0  0  0  0
 16 43  1  0  0  0  0
 17 44  1  0  0  0  0
 17 45  1  0  0  0  0
 17 46  1  0  0  0  0
 21 47  1  0  0  0  0
M  END
> <id>
EN300-7428209

> <smiles>
CC(C)(C)OC(=O)N1C2CCC1CC(O)(C2)C=3C=CC=C(Br)C3

> <IUPAC Name>
tert-butyl 3-(3-bromophenyl)-3-hydroxy-8-azabicyclo[3.2.1]octane-8-carboxylate

> <CAS>
2309467-17-0

> <URL>
https://www.enaminestore.com/catalog/EN300-7428209

> <ROCS_ShapeQuery>
A71EV2A-x0451_0A_A71EV2A-x0310_0A_A71EV2A-x0416_0A_peptide

> <ROCS_TanimotoCombo>
0.509 

> <ROCS_ShapeTanimoto>
0.316 

> <ROCS_ColorTanimoto>
0.192 

> <ROCS_RefTversky>
0.287 

> <ROCS_RefColorTversky>
0.229 

> <ROCS_RefTverskyCombo>
0.515 

> <ROCS_FitTversky>
1.490 

> <ROCS_FitColorTversky>
0.549 

> <ROCS_FitTverskyCombo>
2.038 

> <ROCS_ColorScore>
-7.022

> <ROCS_Overlap>
1991.448

> <ROCS_Rank>
421                 

$$$$
untitled-dbase-152991_0
  -OEChem-11132313473D

 26 27  0     0  0  0  0  0  0999 V2000
    6.6134   10.4847   25.2632 C   0  0  0  0  0  0  0  0  0  0  0  0
    6.7913   12.7728   25.8363 C   0  0  0  0  0  0  0  0  0  0  0  0
    6.0937   11.5849   25.9272 C   0  0  0  0  0  0  0  0  0  0  0  0
    7.8034   10.6071   24.5456 C   0  0  0  0  0  0  0  0  0  0  0  0
    8.4399   11.8492   24.4784 C   0  0  0  0  0  0  0  0  0  0  0  0
    4.8637   11.4901   26.6931 C   0  0  0  0  0  0  0  0  0  0  0  0
   10.2728   13.2252   23.5512 C   0  0  0  0  0  0  0  0  0  0  0  0
   10.0244   10.7917   22.9230 C   0  0  0  0  0  0  0  0  0  0  0  0
    9.6562    9.5266   23.6704 C   0  0  0  0  0  0  0  0  0  0  0  0
   10.9031   13.5114   22.2078 C   0  0  0  0  0  0  0  0  0  0  0  0
    7.9367   12.9262   25.1333 N   0  0  0  0  0  0  0  0  0  0  0  0
    9.6218   11.9883   23.6718 N   0  0  0  0  0  0  0  0  0  0  0  0
    4.3309   12.4175   27.3140 O   0  0  0  0  0  0  0  0  0  0  0  0
   10.3683   14.0746   24.4402 O   0  0  0  0  0  0  0  0  0  0  0  0
    8.2556    9.4749   23.9245 O   0  0  0  0  0  0  0  0  0  0  0  0
    4.3257   10.2390   26.6653 O   0  0  0  0  0  0  0  0  0  0  0  0
   10.7042   12.4817   21.3678 F   0  0  0  0  0  0  0  0  0  0  0  0
   10.3656   14.6152   21.6615 F   0  0  0  0  0  0  0  0  0  0  0  0
   12.2268   13.7038   22.3379 F   0  0  0  0  0  0  0  0  0  0  0  0
    6.1026    9.5256   25.3089 H   0  0  0  0  0  0  0  0  0  0  0  0
    6.4433   13.6724   26.3352 H   0  0  0  0  0  0  0  0  0  0  0  0
   11.1008   10.7973   22.7334 H   0  0  0  0  0  0  0  0  0  0  0  0
    9.5061   10.8382   21.9574 H   0  0  0  0  0  0  0  0  0  0  0  0
    9.9119    8.6519   23.0628 H   0  0  0  0  0  0  0  0  0  0  0  0
   10.2079    9.4362   24.6152 H   0  0  0  0  0  0  0  0  0  0  0  0
    3.4935   10.1648   27.1793 H   0  0  0  0  0  0  0  0  0  0  0  0
  1  3  1  0  0  0  0
  1  4  2  0  0  0  0
  2  3  2  0  0  0  0
  2 11  1  0  0  0  0
  3  6  1  0  0  0  0
  4  5  1  0  0  0  0
  4 15  1  0  0  0  0
  5 11  2  0  0  0  0
  5 12  1  0  0  0  0
  6 13  2  0  0  0  0
  6 16  1  0  0  0  0
  7 10  1  0  0  0  0
  7 12  1  0  0  0  0
  7 14  2  0  0  0  0
  8  9  1  0  0  0  0
  8 12  1  0  0  0  0
  9 15  1  0  0  0  0
 10 17  1  0  0  0  0
 10 18  1  0  0  0  0
 10 19  1  0  0  0  0
  1 20  1  0  0  0  0
  2 21  1  0  0  0  0
  8 22  1  0  0  0  0
  8 23  1  0  0  0  0
  9 24  1  0  0  0  0
  9 25  1  0  0  0  0
 16 26  1  0  0  0  0
M  END
> <id>
EN300-28284685

> <smiles>
OC(=O)C=1C=NC=2N(CCOC2C1)C(=O)C(F)(F)F

> <IUPAC Name>
4-(2,2,2-trifluoroacetyl)-2H,3H,4H-pyrido[3,2-b][1,4]oxazine-7-carboxylic acid

> <CAS>
2680881-29-0

> <URL>
https://www.enaminestore.com/catalog/EN300-28284685

> <ROCS_ShapeQuery>
A71EV2A-x0451_0A_A71EV2A-x0310_0A_A71EV2A-x0416_0A_peptide

> <ROCS_TanimotoCombo>
0.509 

> <ROCS_ShapeTanimoto>
0.342 

> <ROCS_ColorTanimoto>
0.167 

> <ROCS_RefTversky>
0.299 

> <ROCS_RefColorTversky>
0.186 

> <ROCS_RefTverskyCombo>
0.485 

> <ROCS_FitTversky>
1.722 

> <ROCS_FitColorTversky>
0.617 

> <ROCS_FitTverskyCombo>
2.339 

> <ROCS_ColorScore>
-5.675

> <ROCS_Overlap>
2077.334

> <ROCS_Rank>
422                 

$$$$
untitled-dbase-106489_25
  -OEChem-11132313473D

 35 37  0     1  0  0  0  0  0999 V2000
   11.8744   15.6943   22.3460 C   0  0  0  0  0  0  0  0  0  0  0  0
    6.1245   11.8028   26.0672 C   0  0  0  0  0  0  0  0  0  0  0  0
    6.5429   10.6532   25.4127 C   0  0  0  0  0  0  0  0  0  0  0  0
    8.1316    9.5348   23.9206 C   0  0  0  0  0  0  0  0  0  0  0  0
    9.9551   10.7903   22.9850 C   0  0  0  0  0  0  0  0  0  0  0  0
    6.8681   12.9502   25.8799 C   0  0  0  0  0  0  0  0  0  0  0  0
    7.6820   10.6815   24.5969 C   0  0  0  0  0  0  0  0  0  0  0  0
    9.5079   11.9303   23.6575 C   0  0  0  0  0  0  0  0  0  0  0  0
    8.3762   11.9027   24.4680 C   0  0  0  0  0  0  0  0  0  0  0  0
    9.2664    9.5909   23.1164 C   0  0  0  0  0  0  0  0  0  0  0  0
   10.2698   13.1697   23.4825 C   0  0  0  0  0  0  0  0  0  0  0  0
    9.9657   13.7948   19.8846 C   0  0  0  0  0  0  0  0  0  0  0  0
   10.9810   14.8792   20.2128 C   0  0  0  0  0  0  0  0  0  0  0  0
    9.3465   13.4961   21.2343 C   0  0  0  0  0  0  0  0  0  0  0  0
   11.5396   14.4708   21.5986 C   0  0  1  0  0  0  0  0  0  0  0  0
   12.7852   13.5948   21.4145 C   0  0  0  0  0  0  0  0  0  0  0  0
   12.1382   16.6585   22.9349 N   0  0  0  0  0  0  0  0  0  0  0  0
    7.9726   13.0199   25.1019 N   0  0  0  0  0  0  0  0  0  0  0  0
   10.4126   13.7124   22.2067 N   0  0  0  0  0  0  0  0  0  0  0  0
   10.7473   13.6529   24.5098 O   0  0  0  0  0  0  0  0  0  0  0  0
    9.6915    8.4955   22.4741 F   0  0  0  0  0  0  0  0  0  0  0  0
   13.2777   13.2471   22.6112 F   0  0  0  0  0  0  0  0  0  0  0  0
   12.4651   12.4864   20.7331 F   0  0  0  0  0  0  0  0  0  0  0  0
   13.7210   14.2720   20.7354 F   0  0  0  0  0  0  0  0  0  0  0  0
    5.2458   11.7991   26.7014 H   0  0  0  0  0  0  0  0  0  0  0  0
    5.9745    9.7352   25.5422 H   0  0  0  0  0  0  0  0  0  0  0  0
    7.6001    8.5909   24.0165 H   0  0  0  0  0  0  0  0  0  0  0  0
   10.8402   10.8298   22.3552 H   0  0  0  0  0  0  0  0  0  0  0  0
    6.5892   13.8793   26.3661 H   0  0  0  0  0  0  0  0  0  0  0  0
    9.2078   14.1774   19.1904 H   0  0  0  0  0  0  0  0  0  0  0  0
   10.4316   12.9136   19.4335 H   0  0  0  0  0  0  0  0  0  0  0  0
   11.7731   14.8657   19.4522 H   0  0  0  0  0  0  0  0  0  0  0  0
   10.5215   15.8744   20.2030 H   0  0  0  0  0  0  0  0  0  0  0  0
    8.4762   14.1308   21.4432 H   0  0  0  0  0  0  0  0  0  0  0  0
    9.0388   12.4438   21.3087 H   0  0  0  0  0  0  0  0  0  0  0  0
  1 15  1  0  0  0  0
  1 17  3  0  0  0  0
  2  3  2  0  0  0  0
  2  6  1  0  0  0  0
  3  7  1  0  0  0  0
  4  7  2  0  0  0  0
  4 10  1  0  0  0  0
  5  8  1  0  0  0  0
  5 10  2  0  0  0  0
  6 18  2  0  0  0  0
  7  9  1  0  0  0  0
  8  9  2  0  0  0  0
  8 11  1  0  0  0  0
  9 18  1  0  0  0  0
 10 21  1  0  0  0  0
 11 19  1  0  0  0  0
 11 20  2  0  0  0  0
 12 13  1  0  0  0  0
 12 14  1  0  0  0  0
 13 15  1  0  0  0  0
 14 19  1  0  0  0  0
 15 16  1  0  0  0  0
 15 19  1  0  0  0  0
 16 22  1  0  0  0  0
 16 23  1  0  0  0  0
 16 24  1  0  0  0  0
  2 25  1  0  0  0  0
  3 26  1  0  0  0  0
  4 27  1  0  0  0  0
  5 28  1  0  0  0  0
  6 29  1  0  0  0  0
 12 30  1  0  0  0  0
 12 31  1  0  0  0  0
 13 32  1  0  0  0  0
 13 33  1  0  0  0  0
 14 34  1  0  0  0  0
 14 35  1  0  0  0  0
M  END
> <id>
EN300-6700172

> <smiles>
FC=1C=C(C(=O)N2CCCC2(C#N)C(F)(F)F)C=3N=CC=CC3C1

> <IUPAC Name>
1-(6-fluoroquinoline-8-carbonyl)-2-(trifluoromethyl)pyrrolidine-2-carbonitrile

> <CAS>
2094846-34-9

> <URL>
https://www.enaminestore.com/catalog/EN300-6700172

> <ROCS_ShapeQuery>
A71EV2A-x0451_0A_A71EV2A-x0310_0A_A71EV2A-x0416_0A_peptide

> <ROCS_TanimotoCombo>
0.509 

> <ROCS_ShapeTanimoto>
0.367 

> <ROCS_ColorTanimoto>
0.142 

> <ROCS_RefTversky>
0.324 

> <ROCS_RefColorTversky>
0.154 

> <ROCS_RefTverskyCombo>
0.478 

> <ROCS_FitTversky>
1.570 

> <ROCS_FitColorTversky>
0.641 

> <ROCS_FitTverskyCombo>
2.211 

> <ROCS_ColorScore>
-4.677

> <ROCS_Overlap>
2253.503

> <ROCS_Rank>
423                 

$$$$
untitled-dbase-32953_8
  -OEChem-11132313473D

 49 51  0     1  0  0  0  0  0999 V2000
    7.4485    8.5449   23.6009 C   0  0  0  0  0  0  0  0  0  0  0  0
    8.2346    7.7088   22.8123 C   0  0  0  0  0  0  0  0  0  0  0  0
    9.9583    9.3986   22.7571 C   0  0  0  0  0  0  0  0  0  0  0  0
    9.1670   10.2670   23.5274 C   0  0  0  0  0  0  0  0  0  0  0  0
    7.9179    9.8094   23.9728 C   0  0  0  0  0  0  0  0  0  0  0  0
    9.4928    8.1323   22.3972 C   0  0  0  0  0  0  0  0  0  0  0  0
   10.7937   13.6681   22.9745 C   0  0  0  0  0  0  0  0  0  0  0  0
    8.3702   11.2676   26.7112 C   0  0  0  0  0  0  0  0  0  0  0  0
    6.4189   12.5727   25.8325 C   0  0  0  0  0  0  0  0  0  0  0  0
    8.5085   12.4868   24.4510 C   0  0  0  0  0  0  0  0  0  0  0  0
    7.4251   10.6521   27.7473 C   0  0  0  0  0  0  0  0  0  0  0  0
    5.5504   11.9070   26.9031 C   0  0  0  0  0  0  0  0  0  0  0  0
    9.6691   11.6362   23.9256 C   0  0  2  0  0  0  0  0  0  0  0  0
    7.6237   11.6938   25.4267 C   0  0  0  0  0  0  0  0  0  0  0  0
   12.9929   15.4818   22.8203 C   0  0  0  0  0  0  0  0  0  0  0  0
   12.4232   15.6745   20.3816 C   0  0  0  0  0  0  0  0  0  0  0  0
   10.7566   16.3970   22.1162 C   0  0  0  0  0  0  0  0  0  0  0  0
   11.8743   15.4101   21.7819 C   0  0  0  0  0  0  0  0  0  0  0  0
    6.3291   11.5578   28.0914 N   0  0  0  0  0  0  0  0  0  0  0  0
   10.3098   12.3834   22.8394 N   0  0  0  0  0  0  0  0  0  0  0  0
   10.7547   14.3439   23.9974 O   0  0  0  0  0  0  0  0  0  0  0  0
    7.0739   10.5329   24.7737 O   0  0  0  0  0  0  0  0  0  0  0  0
   11.3301   14.0855   21.7890 O   0  0  0  0  0  0  0  0  0  0  0  0
   10.2616    7.3242   21.6543 F   0  0  0  0  0  0  0  0  0  0  0  0
    6.4664    8.2078   23.9223 H   0  0  0  0  0  0  0  0  0  0  0  0
    7.8676    6.7288   22.5239 H   0  0  0  0  0  0  0  0  0  0  0  0
   10.9508    9.7059   22.4331 H   0  0  0  0  0  0  0  0  0  0  0  0
    8.8740   12.1324   27.1566 H   0  0  0  0  0  0  0  0  0  0  0  0
    9.1380   10.5249   26.4702 H   0  0  0  0  0  0  0  0  0  0  0  0
    5.7736   12.7729   24.9710 H   0  0  0  0  0  0  0  0  0  0  0  0
    6.7766   13.5399   26.2067 H   0  0  0  0  0  0  0  0  0  0  0  0
    8.9471   13.3301   24.9908 H   0  0  0  0  0  0  0  0  0  0  0  0
    7.9274   12.9003   23.6282 H   0  0  0  0  0  0  0  0  0  0  0  0
    7.0262    9.6940   27.3852 H   0  0  0  0  0  0  0  0  0  0  0  0
    7.9948   10.4273   28.6587 H   0  0  0  0  0  0  0  0  0  0  0  0
    4.7552   12.6010   27.1978 H   0  0  0  0  0  0  0  0  0  0  0  0
    5.0567   11.0149   26.4985 H   0  0  0  0  0  0  0  0  0  0  0  0
   10.4160   11.5640   24.7141 H   0  0  0  0  0  0  0  0  0  0  0  0
   12.6030   15.2925   23.8269 H   0  0  0  0  0  0  0  0  0  0  0  0
   13.7843   14.7545   22.6116 H   0  0  0  0  0  0  0  0  0  0  0  0
   13.4400   16.4821   22.8451 H   0  0  0  0  0  0  0  0  0  0  0  0
   11.6239   15.6241   19.6333 H   0  0  0  0  0  0  0  0  0  0  0  0
   13.1582   14.9118   20.1000 H   0  0  0  0  0  0  0  0  0  0  0  0
   12.9003   16.6576   20.3136 H   0  0  0  0  0  0  0  0  0  0  0  0
    9.9541   16.3458   21.3715 H   0  0  0  0  0  0  0  0  0  0  0  0
   10.3256   16.1991   23.1029 H   0  0  0  0  0  0  0  0  0  0  0  0
   11.1289   17.4277   22.0991 H   0  0  0  0  0  0  0  0  0  0  0  0
    5.7213   11.1076   28.7719 H   0  0  0  0  0  0  0  0  0  0  0  0
   10.4028   11.9294   21.9356 H   0  0  0  0  0  0  0  0  0  0  0  0
  1  2  1  0  0  0  0
  1  5  2  0  0  0  0
  2  6  2  0  0  0  0
  3  4  2  0  0  0  0
  3  6  1  0  0  0  0
  4  5  1  0  0  0  0
  4 13  1  0  0  0  0
  5 22  1  0  0  0  0
  6 24  1  0  0  0  0
  7 20  1  0  0  0  0
  7 21  2  0  0  0  0
  7 23  1  0  0  0  0
  8 11  1  0  0  0  0
  8 14  1  0  0  0  0
  9 12  1  0  0  0  0
  9 14  1  0  0  0  0
 10 13  1  0  0  0  0
 10 14  1  0  0  0  0
 11 19  1  0  0  0  0
 12 19  1  0  0  0  0
 13 20  1  0  0  0  0
 14 22  1  0  0  0  0
 15 18  1  0  0  0  0
 16 18  1  0  0  0  0
 17 18  1  0  0  0  0
 18 23  1  0  0  0  0
  1 25  1  0  0  0  0
  2 26  1  0  0  0  0
  3 27  1  0  0  0  0
  8 28  1  0  0  0  0
  8 29  1  0  0  0  0
  9 30  1  0  0  0  0
  9 31  1  0  0  0  0
 10 32  1  0  0  0  0
 10 33  1  0  0  0  0
 11 34  1  0  0  0  0
 11 35  1  0  0  0  0
 12 36  1  0  0  0  0
 12 37  1  0  0  0  0
 13 38  1  0  0  0  0
 15 39  1  0  0  0  0
 15 40  1  0  0  0  0
 15 41  1  0  0  0  0
 16 42  1  0  0  0  0
 16 43  1  0  0  0  0
 16 44  1  0  0  0  0
 17 45  1  0  0  0  0
 17 46  1  0  0  0  0
 17 47  1  0  0  0  0
 19 48  1  0  0  0  0
 20 49  1  0  0  0  0
M  END
> <id>
EN300-737677

> <smiles>
CC(C)(C)OC(=O)NC1CC2(CCNCC2)OC=3C=CC(F)=CC13

> <IUPAC Name>
tert-butyl N-{6-fluoro-3,4-dihydrospiro[1-benzopyran-2,4'-piperidine]-4-yl}carbamate

> <CAS>
2137840-05-0

> <URL>
https://www.enaminestore.com/catalog/EN300-737677

> <ROCS_ShapeQuery>
A71EV2A-x0451_0A_A71EV2A-x0310_0A_A71EV2A-x0416_0A_peptide

> <ROCS_TanimotoCombo>
0.509 

> <ROCS_ShapeTanimoto>
0.370 

> <ROCS_ColorTanimoto>
0.139 

> <ROCS_RefTversky>
0.324 

> <ROCS_RefColorTversky>
0.162 

> <ROCS_RefTverskyCombo>
0.486 

> <ROCS_FitTversky>
1.622 

> <ROCS_FitColorTversky>
0.490 

> <ROCS_FitTverskyCombo>
2.112 

> <ROCS_ColorScore>
-4.967

> <ROCS_Overlap>
2251.300

> <ROCS_Rank>
424                 

$$$$
untitled-dbase-148614_18
  -OEChem-11132313473D

 34 35  0     0  0  0  0  0  0999 V2000
    9.8309   10.7344   23.0229 C   0  0  0  0  0  0  0  0  0  0  0  0
    9.6519   11.9865   23.6220 C   0  0  0  0  0  0  0  0  0  0  0  0
    8.5527   11.8353   24.4361 C   0  0  0  0  0  0  0  0  0  0  0  0
    6.3566   10.8533   25.8139 C   0  0  0  0  0  0  0  0  0  0  0  0
    7.0140   10.0207   24.9901 C   0  0  0  0  0  0  0  0  0  0  0  0
    6.8817   12.2478   25.9075 C   0  0  0  0  0  0  0  0  0  0  0  0
   10.4179   13.1844   23.4537 C   0  0  0  0  0  0  0  0  0  0  0  0
    6.1532   13.1932   26.8297 C   0  0  0  0  0  0  0  0  0  0  0  0
   12.1209   15.3565   22.5898 C   0  0  0  0  0  0  0  0  0  0  0  0
   11.8215   14.4175   20.2794 C   0  0  0  0  0  0  0  0  0  0  0  0
    9.8326   15.2847   21.5444 C   0  0  0  0  0  0  0  0  0  0  0  0
   11.1867   14.5859   21.6580 C   0  0  0  0  0  0  0  0  0  0  0  0
    8.9253    9.8395   23.4128 N   0  0  0  0  0  0  0  0  0  0  0  0
    7.9121   12.7075   25.2613 N   0  0  0  0  0  0  0  0  0  0  0  0
    8.1274   10.5131   24.2895 N   0  0  0  0  0  0  0  0  0  0  0  0
    6.6666    8.7154   24.7882 N   0  0  0  0  0  0  0  0  0  0  0  0
   10.5799   14.0671   24.3253 O   0  0  0  0  0  0  0  0  0  0  0  0
   10.9800   13.2772   22.2005 O   0  0  0  0  0  0  0  0  0  0  0  0
   10.5864   10.4283   22.3133 H   0  0  0  0  0  0  0  0  0  0  0  0
    5.4901   10.5590   26.3918 H   0  0  0  0  0  0  0  0  0  0  0  0
    6.5938   13.1331   27.8192 H   0  0  0  0  0  0  0  0  0  0  0  0
    5.1060   12.9115   26.8719 H   0  0  0  0  0  0  0  0  0  0  0  0
    6.2423   14.2037   26.4443 H   0  0  0  0  0  0  0  0  0  0  0  0
   11.6688   15.4794   23.5805 H   0  0  0  0  0  0  0  0  0  0  0  0
   13.0832   14.8475   22.7074 H   0  0  0  0  0  0  0  0  0  0  0  0
   12.3082   16.3666   22.2079 H   0  0  0  0  0  0  0  0  0  0  0  0
   11.1546   13.8652   19.6076 H   0  0  0  0  0  0  0  0  0  0  0  0
   12.7468   13.8337   20.3444 H   0  0  0  0  0  0  0  0  0  0  0  0
   12.0530   15.3841   19.8204 H   0  0  0  0  0  0  0  0  0  0  0  0
    9.1622   14.7322   20.8761 H   0  0  0  0  0  0  0  0  0  0  0  0
    9.3454   15.3813   22.5200 H   0  0  0  0  0  0  0  0  0  0  0  0
    9.9456   16.2851   21.1110 H   0  0  0  0  0  0  0  0  0  0  0  0
    7.2119    8.1701   24.1578 H   0  0  0  0  0  0  0  0  0  0  0  0
    5.8794    8.3513   25.2777 H   0  0  0  0  0  0  0  0  0  0  0  0
  1  2  1  0  0  0  0
  1 13  2  0  0  0  0
  2  3  2  0  0  0  0
  2  7  1  0  0  0  0
  3 14  1  0  0  0  0
  3 15  1  0  0  0  0
  4  5  2  0  0  0  0
  4  6  1  0  0  0  0
  5 15  1  0  0  0  0
  5 16  1  0  0  0  0
  6  8  1  0  0  0  0
  6 14  2  0  0  0  0
  7 17  2  0  0  0  0
  7 18  1  0  0  0  0
  9 12  1  0  0  0  0
 10 12  1  0  0  0  0
 11 12  1  0  0  0  0
 12 18  1  0  0  0  0
 13 15  1  0  0  0  0
  1 19  1  0  0  0  0
  4 20  1  0  0  0  0
  8 21  1  0  0  0  0
  8 22  1  0  0  0  0
  8 23  1  0  0  0  0
  9 24  1  0  0  0  0
  9 25  1  0  0  0  0
  9 26  1  0  0  0  0
 10 27  1  0  0  0  0
 10 28  1  0  0  0  0
 10 29  1  0  0  0  0
 11 30  1  0  0  0  0
 11 31  1  0  0  0  0
 11 32  1  0  0  0  0
 16 33  1  0  0  0  0
 16 34  1  0  0  0  0
M  END
> <id>
EN300-27726396

> <smiles>
CC=1C=C(N)N2N=CC(C(=O)OC(C)(C)C)=C2N1

> <MDLNUMBER>
MFCD34577304

> <IUPAC Name>
tert-butyl 7-amino-5-methylpyrazolo[1,5-a]pyrimidine-3-carboxylate

> <CAS>
2639416-59-2

> <URL>
https://www.enaminestore.com/catalog/EN300-27726396

> <ROCS_ShapeQuery>
A71EV2A-x0451_0A_A71EV2A-x0310_0A_A71EV2A-x0416_0A_peptide

> <ROCS_TanimotoCombo>
0.509 

> <ROCS_ShapeTanimoto>
0.343 

> <ROCS_ColorTanimoto>
0.166 

> <ROCS_RefTversky>
0.297 

> <ROCS_RefColorTversky>
0.186 

> <ROCS_RefTverskyCombo>
0.483 

> <ROCS_FitTversky>
1.799 

> <ROCS_FitColorTversky>
0.615 

> <ROCS_FitTverskyCombo>
2.414 

> <ROCS_ColorScore>
-5.664

> <ROCS_Overlap>
2062.697

> <ROCS_Rank>
425                 

$$$$
untitled-dbase-34638_161
  -OEChem-11132313473D

 42 44  0     0  0  0  0  0  0999 V2000
    6.1438   12.3307   26.4918 C   0  0  0  0  0  0  0  0  0  0  0  0
    4.6969   10.4474   26.1125 C   0  0  0  0  0  0  0  0  0  0  0  0
    5.1383   12.8773   27.2729 C   0  0  0  0  0  0  0  0  0  0  0  0
    3.7562   11.0782   26.9107 C   0  0  0  0  0  0  0  0  0  0  0  0
    5.9109   11.0923   25.9041 C   0  0  0  0  0  0  0  0  0  0  0  0
    7.9046   11.0224   24.2890 C   0  0  0  0  0  0  0  0  0  0  0  0
    6.9238   10.4796   25.0824 C   0  0  0  0  0  0  0  0  0  0  0  0
    8.5734    9.9025   23.7440 C   0  0  0  0  0  0  0  0  0  0  0  0
   10.4759   13.5134   23.4363 C   0  0  0  0  0  0  0  0  0  0  0  0
    8.2576   12.4309   23.9922 C   0  0  0  0  0  0  0  0  0  0  0  0
    9.7301   10.0224   22.8242 C   0  0  0  0  0  0  0  0  0  0  0  0
    9.7878   11.4431   22.2380 C   0  0  0  0  0  0  0  0  0  0  0  0
   12.5537   15.4772   23.3069 C   0  0  0  0  0  0  0  0  0  0  0  0
   12.4865   15.1161   20.8221 C   0  0  0  0  0  0  0  0  0  0  0  0
   10.4604   16.0029   22.0123 C   0  0  0  0  0  0  0  0  0  0  0  0
   11.6781   15.0859   22.1174 C   0  0  0  0  0  0  0  0  0  0  0  0
    3.9463   12.2809   27.4983 N   0  0  0  0  0  0  0  0  0  0  0  0
    8.0669    8.7399   24.1588 N   0  0  0  0  0  0  0  0  0  0  0  0
    7.0632    9.1245   24.9705 N   0  0  0  0  0  0  0  0  0  0  0  0
    9.5492   12.4773   23.2666 N   0  0  0  0  0  0  0  0  0  0  0  0
   10.6192   14.1529   24.4767 O   0  0  0  0  0  0  0  0  0  0  0  0
   11.2217   13.7421   22.3100 O   0  0  0  0  0  0  0  0  0  0  0  0
    7.0784   12.8645   26.3523 H   0  0  0  0  0  0  0  0  0  0  0  0
    4.4785    9.4804   25.6709 H   0  0  0  0  0  0  0  0  0  0  0  0
    5.2702   13.8412   27.7533 H   0  0  0  0  0  0  0  0  0  0  0  0
    2.7933   10.6171   27.1045 H   0  0  0  0  0  0  0  0  0  0  0  0
    7.4686   12.9083   23.4043 H   0  0  0  0  0  0  0  0  0  0  0  0
    8.3899   12.9965   24.9210 H   0  0  0  0  0  0  0  0  0  0  0  0
   10.6673    9.8019   23.3471 H   0  0  0  0  0  0  0  0  0  0  0  0
    9.6212    9.2946   22.0115 H   0  0  0  0  0  0  0  0  0  0  0  0
   10.7838   11.6411   21.8222 H   0  0  0  0  0  0  0  0  0  0  0  0
    9.0694   11.5344   21.4171 H   0  0  0  0  0  0  0  0  0  0  0  0
   11.9771   15.4568   24.2386 H   0  0  0  0  0  0  0  0  0  0  0  0
   13.4119   14.8057   23.4143 H   0  0  0  0  0  0  0  0  0  0  0  0
   12.9275   16.5017   23.1971 H   0  0  0  0  0  0  0  0  0  0  0  0
   11.8622   14.8360   19.9660 H   0  0  0  0  0  0  0  0  0  0  0  0
   13.3066   14.3898   20.8568 H   0  0  0  0  0  0  0  0  0  0  0  0
   12.9096   16.1080   20.6329 H   0  0  0  0  0  0  0  0  0  0  0  0
    9.8322   15.7225   21.1591 H   0  0  0  0  0  0  0  0  0  0  0  0
    9.8482   15.9659   22.9192 H   0  0  0  0  0  0  0  0  0  0  0  0
   10.7679   17.0410   21.8418 H   0  0  0  0  0  0  0  0  0  0  0  0
    6.5103    8.4033   25.4171 H   0  0  0  0  0  0  0  0  0  0  0  0
  1  3  1  0  0  0  0
  1  5  2  0  0  0  0
  2  4  2  0  0  0  0
  2  5  1  0  0  0  0
  3 17  2  0  0  0  0
  4 17  1  0  0  0  0
  5  7  1  0  0  0  0
  6  7  2  0  0  0  0
  6  8  1  0  0  0  0
  6 10  1  0  0  0  0
  7 19  1  0  0  0  0
  8 11  1  0  0  0  0
  8 18  2  0  0  0  0
  9 20  1  0  0  0  0
  9 21  2  0  0  0  0
  9 22  1  0  0  0  0
 10 20  1  0  0  0  0
 11 12  1  0  0  0  0
 12 20  1  0  0  0  0
 13 16  1  0  0  0  0
 14 16  1  0  0  0  0
 15 16  1  0  0  0  0
 16 22  1  0  0  0  0
 18 19  1  0  0  0  0
  1 23  1  0  0  0  0
  2 24  1  0  0  0  0
  3 25  1  0  0  0  0
  4 26  1  0  0  0  0
 10 27  1  0  0  0  0
 10 28  1  0  0  0  0
 11 29  1  0  0  0  0
 11 30  1  0  0  0  0
 12 31  1  0  0  0  0
 12 32  1  0  0  0  0
 13 33  1  0  0  0  0
 13 34  1  0  0  0  0
 13 35  1  0  0  0  0
 14 36  1  0  0  0  0
 14 37  1  0  0  0  0
 14 38  1  0  0  0  0
 15 39  1  0  0  0  0
 15 40  1  0  0  0  0
 15 41  1  0  0  0  0
 19 42  1  0  0  0  0
M  END
> <id>
EN300-784368

> <smiles>
CC(C)(C)OC(=O)N1CCC2=NNC(=C2C1)C=3C=CN=CC3

> <IUPAC Name>
tert-butyl 3-(pyridin-4-yl)-2H,4H,5H,6H,7H-pyrazolo[4,3-c]pyridine-5-carboxylate

> <CAS>
1366053-12-4

> <URL>
https://www.enaminestore.com/catalog/EN300-784368

> <ROCS_ShapeQuery>
A71EV2A-x0451_0A_A71EV2A-x0310_0A_A71EV2A-x0416_0A_peptide

> <ROCS_TanimotoCombo>
0.509 

> <ROCS_ShapeTanimoto>
0.351 

> <ROCS_ColorTanimoto>
0.158 

> <ROCS_RefTversky>
0.309 

> <ROCS_RefColorTversky>
0.178 

> <ROCS_RefTverskyCombo>
0.487 

> <ROCS_FitTversky>
1.624 

> <ROCS_FitColorTversky>
0.589 

> <ROCS_FitTverskyCombo>
2.213 

> <ROCS_ColorScore>
-5.422

> <ROCS_Overlap>
2147.263

> <ROCS_Rank>
426                 

$$$$
untitled-dbase-89315_52
  -OEChem-11132313473D

 41 42  0     0  0  0  0  0  0999 V2000
   10.5023   13.2655   23.4614 C   0  0  0  0  0  0  0  0  0  0  0  0
    8.5918   11.2588   25.6636 C   0  0  0  0  0  0  0  0  0  0  0  0
    7.2523   11.8815   23.6451 C   0  0  0  0  0  0  0  0  0  0  0  0
    8.7830    9.8405   25.1007 C   0  0  0  0  0  0  0  0  0  0  0  0
    7.4428   10.4641   23.0797 C   0  0  0  0  0  0  0  0  0  0  0  0
    9.9145   10.8436   23.1090 C   0  0  0  0  0  0  0  0  0  0  0  0
    8.4592   12.2690   24.5136 C   0  0  0  0  0  0  0  0  0  0  0  0
    8.7947    9.8762   23.5531 C   0  0  0  0  0  0  0  0  0  0  0  0
   12.3674   15.2344   22.5537 C   0  0  0  0  0  0  0  0  0  0  0  0
   12.1180   14.1632   20.2955 C   0  0  0  0  0  0  0  0  0  0  0  0
   10.1291   15.2244   21.4028 C   0  0  0  0  0  0  0  0  0  0  0  0
    9.0170    8.4802   22.9750 C   0  0  0  0  0  0  0  0  0  0  0  0
   11.4320   14.4585   21.6276 C   0  0  0  0  0  0  0  0  0  0  0  0
    9.6688   12.1728   23.6810 N   0  0  0  0  0  0  0  0  0  0  0  0
    7.9756    7.6090   23.4048 N   0  0  0  0  0  0  0  0  0  0  0  0
   10.6698   14.1842   24.2602 O   0  0  0  0  0  0  0  0  0  0  0  0
   11.1223   13.2021   22.2411 O   0  0  0  0  0  0  0  0  0  0  0  0
    7.6985   11.2877   26.2990 H   0  0  0  0  0  0  0  0  0  0  0  0
    9.4411   11.5236   26.3051 H   0  0  0  0  0  0  0  0  0  0  0  0
    7.1303   12.5979   22.8237 H   0  0  0  0  0  0  0  0  0  0  0  0
    6.3300   11.9233   24.2368 H   0  0  0  0  0  0  0  0  0  0  0  0
    9.7220    9.4201   25.4826 H   0  0  0  0  0  0  0  0  0  0  0  0
    7.9791    9.1887   25.4650 H   0  0  0  0  0  0  0  0  0  0  0  0
    6.6110    9.8249   23.4013 H   0  0  0  0  0  0  0  0  0  0  0  0
    7.4022   10.5000   21.9837 H   0  0  0  0  0  0  0  0  0  0  0  0
   10.9002   10.5033   23.4484 H   0  0  0  0  0  0  0  0  0  0  0  0
    9.9524   10.9435   22.0176 H   0  0  0  0  0  0  0  0  0  0  0  0
    8.3389   13.2838   24.9064 H   0  0  0  0  0  0  0  0  0  0  0  0
   11.8787   15.4483   23.5110 H   0  0  0  0  0  0  0  0  0  0  0  0
   13.2908   14.6802   22.7509 H   0  0  0  0  0  0  0  0  0  0  0  0
   12.6323   16.2047   22.1183 H   0  0  0  0  0  0  0  0  0  0  0  0
   11.4505   13.6066   19.6278 H   0  0  0  0  0  0  0  0  0  0  0  0
   13.0025   13.5331   20.4432 H   0  0  0  0  0  0  0  0  0  0  0  0
   12.4280   15.0825   19.7882 H   0  0  0  0  0  0  0  0  0  0  0  0
    9.4580   14.6680   20.7385 H   0  0  0  0  0  0  0  0  0  0  0  0
    9.6044   15.4130   22.3451 H   0  0  0  0  0  0  0  0  0  0  0  0
   10.3218   16.1858   20.9131 H   0  0  0  0  0  0  0  0  0  0  0  0
    9.0143    8.5758   21.8906 H   0  0  0  0  0  0  0  0  0  0  0  0
    9.9828    8.1313   23.3366 H   0  0  0  0  0  0  0  0  0  0  0  0
    7.0824    7.9683   23.1183 H   0  0  0  0  0  0  0  0  0  0  0  0
    8.1001    6.6964   23.0041 H   0  0  0  0  0  0  0  0  0  0  0  0
  1 14  1  0  0  0  0
  1 16  2  0  0  0  0
  1 17  1  0  0  0  0
  2  4  1  0  0  0  0
  2  7  1  0  0  0  0
  3  5  1  0  0  0  0
  3  7  1  0  0  0  0
  4  8  1  0  0  0  0
  5  8  1  0  0  0  0
  6  8  1  0  0  0  0
  6 14  1  0  0  0  0
  7 14  1  0  0  0  0
  8 12  1  0  0  0  0
  9 13  1  0  0  0  0
 10 13  1  0  0  0  0
 11 13  1  0  0  0  0
 12 15  1  0  0  0  0
 13 17  1  0  0  0  0
  2 18  1  0  0  0  0
  2 19  1  0  0  0  0
  3 20  1  0  0  0  0
  3 21  1  0  0  0  0
  4 22  1  0  0  0  0
  4 23  1  0  0  0  0
  5 24  1  0  0  0  0
  5 25  1  0  0  0  0
  6 26  1  0  0  0  0
  6 27  1  0  0  0  0
  7 28  1  0  0  0  0
  9 29  1  0  0  0  0
  9 30  1  0  0  0  0
  9 31  1  0  0  0  0
 10 32  1  0  0  0  0
 10 33  1  0  0  0  0
 10 34  1  0  0  0  0
 11 35  1  0  0  0  0
 11 36  1  0  0  0  0
 11 37  1  0  0  0  0
 12 38  1  0  0  0  0
 12 39  1  0  0  0  0
 15 40  1  0  0  0  0
 15 41  1  0  0  0  0
M  END
> <id>
EN300-6737751

> <smiles>
CC(C)(C)OC(=O)N1CC2(CN)CCC1CC2

> <MDLNUMBER>
MFCD31745899

> <IUPAC Name>
tert-butyl 4-(aminomethyl)-2-azabicyclo[2.2.2]octane-2-carboxylate

> <CAS>
2168794-27-0

> <Purity>
95

> <URL>
https://www.enaminestore.com/catalog/EN300-6737751

> <ROCS_ShapeQuery>
A71EV2A-x0451_0A_A71EV2A-x0310_0A_A71EV2A-x0416_0A_peptide

> <ROCS_TanimotoCombo>
0.509 

> <ROCS_ShapeTanimoto>
0.299 

> <ROCS_ColorTanimoto>
0.210 

> <ROCS_RefTversky>
0.266 

> <ROCS_RefColorTversky>
0.237 

> <ROCS_RefTverskyCombo>
0.502 

> <ROCS_FitTversky>
1.718 

> <ROCS_FitColorTversky>
0.652 

> <ROCS_FitTverskyCombo>
2.370 

> <ROCS_ColorScore>
-7.244

> <ROCS_Overlap>
1841.598

> <ROCS_Rank>
427                 

$$$$
untitled-dbase-177322_26
  -OEChem-11132313473D

 40 41  0     1  0  0  0  0  0999 V2000
   10.8698   13.4618   23.1039 C   0  0  0  0  0  0  0  0  0  0  0  0
    6.9144   12.3210   24.8830 C   0  0  0  0  0  0  0  0  0  0  0  0
    8.0187   12.8063   23.9371 C   0  0  0  0  0  0  0  0  0  0  0  0
    9.7346   11.2794   25.0615 C   0  0  0  0  0  0  0  0  0  0  0  0
    6.5481   10.8536   24.6577 C   0  0  0  0  0  0  0  0  0  0  0  0
    8.8389   10.1093   25.5050 C   0  0  0  0  0  0  0  0  0  0  0  0
    8.5243   10.4756   23.1656 C   0  0  0  0  0  0  0  0  0  0  0  0
    9.1389   11.7615   23.7218 C   0  0  1  0  0  0  0  0  0  0  0  0
    7.7791    9.9691   24.4000 C   0  0  2  0  0  0  0  0  0  0  0  0
   11.7403   16.0978   22.4380 C   0  0  0  0  0  0  0  0  0  0  0  0
   12.6133   15.0737   20.3170 C   0  0  0  0  0  0  0  0  0  0  0  0
   10.1516   15.0170   20.8124 C   0  0  0  0  0  0  0  0  0  0  0  0
   11.5555   14.9785   21.4144 C   0  0  0  0  0  0  0  0  0  0  0  0
   10.1478   12.3171   22.8299 N   0  0  0  0  0  0  0  0  0  0  0  0
   10.7615   14.1503   24.1133 O   0  0  0  0  0  0  0  0  0  0  0  0
    7.3823    8.6220   24.2282 O   0  0  0  0  0  0  0  0  0  0  0  0
   11.7332   13.7214   22.0769 O   0  0  0  0  0  0  0  0  0  0  0  0
    7.2518   12.4500   25.9191 H   0  0  0  0  0  0  0  0  0  0  0  0
    6.0240   12.9511   24.7753 H   0  0  0  0  0  0  0  0  0  0  0  0
    7.5632   13.0502   22.9680 H   0  0  0  0  0  0  0  0  0  0  0  0
    8.4365   13.7400   24.3344 H   0  0  0  0  0  0  0  0  0  0  0  0
    9.7735   12.0734   25.8149 H   0  0  0  0  0  0  0  0  0  0  0  0
   10.7577   10.9055   24.9281 H   0  0  0  0  0  0  0  0  0  0  0  0
    5.9820   10.4765   25.5185 H   0  0  0  0  0  0  0  0  0  0  0  0
    5.8642   10.7748   23.8020 H   0  0  0  0  0  0  0  0  0  0  0  0
    9.4384    9.1957   25.5998 H   0  0  0  0  0  0  0  0  0  0  0  0
    8.3914   10.2906   26.4883 H   0  0  0  0  0  0  0  0  0  0  0  0
    7.8595   10.6412   22.3103 H   0  0  0  0  0  0  0  0  0  0  0  0
    9.2876    9.7527   22.8481 H   0  0  0  0  0  0  0  0  0  0  0  0
   10.9830   16.0330   23.2274 H   0  0  0  0  0  0  0  0  0  0  0  0
   12.7310   16.0601   22.9026 H   0  0  0  0  0  0  0  0  0  0  0  0
   11.6151   17.0807   21.9694 H   0  0  0  0  0  0  0  0  0  0  0  0
   12.4844   14.2724   19.5804 H   0  0  0  0  0  0  0  0  0  0  0  0
   13.6197   14.9514   20.7333 H   0  0  0  0  0  0  0  0  0  0  0  0
   12.5685   16.0350   19.7950 H   0  0  0  0  0  0  0  0  0  0  0  0
   10.0188   14.2142   20.0782 H   0  0  0  0  0  0  0  0  0  0  0  0
    9.3798   14.9128   21.5819 H   0  0  0  0  0  0  0  0  0  0  0  0
    9.9835   15.9577   20.2757 H   0  0  0  0  0  0  0  0  0  0  0  0
   10.3311   11.8336   21.9543 H   0  0  0  0  0  0  0  0  0  0  0  0
    6.9350    8.3488   25.0476 H   0  0  0  0  0  0  0  0  0  0  0  0
  1 14  1  0  0  0  0
  1 15  2  0  0  0  0
  1 17  1  0  0  0  0
  2  3  1  0  0  0  0
  2  5  1  0  0  0  0
  3  8  1  0  0  0  0
  4  6  1  0  0  0  0
  4  8  1  0  0  0  0
  5  9  1  0  0  0  0
  6  9  1  0  0  0  0
  7  8  1  0  0  0  0
  7  9  1  0  0  0  0
  8 14  1  0  0  0  0
  9 16  1  0  0  0  0
 10 13  1  0  0  0  0
 11 13  1  0  0  0  0
 12 13  1  0  0  0  0
 13 17  1  0  0  0  0
  2 18  1  0  0  0  0
  2 19  1  0  0  0  0
  3 20  1  0  0  0  0
  3 21  1  0  0  0  0
  4 22  1  0  0  0  0
  4 23  1  0  0  0  0
  5 24  1  0  0  0  0
  5 25  1  0  0  0  0
  6 26  1  0  0  0  0
  6 27  1  0  0  0  0
  7 28  1  0  0  0  0
  7 29  1  0  0  0  0
 10 30  1  0  0  0  0
 10 31  1  0  0  0  0
 10 32  1  0  0  0  0
 11 33  1  0  0  0  0
 11 34  1  0  0  0  0
 11 35  1  0  0  0  0
 12 36  1  0  0  0  0
 12 37  1  0  0  0  0
 12 38  1  0  0  0  0
 14 39  1  0  0  0  0
 16 40  1  0  0  0  0
M  END
> <id>
EN300-45377375

> <smiles>
CC(C)(C)OC(=O)NC1(CCC2(O)C1)CCC2

> <IUPAC Name>
tert-butyl N-{5-hydroxybicyclo[3.2.1]octan-1-yl}carbamate

> <URL>
https://www.enaminestore.com/catalog/EN300-45377375

> <ROCS_ShapeQuery>
A71EV2A-x0451_0A_A71EV2A-x0310_0A_A71EV2A-x0416_0A_peptide

> <ROCS_TanimotoCombo>
0.509 

> <ROCS_ShapeTanimoto>
0.299 

> <ROCS_ColorTanimoto>
0.209 

> <ROCS_RefTversky>
0.266 

> <ROCS_RefColorTversky>
0.240 

> <ROCS_RefTverskyCombo>
0.506 

> <ROCS_FitTversky>
1.720 

> <ROCS_FitColorTversky>
0.621 

> <ROCS_FitTverskyCombo>
2.341 

> <ROCS_ColorScore>
-7.355

> <ROCS_Overlap>
1845.021

> <ROCS_Rank>
428                 

$$$$
untitled-dbase-31243_8
  -OEChem-11132313473D

 49 51  0     1  0  0  0  0  0999 V2000
    7.4502    8.5429   23.6083 C   0  0  0  0  0  0  0  0  0  0  0  0
    8.2399    7.7056   22.8246 C   0  0  0  0  0  0  0  0  0  0  0  0
    9.9614    9.3977   22.7699 C   0  0  0  0  0  0  0  0  0  0  0  0
    9.1664   10.2672   23.5352 C   0  0  0  0  0  0  0  0  0  0  0  0
    7.9165    9.8092   23.9780 C   0  0  0  0  0  0  0  0  0  0  0  0
    9.4988    8.1298   22.4122 C   0  0  0  0  0  0  0  0  0  0  0  0
   10.7900   13.6690   22.9776 C   0  0  0  0  0  0  0  0  0  0  0  0
    8.3580   11.2760   26.7135 C   0  0  0  0  0  0  0  0  0  0  0  0
    6.4076   12.5757   25.8248 C   0  0  0  0  0  0  0  0  0  0  0  0
    8.5017   12.4887   24.4502 C   0  0  0  0  0  0  0  0  0  0  0  0
    7.4106   10.6621   27.7484 C   0  0  0  0  0  0  0  0  0  0  0  0
    5.5367   11.9118   26.8946 C   0  0  0  0  0  0  0  0  0  0  0  0
    9.6652   11.6383   23.9309 C   0  0  2  0  0  0  0  0  0  0  0  0
    7.6150   11.6973   25.4254 C   0  0  0  0  0  0  0  0  0  0  0  0
   12.9872   15.4852   22.8251 C   0  0  0  0  0  0  0  0  0  0  0  0
   12.4248   15.6702   20.3840 C   0  0  0  0  0  0  0  0  0  0  0  0
   10.7519   16.3954   22.1113 C   0  0  0  0  0  0  0  0  0  0  0  0
   11.8719   15.4091   21.7834 C   0  0  0  0  0  0  0  0  0  0  0  0
    6.3121   11.5672   28.0864 N   0  0  0  0  0  0  0  0  0  0  0  0
   10.3083   12.3833   22.8446 N   0  0  0  0  0  0  0  0  0  0  0  0
   10.7469   14.3477   23.9985 O   0  0  0  0  0  0  0  0  0  0  0  0
    7.0690   10.5338   24.7741 O   0  0  0  0  0  0  0  0  0  0  0  0
   11.3295   14.0838   21.7926 O   0  0  0  0  0  0  0  0  0  0  0  0
   10.4901    7.0895   21.4640 Cl  0  0  0  0  0  0  0  0  0  0  0  0
    6.4675    8.2054   23.9275 H   0  0  0  0  0  0  0  0  0  0  0  0
    7.8611    6.7262   22.5456 H   0  0  0  0  0  0  0  0  0  0  0  0
   10.9537    9.7192   22.4557 H   0  0  0  0  0  0  0  0  0  0  0  0
    8.8595   12.1429   27.1582 H   0  0  0  0  0  0  0  0  0  0  0  0
    9.1275   10.5336   26.4769 H   0  0  0  0  0  0  0  0  0  0  0  0
    5.7650   12.7723   24.9605 H   0  0  0  0  0  0  0  0  0  0  0  0
    6.7627   13.5448   26.1973 H   0  0  0  0  0  0  0  0  0  0  0  0
    8.9381   13.3337   24.9895 H   0  0  0  0  0  0  0  0  0  0  0  0
    7.9228   12.8991   23.6242 H   0  0  0  0  0  0  0  0  0  0  0  0
    7.0140    9.7024   27.3879 H   0  0  0  0  0  0  0  0  0  0  0  0
    7.9776   10.4409   28.6620 H   0  0  0  0  0  0  0  0  0  0  0  0
    4.7392   12.6053   27.1841 H   0  0  0  0  0  0  0  0  0  0  0  0
    5.0465   11.0173   26.4911 H   0  0  0  0  0  0  0  0  0  0  0  0
   10.4098   11.5693   24.7221 H   0  0  0  0  0  0  0  0  0  0  0  0
   12.5944   15.2984   23.8309 H   0  0  0  0  0  0  0  0  0  0  0  0
   13.7802   14.7584   22.6209 H   0  0  0  0  0  0  0  0  0  0  0  0
   13.4329   16.4863   22.8483 H   0  0  0  0  0  0  0  0  0  0  0  0
   11.6280   15.6166   19.6334 H   0  0  0  0  0  0  0  0  0  0  0  0
   13.1617   14.9077   20.1069 H   0  0  0  0  0  0  0  0  0  0  0  0
   12.9008   16.6537   20.3147 H   0  0  0  0  0  0  0  0  0  0  0  0
    9.9517   16.3410   21.3643 H   0  0  0  0  0  0  0  0  0  0  0  0
   10.3180   16.1997   23.0973 H   0  0  0  0  0  0  0  0  0  0  0  0
   11.1228   17.4266   22.0925 H   0  0  0  0  0  0  0  0  0  0  0  0
    5.7028   11.1181   28.7663 H   0  0  0  0  0  0  0  0  0  0  0  0
   10.4047   11.9268   21.9425 H   0  0  0  0  0  0  0  0  0  0  0  0
  1  2  1  0  0  0  0
  1  5  2  0  0  0  0
  2  6  2  0  0  0  0
  3  4  2  0  0  0  0
  3  6  1  0  0  0  0
  4  5  1  0  0  0  0
  4 13  1  0  0  0  0
  5 22  1  0  0  0  0
  6 24  1  0  0  0  0
  7 20  1  0  0  0  0
  7 21  2  0  0  0  0
  7 23  1  0  0  0  0
  8 11  1  0  0  0  0
  8 14  1  0  0  0  0
  9 12  1  0  0  0  0
  9 14  1  0  0  0  0
 10 13  1  0  0  0  0
 10 14  1  0  0  0  0
 11 19  1  0  0  0  0
 12 19  1  0  0  0  0
 13 20  1  0  0  0  0
 14 22  1  0  0  0  0
 15 18  1  0  0  0  0
 16 18  1  0  0  0  0
 17 18  1  0  0  0  0
 18 23  1  0  0  0  0
  1 25  1  0  0  0  0
  2 26  1  0  0  0  0
  3 27  1  0  0  0  0
  8 28  1  0  0  0  0
  8 29  1  0  0  0  0
  9 30  1  0  0  0  0
  9 31  1  0  0  0  0
 10 32  1  0  0  0  0
 10 33  1  0  0  0  0
 11 34  1  0  0  0  0
 11 35  1  0  0  0  0
 12 36  1  0  0  0  0
 12 37  1  0  0  0  0
 13 38  1  0  0  0  0
 15 39  1  0  0  0  0
 15 40  1  0  0  0  0
 15 41  1  0  0  0  0
 16 42  1  0  0  0  0
 16 43  1  0  0  0  0
 16 44  1  0  0  0  0
 17 45  1  0  0  0  0
 17 46  1  0  0  0  0
 17 47  1  0  0  0  0
 19 48  1  0  0  0  0
 20 49  1  0  0  0  0
M  END
> <id>
EN300-737678

> <smiles>
CC(C)(C)OC(=O)NC1CC2(CCNCC2)OC=3C=CC(Cl)=CC13

> <IUPAC Name>
tert-butyl N-{6-chloro-3,4-dihydrospiro[1-benzopyran-2,4'-piperidine]-4-yl}carbamate

> <CAS>
2137798-64-0

> <URL>
https://www.enaminestore.com/catalog/EN300-737678

> <ROCS_ShapeQuery>
A71EV2A-x0451_0A_A71EV2A-x0310_0A_A71EV2A-x0416_0A_peptide

> <ROCS_TanimotoCombo>
0.509 

> <ROCS_ShapeTanimoto>
0.370 

> <ROCS_ColorTanimoto>
0.139 

> <ROCS_RefTversky>
0.323 

> <ROCS_RefColorTversky>
0.162 

> <ROCS_RefTverskyCombo>
0.486 

> <ROCS_FitTversky>
1.633 

> <ROCS_FitColorTversky>
0.490 

> <ROCS_FitTverskyCombo>
2.122 

> <ROCS_ColorScore>
-4.966

> <ROCS_Overlap>
2247.783

> <ROCS_Rank>
429                 

$$$$
untitled-dbase-152580_17
  -OEChem-11132313473D

 31 32  0     0  0  0  0  0  0999 V2000
    6.9715   11.3398   25.6673 C   0  0  0  0  0  0  0  0  0  0  0  0
    7.2384   12.6915   25.6910 C   0  0  0  0  0  0  0  0  0  0  0  0
    7.8361   10.7595   24.7076 C   0  0  0  0  0  0  0  0  0  0  0  0
    8.6126   11.7809   24.1685 C   0  0  0  0  0  0  0  0  0  0  0  0
    9.5564   11.5001   23.1961 C   0  0  0  0  0  0  0  0  0  0  0  0
    8.9012    9.2929   23.3704 C   0  0  0  0  0  0  0  0  0  0  0  0
   10.7784   13.6946   23.2351 C   0  0  0  0  0  0  0  0  0  0  0  0
   10.9885   16.5466   23.2741 C   0  0  0  0  0  0  0  0  0  0  0  0
   12.0326   16.3162   21.0012 C   0  0  0  0  0  0  0  0  0  0  0  0
    9.6646   15.5657   21.3715 C   0  0  0  0  0  0  0  0  0  0  0  0
   11.0506   15.7066   21.9992 C   0  0  0  0  0  0  0  0  0  0  0  0
    7.9587    9.4663   24.3192 N   0  0  0  0  0  0  0  0  0  0  0  0
    9.6982   10.2189   22.7922 N   0  0  0  0  0  0  0  0  0  0  0  0
    8.2326   12.9479   24.7805 N   0  0  0  0  0  0  0  0  0  0  0  0
   10.3540   12.5242   22.6367 N   0  0  0  0  0  0  0  0  0  0  0  0
   10.5475   14.0807   24.3745 O   0  0  0  0  0  0  0  0  0  0  0  0
   11.5317   14.4047   22.3357 O   0  0  0  0  0  0  0  0  0  0  0  0
    9.1187    7.6841   22.8249 Cl  0  0  0  0  0  0  0  0  0  0  0  0
    6.2355   10.8330   26.2758 H   0  0  0  0  0  0  0  0  0  0  0  0
    6.8101   13.4943   26.2744 H   0  0  0  0  0  0  0  0  0  0  0  0
   10.2847   16.1123   23.9930 H   0  0  0  0  0  0  0  0  0  0  0  0
   11.9700   16.6261   23.7529 H   0  0  0  0  0  0  0  0  0  0  0  0
   10.6256   17.5581   23.0586 H   0  0  0  0  0  0  0  0  0  0  0  0
   12.0803   15.7167   20.0849 H   0  0  0  0  0  0  0  0  0  0  0  0
   13.0482   16.3320   21.4129 H   0  0  0  0  0  0  0  0  0  0  0  0
   11.7518   17.3395   20.7317 H   0  0  0  0  0  0  0  0  0  0  0  0
    9.7088   14.9632   20.4570 H   0  0  0  0  0  0  0  0  0  0  0  0
    8.9555   15.0960   22.0609 H   0  0  0  0  0  0  0  0  0  0  0  0
    9.2685   16.5446   21.0780 H   0  0  0  0  0  0  0  0  0  0  0  0
    8.6249   13.8601   24.5915 H   0  0  0  0  0  0  0  0  0  0  0  0
   10.6523   12.3817   21.6747 H   0  0  0  0  0  0  0  0  0  0  0  0
  1  2  2  0  0  0  0
  1  3  1  0  0  0  0
  2 14  1  0  0  0  0
  3  4  2  0  0  0  0
  3 12  1  0  0  0  0
  4  5  1  0  0  0  0
  4 14  1  0  0  0  0
  5 13  2  0  0  0  0
  5 15  1  0  0  0  0
  6 12  2  0  0  0  0
  6 13  1  0  0  0  0
  6 18  1  0  0  0  0
  7 15  1  0  0  0  0
  7 16  2  0  0  0  0
  7 17  1  0  0  0  0
  8 11  1  0  0  0  0
  9 11  1  0  0  0  0
 10 11  1  0  0  0  0
 11 17  1  0  0  0  0
  1 19  1  0  0  0  0
  2 20  1  0  0  0  0
  8 21  1  0  0  0  0
  8 22  1  0  0  0  0
  8 23  1  0  0  0  0
  9 24  1  0  0  0  0
  9 25  1  0  0  0  0
  9 26  1  0  0  0  0
 10 27  1  0  0  0  0
 10 28  1  0  0  0  0
 10 29  1  0  0  0  0
 14 30  1  0  0  0  0
 15 31  1  0  0  0  0
M  END
> <id>
EN300-28282929

> <smiles>
CC(C)(C)OC(=O)NC=1N=C(Cl)N=C2C=CNC12

> <IUPAC Name>
tert-butyl N-{2-chloro-5H-pyrrolo[3,2-d]pyrimidin-4-yl}carbamate

> <CAS>
2680852-34-8

> <URL>
https://www.enaminestore.com/catalog/EN300-28282929

> <ROCS_ShapeQuery>
A71EV2A-x0451_0A_A71EV2A-x0310_0A_A71EV2A-x0416_0A_peptide

> <ROCS_TanimotoCombo>
0.509 

> <ROCS_ShapeTanimoto>
0.339 

> <ROCS_ColorTanimoto>
0.170 

> <ROCS_RefTversky>
0.295 

> <ROCS_RefColorTversky>
0.189 

> <ROCS_RefTverskyCombo>
0.484 

> <ROCS_FitTversky>
1.792 

> <ROCS_FitColorTversky>
0.626 

> <ROCS_FitTverskyCombo>
2.418 

> <ROCS_ColorScore>
-5.770

> <ROCS_Overlap>
2044.492

> <ROCS_Rank>
430                 

$$$$
untitled-dbase-146579_16
  -OEChem-11132313473D

 34 35  0     0  0  0  0  0  0999 V2000
   10.0326   10.7155   23.3807 C   0  0  0  0  0  0  0  0  0  0  0  0
    9.1553    9.6412   23.6200 C   0  0  0  0  0  0  0  0  0  0  0  0
    7.6139   11.1458   24.6060 C   0  0  0  0  0  0  0  0  0  0  0  0
    9.6934   12.0188   23.7597 C   0  0  0  0  0  0  0  0  0  0  0  0
    8.4730   12.2213   24.3755 C   0  0  0  0  0  0  0  0  0  0  0  0
    7.9236    9.8501   24.2423 C   0  0  0  0  0  0  0  0  0  0  0  0
    6.4089   11.6578   25.2655 C   0  0  0  0  0  0  0  0  0  0  0  0
   10.6091   13.1187   23.5063 C   0  0  0  0  0  0  0  0  0  0  0  0
    7.8660   13.4863   24.8756 C   0  0  0  0  0  0  0  0  0  0  0  0
   12.6370   14.9286   22.5744 C   0  0  0  0  0  0  0  0  0  0  0  0
   12.6319   13.5502   20.4746 C   0  0  0  0  0  0  0  0  0  0  0  0
   10.5585   14.7899   21.1619 C   0  0  0  0  0  0  0  0  0  0  0  0
   11.7973   14.0434   21.6546 C   0  0  0  0  0  0  0  0  0  0  0  0
    6.5956   13.0274   25.4045 N   0  0  0  0  0  0  0  0  0  0  0  0
    7.0552    8.7729   24.4772 N   0  0  0  0  0  0  0  0  0  0  0  0
    5.4535   10.9877   25.6103 O   0  0  0  0  0  0  0  0  0  0  0  0
   10.6938   14.1363   24.2075 O   0  0  0  0  0  0  0  0  0  0  0  0
   11.3724   12.8928   22.3931 O   0  0  0  0  0  0  0  0  0  0  0  0
   10.9847   10.5173   22.8933 H   0  0  0  0  0  0  0  0  0  0  0  0
    9.4528    8.6416   23.3110 H   0  0  0  0  0  0  0  0  0  0  0  0
    8.4413   13.9370   25.6879 H   0  0  0  0  0  0  0  0  0  0  0  0
    7.6724   14.2045   24.0748 H   0  0  0  0  0  0  0  0  0  0  0  0
   12.0416   15.2846   23.4227 H   0  0  0  0  0  0  0  0  0  0  0  0
   13.5100   14.3937   22.9624 H   0  0  0  0  0  0  0  0  0  0  0  0
   12.9861   15.8225   22.0449 H   0  0  0  0  0  0  0  0  0  0  0  0
   12.0334   12.9147   19.8120 H   0  0  0  0  0  0  0  0  0  0  0  0
   13.4698   12.9337   20.8197 H   0  0  0  0  0  0  0  0  0  0  0  0
   13.0328   14.3827   19.8873 H   0  0  0  0  0  0  0  0  0  0  0  0
    9.9560   14.1552   20.5021 H   0  0  0  0  0  0  0  0  0  0  0  0
    9.9284   15.1193   21.9944 H   0  0  0  0  0  0  0  0  0  0  0  0
   10.8423   15.6685   20.5712 H   0  0  0  0  0  0  0  0  0  0  0  0
    5.9113   13.6436   25.8318 H   0  0  0  0  0  0  0  0  0  0  0  0
    7.3041    7.8567   24.1526 H   0  0  0  0  0  0  0  0  0  0  0  0
    6.1534    8.9440   24.8825 H   0  0  0  0  0  0  0  0  0  0  0  0
  1  2  1  0  0  0  0
  1  4  2  0  0  0  0
  2  6  2  0  0  0  0
  3  5  2  0  0  0  0
  3  6  1  0  0  0  0
  3  7  1  0  0  0  0
  4  5  1  0  0  0  0
  4  8  1  0  0  0  0
  5  9  1  0  0  0  0
  6 15  1  0  0  0  0
  7 14  1  0  0  0  0
  7 16  2  0  0  0  0
  8 17  2  0  0  0  0
  8 18  1  0  0  0  0
  9 14  1  0  0  0  0
 10 13  1  0  0  0  0
 11 13  1  0  0  0  0
 12 13  1  0  0  0  0
 13 18  1  0  0  0  0
  1 19  1  0  0  0  0
  2 20  1  0  0  0  0
  9 21  1  0  0  0  0
  9 22  1  0  0  0  0
 10 23  1  0  0  0  0
 10 24  1  0  0  0  0
 10 25  1  0  0  0  0
 11 26  1  0  0  0  0
 11 27  1  0  0  0  0
 11 28  1  0  0  0  0
 12 29  1  0  0  0  0
 12 30  1  0  0  0  0
 12 31  1  0  0  0  0
 14 32  1  0  0  0  0
 15 33  1  0  0  0  0
 15 34  1  0  0  0  0
M  END
> <id>
EN300-1670350

> <smiles>
CC(C)(C)OC(=O)C=1C=CC(N)=C2C(=O)NCC21

> <IUPAC Name>
tert-butyl 7-amino-1-oxo-2,3-dihydro-1H-isoindole-4-carboxylate

> <CAS>
2639427-85-1

> <URL>
https://www.enaminestore.com/catalog/EN300-1670350

> <ROCS_ShapeQuery>
A71EV2A-x0451_0A_A71EV2A-x0310_0A_A71EV2A-x0416_0A_peptide

> <ROCS_TanimotoCombo>
0.509 

> <ROCS_ShapeTanimoto>
0.336 

> <ROCS_ColorTanimoto>
0.172 

> <ROCS_RefTversky>
0.293 

> <ROCS_RefColorTversky>
0.191 

> <ROCS_RefTverskyCombo>
0.484 

> <ROCS_FitTversky>
1.781 

> <ROCS_FitColorTversky>
0.634 

> <ROCS_FitTverskyCombo>
2.416 

> <ROCS_ColorScore>
-5.838

> <ROCS_Overlap>
2033.593

> <ROCS_Rank>
431                 

$$$$
untitled-dbase-100038_6
  -OEChem-11132313473D

 26 28  0     0  0  0  0  0  0999 V2000
    6.2882   11.4618   26.1085 C   0  0  0  0  0  0  0  0  0  0  0  0
    6.8784   12.7142   25.9669 C   0  0  0  0  0  0  0  0  0  0  0  0
    9.5436    9.5786   23.0217 C   0  0  0  0  0  0  0  0  0  0  0  0
    6.8001   10.3658   25.4134 C   0  0  0  0  0  0  0  0  0  0  0  0
    7.9827   12.8754   25.1296 C   0  0  0  0  0  0  0  0  0  0  0  0
    8.4394    9.4175   23.8590 C   0  0  0  0  0  0  0  0  0  0  0  0
   10.1338   10.8310   22.8800 C   0  0  0  0  0  0  0  0  0  0  0  0
    7.9110   10.5096   24.5663 C   0  0  0  0  0  0  0  0  0  0  0  0
    8.5111   11.7832   24.4222 C   0  0  0  0  0  0  0  0  0  0  0  0
    9.6220   11.9271   23.5751 C   0  0  0  0  0  0  0  0  0  0  0  0
   10.2882   13.1989   23.3771 C   0  0  0  0  0  0  0  0  0  0  0  0
   11.4130   14.7888   22.4199 C   0  0  0  0  0  0  0  0  0  0  0  0
   10.3884   14.1857   24.2389 N   0  0  0  0  0  0  0  0  0  0  0  0
   11.1040   15.1972   23.6299 N   0  0  0  0  0  0  0  0  0  0  0  0
   10.9192   13.5358   22.2181 N   0  0  0  0  0  0  0  0  0  0  0  0
   12.1007   15.3969   21.4315 N   0  0  0  0  0  0  0  0  0  0  0  0
    5.4285   11.3366   26.7604 H   0  0  0  0  0  0  0  0  0  0  0  0
    6.4790   13.5670   26.5080 H   0  0  0  0  0  0  0  0  0  0  0  0
    9.9431    8.7254   22.4810 H   0  0  0  0  0  0  0  0  0  0  0  0
    6.3224    9.3963   25.5394 H   0  0  0  0  0  0  0  0  0  0  0  0
    8.4108   13.8720   25.0499 H   0  0  0  0  0  0  0  0  0  0  0  0
    7.9943    8.4294   23.9547 H   0  0  0  0  0  0  0  0  0  0  0  0
   10.9938   10.9356   22.2222 H   0  0  0  0  0  0  0  0  0  0  0  0
   11.0049   12.9765   21.3790 H   0  0  0  0  0  0  0  0  0  0  0  0
   12.3077   14.9274   20.5369 H   0  0  0  0  0  0  0  0  0  0  0  0
   12.5348   16.3243   21.5547 H   0  0  0  0  0  0  0  0  0  0  0  0
  1  2  2  0  0  0  0
  1  4  1  0  0  0  0
  2  5  1  0  0  0  0
  3  6  2  0  0  0  0
  3  7  1  0  0  0  0
  4  8  2  0  0  0  0
  5  9  2  0  0  0  0
  6  8  1  0  0  0  0
  7 10  2  0  0  0  0
  8  9  1  0  0  0  0
  9 10  1  0  0  0  0
 10 11  1  0  0  0  0
 11 13  2  0  0  0  0
 11 15  1  0  0  0  0
 12 14  2  0  0  0  0
 12 15  1  0  0  0  0
 12 16  1  0  0  0  0
 13 14  1  0  0  0  0
  1 17  1  0  0  0  0
  2 18  1  0  0  0  0
  3 19  1  0  0  0  0
  4 20  1  0  0  0  0
  5 21  1  0  0  0  0
  6 22  1  0  0  0  0
  7 23  1  0  0  0  0
 15 24  1  0  0  0  0
 16 25  1  0  0  0  0
 16 26  1  0  0  0  0
M  END
> <id>
EN300-37355

> <smiles>
NC1=NN=C(N1)C=2C=CC=C3C=CC=CC23

> <MDLNUMBER>
MFCD05182378

> <IUPAC Name>
5-(naphthalen-1-yl)-4H-1,2,4-triazol-3-amine

> <CAS>
93404-69-4

> <Purity>
95

> <URL>
https://www.enaminestore.com/catalog/EN300-37355

> <ROCS_ShapeQuery>
A71EV2A-x0451_0A_A71EV2A-x0310_0A_A71EV2A-x0416_0A_peptide

> <ROCS_TanimotoCombo>
0.509 

> <ROCS_ShapeTanimoto>
0.333 

> <ROCS_ColorTanimoto>
0.176 

> <ROCS_RefTversky>
0.289 

> <ROCS_RefColorTversky>
0.196 

> <ROCS_RefTverskyCombo>
0.485 

> <ROCS_FitTversky>
1.851 

> <ROCS_FitColorTversky>
0.632 

> <ROCS_FitTverskyCombo>
2.483 

> <ROCS_ColorScore>
-5.992

> <ROCS_Overlap>
2000.405

> <ROCS_Rank>
432                 

$$$$
untitled-dbase-152079_9
  -OEChem-11132313473D

 30 31  0     0  0  0  0  0  0999 V2000
    7.8814    8.6338   24.3161 C   0  0  0  0  0  0  0  0  0  0  0  0
    8.9621   10.4214   23.6828 C   0  0  0  0  0  0  0  0  0  0  0  0
    8.3820   12.6442   24.2871 C   0  0  0  0  0  0  0  0  0  0  0  0
    9.1997   11.8132   23.6261 C   0  0  0  0  0  0  0  0  0  0  0  0
    7.2576   12.0292   25.0504 C   0  0  0  0  0  0  0  0  0  0  0  0
   10.9632   13.4178   23.1888 C   0  0  0  0  0  0  0  0  0  0  0  0
   11.9781   15.9862   22.4636 C   0  0  0  0  0  0  0  0  0  0  0  0
   13.0946   14.8002   20.5516 C   0  0  0  0  0  0  0  0  0  0  0  0
   10.5888   14.8168   20.7209 C   0  0  0  0  0  0  0  0  0  0  0  0
   11.9008   14.7997   21.5039 C   0  0  0  0  0  0  0  0  0  0  0  0
    8.8823    8.2457   23.5593 N   0  0  0  0  0  0  0  0  0  0  0  0
    9.5663    9.3748   23.1580 N   0  0  0  0  0  0  0  0  0  0  0  0
    7.0065   10.7569   25.1265 N   0  0  0  0  0  0  0  0  0  0  0  0
    7.8845    9.9934   24.4273 N   0  0  0  0  0  0  0  0  0  0  0  0
   10.2582   12.2671   22.8966 N   0  0  0  0  0  0  0  0  0  0  0  0
   10.7435   14.1801   24.1250 O   0  0  0  0  0  0  0  0  0  0  0  0
   11.9595   13.5904   22.2688 O   0  0  0  0  0  0  0  0  0  0  0  0
    6.1742   13.0591   25.9202 Cl  0  0  0  0  0  0  0  0  0  0  0  0
    7.1500    7.9980   24.7942 H   0  0  0  0  0  0  0  0  0  0  0  0
    8.5003   13.7209   24.2908 H   0  0  0  0  0  0  0  0  0  0  0  0
   11.1229   15.9894   23.1489 H   0  0  0  0  0  0  0  0  0  0  0  0
   12.8985   15.9664   23.0563 H   0  0  0  0  0  0  0  0  0  0  0  0
   11.9392   16.9350   21.9163 H   0  0  0  0  0  0  0  0  0  0  0  0
   13.0433   13.9505   19.8612 H   0  0  0  0  0  0  0  0  0  0  0  0
   14.0349   14.6923   21.1044 H   0  0  0  0  0  0  0  0  0  0  0  0
   13.1420   15.7224   19.9635 H   0  0  0  0  0  0  0  0  0  0  0  0
   10.5331   13.9658   20.0324 H   0  0  0  0  0  0  0  0  0  0  0  0
    9.7209   14.7796   21.3872 H   0  0  0  0  0  0  0  0  0  0  0  0
   10.5153   15.7194   20.1035 H   0  0  0  0  0  0  0  0  0  0  0  0
   10.5463   11.7248   22.0876 H   0  0  0  0  0  0  0  0  0  0  0  0
  1 11  2  0  0  0  0
  1 14  1  0  0  0  0
  2  4  1  0  0  0  0
  2 12  2  0  0  0  0
  2 14  1  0  0  0  0
  3  4  2  0  0  0  0
  3  5  1  0  0  0  0
  4 15  1  0  0  0  0
  5 13  2  0  0  0  0
  5 18  1  0  0  0  0
  6 15  1  0  0  0  0
  6 16  2  0  0  0  0
  6 17  1  0  0  0  0
  7 10  1  0  0  0  0
  8 10  1  0  0  0  0
  9 10  1  0  0  0  0
 10 17  1  0  0  0  0
 11 12  1  0  0  0  0
 13 14  1  0  0  0  0
  1 19  1  0  0  0  0
  3 20  1  0  0  0  0
  7 21  1  0  0  0  0
  7 22  1  0  0  0  0
  7 23  1  0  0  0  0
  8 24  1  0  0  0  0
  8 25  1  0  0  0  0
  8 26  1  0  0  0  0
  9 27  1  0  0  0  0
  9 28  1  0  0  0  0
  9 29  1  0  0  0  0
 15 30  1  0  0  0  0
M  END
> <id>
EN300-12723300

> <smiles>
CC(C)(C)OC(=O)NC1=CC(Cl)=NN2C=NN=C12

> <MDLNUMBER>
MFCD28041162

> <IUPAC Name>
tert-butyl N-{6-chloro-[1,2,4]triazolo[4,3-b]pyridazin-8-yl}carbamate

> <CAS>
1263425-79-1

> <URL>
https://www.enaminestore.com/catalog/EN300-12723300

> <ROCS_ShapeQuery>
A71EV2A-x0451_0A_A71EV2A-x0310_0A_A71EV2A-x0416_0A_peptide

> <ROCS_TanimotoCombo>
0.509 

> <ROCS_ShapeTanimoto>
0.359 

> <ROCS_ColorTanimoto>
0.150 

> <ROCS_RefTversky>
0.308 

> <ROCS_RefColorTversky>
0.171 

> <ROCS_RefTverskyCombo>
0.478 

> <ROCS_FitTversky>
1.862 

> <ROCS_FitColorTversky>
0.549 

> <ROCS_FitTverskyCombo>
2.411 

> <ROCS_ColorScore>
-5.210

> <ROCS_Overlap>
2135.316

> <ROCS_Rank>
433                 

$$$$
untitled-dbase-146783_7
  -OEChem-11132313473D

 34 35  0     1  0  0  0  0  0999 V2000
   10.1854   12.9508   23.5360 C   0  0  0  0  0  0  0  0  0  0  0  0
    9.7747   10.4840   24.5369 C   0  0  0  0  0  0  0  0  0  0  0  0
    8.7256   10.8205   22.7719 C   0  0  0  0  0  0  0  0  0  0  0  0
    7.3943   10.9587   24.8908 C   0  0  2  0  0  0  0  0  0  0  0  0
    9.2286   11.8273   23.8920 C   0  0  0  0  0  0  0  0  0  0  0  0
    8.3408   10.0813   24.0843 C   0  0  0  0  0  0  0  0  0  0  0  0
   12.7741   13.7713   22.6861 C   0  0  0  0  0  0  0  0  0  0  0  0
   11.9154   13.4234   20.3514 C   0  0  0  0  0  0  0  0  0  0  0  0
   10.8431   15.1431   21.8350 C   0  0  0  0  0  0  0  0  0  0  0  0
    5.9775   11.0003   24.3592 C   0  0  0  0  0  0  0  0  0  0  0  0
   11.5387   13.7834   21.7869 C   0  0  0  0  0  0  0  0  0  0  0  0
    8.1652    8.6607   23.9493 N   0  0  0  0  0  0  0  0  0  0  0  0
   10.4972   13.8535   24.3009 O   0  0  0  0  0  0  0  0  0  0  0  0
    8.0560   12.2242   24.6754 O   0  0  0  0  0  0  0  0  0  0  0  0
   10.6245   12.7871   22.2556 O   0  0  0  0  0  0  0  0  0  0  0  0
    5.2576   11.9377   25.0037 F   0  0  0  0  0  0  0  0  0  0  0  0
    5.9736   11.2921   23.0450 F   0  0  0  0  0  0  0  0  0  0  0  0
    5.3729    9.8096   24.5307 F   0  0  0  0  0  0  0  0  0  0  0  0
   10.6301   10.0095   24.0418 H   0  0  0  0  0  0  0  0  0  0  0  0
    9.9527   10.5089   25.6164 H   0  0  0  0  0  0  0  0  0  0  0  0
    7.9039   11.1759   22.1452 H   0  0  0  0  0  0  0  0  0  0  0  0
    9.4932   10.3714   22.1303 H   0  0  0  0  0  0  0  0  0  0  0  0
    7.4132   10.7218   25.9603 H   0  0  0  0  0  0  0  0  0  0  0  0
   12.5079   14.0293   23.7174 H   0  0  0  0  0  0  0  0  0  0  0  0
   13.2622   12.7913   22.6878 H   0  0  0  0  0  0  0  0  0  0  0  0
   13.5036   14.5208   22.3585 H   0  0  0  0  0  0  0  0  0  0  0  0
   11.0320   13.4309   19.7027 H   0  0  0  0  0  0  0  0  0  0  0  0
   12.3284   12.4095   20.2989 H   0  0  0  0  0  0  0  0  0  0  0  0
   12.6532   14.1200   19.9405 H   0  0  0  0  0  0  0  0  0  0  0  0
    9.9570   15.1520   21.1901 H   0  0  0  0  0  0  0  0  0  0  0  0
   10.5326   15.4015   22.8526 H   0  0  0  0  0  0  0  0  0  0  0  0
   11.5051   15.9329   21.4618 H   0  0  0  0  0  0  0  0  0  0  0  0
    8.8066    8.3090   23.2676 H   0  0  0  0  0  0  0  0  0  0  0  0
    8.3382    8.2190   24.8294 H   0  0  0  0  0  0  0  0  0  0  0  0
  1  5  1  0  0  0  0
  1 13  2  0  0  0  0
  1 15  1  0  0  0  0
  2  5  1  0  0  0  0
  2  6  1  0  0  0  0
  3  5  1  0  0  0  0
  3  6  1  0  0  0  0
  4  6  1  0  0  0  0
  4 10  1  0  0  0  0
  4 14  1  0  0  0  0
  5 14  1  0  0  0  0
  6 12  1  0  0  0  0
  7 11  1  0  0  0  0
  8 11  1  0  0  0  0
  9 11  1  0  0  0  0
 10 16  1  0  0  0  0
 10 17  1  0  0  0  0
 10 18  1  0  0  0  0
 11 15  1  0  0  0  0
  2 19  1  0  0  0  0
  2 20  1  0  0  0  0
  3 21  1  0  0  0  0
  3 22  1  0  0  0  0
  4 23  1  0  0  0  0
  7 24  1  0  0  0  0
  7 25  1  0  0  0  0
  7 26  1  0  0  0  0
  8 27  1  0  0  0  0
  8 28  1  0  0  0  0
  8 29  1  0  0  0  0
  9 30  1  0  0  0  0
  9 31  1  0  0  0  0
  9 32  1  0  0  0  0
 12 33  1  0  0  0  0
 12 34  1  0  0  0  0
M  END
> <id>
EN300-27727121

> <smiles>
CC(C)(C)OC(=O)C1(CC2(N)C1)OC2C(F)(F)F

> <IUPAC Name>
tert-butyl 4-amino-3-(trifluoromethyl)-2-oxabicyclo[2.1.1]hexane-1-carboxylate

> <CAS>
2639404-43-4

> <URL>
https://www.enaminestore.com/catalog/EN300-27727121

> <ROCS_ShapeQuery>
A71EV2A-x0451_0A_A71EV2A-x0310_0A_A71EV2A-x0416_0A_peptide

> <ROCS_TanimotoCombo>
0.509 

> <ROCS_ShapeTanimoto>
0.293 

> <ROCS_ColorTanimoto>
0.215 

> <ROCS_RefTversky>
0.264 

> <ROCS_RefColorTversky>
0.251 

> <ROCS_RefTverskyCombo>
0.515 

> <ROCS_FitTversky>
1.605 

> <ROCS_FitColorTversky>
0.604 

> <ROCS_FitTverskyCombo>
2.209 

> <ROCS_ColorScore>
-7.705

> <ROCS_Overlap>
1830.683

> <ROCS_Rank>
434                 

$$$$
untitled-dbase-172560_7
  -OEChem-11132313473D

 35 36  0     0  0  0  0  0  0999 V2000
    5.4146   11.7093   26.4160 C   0  0  0  0  0  0  0  0  0  0  0  0
    5.3528   10.3235   26.3372 C   0  0  0  0  0  0  0  0  0  0  0  0
    6.4185   12.3920   25.7352 C   0  0  0  0  0  0  0  0  0  0  0  0
    6.2944    9.6240   25.5783 C   0  0  0  0  0  0  0  0  0  0  0  0
    8.3865   12.3502   24.2768 C   0  0  0  0  0  0  0  0  0  0  0  0
    7.3655   11.6882   24.9720 C   0  0  0  0  0  0  0  0  0  0  0  0
    7.3087   10.2812   24.8874 C   0  0  0  0  0  0  0  0  0  0  0  0
    9.3063   11.6266   23.5317 C   0  0  0  0  0  0  0  0  0  0  0  0
    9.1700   10.2534   23.5089 C   0  0  0  0  0  0  0  0  0  0  0  0
   10.9606   13.4784   23.1509 C   0  0  0  0  0  0  0  0  0  0  0  0
   11.7655   16.1385   22.4762 C   0  0  0  0  0  0  0  0  0  0  0  0
   12.8786   15.0974   20.4796 C   0  0  0  0  0  0  0  0  0  0  0  0
   10.3869   14.9335   20.7492 C   0  0  0  0  0  0  0  0  0  0  0  0
   11.7290   14.9820   21.4782 C   0  0  0  0  0  0  0  0  0  0  0  0
    8.2000    9.5763   24.1651 N   0  0  0  0  0  0  0  0  0  0  0  0
   10.3236   12.2797   22.8369 N   0  0  0  0  0  0  0  0  0  0  0  0
   10.7428   14.2006   24.1161 O   0  0  0  0  0  0  0  0  0  0  0  0
   10.0534    9.4924   22.7876 O   0  0  0  0  0  0  0  0  0  0  0  0
   11.9026   13.7548   22.1961 O   0  0  0  0  0  0  0  0  0  0  0  0
    4.6852   12.2563   27.0055 H   0  0  0  0  0  0  0  0  0  0  0  0
    4.5733    9.7827   26.8658 H   0  0  0  0  0  0  0  0  0  0  0  0
    6.4581   13.4768   25.8042 H   0  0  0  0  0  0  0  0  0  0  0  0
    6.2245    8.5386   25.5337 H   0  0  0  0  0  0  0  0  0  0  0  0
    8.4604   13.4355   24.3191 H   0  0  0  0  0  0  0  0  0  0  0  0
   10.9418   16.0593   23.1947 H   0  0  0  0  0  0  0  0  0  0  0  0
   12.7093   16.1633   23.0305 H   0  0  0  0  0  0  0  0  0  0  0  0
   11.6387   17.0999   21.9654 H   0  0  0  0  0  0  0  0  0  0  0  0
   12.8563   14.2696   19.7616 H   0  0  0  0  0  0  0  0  0  0  0  0
   13.8466   15.0372   20.9901 H   0  0  0  0  0  0  0  0  0  0  0  0
   12.8379   16.0397   19.9237 H   0  0  0  0  0  0  0  0  0  0  0  0
   10.3605   14.1040   20.0333 H   0  0  0  0  0  0  0  0  0  0  0  0
    9.5526   14.8137   21.4479 H   0  0  0  0  0  0  0  0  0  0  0  0
   10.2258   15.8487   20.1682 H   0  0  0  0  0  0  0  0  0  0  0  0
   10.6460   11.8160   21.9807 H   0  0  0  0  0  0  0  0  0  0  0  0
    9.8239    8.5569   22.8730 H   0  0  0  0  0  0  0  0  0  0  0  0
  1  2  2  0  0  0  0
  1  3  1  0  0  0  0
  2  4  1  0  0  0  0
  3  6  2  0  0  0  0
  4  7  2  0  0  0  0
  5  6  1  0  0  0  0
  5  8  2  0  0  0  0
  6  7  1  0  0  0  0
  7 15  1  0  0  0  0
  8  9  1  0  0  0  0
  8 16  1  0  0  0  0
  9 15  2  0  0  0  0
  9 18  1  0  0  0  0
 10 16  1  0  0  0  0
 10 17  2  0  0  0  0
 10 19  1  0  0  0  0
 11 14  1  0  0  0  0
 12 14  1  0  0  0  0
 13 14  1  0  0  0  0
 14 19  1  0  0  0  0
  1 20  1  0  0  0  0
  2 21  1  0  0  0  0
  3 22  1  0  0  0  0
  4 23  1  0  0  0  0
  5 24  1  0  0  0  0
 11 25  1  0  0  0  0
 11 26  1  0  0  0  0
 11 27  1  0  0  0  0
 12 28  1  0  0  0  0
 12 29  1  0  0  0  0
 12 30  1  0  0  0  0
 13 31  1  0  0  0  0
 13 32  1  0  0  0  0
 13 33  1  0  0  0  0
 16 34  1  0  0  0  0
 18 35  1  0  0  0  0
M  END
> <id>
EN300-37355707

> <smiles>
CC(C)(C)OC(=O)NC=1C=C2C=CC=CC2=NC1O

> <IUPAC Name>
tert-butyl N-(2-hydroxyquinolin-3-yl)carbamate

> <CAS>
1036714-65-4

> <URL>
https://www.enaminestore.com/catalog/EN300-37355707

> <ROCS_ShapeQuery>
A71EV2A-x0451_0A_A71EV2A-x0310_0A_A71EV2A-x0416_0A_peptide

> <ROCS_TanimotoCombo>
0.508 

> <ROCS_ShapeTanimoto>
0.351 

> <ROCS_ColorTanimoto>
0.158 

> <ROCS_RefTversky>
0.304 

> <ROCS_RefColorTversky>
0.177 

> <ROCS_RefTverskyCombo>
0.481 

> <ROCS_FitTversky>
1.782 

> <ROCS_FitColorTversky>
0.588 

> <ROCS_FitTverskyCombo>
2.369 

> <ROCS_ColorScore>
-5.406

> <ROCS_Overlap>
2110.431

> <ROCS_Rank>
435                 

$$$$
untitled-dbase-104057_98
  -OEChem-11132313473D

 38 39  0     1  0  0  0  0  0999 V2000
    6.3534   10.6390   24.8616 C   0  0  0  0  0  0  0  0  0  0  0  0
    5.8193   11.8131   25.3899 C   0  0  0  0  0  0  0  0  0  0  0  0
    7.9588   12.9012   25.1286 C   0  0  0  0  0  0  0  0  0  0  0  0
    8.5099   11.7253   24.5965 C   0  0  0  0  0  0  0  0  0  0  0  0
    7.6902   10.5964   24.4552 C   0  0  0  0  0  0  0  0  0  0  0  0
    6.6207   12.9445   25.5212 C   0  0  0  0  0  0  0  0  0  0  0  0
   10.4427   13.7961   22.9497 C   0  0  0  0  0  0  0  0  0  0  0  0
   10.4258   10.2480   23.9940 C   0  0  0  0  0  0  0  0  0  0  0  0
    9.3654    9.4510   23.2464 C   0  0  0  0  0  0  0  0  0  0  0  0
    9.9603   11.6898   24.1932 C   0  0  1  0  0  0  0  0  0  0  0  0
   12.5706   15.2459   22.4853 C   0  0  0  0  0  0  0  0  0  0  0  0
   12.0435   15.1507   20.0312 C   0  0  0  0  0  0  0  0  0  0  0  0
   10.6788   16.6157   21.5477 C   0  0  0  0  0  0  0  0  0  0  0  0
   11.4628   15.3090   21.4348 C   0  0  0  0  0  0  0  0  0  0  0  0
   10.1518   12.4488   22.9740 N   0  0  0  0  0  0  0  0  0  0  0  0
   10.5759   14.5186   23.9319 O   0  0  0  0  0  0  0  0  0  0  0  0
    8.1292    9.3943   23.9631 O   0  0  0  0  0  0  0  0  0  0  0  0
    6.0999   14.0913   26.0372 O   0  0  0  0  0  0  0  0  0  0  0  0
   10.5631   14.2170   21.6551 O   0  0  0  0  0  0  0  0  0  0  0  0
    5.7208    9.7603   24.7651 H   0  0  0  0  0  0  0  0  0  0  0  0
    4.7777   11.8387   25.6983 H   0  0  0  0  0  0  0  0  0  0  0  0
    8.5788   13.7878   25.2426 H   0  0  0  0  0  0  0  0  0  0  0  0
   10.5760    9.7899   24.9809 H   0  0  0  0  0  0  0  0  0  0  0  0
   11.3885   10.2100   23.4718 H   0  0  0  0  0  0  0  0  0  0  0  0
    9.1794    9.8553   22.2442 H   0  0  0  0  0  0  0  0  0  0  0  0
    9.7099    8.4193   23.1174 H   0  0  0  0  0  0  0  0  0  0  0  0
   10.5765   12.1598   24.9551 H   0  0  0  0  0  0  0  0  0  0  0  0
   12.1579   15.3591   23.4941 H   0  0  0  0  0  0  0  0  0  0  0  0
   13.1180   14.2988   22.4378 H   0  0  0  0  0  0  0  0  0  0  0  0
   13.2852   16.0658   22.3498 H   0  0  0  0  0  0  0  0  0  0  0  0
   11.2521   15.1954   19.2743 H   0  0  0  0  0  0  0  0  0  0  0  0
   12.5256   14.1732   19.9163 H   0  0  0  0  0  0  0  0  0  0  0  0
   12.7804   15.9291   19.8087 H   0  0  0  0  0  0  0  0  0  0  0  0
    9.8841   16.6613   20.7942 H   0  0  0  0  0  0  0  0  0  0  0  0
   10.2239   16.7289   22.5370 H   0  0  0  0  0  0  0  0  0  0  0  0
   11.3298   17.4779   21.3630 H   0  0  0  0  0  0  0  0  0  0  0  0
   10.0671   11.9611   22.0880 H   0  0  0  0  0  0  0  0  0  0  0  0
    6.7772   14.7857   26.0645 H   0  0  0  0  0  0  0  0  0  0  0  0
  1  2  1  0  0  0  0
  1  5  2  0  0  0  0
  2  6  2  0  0  0  0
  3  4  2  0  0  0  0
  3  6  1  0  0  0  0
  4  5  1  0  0  0  0
  4 10  1  0  0  0  0
  5 17  1  0  0  0  0
  6 18  1  0  0  0  0
  7 15  1  0  0  0  0
  7 16  2  0  0  0  0
  7 19  1  0  0  0  0
  8  9  1  0  0  0  0
  8 10  1  0  0  0  0
  9 17  1  0  0  0  0
 10 15  1  0  0  0  0
 11 14  1  0  0  0  0
 12 14  1  0  0  0  0
 13 14  1  0  0  0  0
 14 19  1  0  0  0  0
  1 20  1  0  0  0  0
  2 21  1  0  0  0  0
  3 22  1  0  0  0  0
  8 23  1  0  0  0  0
  8 24  1  0  0  0  0
  9 25  1  0  0  0  0
  9 26  1  0  0  0  0
 10 27  1  0  0  0  0
 11 28  1  0  0  0  0
 11 29  1  0  0  0  0
 11 30  1  0  0  0  0
 12 31  1  0  0  0  0
 12 32  1  0  0  0  0
 12 33  1  0  0  0  0
 13 34  1  0  0  0  0
 13 35  1  0  0  0  0
 13 36  1  0  0  0  0
 15 37  1  0  0  0  0
 18 38  1  0  0  0  0
M  END
> <id>
EN300-23997130

> <smiles>
CC(C)(C)OC(=O)NC1CCOC=2C=CC(O)=CC12

> <MDLNUMBER>
MFCD24546001

> <IUPAC Name>
tert-butyl N-(6-hydroxy-3,4-dihydro-2H-1-benzopyran-4-yl)carbamate

> <CAS>
1779999-34-6

> <URL>
https://www.enaminestore.com/catalog/EN300-23997130

> <ROCS_ShapeQuery>
A71EV2A-x0451_0A_A71EV2A-x0310_0A_A71EV2A-x0416_0A_peptide

> <ROCS_TanimotoCombo>
0.508 

> <ROCS_ShapeTanimoto>
0.339 

> <ROCS_ColorTanimoto>
0.170 

> <ROCS_RefTversky>
0.295 

> <ROCS_RefColorTversky>
0.189 

> <ROCS_RefTverskyCombo>
0.485 

> <ROCS_FitTversky>
1.754 

> <ROCS_FitColorTversky>
0.628 

> <ROCS_FitTverskyCombo>
2.382 

> <ROCS_ColorScore>
-5.769

> <ROCS_Overlap>
2050.270

> <ROCS_Rank>
436                 

$$$$
untitled-dbase-129262_46
  -OEChem-11132313473D

 36 37  0     1  0  0  0  0  0999 V2000
   10.2872   13.3488   23.5102 C   0  0  0  0  0  0  0  0  0  0  0  0
    7.2931   11.2749   23.4418 C   0  0  0  0  0  0  0  0  0  0  0  0
    8.2739   10.0484   25.4368 C   0  0  0  0  0  0  0  0  0  0  0  0
    9.5621   10.1771   23.1998 C   0  0  0  0  0  0  0  0  0  0  0  0
    8.4304   12.5476   25.0755 C   0  0  0  0  0  0  0  0  0  0  0  0
    7.5248   11.3115   24.9547 C   0  0  1  0  0  0  0  0  0  0  0  0
    8.7313   11.4530   22.9596 C   0  0  2  0  0  0  0  0  0  0  0  0
    9.0297    9.2747   24.3338 C   0  0  2  0  0  0  0  0  0  0  0  0
   13.1583   13.6865   22.6845 C   0  0  0  0  0  0  0  0  0  0  0  0
   11.5507   15.2971   21.6039 C   0  0  0  0  0  0  0  0  0  0  0  0
   11.9689   13.8411   21.7478 C   0  0  0  0  0  0  0  0  0  0  0  0
    9.2227   12.5165   23.8476 N   0  0  0  0  0  0  0  0  0  0  0  0
    8.1450    8.2473   23.7651 N   0  0  0  0  0  0  0  0  0  0  0  0
   10.8545   13.0836   22.2690 N   0  0  0  0  0  0  0  0  0  0  0  0
   10.6930   14.2467   24.2531 O   0  0  0  0  0  0  0  0  0  0  0  0
    6.8306   10.3464   23.0987 H   0  0  0  0  0  0  0  0  0  0  0  0
    6.6685   12.1159   23.1231 H   0  0  0  0  0  0  0  0  0  0  0  0
    8.9864   10.3282   26.2364 H   0  0  0  0  0  0  0  0  0  0  0  0
    7.5381    9.3783   25.9236 H   0  0  0  0  0  0  0  0  0  0  0  0
    9.6014    9.6034   22.2509 H   0  0  0  0  0  0  0  0  0  0  0  0
   10.6150   10.4507   23.4141 H   0  0  0  0  0  0  0  0  0  0  0  0
    7.8429   13.4718   25.0708 H   0  0  0  0  0  0  0  0  0  0  0  0
    9.0730   12.5326   25.9603 H   0  0  0  0  0  0  0  0  0  0  0  0
    6.5961   11.4439   25.5189 H   0  0  0  0  0  0  0  0  0  0  0  0
    8.7981   11.7711   21.9101 H   0  0  0  0  0  0  0  0  0  0  0  0
    9.8687    8.7524   24.7873 H   0  0  0  0  0  0  0  0  0  0  0  0
   12.9272   14.0861   23.6773 H   0  0  0  0  0  0  0  0  0  0  0  0
   13.4440   12.6347   22.7980 H   0  0  0  0  0  0  0  0  0  0  0  0
   14.0305   14.2243   22.2971 H   0  0  0  0  0  0  0  0  0  0  0  0
   11.2920   15.7248   22.5788 H   0  0  0  0  0  0  0  0  0  0  0  0
   10.6768   15.3891   20.9507 H   0  0  0  0  0  0  0  0  0  0  0  0
   12.3581   15.9058   21.1815 H   0  0  0  0  0  0  0  0  0  0  0  0
   12.2225   13.4353   20.7624 H   0  0  0  0  0  0  0  0  0  0  0  0
    8.6598    7.7346   23.0894 H   0  0  0  0  0  0  0  0  0  0  0  0
    7.8454    7.6547   24.5025 H   0  0  0  0  0  0  0  0  0  0  0  0
   10.5225   12.2983   21.7180 H   0  0  0  0  0  0  0  0  0  0  0  0
  1 12  1  0  0  0  0
  1 14  1  0  0  0  0
  1 15  2  0  0  0  0
  2  6  1  0  0  0  0
  2  7  1  0  0  0  0
  3  6  1  0  0  0  0
  3  8  1  0  0  0  0
  4  7  1  0  0  0  0
  4  8  1  0  0  0  0
  5  6  1  0  0  0  0
  5 12  1  0  0  0  0
  7 12  1  0  0  0  0
  8 13  1  0  0  0  0
  9 11  1  0  0  0  0
 10 11  1  0  0  0  0
 11 14  1  0  0  0  0
  2 16  1  0  0  0  0
  2 17  1  0  0  0  0
  3 18  1  0  0  0  0
  3 19  1  0  0  0  0
  4 20  1  0  0  0  0
  4 21  1  0  0  0  0
  5 22  1  0  0  0  0
  5 23  1  0  0  0  0
  6 24  1  0  0  0  0
  7 25  1  0  0  0  0
  8 26  1  0  0  0  0
  9 27  1  0  0  0  0
  9 28  1  0  0  0  0
  9 29  1  0  0  0  0
 10 30  1  0  0  0  0
 10 31  1  0  0  0  0
 10 32  1  0  0  0  0
 11 33  1  0  0  0  0
 13 34  1  0  0  0  0
 13 35  1  0  0  0  0
 14 36  1  0  0  0  0
M  END
> <id>
EN300-766490

> <smiles>
CC(C)NC(=O)N1CC2CC1CC(N)C2

> <MDLNUMBER>
MFCD31459222

> <IUPAC Name>
3-amino-N-(propan-2-yl)-6-azabicyclo[3.2.1]octane-6-carboxamide

> <CAS>
2137784-79-1

> <URL>
https://www.enaminestore.com/catalog/EN300-766490

> <ROCS_ShapeQuery>
A71EV2A-x0451_0A_A71EV2A-x0310_0A_A71EV2A-x0416_0A_peptide

> <ROCS_TanimotoCombo>
0.508 

> <ROCS_ShapeTanimoto>
0.283 

> <ROCS_ColorTanimoto>
0.226 

> <ROCS_RefTversky>
0.252 

> <ROCS_RefColorTversky>
0.255 

> <ROCS_RefTverskyCombo>
0.507 

> <ROCS_FitTversky>
1.780 

> <ROCS_FitColorTversky>
0.659 

> <ROCS_FitTverskyCombo>
2.438 

> <ROCS_ColorScore>
-7.834

> <ROCS_Overlap>
1743.602

> <ROCS_Rank>
437                 

$$$$
untitled-dbase-152678_31
  -OEChem-11132313473D

 36 37  0     0  0  0  0  0  0999 V2000
    7.7367   12.8226   25.2552 C   0  0  0  0  0  0  0  0  0  0  0  0
    6.1772   11.0444   25.8194 C   0  0  0  0  0  0  0  0  0  0  0  0
    8.9959    9.9787   23.5152 C   0  0  0  0  0  0  0  0  0  0  0  0
    8.0435   10.5704   24.3628 C   0  0  0  0  0  0  0  0  0  0  0  0
    6.5943   12.3691   25.9237 C   0  0  0  0  0  0  0  0  0  0  0  0
    8.4497   11.8992   24.4754 C   0  0  0  0  0  0  0  0  0  0  0  0
    6.8932   10.1301   25.0408 C   0  0  0  0  0  0  0  0  0  0  0  0
    5.8310   13.3001   26.7411 C   0  0  0  0  0  0  0  0  0  0  0  0
   10.3906   13.1374   23.4793 C   0  0  0  0  0  0  0  0  0  0  0  0
   12.9379   14.2594   22.9362 C   0  0  0  0  0  0  0  0  0  0  0  0
   12.3639   13.9218   20.5143 C   0  0  0  0  0  0  0  0  0  0  0  0
   10.9622   15.4509   21.9304 C   0  0  0  0  0  0  0  0  0  0  0  0
    5.0470   13.7291   28.9525 C   0  0  0  0  0  0  0  0  0  0  0  0
   11.8062   14.1772   21.9128 C   0  0  0  0  0  0  0  0  0  0  0  0
    9.9332   10.8332   23.1120 N   0  0  0  0  0  0  0  0  0  0  0  0
    9.5968   12.0089   23.7006 N   0  0  0  0  0  0  0  0  0  0  0  0
    5.2973   14.3315   26.3131 O   0  0  0  0  0  0  0  0  0  0  0  0
   10.4960   14.0120   24.3233 O   0  0  0  0  0  0  0  0  0  0  0  0
    5.7744   12.8933   28.0459 O   0  0  0  0  0  0  0  0  0  0  0  0
   10.9663   13.0696   22.2509 O   0  0  0  0  0  0  0  0  0  0  0  0
    6.3024    8.3382   24.9200 Br  0  0  0  0  0  0  0  0  0  0  0  0
    8.0532   13.8564   25.3424 H   0  0  0  0  0  0  0  0  0  0  0  0
    5.2839   10.7216   26.3516 H   0  0  0  0  0  0  0  0  0  0  0  0
    9.0508    8.9558   23.1701 H   0  0  0  0  0  0  0  0  0  0  0  0
   12.5418   14.4427   23.9414 H   0  0  0  0  0  0  0  0  0  0  0  0
   13.5295   13.3384   22.9582 H   0  0  0  0  0  0  0  0  0  0  0  0
   13.6088   15.0963   22.7110 H   0  0  0  0  0  0  0  0  0  0  0  0
   11.5553   13.8621   19.7768 H   0  0  0  0  0  0  0  0  0  0  0  0
   12.8904   12.9614   20.4734 H   0  0  0  0  0  0  0  0  0  0  0  0
   13.0572   14.7107   20.2055 H   0  0  0  0  0  0  0  0  0  0  0  0
   10.1504   15.3922   21.1964 H   0  0  0  0  0  0  0  0  0  0  0  0
   10.5236   15.6304   22.9173 H   0  0  0  0  0  0  0  0  0  0  0  0
   11.5665   16.3226   21.6541 H   0  0  0  0  0  0  0  0  0  0  0  0
    5.0784   13.2947   29.9547 H   0  0  0  0  0  0  0  0  0  0  0  0
    4.0113   13.8193   28.6152 H   0  0  0  0  0  0  0  0  0  0  0  0
    5.5092   14.7189   28.9722 H   0  0  0  0  0  0  0  0  0  0  0  0
  1  5  1  0  0  0  0
  1  6  2  0  0  0  0
  2  5  2  0  0  0  0
  2  7  1  0  0  0  0
  3  4  1  0  0  0  0
  3 15  2  0  0  0  0
  4  6  1  0  0  0  0
  4  7  2  0  0  0  0
  5  8  1  0  0  0  0
  6 16  1  0  0  0  0
  7 21  1  0  0  0  0
  8 17  2  0  0  0  0
  8 19  1  0  0  0  0
  9 16  1  0  0  0  0
  9 18  2  0  0  0  0
  9 20  1  0  0  0  0
 10 14  1  0  0  0  0
 11 14  1  0  0  0  0
 12 14  1  0  0  0  0
 13 19  1  0  0  0  0
 14 20  1  0  0  0  0
 15 16  1  0  0  0  0
  1 22  1  0  0  0  0
  2 23  1  0  0  0  0
  3 24  1  0  0  0  0
 10 25  1  0  0  0  0
 10 26  1  0  0  0  0
 10 27  1  0  0  0  0
 11 28  1  0  0  0  0
 11 29  1  0  0  0  0
 11 30  1  0  0  0  0
 12 31  1  0  0  0  0
 12 32  1  0  0  0  0
 12 33  1  0  0  0  0
 13 34  1  0  0  0  0
 13 35  1  0  0  0  0
 13 36  1  0  0  0  0
M  END
> <id>
EN300-28262857

> <smiles>
COC(=O)C=1C=C(Br)C=2C=NN(C(=O)OC(C)(C)C)C2C1

> <IUPAC Name>
1-tert-butyl 6-methyl 4-bromo-1H-indazole-1,6-dicarboxylate

> <CAS>
2247974-17-8

> <URL>
https://www.enaminestore.com/catalog/EN300-28262857

> <ROCS_ShapeQuery>
A71EV2A-x0451_0A_A71EV2A-x0310_0A_A71EV2A-x0416_0A_peptide

> <ROCS_TanimotoCombo>
0.508 

> <ROCS_ShapeTanimoto>
0.351 

> <ROCS_ColorTanimoto>
0.157 

> <ROCS_RefTversky>
0.307 

> <ROCS_RefColorTversky>
0.173 

> <ROCS_RefTverskyCombo>
0.480 

> <ROCS_FitTversky>
1.685 

> <ROCS_FitColorTversky>
0.638 

> <ROCS_FitTverskyCombo>
2.324 

> <ROCS_ColorScore>
-5.266

> <ROCS_Overlap>
2133.001

> <ROCS_Rank>
438                 

$$$$
untitled-dbase-169306_206
  -OEChem-11132313473D

 36 37  0     0  0  0  0  0  0999 V2000
    7.9004   13.2064   25.2770 C   0  0  0  0  0  0  0  0  0  0  0  0
   10.4305   13.1216   23.4753 C   0  0  0  0  0  0  0  0  0  0  0  0
    8.5170   10.5954   25.2913 C   0  0  0  0  0  0  0  0  0  0  0  0
    7.3603   11.1519   23.6382 C   0  0  0  0  0  0  0  0  0  0  0  0
    9.7495   10.6941   23.1374 C   0  0  0  0  0  0  0  0  0  0  0  0
    8.3705   11.9704   24.5318 C   0  0  0  0  0  0  0  0  0  0  0  0
    8.5025   10.0812   23.8035 C   0  0  0  0  0  0  0  0  0  0  0  0
   12.2926   15.0755   22.5336 C   0  0  0  0  0  0  0  0  0  0  0  0
   11.9655   14.0296   20.2734 C   0  0  0  0  0  0  0  0  0  0  0  0
   10.0223   15.1037   21.4475 C   0  0  0  0  0  0  0  0  0  0  0  0
    8.2338    8.6344   23.5045 C   0  0  0  0  0  0  0  0  0  0  0  0
   11.3216   14.3199   21.6274 C   0  0  0  0  0  0  0  0  0  0  0  0
    9.6002   12.0426   23.6954 N   0  0  0  0  0  0  0  0  0  0  0  0
    6.7346   13.5526   25.3968 O   0  0  0  0  0  0  0  0  0  0  0  0
   10.6291   14.0279   24.2796 O   0  0  0  0  0  0  0  0  0  0  0  0
    8.9546   13.8831   25.7946 O   0  0  0  0  0  0  0  0  0  0  0  0
   11.0142   13.0615   22.2377 O   0  0  0  0  0  0  0  0  0  0  0  0
    7.0187    8.2617   23.9616 F   0  0  0  0  0  0  0  0  0  0  0  0
    8.2656    8.3995   22.1748 F   0  0  0  0  0  0  0  0  0  0  0  0
    9.1567    7.8388   24.0873 F   0  0  0  0  0  0  0  0  0  0  0  0
    9.4487   10.4421   25.8451 H   0  0  0  0  0  0  0  0  0  0  0  0
    7.6742   10.2942   25.9244 H   0  0  0  0  0  0  0  0  0  0  0  0
    6.3911   10.9116   24.0906 H   0  0  0  0  0  0  0  0  0  0  0  0
    7.1944   11.5266   22.6232 H   0  0  0  0  0  0  0  0  0  0  0  0
   10.6912   10.2514   23.4737 H   0  0  0  0  0  0  0  0  0  0  0  0
    9.6925   10.7315   22.0459 H   0  0  0  0  0  0  0  0  0  0  0  0
   11.8341   15.2858   23.5066 H   0  0  0  0  0  0  0  0  0  0  0  0
   13.2144   14.5083   22.6989 H   0  0  0  0  0  0  0  0  0  0  0  0
   12.5569   16.0467   22.1001 H   0  0  0  0  0  0  0  0  0  0  0  0
   11.2724   13.4876   19.6200 H   0  0  0  0  0  0  0  0  0  0  0  0
   12.8461   13.3875   20.3897 H   0  0  0  0  0  0  0  0  0  0  0  0
   12.2722   14.9501   19.7662 H   0  0  0  0  0  0  0  0  0  0  0  0
    9.3257   14.5619   20.7975 H   0  0  0  0  0  0  0  0  0  0  0  0
    9.5272   15.2892   22.4062 H   0  0  0  0  0  0  0  0  0  0  0  0
   10.2127   16.0674   20.9616 H   0  0  0  0  0  0  0  0  0  0  0  0
    9.8078   13.4445   25.5898 H   0  0  0  0  0  0  0  0  0  0  0  0
  1  6  1  6  0  0  0
  1 14  2  0  0  0  0
  1 16  1  0  0  0  0
  2 13  1  0  0  0  0
  2 15  2  0  0  0  0
  2 17  1  0  0  0  0
  3  6  1  0  0  0  0
  3  7  1  0  0  0  0
  4  6  1  0  0  0  0
  4  7  1  0  0  0  0
  5  7  1  0  0  0  0
  5 13  1  0  0  0  0
  6 13  1  0  0  0  0
  7 11  1  6  0  0  0
  8 12  1  0  0  0  0
  9 12  1  0  0  0  0
 10 12  1  0  0  0  0
 11 18  1  0  0  0  0
 11 19  1  0  0  0  0
 11 20  1  0  0  0  0
 12 17  1  0  0  0  0
  3 21  1  0  0  0  0
  3 22  1  0  0  0  0
  4 23  1  0  0  0  0
  4 24  1  0  0  0  0
  5 25  1  0  0  0  0
  5 26  1  0  0  0  0
  8 27  1  0  0  0  0
  8 28  1  0  0  0  0
  8 29  1  0  0  0  0
  9 30  1  0  0  0  0
  9 31  1  0  0  0  0
  9 32  1  0  0  0  0
 10 33  1  0  0  0  0
 10 34  1  0  0  0  0
 10 35  1  0  0  0  0
 16 36  1  0  0  0  0
M  END
> <id>
EN300-37375138

> <smiles>
CC(C)(C)OC(=O)N1C[C@]2(C[C@@]1(C2)C(=O)O)C(F)(F)F

> <IUPAC Name>
2-[(tert-butoxy)carbonyl]-4-(trifluoromethyl)-2-azabicyclo[2.1.1]hexane-1-carboxylic acid

> <CAS>
1993323-08-2

> <URL>
https://www.enaminestore.com/catalog/EN300-37375138

> <ROCS_ShapeQuery>
A71EV2A-x0451_0A_A71EV2A-x0310_0A_A71EV2A-x0416_0A_peptide

> <ROCS_TanimotoCombo>
0.508 

> <ROCS_ShapeTanimoto>
0.337 

> <ROCS_ColorTanimoto>
0.172 

> <ROCS_RefTversky>
0.296 

> <ROCS_RefColorTversky>
0.208 

> <ROCS_RefTverskyCombo>
0.504 

> <ROCS_FitTversky>
1.677 

> <ROCS_FitColorTversky>
0.499 

> <ROCS_FitTverskyCombo>
2.176 

> <ROCS_ColorScore>
-6.376

> <ROCS_Overlap>
2057.422

> <ROCS_Rank>
439                 

$$$$
untitled-dbase-154448_20
  -OEChem-11132313473D

 33 34  0     0  0  0  0  0  0999 V2000
    7.8190   13.0873   24.3744 C   0  0  0  0  0  0  0  0  0  0  0  0
    6.7446   13.2252   25.2476 C   0  0  0  0  0  0  0  0  0  0  0  0
    6.6922   10.8264   25.5298 C   0  0  0  0  0  0  0  0  0  0  0  0
    8.3274   11.8097   24.0817 C   0  0  0  0  0  0  0  0  0  0  0  0
    7.7664   10.6590   24.6593 C   0  0  0  0  0  0  0  0  0  0  0  0
    6.1809   12.0934   25.8259 C   0  0  0  0  0  0  0  0  0  0  0  0
    9.3988   11.6026   23.2175 C   0  0  0  0  0  0  0  0  0  0  0  0
    9.2864    9.3642   23.5328 C   0  0  0  0  0  0  0  0  0  0  0  0
   10.6460   13.7832   23.1968 C   0  0  0  0  0  0  0  0  0  0  0  0
   13.0047   15.3728   23.4953 C   0  0  0  0  0  0  0  0  0  0  0  0
   12.2224   16.5882   21.4410 C   0  0  0  0  0  0  0  0  0  0  0  0
   10.8216   16.6250   23.5253 C   0  0  0  0  0  0  0  0  0  0  0  0
   11.7883   15.8013   22.6757 C   0  0  0  0  0  0  0  0  0  0  0  0
    8.2446    9.4324   24.3863 N   0  0  0  0  0  0  0  0  0  0  0  0
    9.9023   10.3893   22.9224 N   0  0  0  0  0  0  0  0  0  0  0  0
   10.0157   12.7020   22.5987 N   0  0  0  0  0  0  0  0  0  0  0  0
   10.7891   13.9923   24.3952 O   0  0  0  0  0  0  0  0  0  0  0  0
   11.1079   14.6258   22.2210 O   0  0  0  0  0  0  0  0  0  0  0  0
    9.8868    7.8009   23.1923 Cl  0  0  0  0  0  0  0  0  0  0  0  0
    4.7193   12.2679   27.0121 Br  0  0  0  0  0  0  0  0  0  0  0  0
    8.2421   13.9862   23.9335 H   0  0  0  0  0  0  0  0  0  0  0  0
    6.3598   14.2181   25.4641 H   0  0  0  0  0  0  0  0  0  0  0  0
    6.2445    9.9447   25.9870 H   0  0  0  0  0  0  0  0  0  0  0  0
   12.6973   14.8076   24.3824 H   0  0  0  0  0  0  0  0  0  0  0  0
   13.6888   14.7521   22.9074 H   0  0  0  0  0  0  0  0  0  0  0  0
   13.5571   16.2459   23.8610 H   0  0  0  0  0  0  0  0  0  0  0  0
   11.3529   16.8978   20.8500 H   0  0  0  0  0  0  0  0  0  0  0  0
   12.8399   15.9687   20.7805 H   0  0  0  0  0  0  0  0  0  0  0  0
   12.7936   17.4821   21.7118 H   0  0  0  0  0  0  0  0  0  0  0  0
    9.9491   16.9325   22.9377 H   0  0  0  0  0  0  0  0  0  0  0  0
   10.4707   16.0625   24.3966 H   0  0  0  0  0  0  0  0  0  0  0  0
   11.2992   17.5472   23.8755 H   0  0  0  0  0  0  0  0  0  0  0  0
    9.9980   12.7059   21.5777 H   0  0  0  0  0  0  0  0  0  0  0  0
  1  2  1  0  0  0  0
  1  4  2  0  0  0  0
  2  6  2  0  0  0  0
  3  5  2  0  0  0  0
  3  6  1  0  0  0  0
  4  5  1  0  0  0  0
  4  7  1  0  0  0  0
  5 14  1  0  0  0  0
  6 20  1  0  0  0  0
  7 15  2  0  0  0  0
  7 16  1  0  0  0  0
  8 14  2  0  0  0  0
  8 15  1  0  0  0  0
  8 19  1  0  0  0  0
  9 16  1  0  0  0  0
  9 17  2  0  0  0  0
  9 18  1  0  0  0  0
 10 13  1  0  0  0  0
 11 13  1  0  0  0  0
 12 13  1  0  0  0  0
 13 18  1  0  0  0  0
  1 21  1  0  0  0  0
  2 22  1  0  0  0  0
  3 23  1  0  0  0  0
 10 24  1  0  0  0  0
 10 25  1  0  0  0  0
 10 26  1  0  0  0  0
 11 27  1  0  0  0  0
 11 28  1  0  0  0  0
 11 29  1  0  0  0  0
 12 30  1  0  0  0  0
 12 31  1  0  0  0  0
 12 32  1  0  0  0  0
 16 33  1  0  0  0  0
M  END
> <id>
EN300-28299568

> <smiles>
CC(C)(C)OC(=O)NC=1N=C(Cl)N=C2C=C(Br)C=CC12

> <IUPAC Name>
tert-butyl N-(7-bromo-2-chloroquinazolin-4-yl)carbamate

> <CAS>
2680752-16-1

> <URL>
https://www.enaminestore.com/catalog/EN300-28299568

> <ROCS_ShapeQuery>
A71EV2A-x0451_0A_A71EV2A-x0310_0A_A71EV2A-x0416_0A_peptide

> <ROCS_TanimotoCombo>
0.508 

> <ROCS_ShapeTanimoto>
0.353 

> <ROCS_ColorTanimoto>
0.155 

> <ROCS_RefTversky>
0.306 

> <ROCS_RefColorTversky>
0.175 

> <ROCS_RefTverskyCombo>
0.481 

> <ROCS_FitTversky>
1.757 

> <ROCS_FitColorTversky>
0.581 

> <ROCS_FitTverskyCombo>
2.338 

> <ROCS_ColorScore>
-5.344

> <ROCS_Overlap>
2126.554

> <ROCS_Rank>
440                 

$$$$
untitled-dbase-179019_16
  -OEChem-11132313473D

 30 31  0     0  0  0  0  0  0999 V2000
   10.1113   10.8195   22.9196 C   0  0  0  0  0  0  0  0  0  0  0  0
    9.8489   12.0379   23.5089 C   0  0  0  0  0  0  0  0  0  0  0  0
    8.3730   10.5162   24.0938 C   0  0  0  0  0  0  0  0  0  0  0  0
    7.0151   12.1637   25.6250 C   0  0  0  0  0  0  0  0  0  0  0  0
    7.2161   10.0048   24.7743 C   0  0  0  0  0  0  0  0  0  0  0  0
   10.5564   13.2716   23.3924 C   0  0  0  0  0  0  0  0  0  0  0  0
   12.1869   15.5437   22.6389 C   0  0  0  0  0  0  0  0  0  0  0  0
   12.0557   14.6204   20.3066 C   0  0  0  0  0  0  0  0  0  0  0  0
    9.9621   15.3682   21.4753 C   0  0  0  0  0  0  0  0  0  0  0  0
   11.3430   14.7383   21.6521 C   0  0  0  0  0  0  0  0  0  0  0  0
    9.1849    9.8723   23.2891 N   0  0  0  0  0  0  0  0  0  0  0  0
    8.0529   12.6956   25.0389 N   0  0  0  0  0  0  0  0  0  0  0  0
    6.5651   10.8558   25.5283 N   0  0  0  0  0  0  0  0  0  0  0  0
    8.7287   11.8230   24.2597 N   0  0  0  0  0  0  0  0  0  0  0  0
    6.8087    8.6997   24.6474 N   0  0  0  0  0  0  0  0  0  0  0  0
   10.6310   14.1542   24.2798 O   0  0  0  0  0  0  0  0  0  0  0  0
   11.1769   13.4138   22.1697 O   0  0  0  0  0  0  0  0  0  0  0  0
   10.9201   10.5728   22.2465 H   0  0  0  0  0  0  0  0  0  0  0  0
    6.4150   12.8190   26.2778 H   0  0  0  0  0  0  0  0  0  0  0  0
   11.6788   15.6306   23.6059 H   0  0  0  0  0  0  0  0  0  0  0  0
   13.1669   15.0832   22.8012 H   0  0  0  0  0  0  0  0  0  0  0  0
   12.3409   16.5669   22.2776 H   0  0  0  0  0  0  0  0  0  0  0  0
   11.4538   14.0432   19.5954 H   0  0  0  0  0  0  0  0  0  0  0  0
   13.0055   14.0840   20.4137 H   0  0  0  0  0  0  0  0  0  0  0  0
   12.2601   15.6034   19.8701 H   0  0  0  0  0  0  0  0  0  0  0  0
    9.3565   14.7906   20.7675 H   0  0  0  0  0  0  0  0  0  0  0  0
    9.4211   15.4270   22.4252 H   0  0  0  0  0  0  0  0  0  0  0  0
   10.0451   16.3785   21.0586 H   0  0  0  0  0  0  0  0  0  0  0  0
    6.0002    8.4109   25.1454 H   0  0  0  0  0  0  0  0  0  0  0  0
    7.3392    8.0980   24.0629 H   0  0  0  0  0  0  0  0  0  0  0  0
  1  2  2  0  0  0  0
  1 11  1  0  0  0  0
  2  6  1  0  0  0  0
  2 14  1  0  0  0  0
  3  5  1  0  0  0  0
  3 11  2  0  0  0  0
  3 14  1  0  0  0  0
  4 12  2  0  0  0  0
  4 13  1  0  0  0  0
  5 13  2  0  0  0  0
  5 15  1  0  0  0  0
  6 16  2  0  0  0  0
  6 17  1  0  0  0  0
  7 10  1  0  0  0  0
  8 10  1  0  0  0  0
  9 10  1  0  0  0  0
 10 17  1  0  0  0  0
 12 14  1  0  0  0  0
  1 18  1  0  0  0  0
  4 19  1  0  0  0  0
  7 20  1  0  0  0  0
  7 21  1  0  0  0  0
  7 22  1  0  0  0  0
  8 23  1  0  0  0  0
  8 24  1  0  0  0  0
  8 25  1  0  0  0  0
  9 26  1  0  0  0  0
  9 27  1  0  0  0  0
  9 28  1  0  0  0  0
 15 29  1  0  0  0  0
 15 30  1  0  0  0  0
M  END
> <id>
EN300-43394235

> <smiles>
CC(C)(C)OC(=O)C1=CN=C2C(N)=NC=NN12

> <IUPAC Name>
tert-butyl 4-aminoimidazo[2,1-f][1,2,4]triazine-7-carboxylate

> <URL>
https://www.enaminestore.com/catalog/EN300-43394235

> <ROCS_ShapeQuery>
A71EV2A-x0451_0A_A71EV2A-x0310_0A_A71EV2A-x0416_0A_peptide

> <ROCS_TanimotoCombo>
0.508 

> <ROCS_ShapeTanimoto>
0.339 

> <ROCS_ColorTanimoto>
0.169 

> <ROCS_RefTversky>
0.294 

> <ROCS_RefColorTversky>
0.197 

> <ROCS_RefTverskyCombo>
0.491 

> <ROCS_FitTversky>
1.829 

> <ROCS_FitColorTversky>
0.543 

> <ROCS_FitTverskyCombo>
2.373 

> <ROCS_ColorScore>
-6.046

> <ROCS_Overlap>
2037.879

> <ROCS_Rank>
441                 

$$$$
untitled-dbase-147369_85
  -OEChem-11132313473D

 42 43  0     0  0  0  0  0  0999 V2000
    6.6157   12.7266   25.8975 C   0  0  0  0  0  0  0  0  0  0  0  0
    7.8040   12.9830   25.2078 C   0  0  0  0  0  0  0  0  0  0  0  0
    6.6442   10.4126   25.1710 C   0  0  0  0  0  0  0  0  0  0  0  0
    6.0391   11.4504   25.8796 C   0  0  0  0  0  0  0  0  0  0  0  0
    7.8260   10.6703   24.4860 C   0  0  0  0  0  0  0  0  0  0  0  0
    8.3996   11.9448   24.5053 C   0  0  0  0  0  0  0  0  0  0  0  0
    4.8025   11.2061   26.6052 C   0  0  0  0  0  0  0  0  0  0  0  0
   10.4213   13.0439   23.5364 C   0  0  0  0  0  0  0  0  0  0  0  0
    9.8045   10.6103   23.1824 C   0  0  0  0  0  0  0  0  0  0  0  0
    8.6445    9.7029   23.6635 C   0  0  0  0  0  0  0  0  0  0  0  0
    7.8431    9.1620   22.4745 C   0  0  0  0  0  0  0  0  0  0  0  0
    9.1724    8.5488   24.5226 C   0  0  0  0  0  0  0  0  0  0  0  0
   12.3136   14.9857   22.6154 C   0  0  0  0  0  0  0  0  0  0  0  0
   12.0624   13.8946   20.3669 C   0  0  0  0  0  0  0  0  0  0  0  0
   10.0805   14.9891   21.4543 C   0  0  0  0  0  0  0  0  0  0  0  0
   11.3738   14.2109   21.6927 C   0  0  0  0  0  0  0  0  0  0  0  0
    9.5826   11.9569   23.7440 N   0  0  0  0  0  0  0  0  0  0  0  0
    4.1815   12.0461   27.2647 O   0  0  0  0  0  0  0  0  0  0  0  0
   10.6037   13.9727   24.3183 O   0  0  0  0  0  0  0  0  0  0  0  0
    4.3748    9.9193   26.4861 O   0  0  0  0  0  0  0  0  0  0  0  0
   11.0472   12.9642   22.3176 O   0  0  0  0  0  0  0  0  0  0  0  0
    6.1417   13.5338   26.4513 H   0  0  0  0  0  0  0  0  0  0  0  0
    8.2227   13.9813   25.2430 H   0  0  0  0  0  0  0  0  0  0  0  0
    6.2024    9.4206   25.1539 H   0  0  0  0  0  0  0  0  0  0  0  0
   10.7869   10.2581   23.5197 H   0  0  0  0  0  0  0  0  0  0  0  0
    9.8466   10.7015   22.0901 H   0  0  0  0  0  0  0  0  0  0  0  0
    8.4590    8.4708   21.9048 H   0  0  0  0  0  0  0  0  0  0  0  0
    7.5402    9.9868   21.8345 H   0  0  0  0  0  0  0  0  0  0  0  0
    6.9594    8.6432   22.8371 H   0  0  0  0  0  0  0  0  0  0  0  0
    9.7558    7.8718   23.9038 H   0  0  0  0  0  0  0  0  0  0  0  0
    8.3365    8.0085   24.9594 H   0  0  0  0  0  0  0  0  0  0  0  0
    9.8010    8.9442   25.3165 H   0  0  0  0  0  0  0  0  0  0  0  0
   11.8229   15.2147   23.5682 H   0  0  0  0  0  0  0  0  0  0  0  0
   13.2298   14.4233   22.8224 H   0  0  0  0  0  0  0  0  0  0  0  0
   12.5913   15.9486   22.1715 H   0  0  0  0  0  0  0  0  0  0  0  0
   11.3918   13.3387   19.7018 H   0  0  0  0  0  0  0  0  0  0  0  0
   12.9391   13.2561   20.5251 H   0  0  0  0  0  0  0  0  0  0  0  0
   12.3850   14.8052   19.8518 H   0  0  0  0  0  0  0  0  0  0  0  0
    9.4062   14.4335   20.7925 H   0  0  0  0  0  0  0  0  0  0  0  0
    9.5538   15.1930   22.3921 H   0  0  0  0  0  0  0  0  0  0  0  0
   10.2862   15.9432   20.9558 H   0  0  0  0  0  0  0  0  0  0  0  0
    3.5404    9.7445   26.9716 H   0  0  0  0  0  0  0  0  0  0  0  0
  1  2  1  0  0  0  0
  1  4  2  0  0  0  0
  2  6  2  0  0  0  0
  3  4  1  0  0  0  0
  3  5  2  0  0  0  0
  4  7  1  0  0  0  0
  5  6  1  0  0  0  0
  5 10  1  0  0  0  0
  6 17  1  0  0  0  0
  7 18  2  0  0  0  0
  7 20  1  0  0  0  0
  8 17  1  0  0  0  0
  8 19  2  0  0  0  0
  8 21  1  0  0  0  0
  9 10  1  0  0  0  0
  9 17  1  0  0  0  0
 10 11  1  0  0  0  0
 10 12  1  0  0  0  0
 13 16  1  0  0  0  0
 14 16  1  0  0  0  0
 15 16  1  0  0  0  0
 16 21  1  0  0  0  0
  1 22  1  0  0  0  0
  2 23  1  0  0  0  0
  3 24  1  0  0  0  0
  9 25  1  0  0  0  0
  9 26  1  0  0  0  0
 11 27  1  0  0  0  0
 11 28  1  0  0  0  0
 11 29  1  0  0  0  0
 12 30  1  0  0  0  0
 12 31  1  0  0  0  0
 12 32  1  0  0  0  0
 13 33  1  0  0  0  0
 13 34  1  0  0  0  0
 13 35  1  0  0  0  0
 14 36  1  0  0  0  0
 14 37  1  0  0  0  0
 14 38  1  0  0  0  0
 15 39  1  0  0  0  0
 15 40  1  0  0  0  0
 15 41  1  0  0  0  0
 20 42  1  0  0  0  0
M  END
> <id>
EN300-12443291

> <smiles>
CC(C)(C)OC(=O)N1CC(C)(C)C=2C=C(C=CC12)C(=O)O

> <MDLNUMBER>
MFCD12406278

> <IUPAC Name>
1-[(tert-butoxy)carbonyl]-3,3-dimethyl-2,3-dihydro-1H-indole-5-carboxylic acid

> <CAS>
1158745-61-9

> <URL>
https://www.enaminestore.com/catalog/EN300-12443291

> <ROCS_ShapeQuery>
A71EV2A-x0451_0A_A71EV2A-x0310_0A_A71EV2A-x0416_0A_peptide

> <ROCS_TanimotoCombo>
0.508 

> <ROCS_ShapeTanimoto>
0.357 

> <ROCS_ColorTanimoto>
0.151 

> <ROCS_RefTversky>
0.311 

> <ROCS_RefColorTversky>
0.171 

> <ROCS_RefTverskyCombo>
0.482 

> <ROCS_FitTversky>
1.714 

> <ROCS_FitColorTversky>
0.565 

> <ROCS_FitTverskyCombo>
2.279 

> <ROCS_ColorScore>
-5.208

> <ROCS_Overlap>
2160.175

> <ROCS_Rank>
442                 

$$$$
untitled-dbase-154830_52
  -OEChem-11132313473D

 32 33  0     1  0  0  0  0  0999 V2000
    7.7376   12.9904   25.0364 C   0  0  0  0  0  0  0  0  0  0  0  0
    6.6465   12.2926   25.5890 C   0  0  0  0  0  0  0  0  0  0  0  0
    8.4579   12.0434   24.3355 C   0  0  0  0  0  0  0  0  0  0  0  0
    5.5925   12.8242   26.4049 C   0  0  0  0  0  0  0  0  0  0  0  0
   10.3778   13.2691   23.5433 C   0  0  0  0  0  0  0  0  0  0  0  0
    9.6190    9.5686   23.5729 C   0  0  0  0  0  0  0  0  0  0  0  0
    8.1605    9.5546   24.0489 C   0  0  2  0  0  0  0  0  0  0  0  0
   10.0329   10.8484   22.8243 C   0  0  1  0  0  0  0  0  0  0  0  0
   11.1625   13.5368   22.2786 C   0  0  0  0  0  0  0  0  0  0  0  0
    9.4782   10.9031   21.3971 C   0  0  0  0  0  0  0  0  0  0  0  0
    7.1860    9.0025   23.0087 C   0  0  0  0  0  0  0  0  0  0  0  0
    6.6597   10.9958   25.2838 N   0  0  0  0  0  0  0  0  0  0  0  0
    7.7622   10.8713   24.5214 N   0  0  0  0  0  0  0  0  0  0  0  0
    9.6430   12.0700   23.5810 N   0  0  0  0  0  0  0  0  0  0  0  0
    4.9632   12.2076   27.2870 O   0  0  0  0  0  0  0  0  0  0  0  0
   10.4603   14.0968   24.4543 O   0  0  0  0  0  0  0  0  0  0  0  0
    5.3083   14.1353   26.1331 O   0  0  0  0  0  0  0  0  0  0  0  0
    5.9420    8.9851   23.5095 F   0  0  0  0  0  0  0  0  0  0  0  0
    7.2029    9.7723   21.9106 F   0  0  0  0  0  0  0  0  0  0  0  0
    7.5366    7.7529   22.6701 F   0  0  0  0  0  0  0  0  0  0  0  0
    7.9464   14.0444   25.1438 H   0  0  0  0  0  0  0  0  0  0  0  0
   10.2621    9.4930   24.4619 H   0  0  0  0  0  0  0  0  0  0  0  0
    9.8410    8.6785   22.9721 H   0  0  0  0  0  0  0  0  0  0  0  0
    8.1109    8.8933   24.9249 H   0  0  0  0  0  0  0  0  0  0  0  0
   11.1239   10.8144   22.7425 H   0  0  0  0  0  0  0  0  0  0  0  0
   10.5341   14.0829   21.5851 H   0  0  0  0  0  0  0  0  0  0  0  0
   11.4635   12.5901   21.8450 H   0  0  0  0  0  0  0  0  0  0  0  0
   12.0407   14.1212   22.5278 H   0  0  0  0  0  0  0  0  0  0  0  0
    8.3921   10.9382   21.4295 H   0  0  0  0  0  0  0  0  0  0  0  0
    9.7941   10.0187   20.8495 H   0  0  0  0  0  0  0  0  0  0  0  0
    9.8528   11.7914   20.8946 H   0  0  0  0  0  0  0  0  0  0  0  0
    5.8624   14.5223   25.4221 H   0  0  0  0  0  0  0  0  0  0  0  0
  1  2  1  0  0  0  0
  1  3  2  0  0  0  0
  2  4  1  0  0  0  0
  2 12  2  0  0  0  0
  3 13  1  0  0  0  0
  3 14  1  0  0  0  0
  4 15  2  0  0  0  0
  4 17  1  0  0  0  0
  5  9  1  0  0  0  0
  5 14  1  0  0  0  0
  5 16  2  0  0  0  0
  6  7  1  0  0  0  0
  6  8  1  0  0  0  0
  7 11  1  6  0  0  0
  7 13  1  0  0  0  0
  8 10  1  6  0  0  0
  8 14  1  0  0  0  0
 11 18  1  0  0  0  0
 11 19  1  0  0  0  0
 11 20  1  0  0  0  0
 12 13  1  0  0  0  0
  1 21  1  0  0  0  0
  6 22  1  0  0  0  0
  6 23  1  0  0  0  0
  7 24  1  0  0  0  0
  8 25  1  0  0  0  0
  9 26  1  0  0  0  0
  9 27  1  0  0  0  0
  9 28  1  0  0  0  0
 10 29  1  0  0  0  0
 10 30  1  0  0  0  0
 10 31  1  0  0  0  0
 17 32  1  0  0  0  0
M  END
> <id>
EN300-28288351

> <smiles>
C[C@@H]1C[C@@H](N2N=C(C=C2N1C(=O)C)C(=O)O)C(F)(F)F |&1:1,3,r|

> <IUPAC Name>
rac-(5R,7R)-4-acetyl-5-methyl-7-(trifluoromethyl)-4H,5H,6H,7H-pyrazolo[1,5-a]pyrimidine-2-carboxylic acid

> <CAS>
2679918-87-5

> <URL>
https://www.enaminestore.com/catalog/EN300-28288351

> <ROCS_ShapeQuery>
A71EV2A-x0451_0A_A71EV2A-x0310_0A_A71EV2A-x0416_0A_peptide

> <ROCS_TanimotoCombo>
0.508 

> <ROCS_ShapeTanimoto>
0.324 

> <ROCS_ColorTanimoto>
0.184 

> <ROCS_RefTversky>
0.289 

> <ROCS_RefColorTversky>
0.198 

> <ROCS_RefTverskyCombo>
0.486 

> <ROCS_FitTversky>
1.616 

> <ROCS_FitColorTversky>
0.728 

> <ROCS_FitTverskyCombo>
2.345 

> <ROCS_ColorScore>
-6.022

> <ROCS_Overlap>
2002.861

> <ROCS_Rank>
443                 

$$$$
untitled-dbase-115821_7
  -OEChem-11132313473D

 52 54  0     1  0  0  0  0  0999 V2000
    8.2379    7.7082   22.8044 C   0  0  0  0  0  0  0  0  0  0  0  0
    7.4519    8.5428   23.5946 C   0  0  0  0  0  0  0  0  0  0  0  0
    9.9611    9.3986   22.7511 C   0  0  0  0  0  0  0  0  0  0  0  0
    9.1698   10.2656   23.5230 C   0  0  0  0  0  0  0  0  0  0  0  0
    9.4959    8.1328   22.3894 C   0  0  0  0  0  0  0  0  0  0  0  0
    7.9210    9.8070   23.9682 C   0  0  0  0  0  0  0  0  0  0  0  0
   10.7949   13.6682   22.9745 C   0  0  0  0  0  0  0  0  0  0  0  0
    8.3739   11.2612   26.7085 C   0  0  0  0  0  0  0  0  0  0  0  0
    6.4217   12.5670   25.8326 C   0  0  0  0  0  0  0  0  0  0  0  0
    8.5108   12.4838   24.4502 C   0  0  0  0  0  0  0  0  0  0  0  0
    7.4294   10.6438   27.7441 C   0  0  0  0  0  0  0  0  0  0  0  0
    5.5539   11.8993   26.9025 C   0  0  0  0  0  0  0  0  0  0  0  0
    9.6716   11.6344   23.9230 C   0  0  2  0  0  0  0  0  0  0  0  0
    7.6268   11.6890   25.4250 C   0  0  0  0  0  0  0  0  0  0  0  0
   10.3514    7.2344   21.5607 C   0  0  0  0  0  0  0  0  0  0  0  0
   12.9934   15.4830   22.8222 C   0  0  0  0  0  0  0  0  0  0  0  0
   12.4227   15.6790   20.3840 C   0  0  0  0  0  0  0  0  0  0  0  0
   10.7564   16.3983   22.1201 C   0  0  0  0  0  0  0  0  0  0  0  0
   11.8744   15.4124   21.7841 C   0  0  0  0  0  0  0  0  0  0  0  0
    6.3332   11.5486   28.0900 N   0  0  0  0  0  0  0  0  0  0  0  0
   10.3116   12.3835   22.8376 N   0  0  0  0  0  0  0  0  0  0  0  0
   10.7560   14.3425   23.9984 O   0  0  0  0  0  0  0  0  0  0  0  0
    7.0771   10.5290   24.7705 O   0  0  0  0  0  0  0  0  0  0  0  0
   11.3308   14.0875   21.7894 O   0  0  0  0  0  0  0  0  0  0  0  0
    7.8622    6.7296   22.5193 H   0  0  0  0  0  0  0  0  0  0  0  0
    6.4699    8.2050   23.9153 H   0  0  0  0  0  0  0  0  0  0  0  0
   10.9532    9.7155   22.4323 H   0  0  0  0  0  0  0  0  0  0  0  0
    8.8781   12.1256   27.1551 H   0  0  0  0  0  0  0  0  0  0  0  0
    9.1417   10.5191   26.4659 H   0  0  0  0  0  0  0  0  0  0  0  0
    5.7758   12.7681   24.9717 H   0  0  0  0  0  0  0  0  0  0  0  0
    6.7788   13.5341   26.2078 H   0  0  0  0  0  0  0  0  0  0  0  0
    8.9494   13.3265   24.9911 H   0  0  0  0  0  0  0  0  0  0  0  0
    7.9292   12.8985   23.6280 H   0  0  0  0  0  0  0  0  0  0  0  0
    7.0306    9.6861   27.3808 H   0  0  0  0  0  0  0  0  0  0  0  0
    7.9994   10.4178   28.6548 H   0  0  0  0  0  0  0  0  0  0  0  0
    4.7581   12.5921   27.1980 H   0  0  0  0  0  0  0  0  0  0  0  0
    5.0618   11.0069   26.4966 H   0  0  0  0  0  0  0  0  0  0  0  0
   10.4186   11.5613   24.7112 H   0  0  0  0  0  0  0  0  0  0  0  0
   10.1560    7.3975   20.4937 H   0  0  0  0  0  0  0  0  0  0  0  0
   11.4178    7.4137   21.7503 H   0  0  0  0  0  0  0  0  0  0  0  0
   10.1613    6.1780   21.7917 H   0  0  0  0  0  0  0  0  0  0  0  0
   12.6038   15.2921   23.8286 H   0  0  0  0  0  0  0  0  0  0  0  0
   13.7849   14.7563   22.6121 H   0  0  0  0  0  0  0  0  0  0  0  0
   13.4400   16.4835   22.8483 H   0  0  0  0  0  0  0  0  0  0  0  0
   11.6232   15.6294   19.6359 H   0  0  0  0  0  0  0  0  0  0  0  0
   13.1579   14.9170   20.1010 H   0  0  0  0  0  0  0  0  0  0  0  0
   12.8993   16.6624   20.3172 H   0  0  0  0  0  0  0  0  0  0  0  0
    9.9537   16.3479   21.3756 H   0  0  0  0  0  0  0  0  0  0  0  0
   10.3258   16.1988   23.1067 H   0  0  0  0  0  0  0  0  0  0  0  0
   11.1283   17.4292   22.1045 H   0  0  0  0  0  0  0  0  0  0  0  0
    5.7258   11.0974   28.7703 H   0  0  0  0  0  0  0  0  0  0  0  0
   10.4045   11.9308   21.9332 H   0  0  0  0  0  0  0  0  0  0  0  0
  1  2  1  0  0  0  0
  1  5  2  0  0  0  0
  2  6  2  0  0  0  0
  3  4  2  0  0  0  0
  3  5  1  0  0  0  0
  4  6  1  0  0  0  0
  4 13  1  0  0  0  0
  5 15  1  0  0  0  0
  6 23  1  0  0  0  0
  7 21  1  0  0  0  0
  7 22  2  0  0  0  0
  7 24  1  0  0  0  0
  8 11  1  0  0  0  0
  8 14  1  0  0  0  0
  9 12  1  0  0  0  0
  9 14  1  0  0  0  0
 10 13  1  0  0  0  0
 10 14  1  0  0  0  0
 11 20  1  0  0  0  0
 12 20  1  0  0  0  0
 13 21  1  0  0  0  0
 14 23  1  0  0  0  0
 16 19  1  0  0  0  0
 17 19  1  0  0  0  0
 18 19  1  0  0  0  0
 19 24  1  0  0  0  0
  1 25  1  0  0  0  0
  2 26  1  0  0  0  0
  3 27  1  0  0  0  0
  8 28  1  0  0  0  0
  8 29  1  0  0  0  0
  9 30  1  0  0  0  0
  9 31  1  0  0  0  0
 10 32  1  0  0  0  0
 10 33  1  0  0  0  0
 11 34  1  0  0  0  0
 11 35  1  0  0  0  0
 12 36  1  0  0  0  0
 12 37  1  0  0  0  0
 13 38  1  0  0  0  0
 15 39  1  0  0  0  0
 15 40  1  0  0  0  0
 15 41  1  0  0  0  0
 16 42  1  0  0  0  0
 16 43  1  0  0  0  0
 16 44  1  0  0  0  0
 17 45  1  0  0  0  0
 17 46  1  0  0  0  0
 17 47  1  0  0  0  0
 18 48  1  0  0  0  0
 18 49  1  0  0  0  0
 18 50  1  0  0  0  0
 20 51  1  0  0  0  0
 21 52  1  0  0  0  0
M  END
> <id>
EN300-737680

> <smiles>
CC=1C=CC=2OC3(CCNCC3)CC(NC(=O)OC(C)(C)C)C2C1

> <IUPAC Name>
tert-butyl N-{6-methyl-3,4-dihydrospiro[1-benzopyran-2,4'-piperidine]-4-yl}carbamate

> <CAS>
2137735-67-0

> <URL>
https://www.enaminestore.com/catalog/EN300-737680

> <ROCS_ShapeQuery>
A71EV2A-x0451_0A_A71EV2A-x0310_0A_A71EV2A-x0416_0A_peptide

> <ROCS_TanimotoCombo>
0.508 

> <ROCS_ShapeTanimoto>
0.369 

> <ROCS_ColorTanimoto>
0.139 

> <ROCS_RefTversky>
0.323 

> <ROCS_RefColorTversky>
0.162 

> <ROCS_RefTverskyCombo>
0.486 

> <ROCS_FitTversky>
1.625 

> <ROCS_FitColorTversky>
0.490 

> <ROCS_FitTverskyCombo>
2.115 

> <ROCS_ColorScore>
-4.968

> <ROCS_Overlap>
2247.046

> <ROCS_Rank>
444                 

$$$$
untitled-dbase-32974_49
  -OEChem-11132313473D

 55 57  0     1  0  0  0  0  0999 V2000
    9.4722    8.1501   22.3492 C   0  0  0  0  0  0  0  0  0  0  0  0
    7.4402    8.5545   23.5763 C   0  0  0  0  0  0  0  0  0  0  0  0
    9.1631   10.2723   23.5071 C   0  0  0  0  0  0  0  0  0  0  0  0
    8.2165    7.7253   22.7709 C   0  0  0  0  0  0  0  0  0  0  0  0
    9.9448    9.4107   22.7196 C   0  0  0  0  0  0  0  0  0  0  0  0
    7.9167    9.8132   23.9586 C   0  0  0  0  0  0  0  0  0  0  0  0
   10.7846   13.6782   22.9772 C   0  0  0  0  0  0  0  0  0  0  0  0
    8.3983   11.2381   26.7094 C   0  0  0  0  0  0  0  0  0  0  0  0
    6.4429   12.5590   25.8639 C   0  0  0  0  0  0  0  0  0  0  0  0
    8.5196   12.4831   24.4625 C   0  0  0  0  0  0  0  0  0  0  0  0
    7.4608   10.6133   27.7469 C   0  0  0  0  0  0  0  0  0  0  0  0
    5.5823   11.8833   26.9345 C   0  0  0  0  0  0  0  0  0  0  0  0
    9.6729   11.6354   23.9166 C   0  0  2  0  0  0  0  0  0  0  0  0
    7.6414   11.6813   25.4369 C   0  0  0  0  0  0  0  0  0  0  0  0
    7.7042    6.3859   22.3638 C   0  0  0  0  0  0  0  0  0  0  0  0
   11.3157    9.7968   22.2572 C   0  0  0  0  0  0  0  0  0  0  0  0
   13.5092   13.2385   22.2470 C   0  0  0  0  0  0  0  0  0  0  0  0
   13.0923   14.9022   20.4119 C   0  0  0  0  0  0  0  0  0  0  0  0
   12.8876   15.6109   22.8127 C   0  0  0  0  0  0  0  0  0  0  0  0
   12.7009   14.4633   21.8213 C   0  0  0  0  0  0  0  0  0  0  0  0
    6.3706   11.5181   28.1115 N   0  0  0  0  0  0  0  0  0  0  0  0
   10.3059   12.3934   22.8333 N   0  0  0  0  0  0  0  0  0  0  0  0
   10.7473   14.3462   24.0053 O   0  0  0  0  0  0  0  0  0  0  0  0
    7.0822   10.5298   24.7755 O   0  0  0  0  0  0  0  0  0  0  0  0
   11.3142   14.1067   21.7926 O   0  0  0  0  0  0  0  0  0  0  0  0
   10.0882    7.4968   21.7343 H   0  0  0  0  0  0  0  0  0  0  0  0
    6.4583    8.2245   23.9078 H   0  0  0  0  0  0  0  0  0  0  0  0
    8.9090   12.0962   27.1603 H   0  0  0  0  0  0  0  0  0  0  0  0
    9.1615   10.4960   26.4526 H   0  0  0  0  0  0  0  0  0  0  0  0
    5.7898   12.7697   25.0108 H   0  0  0  0  0  0  0  0  0  0  0  0
    6.8066   13.5210   26.2459 H   0  0  0  0  0  0  0  0  0  0  0  0
    8.9660   13.3184   25.0086 H   0  0  0  0  0  0  0  0  0  0  0  0
    7.9319   12.9089   23.6505 H   0  0  0  0  0  0  0  0  0  0  0  0
    7.0556    9.6607   27.3776 H   0  0  0  0  0  0  0  0  0  0  0  0
    8.0377   10.3763   28.6502 H   0  0  0  0  0  0  0  0  0  0  0  0
    4.7916   12.5761   27.2440 H   0  0  0  0  0  0  0  0  0  0  0  0
    5.0828   10.9970   26.5243 H   0  0  0  0  0  0  0  0  0  0  0  0
   10.4231   11.5585   24.7048 H   0  0  0  0  0  0  0  0  0  0  0  0
    7.9957    5.6256   23.0988 H   0  0  0  0  0  0  0  0  0  0  0  0
    6.6096    6.3864   22.2796 H   0  0  0  0  0  0  0  0  0  0  0  0
    8.0978    6.0900   21.3825 H   0  0  0  0  0  0  0  0  0  0  0  0
   11.2584   10.2964   21.2844 H   0  0  0  0  0  0  0  0  0  0  0  0
   11.7963   10.4735   22.9728 H   0  0  0  0  0  0  0  0  0  0  0  0
   11.9615    8.9163   22.1634 H   0  0  0  0  0  0  0  0  0  0  0  0
   13.2311   12.9204   23.2582 H   0  0  0  0  0  0  0  0  0  0  0  0
   13.3566   12.3970   21.5634 H   0  0  0  0  0  0  0  0  0  0  0  0
   14.5803   13.4687   22.2790 H   0  0  0  0  0  0  0  0  0  0  0  0
   12.5148   15.7808   20.1023 H   0  0  0  0  0  0  0  0  0  0  0  0
   12.8712   14.1147   19.6824 H   0  0  0  0  0  0  0  0  0  0  0  0
   14.1574   15.1467   20.3461 H   0  0  0  0  0  0  0  0  0  0  0  0
   12.3079   16.4896   22.5076 H   0  0  0  0  0  0  0  0  0  0  0  0
   12.5768   15.3257   23.8230 H   0  0  0  0  0  0  0  0  0  0  0  0
   13.9359   15.9290   22.8477 H   0  0  0  0  0  0  0  0  0  0  0  0
    5.7677   11.0619   28.7924 H   0  0  0  0  0  0  0  0  0  0  0  0
   10.3970   11.9471   21.9262 H   0  0  0  0  0  0  0  0  0  0  0  0
  1  4  2  0  0  0  0
  1  5  1  0  0  0  0
  2  4  1  0  0  0  0
  2  6  2  0  0  0  0
  3  5  2  0  0  0  0
  3  6  1  0  0  0  0
  3 13  1  0  0  0  0
  4 15  1  0  0  0  0
  5 16  1  0  0  0  0
  6 24  1  0  0  0  0
  7 22  1  0  0  0  0
  7 23  2  0  0  0  0
  7 25  1  0  0  0  0
  8 11  1  0  0  0  0
  8 14  1  0  0  0  0
  9 12  1  0  0  0  0
  9 14  1  0  0  0  0
 10 13  1  0  0  0  0
 10 14  1  0  0  0  0
 11 21  1  0  0  0  0
 12 21  1  0  0  0  0
 13 22  1  0  0  0  0
 14 24  1  0  0  0  0
 17 20  1  0  0  0  0
 18 20  1  0  0  0  0
 19 20  1  0  0  0  0
 20 25  1  0  0  0  0
  1 26  1  0  0  0  0
  2 27  1  0  0  0  0
  8 28  1  0  0  0  0
  8 29  1  0  0  0  0
  9 30  1  0  0  0  0
  9 31  1  0  0  0  0
 10 32  1  0  0  0  0
 10 33  1  0  0  0  0
 11 34  1  0  0  0  0
 11 35  1  0  0  0  0
 12 36  1  0  0  0  0
 12 37  1  0  0  0  0
 13 38  1  0  0  0  0
 15 39  1  0  0  0  0
 15 40  1  0  0  0  0
 15 41  1  0  0  0  0
 16 42  1  0  0  0  0
 16 43  1  0  0  0  0
 16 44  1  0  0  0  0
 17 45  1  0  0  0  0
 17 46  1  0  0  0  0
 17 47  1  0  0  0  0
 18 48  1  0  0  0  0
 18 49  1  0  0  0  0
 18 50  1  0  0  0  0
 19 51  1  0  0  0  0
 19 52  1  0  0  0  0
 19 53  1  0  0  0  0
 21 54  1  0  0  0  0
 22 55  1  0  0  0  0
M  END
> <id>
EN300-737685

> <smiles>
CC=1C=C(C)C=2C(CC3(CCNCC3)OC2C1)NC(=O)OC(C)(C)C

> <IUPAC Name>
tert-butyl N-{5,7-dimethyl-3,4-dihydrospiro[1-benzopyran-2,4'-piperidine]-4-yl}carbamate

> <CAS>
2138164-42-6

> <URL>
https://www.enaminestore.com/catalog/EN300-737685

> <ROCS_ShapeQuery>
A71EV2A-x0451_0A_A71EV2A-x0310_0A_A71EV2A-x0416_0A_peptide

> <ROCS_TanimotoCombo>
0.508 

> <ROCS_ShapeTanimoto>
0.369 

> <ROCS_ColorTanimoto>
0.139 

> <ROCS_RefTversky>
0.325 

> <ROCS_RefColorTversky>
0.163 

> <ROCS_RefTverskyCombo>
0.487 

> <ROCS_FitTversky>
1.585 

> <ROCS_FitColorTversky>
0.491 

> <ROCS_FitTverskyCombo>
2.075 

> <ROCS_ColorScore>
-4.976

> <ROCS_Overlap>
2257.586

> <ROCS_Rank>
445                 

$$$$
untitled-dbase-150574_7
  -OEChem-11132313473D

 27 27  0     0  0  0  0  0  0999 V2000
    7.3590   10.1026   24.8371 C   0  0  0  0  0  0  0  0  0  0  0  0
    9.2408   11.5070   23.5347 C   0  0  0  0  0  0  0  0  0  0  0  0
    9.1419   10.1348   23.4274 C   0  0  0  0  0  0  0  0  0  0  0  0
    8.3094   12.1104   24.3549 C   0  0  0  0  0  0  0  0  0  0  0  0
   10.8279   13.4311   23.2346 C   0  0  0  0  0  0  0  0  0  0  0  0
   11.5370   16.1537   22.7212 C   0  0  0  0  0  0  0  0  0  0  0  0
   12.6276   15.2826   20.6328 C   0  0  0  0  0  0  0  0  0  0  0  0
   10.1496   15.0244   20.9508 C   0  0  0  0  0  0  0  0  0  0  0  0
   11.5083   15.0656   21.6488 C   0  0  0  0  0  0  0  0  0  0  0  0
    8.2098    9.3982   24.0669 N   0  0  0  0  0  0  0  0  0  0  0  0
    7.3509   11.4363   25.0237 N   0  0  0  0  0  0  0  0  0  0  0  0
   10.2313   12.2463   22.8489 N   0  0  0  0  0  0  0  0  0  0  0  0
   10.6167   14.0807   24.2514 O   0  0  0  0  0  0  0  0  0  0  0  0
   11.7356   13.8030   22.2763 O   0  0  0  0  0  0  0  0  0  0  0  0
   10.0129    9.4745   22.6470 F   0  0  0  0  0  0  0  0  0  0  0  0
    8.3401   13.4440   24.5102 F   0  0  0  0  0  0  0  0  0  0  0  0
    6.5995    9.5362   25.3621 H   0  0  0  0  0  0  0  0  0  0  0  0
   10.7351   16.0015   23.4524 H   0  0  0  0  0  0  0  0  0  0  0  0
   12.4939   16.1707   23.2530 H   0  0  0  0  0  0  0  0  0  0  0  0
   11.3690   17.1426   22.2795 H   0  0  0  0  0  0  0  0  0  0  0  0
   12.6107   14.5042   19.8615 H   0  0  0  0  0  0  0  0  0  0  0  0
   13.6099   15.2184   21.1147 H   0  0  0  0  0  0  0  0  0  0  0  0
   12.5449   16.2581   20.1428 H   0  0  0  0  0  0  0  0  0  0  0  0
   10.1287   14.2440   20.1815 H   0  0  0  0  0  0  0  0  0  0  0  0
    9.3376   14.8327   21.6597 H   0  0  0  0  0  0  0  0  0  0  0  0
    9.9468   15.9708   20.4366 H   0  0  0  0  0  0  0  0  0  0  0  0
   10.5433   11.8581   21.9621 H   0  0  0  0  0  0  0  0  0  0  0  0
  1 10  2  0  0  0  0
  1 11  1  0  0  0  0
  2  3  2  0  0  0  0
  2  4  1  0  0  0  0
  2 12  1  0  0  0  0
  3 10  1  0  0  0  0
  3 15  1  0  0  0  0
  4 11  2  0  0  0  0
  4 16  1  0  0  0  0
  5 12  1  0  0  0  0
  5 13  2  0  0  0  0
  5 14  1  0  0  0  0
  6  9  1  0  0  0  0
  7  9  1  0  0  0  0
  8  9  1  0  0  0  0
  9 14  1  0  0  0  0
  1 17  1  0  0  0  0
  6 18  1  0  0  0  0
  6 19  1  0  0  0  0
  6 20  1  0  0  0  0
  7 21  1  0  0  0  0
  7 22  1  0  0  0  0
  7 23  1  0  0  0  0
  8 24  1  0  0  0  0
  8 25  1  0  0  0  0
  8 26  1  0  0  0  0
 12 27  1  0  0  0  0
M  END
> <id>
EN300-28275523

> <smiles>
CC(C)(C)OC(=O)NC=1C(F)=NC=NC1F

> <IUPAC Name>
tert-butyl N-(4,6-difluoropyrimidin-5-yl)carbamate

> <CAS>
2680666-04-8

> <URL>
https://www.enaminestore.com/catalog/EN300-28275523

> <ROCS_ShapeQuery>
A71EV2A-x0451_0A_A71EV2A-x0310_0A_A71EV2A-x0416_0A_peptide

> <ROCS_TanimotoCombo>
0.508 

> <ROCS_ShapeTanimoto>
0.322 

> <ROCS_ColorTanimoto>
0.186 

> <ROCS_RefTversky>
0.280 

> <ROCS_RefColorTversky>
0.195 

> <ROCS_RefTverskyCombo>
0.475 

> <ROCS_FitTversky>
1.852 

> <ROCS_FitColorTversky>
0.812 

> <ROCS_FitTverskyCombo>
2.665 

> <ROCS_ColorScore>
-5.923

> <ROCS_Overlap>
1942.947

> <ROCS_Rank>
446                 

$$$$
untitled-dbase-153947_10
  -OEChem-11132313473D

 33 34  0     0  0  0  0  0  0999 V2000
    7.8727    8.3813   24.2998 C   0  0  0  0  0  0  0  0  0  0  0  0
    8.7472    7.5384   23.6076 C   0  0  0  0  0  0  0  0  0  0  0  0
    9.9964    9.4532   22.8653 C   0  0  0  0  0  0  0  0  0  0  0  0
    9.1126   10.2942   23.5639 C   0  0  0  0  0  0  0  0  0  0  0  0
    8.0353    9.7645   24.2928 C   0  0  0  0  0  0  0  0  0  0  0  0
    9.8104    8.0745   22.8897 C   0  0  0  0  0  0  0  0  0  0  0  0
    9.2425   11.6800   23.5806 C   0  0  0  0  0  0  0  0  0  0  0  0
    7.4172   11.8863   24.9027 C   0  0  0  0  0  0  0  0  0  0  0  0
   10.9521   13.4744   23.1701 C   0  0  0  0  0  0  0  0  0  0  0  0
   11.8379   16.0914   22.4312 C   0  0  0  0  0  0  0  0  0  0  0  0
   12.9471   14.9640   20.4798 C   0  0  0  0  0  0  0  0  0  0  0  0
   10.4486   14.8752   20.7208 C   0  0  0  0  0  0  0  0  0  0  0  0
   11.7823   14.9083   21.4659 C   0  0  0  0  0  0  0  0  0  0  0  0
    7.1842   10.5595   24.9646 N   0  0  0  0  0  0  0  0  0  0  0  0
    8.4090   12.5049   24.2420 N   0  0  0  0  0  0  0  0  0  0  0  0
   10.2939   12.2892   22.8767 N   0  0  0  0  0  0  0  0  0  0  0  0
   10.7420   14.2296   24.1115 O   0  0  0  0  0  0  0  0  0  0  0  0
   11.9132   13.6979   22.2205 O   0  0  0  0  0  0  0  0  0  0  0  0
    6.3295   12.8891   25.7582 Cl  0  0  0  0  0  0  0  0  0  0  0  0
   10.9933    6.9369   21.9546 Br  0  0  0  0  0  0  0  0  0  0  0  0
    7.0493    7.9365   24.8554 H   0  0  0  0  0  0  0  0  0  0  0  0
    8.5798    6.4648   23.6409 H   0  0  0  0  0  0  0  0  0  0  0  0
   10.8303    9.8651   22.3013 H   0  0  0  0  0  0  0  0  0  0  0  0
   11.0034   16.0551   23.1407 H   0  0  0  0  0  0  0  0  0  0  0  0
   12.7750   16.1066   22.9971 H   0  0  0  0  0  0  0  0  0  0  0  0
   11.7439   17.0409   21.8918 H   0  0  0  0  0  0  0  0  0  0  0  0
   12.9111   14.1169   19.7853 H   0  0  0  0  0  0  0  0  0  0  0  0
   13.9065   14.8923   21.0047 H   0  0  0  0  0  0  0  0  0  0  0  0
   12.9391   15.8907   19.8971 H   0  0  0  0  0  0  0  0  0  0  0  0
   10.4085   14.0266   20.0284 H   0  0  0  0  0  0  0  0  0  0  0  0
    9.6026   14.7980   21.4115 H   0  0  0  0  0  0  0  0  0  0  0  0
   10.3199   15.7775   20.1120 H   0  0  0  0  0  0  0  0  0  0  0  0
   10.6151   11.7966   22.0418 H   0  0  0  0  0  0  0  0  0  0  0  0
  1  2  1  0  0  0  0
  1  5  2  0  0  0  0
  2  6  2  0  0  0  0
  3  4  2  0  0  0  0
  3  6  1  0  0  0  0
  4  5  1  0  0  0  0
  4  7  1  0  0  0  0
  5 14  1  0  0  0  0
  6 20  1  0  0  0  0
  7 15  2  0  0  0  0
  7 16  1  0  0  0  0
  8 14  2  0  0  0  0
  8 15  1  0  0  0  0
  8 19  1  0  0  0  0
  9 16  1  0  0  0  0
  9 17  2  0  0  0  0
  9 18  1  0  0  0  0
 10 13  1  0  0  0  0
 11 13  1  0  0  0  0
 12 13  1  0  0  0  0
 13 18  1  0  0  0  0
  1 21  1  0  0  0  0
  2 22  1  0  0  0  0
  3 23  1  0  0  0  0
 10 24  1  0  0  0  0
 10 25  1  0  0  0  0
 10 26  1  0  0  0  0
 11 27  1  0  0  0  0
 11 28  1  0  0  0  0
 11 29  1  0  0  0  0
 12 30  1  0  0  0  0
 12 31  1  0  0  0  0
 12 32  1  0  0  0  0
 16 33  1  0  0  0  0
M  END
> <id>
EN300-28299569

> <smiles>
CC(C)(C)OC(=O)NC=1N=C(Cl)N=C2C=CC(Br)=CC12

> <IUPAC Name>
tert-butyl N-(6-bromo-2-chloroquinazolin-4-yl)carbamate

> <CAS>
2680677-64-7

> <URL>
https://www.enaminestore.com/catalog/EN300-28299569

> <ROCS_ShapeQuery>
A71EV2A-x0451_0A_A71EV2A-x0310_0A_A71EV2A-x0416_0A_peptide

> <ROCS_TanimotoCombo>
0.508 

> <ROCS_ShapeTanimoto>
0.361 

> <ROCS_ColorTanimoto>
0.147 

> <ROCS_RefTversky>
0.312 

> <ROCS_RefColorTversky>
0.166 

> <ROCS_RefTverskyCombo>
0.478 

> <ROCS_FitTversky>
1.788 

> <ROCS_FitColorTversky>
0.552 

> <ROCS_FitTverskyCombo>
2.340 

> <ROCS_ColorScore>
-5.081

> <ROCS_Overlap>
2163.708

> <ROCS_Rank>
447                 

$$$$
untitled-dbase-143159_12
  -OEChem-11132313473D

 33 33  0     0  0  0  0  0  0999 V2000
    7.1059   12.1754   25.1904 C   0  0  0  0  0  0  0  0  0  0  0  0
    8.2008   12.6244   24.4521 C   0  0  0  0  0  0  0  0  0  0  0  0
    6.7830   10.8185   25.2041 C   0  0  0  0  0  0  0  0  0  0  0  0
    8.6501   10.3595   23.7410 C   0  0  0  0  0  0  0  0  0  0  0  0
    8.9729   11.7165   23.7274 C   0  0  0  0  0  0  0  0  0  0  0  0
    7.5551    9.9106   24.4794 C   0  0  0  0  0  0  0  0  0  0  0  0
   10.8775   13.2860   23.2583 C   0  0  0  0  0  0  0  0  0  0  0  0
   12.0605   15.7711   22.4810 C   0  0  0  0  0  0  0  0  0  0  0  0
   12.9733   14.5086   20.5106 C   0  0  0  0  0  0  0  0  0  0  0  0
   10.4897   14.7296   20.8128 C   0  0  0  0  0  0  0  0  0  0  0  0
    9.4714    9.3775   22.9665 C   0  0  0  0  0  0  0  0  0  0  0  0
   11.8354   14.6004   21.5250 C   0  0  0  0  0  0  0  0  0  0  0  0
   10.0781   12.1928   22.9860 N   0  0  0  0  0  0  0  0  0  0  0  0
   10.7880   14.0645   24.1998 O   0  0  0  0  0  0  0  0  0  0  0  0
    7.2241    8.5889   24.5053 O   0  0  0  0  0  0  0  0  0  0  0  0
   11.8349   13.3894   22.2819 O   0  0  0  0  0  0  0  0  0  0  0  0
   10.5086    9.9508   22.2911 F   0  0  0  0  0  0  0  0  0  0  0  0
   10.0385    8.4119   23.7453 F   0  0  0  0  0  0  0  0  0  0  0  0
    8.7398    8.7136   22.0274 F   0  0  0  0  0  0  0  0  0  0  0  0
    6.5052   12.8825   25.7550 H   0  0  0  0  0  0  0  0  0  0  0  0
    8.4417   13.6845   24.4489 H   0  0  0  0  0  0  0  0  0  0  0  0
    5.9293   10.4754   25.7821 H   0  0  0  0  0  0  0  0  0  0  0  0
   11.2458   15.8404   23.2107 H   0  0  0  0  0  0  0  0  0  0  0  0
   13.0062   15.6725   23.0238 H   0  0  0  0  0  0  0  0  0  0  0  0
   12.0708   16.7230   21.9378 H   0  0  0  0  0  0  0  0  0  0  0  0
   12.8159   13.6700   19.8227 H   0  0  0  0  0  0  0  0  0  0  0  0
   13.9294   14.3208   21.0125 H   0  0  0  0  0  0  0  0  0  0  0  0
   13.0651   15.4272   19.9222 H   0  0  0  0  0  0  0  0  0  0  0  0
   10.3281   13.8900   20.1271 H   0  0  0  0  0  0  0  0  0  0  0  0
    9.6581   14.7597   21.5243 H   0  0  0  0  0  0  0  0  0  0  0  0
   10.4581   15.6387   20.2014 H   0  0  0  0  0  0  0  0  0  0  0  0
   10.3137   11.6656   22.1486 H   0  0  0  0  0  0  0  0  0  0  0  0
    6.4426    8.4505   25.0629 H   0  0  0  0  0  0  0  0  0  0  0  0
  1  2  1  0  0  0  0
  1  3  2  0  0  0  0
  2  5  2  0  0  0  0
  3  6  1  0  0  0  0
  4  5  1  0  0  0  0
  4  6  2  0  0  0  0
  4 11  1  0  0  0  0
  5 13  1  0  0  0  0
  6 15  1  0  0  0  0
  7 13  1  0  0  0  0
  7 14  2  0  0  0  0
  7 16  1  0  0  0  0
  8 12  1  0  0  0  0
  9 12  1  0  0  0  0
 10 12  1  0  0  0  0
 11 17  1  0  0  0  0
 11 18  1  0  0  0  0
 11 19  1  0  0  0  0
 12 16  1  0  0  0  0
  1 20  1  0  0  0  0
  2 21  1  0  0  0  0
  3 22  1  0  0  0  0
  8 23  1  0  0  0  0
  8 24  1  0  0  0  0
  8 25  1  0  0  0  0
  9 26  1  0  0  0  0
  9 27  1  0  0  0  0
  9 28  1  0  0  0  0
 10 29  1  0  0  0  0
 10 30  1  0  0  0  0
 10 31  1  0  0  0  0
 13 32  1  0  0  0  0
 15 33  1  0  0  0  0
M  END
> <id>
EN300-27718444

> <smiles>
CC(C)(C)OC(=O)NC=1C=CC=C(O)C1C(F)(F)F

> <IUPAC Name>
tert-butyl N-[3-hydroxy-2-(trifluoromethyl)phenyl]carbamate

> <CAS>
2580248-62-8

> <URL>
https://www.enaminestore.com/catalog/EN300-27718444

> <ROCS_ShapeQuery>
A71EV2A-x0451_0A_A71EV2A-x0310_0A_A71EV2A-x0416_0A_peptide

> <ROCS_TanimotoCombo>
0.508 

> <ROCS_ShapeTanimoto>
0.356 

> <ROCS_ColorTanimoto>
0.152 

> <ROCS_RefTversky>
0.307 

> <ROCS_RefColorTversky>
0.163 

> <ROCS_RefTverskyCombo>
0.471 

> <ROCS_FitTversky>
1.812 

> <ROCS_FitColorTversky>
0.682 

> <ROCS_FitTverskyCombo>
2.494 

> <ROCS_ColorScore>
-4.971

> <ROCS_Overlap>
2131.440

> <ROCS_Rank>
448                 

$$$$
untitled-dbase-103016_2
  -OEChem-11132313473D

 41 44  0     0  0  0  0  0  0999 V2000
    9.7396    8.9128   21.7924 C   0  0  0  0  0  0  0  0  0  0  0  0
   12.4813   14.6644   22.6434 C   0  0  0  0  0  0  0  0  0  0  0  0
   13.8224   13.7248   20.8712 C   0  0  0  0  0  0  0  0  0  0  0  0
    8.2554   12.9204   25.4896 C   0  0  0  0  0  0  0  0  0  0  0  0
   11.7014   13.4992   22.6770 C   0  0  0  0  0  0  0  0  0  0  0  0
   13.5392   14.7737   21.7408 C   0  0  0  0  0  0  0  0  0  0  0  0
   13.0467   12.5665   20.9048 C   0  0  0  0  0  0  0  0  0  0  0  0
    8.6995   12.0025   24.5468 C   0  0  0  0  0  0  0  0  0  0  0  0
   11.9819   12.4474   21.8078 C   0  0  0  0  0  0  0  0  0  0  0  0
    7.9570   10.8345   24.5430 C   0  0  0  0  0  0  0  0  0  0  0  0
    6.5877   11.5439   26.2102 C   0  0  0  0  0  0  0  0  0  0  0  0
    9.4291    9.9765   22.6967 C   0  0  0  0  0  0  0  0  0  0  0  0
   10.5707   13.3767   23.6386 C   0  0  0  0  0  0  0  0  0  0  0  0
    8.2851    9.7573   23.6132 C   0  0  0  0  0  0  0  0  0  0  0  0
   10.1407   11.1321   22.7215 C   0  0  0  0  0  0  0  0  0  0  0  0
   14.3663   16.0144   21.7081 C   0  0  0  0  0  0  0  0  0  0  0  0
   13.3883   11.4641   19.9528 C   0  0  0  0  0  0  0  0  0  0  0  0
    5.9313   11.3607   28.9101 C   0  0  0  0  0  0  0  0  0  0  0  0
    9.9913    8.0499   21.0591 N   0  0  0  0  0  0  0  0  0  0  0  0
    7.2097   12.7244   26.3313 N   0  0  0  0  0  0  0  0  0  0  0  0
    6.9037   10.5674   25.3501 N   0  0  0  0  0  0  0  0  0  0  0  0
   11.2046   11.2954   21.8455 N   0  0  0  0  0  0  0  0  0  0  0  0
    9.8059   12.1713   23.6340 N   0  0  0  0  0  0  0  0  0  0  0  0
   10.3950   14.3511   24.3673 O   0  0  0  0  0  0  0  0  0  0  0  0
    7.6272    8.7234   23.6067 O   0  0  0  0  0  0  0  0  0  0  0  0
    4.2917   12.3450   27.1163 O   0  0  0  0  0  0  0  0  0  0  0  0
    4.7871    9.8752   27.0995 O   0  0  0  0  0  0  0  0  0  0  0  0
    5.2539   11.2529   27.2630 S   0  0  0  0  0  0  0  0  0  0  0  0
   12.2754   15.4944   23.3150 H   0  0  0  0  0  0  0  0  0  0  0  0
   14.6467   13.8098   20.1670 H   0  0  0  0  0  0  0  0  0  0  0  0
    8.7038   13.8907   25.6477 H   0  0  0  0  0  0  0  0  0  0  0  0
   15.2150   15.9258   22.3972 H   0  0  0  0  0  0  0  0  0  0  0  0
   14.7553   16.2074   20.7000 H   0  0  0  0  0  0  0  0  0  0  0  0
   13.7757   16.8944   21.9945 H   0  0  0  0  0  0  0  0  0  0  0  0
   14.1108   10.7802   20.4111 H   0  0  0  0  0  0  0  0  0  0  0  0
   12.4946   10.8952   19.6721 H   0  0  0  0  0  0  0  0  0  0  0  0
   13.8194   11.8627   19.0271 H   0  0  0  0  0  0  0  0  0  0  0  0
    5.1267   11.1837   29.6256 H   0  0  0  0  0  0  0  0  0  0  0  0
    6.7085   10.6019   29.0131 H   0  0  0  0  0  0  0  0  0  0  0  0
    6.3506   12.3588   29.0452 H   0  0  0  0  0  0  0  0  0  0  0  0
   11.4254   10.5440   21.2058 H   0  0  0  0  0  0  0  0  0  0  0  0
  1 12  1  0  0  0  0
  1 19  3  0  0  0  0
  2  5  2  0  0  0  0
  2  6  1  0  0  0  0
  3  6  2  0  0  0  0
  3  7  1  0  0  0  0
  4  8  2  0  0  0  0
  4 20  1  0  0  0  0
  5  9  1  0  0  0  0
  5 13  1  0  0  0  0
  6 16  1  0  0  0  0
  7  9  2  0  0  0  0
  7 17  1  0  0  0  0
  8 10  1  0  0  0  0
  8 23  1  0  0  0  0
  9 22  1  0  0  0  0
 10 14  1  0  0  0  0
 10 21  2  0  0  0  0
 11 20  2  0  0  0  0
 11 21  1  0  0  0  0
 11 28  1  0  0  0  0
 12 14  1  0  0  0  0
 12 15  2  0  0  0  0
 13 23  1  0  0  0  0
 13 24  2  0  0  0  0
 14 25  2  0  0  0  0
 15 22  1  0  0  0  0
 15 23  1  0  0  0  0
 18 28  1  0  0  0  0
 26 28  2  0  0  0  0
 27 28  2  0  0  0  0
  2 29  1  0  0  0  0
  3 30  1  0  0  0  0
  4 31  1  0  0  0  0
 16 32  1  0  0  0  0
 16 33  1  0  0  0  0
 16 34  1  0  0  0  0
 17 35  1  0  0  0  0
 17 36  1  0  0  0  0
 17 37  1  0  0  0  0
 18 38  1  0  0  0  0
 18 39  1  0  0  0  0
 18 40  1  0  0  0  0
 22 41  1  0  0  0  0
M  END
> <id>
EN300-26613145

> <smiles>
CC=1C=C(C)C=2NC3=C(C#N)C(=O)C=4N=C(N=CC4N3C(=O)C2C1)S(=O)(=O)C

> <IUPAC Name>
2-methanesulfonyl-8,10-dimethyl-6,13-dioxo-11,13-dihydro-6H-1,3,5a,11-tetraazatetraphene-12-carbonitrile

> <CAS>
328033-52-9

> <URL>
https://www.enaminestore.com/catalog/EN300-26613145

> <ROCS_ShapeQuery>
A71EV2A-x0451_0A_A71EV2A-x0310_0A_A71EV2A-x0416_0A_peptide

> <ROCS_TanimotoCombo>
0.508 

> <ROCS_ShapeTanimoto>
0.354 

> <ROCS_ColorTanimoto>
0.154 

> <ROCS_RefTversky>
0.322 

> <ROCS_RefColorTversky>
0.190 

> <ROCS_RefTverskyCombo>
0.511 

> <ROCS_FitTversky>
1.400 

> <ROCS_FitColorTversky>
0.448 

> <ROCS_FitTverskyCombo>
1.848 

> <ROCS_ColorScore>
-5.827

> <ROCS_Overlap>
2239.776

> <ROCS_Rank>
449                 

$$$$
untitled-dbase-180978_50
  -OEChem-11132313473D

 39 40  0     1  0  0  0  0  0999 V2000
    5.8102   11.8120   25.3927 C   0  0  0  0  0  0  0  0  0  0  0  0
    6.3461   10.6387   24.8643 C   0  0  0  0  0  0  0  0  0  0  0  0
    7.9485   12.9029   25.1329 C   0  0  0  0  0  0  0  0  0  0  0  0
    8.5014   11.7279   24.6008 C   0  0  0  0  0  0  0  0  0  0  0  0
    6.6101   12.9444   25.5248 C   0  0  0  0  0  0  0  0  0  0  0  0
    7.6833   10.5981   24.4586 C   0  0  0  0  0  0  0  0  0  0  0  0
   10.4328   13.8017   22.9558 C   0  0  0  0  0  0  0  0  0  0  0  0
   10.4195   10.2534   23.9989 C   0  0  0  0  0  0  0  0  0  0  0  0
    9.3607    9.4552   23.2504 C   0  0  0  0  0  0  0  0  0  0  0  0
    9.9521   11.6945   24.1983 C   0  0  1  0  0  0  0  0  0  0  0  0
   12.5594   15.2538   22.4928 C   0  0  0  0  0  0  0  0  0  0  0  0
   12.0333   15.1590   20.0385 C   0  0  0  0  0  0  0  0  0  0  0  0
   10.6665   16.6221   21.5550 C   0  0  0  0  0  0  0  0  0  0  0  0
   11.4520   15.3163   21.4419 C   0  0  0  0  0  0  0  0  0  0  0  0
    6.0686   14.1321   26.0588 N   0  0  0  0  0  0  0  0  0  0  0  0
   10.1433   12.4541   22.9795 N   0  0  0  0  0  0  0  0  0  0  0  0
   10.5648   14.5240   23.9384 O   0  0  0  0  0  0  0  0  0  0  0  0
    8.1241    9.3966   23.9664 O   0  0  0  0  0  0  0  0  0  0  0  0
   10.5532   14.2232   21.6615 O   0  0  0  0  0  0  0  0  0  0  0  0
    4.7675   11.8315   25.6993 H   0  0  0  0  0  0  0  0  0  0  0  0
    5.7148    9.7592   24.7670 H   0  0  0  0  0  0  0  0  0  0  0  0
    8.5716   13.7881   25.2458 H   0  0  0  0  0  0  0  0  0  0  0  0
   10.5699    9.7955   24.9859 H   0  0  0  0  0  0  0  0  0  0  0  0
   11.3827   10.2170   23.4775 H   0  0  0  0  0  0  0  0  0  0  0  0
    9.1741    9.8598   22.2484 H   0  0  0  0  0  0  0  0  0  0  0  0
    9.7069    8.4242   23.1210 H   0  0  0  0  0  0  0  0  0  0  0  0
   10.5675   12.1648   24.9607 H   0  0  0  0  0  0  0  0  0  0  0  0
   12.1462   15.3663   23.5016 H   0  0  0  0  0  0  0  0  0  0  0  0
   13.1078   14.3074   22.4452 H   0  0  0  0  0  0  0  0  0  0  0  0
   13.2732   16.0745   22.3579 H   0  0  0  0  0  0  0  0  0  0  0  0
   11.2422   15.2032   19.2813 H   0  0  0  0  0  0  0  0  0  0  0  0
   12.5166   14.1821   19.9234 H   0  0  0  0  0  0  0  0  0  0  0  0
   12.7696   15.9383   19.8166 H   0  0  0  0  0  0  0  0  0  0  0  0
    9.8721   16.6671   20.8013 H   0  0  0  0  0  0  0  0  0  0  0  0
   10.2111   16.7344   22.5442 H   0  0  0  0  0  0  0  0  0  0  0  0
   11.3167   17.4850   21.3708 H   0  0  0  0  0  0  0  0  0  0  0  0
    5.0973   14.1625   26.2949 H   0  0  0  0  0  0  0  0  0  0  0  0
    6.6403   14.9513   26.1046 H   0  0  0  0  0  0  0  0  0  0  0  0
   10.0594   11.9667   22.0932 H   0  0  0  0  0  0  0  0  0  0  0  0
  1  2  1  0  0  0  0
  1  5  2  0  0  0  0
  2  6  2  0  0  0  0
  3  4  2  0  0  0  0
  3  5  1  0  0  0  0
  4  6  1  0  0  0  0
  4 10  1  0  0  0  0
  5 15  1  0  0  0  0
  6 18  1  0  0  0  0
  7 16  1  0  0  0  0
  7 17  2  0  0  0  0
  7 19  1  0  0  0  0
  8  9  1  0  0  0  0
  8 10  1  0  0  0  0
  9 18  1  0  0  0  0
 10 16  1  0  0  0  0
 11 14  1  0  0  0  0
 12 14  1  0  0  0  0
 13 14  1  0  0  0  0
 14 19  1  0  0  0  0
  1 20  1  0  0  0  0
  2 21  1  0  0  0  0
  3 22  1  0  0  0  0
  8 23  1  0  0  0  0
  8 24  1  0  0  0  0
  9 25  1  0  0  0  0
  9 26  1  0  0  0  0
 10 27  1  0  0  0  0
 11 28  1  0  0  0  0
 11 29  1  0  0  0  0
 11 30  1  0  0  0  0
 12 31  1  0  0  0  0
 12 32  1  0  0  0  0
 12 33  1  0  0  0  0
 13 34  1  0  0  0  0
 13 35  1  0  0  0  0
 13 36  1  0  0  0  0
 15 37  1  0  0  0  0
 15 38  1  0  0  0  0
 16 39  1  0  0  0  0
M  END
> <id>
EN300-30328361

> <smiles>
CC(C)(C)OC(=O)NC1CCOC=2C=CC(N)=CC12

> <IUPAC Name>
tert-butyl N-(6-amino-3,4-dihydro-2H-1-benzopyran-4-yl)carbamate

> <URL>
https://www.enaminestore.com/catalog/EN300-30328361

> <ROCS_ShapeQuery>
A71EV2A-x0451_0A_A71EV2A-x0310_0A_A71EV2A-x0416_0A_peptide

> <ROCS_TanimotoCombo>
0.508 

> <ROCS_ShapeTanimoto>
0.338 

> <ROCS_ColorTanimoto>
0.170 

> <ROCS_RefTversky>
0.295 

> <ROCS_RefColorTversky>
0.189 

> <ROCS_RefTverskyCombo>
0.484 

> <ROCS_FitTversky>
1.754 

> <ROCS_FitColorTversky>
0.628 

> <ROCS_FitTverskyCombo>
2.382 

> <ROCS_ColorScore>
-5.769

> <ROCS_Overlap>
2046.893

> <ROCS_Rank>
450                 

$$$$
untitled-dbase-150586_18
  -OEChem-11132313473D

 35 36  0     0  0  0  0  0  0999 V2000
   10.9991   10.1433   22.0227 C   0  0  0  0  0  0  0  0  0  0  0  0
    6.7503   13.2047   25.2578 C   0  0  0  0  0  0  0  0  0  0  0  0
    6.1897   12.0703   25.8316 C   0  0  0  0  0  0  0  0  0  0  0  0
    7.8226   13.0725   24.3802 C   0  0  0  0  0  0  0  0  0  0  0  0
    6.7023   10.8069   25.5266 C   0  0  0  0  0  0  0  0  0  0  0  0
    9.2853    9.3001   23.5255 C   0  0  0  0  0  0  0  0  0  0  0  0
    9.9022   10.3711   22.9112 C   0  0  0  0  0  0  0  0  0  0  0  0
    8.3379   11.8016   24.0737 C   0  0  0  0  0  0  0  0  0  0  0  0
    7.7736   10.6454   24.6523 C   0  0  0  0  0  0  0  0  0  0  0  0
    9.4164   11.6396   23.1936 C   0  0  0  0  0  0  0  0  0  0  0  0
   10.6423   13.8323   23.1933 C   0  0  0  0  0  0  0  0  0  0  0  0
   13.2181   13.6855   22.7261 C   0  0  0  0  0  0  0  0  0  0  0  0
   12.9028   15.2172   20.7604 C   0  0  0  0  0  0  0  0  0  0  0  0
   12.8023   16.1403   23.0941 C   0  0  0  0  0  0  0  0  0  0  0  0
   12.5040   14.9326   22.2068 C   0  0  0  0  0  0  0  0  0  0  0  0
   11.8894    9.9585   21.3016 N   0  0  0  0  0  0  0  0  0  0  0  0
    8.2429    9.4131   24.3802 N   0  0  0  0  0  0  0  0  0  0  0  0
   10.0196   12.7518   22.5855 N   0  0  0  0  0  0  0  0  0  0  0  0
   10.7883   14.0289   24.3936 O   0  0  0  0  0  0  0  0  0  0  0  0
   11.0924   14.6905   22.2256 O   0  0  0  0  0  0  0  0  0  0  0  0
    6.3548   14.1882   25.4927 H   0  0  0  0  0  0  0  0  0  0  0  0
    5.3529   12.1644   26.5174 H   0  0  0  0  0  0  0  0  0  0  0  0
    8.2403   13.9783   23.9474 H   0  0  0  0  0  0  0  0  0  0  0  0
    6.2450    9.9345   25.9899 H   0  0  0  0  0  0  0  0  0  0  0  0
    9.6121    8.2784   23.3531 H   0  0  0  0  0  0  0  0  0  0  0  0
   12.9345   13.4778   23.7640 H   0  0  0  0  0  0  0  0  0  0  0  0
   12.9846   12.8048   22.1189 H   0  0  0  0  0  0  0  0  0  0  0  0
   14.3048   13.8283   22.7252 H   0  0  0  0  0  0  0  0  0  0  0  0
   12.3928   16.1112   20.3838 H   0  0  0  0  0  0  0  0  0  0  0  0
   12.6046   14.3919   20.1037 H   0  0  0  0  0  0  0  0  0  0  0  0
   13.9828   15.3664   20.6610 H   0  0  0  0  0  0  0  0  0  0  0  0
   12.2902   17.0350   22.7218 H   0  0  0  0  0  0  0  0  0  0  0  0
   12.4887   15.9680   24.1288 H   0  0  0  0  0  0  0  0  0  0  0  0
   13.8734   16.3725   23.0889 H   0  0  0  0  0  0  0  0  0  0  0  0
    9.9970   12.7676   21.5644 H   0  0  0  0  0  0  0  0  0  0  0  0
  1  7  1  0  0  0  0
  1 16  3  0  0  0  0
  2  3  2  0  0  0  0
  2  4  1  0  0  0  0
  3  5  1  0  0  0  0
  4  8  2  0  0  0  0
  5  9  2  0  0  0  0
  6  7  1  0  0  0  0
  6 17  2  0  0  0  0
  7 10  2  0  0  0  0
  8  9  1  0  0  0  0
  8 10  1  0  0  0  0
  9 17  1  0  0  0  0
 10 18  1  0  0  0  0
 11 18  1  0  0  0  0
 11 19  2  0  0  0  0
 11 20  1  0  0  0  0
 12 15  1  0  0  0  0
 13 15  1  0  0  0  0
 14 15  1  0  0  0  0
 15 20  1  0  0  0  0
  2 21  1  0  0  0  0
  3 22  1  0  0  0  0
  4 23  1  0  0  0  0
  5 24  1  0  0  0  0
  6 25  1  0  0  0  0
 12 26  1  0  0  0  0
 12 27  1  0  0  0  0
 12 28  1  0  0  0  0
 13 29  1  0  0  0  0
 13 30  1  0  0  0  0
 13 31  1  0  0  0  0
 14 32  1  0  0  0  0
 14 33  1  0  0  0  0
 14 34  1  0  0  0  0
 18 35  1  0  0  0  0
M  END
> <id>
EN300-28283152

> <smiles>
CC(C)(C)OC(=O)NC=1C(C#N)=CN=C2C=CC=CC12

> <IUPAC Name>
tert-butyl N-(3-cyanoquinolin-4-yl)carbamate

> <CAS>
2680724-97-2

> <URL>
https://www.enaminestore.com/catalog/EN300-28283152

> <ROCS_ShapeQuery>
A71EV2A-x0451_0A_A71EV2A-x0310_0A_A71EV2A-x0416_0A_peptide

> <ROCS_TanimotoCombo>
0.508 

> <ROCS_ShapeTanimoto>
0.349 

> <ROCS_ColorTanimoto>
0.159 

> <ROCS_RefTversky>
0.305 

> <ROCS_RefColorTversky>
0.174 

> <ROCS_RefTverskyCombo>
0.478 

> <ROCS_FitTversky>
1.723 

> <ROCS_FitColorTversky>
0.643 

> <ROCS_FitTverskyCombo>
2.366 

> <ROCS_ColorScore>
-5.299

> <ROCS_Overlap>
2114.455

> <ROCS_Rank>
451                 

$$$$
untitled-dbase-143157_72
  -OEChem-11132313473D

 38 39  0     1  0  0  0  0  0999 V2000
    6.4368   10.5079   25.1484 C   0  0  0  0  0  0  0  0  0  0  0  0
    5.8668   11.7061   25.5728 C   0  0  0  0  0  0  0  0  0  0  0  0
    7.8215   12.9017   24.8082 C   0  0  0  0  0  0  0  0  0  0  0  0
    8.4002   11.7059   24.3538 C   0  0  0  0  0  0  0  0  0  0  0  0
    7.7049   10.5039   24.5595 C   0  0  0  0  0  0  0  0  0  0  0  0
    6.5616   12.9016   25.4095 C   0  0  0  0  0  0  0  0  0  0  0  0
   10.4217   14.0191   23.0668 C   0  0  0  0  0  0  0  0  0  0  0  0
   10.0329   10.3614   23.0252 C   0  0  0  0  0  0  0  0  0  0  0  0
    9.5957    9.2365   23.9465 C   0  0  0  0  0  0  0  0  0  0  0  0
    9.7634   11.7039   23.7029 C   0  0  1  0  0  0  0  0  0  0  0  0
   12.8029   14.2809   22.0147 C   0  0  0  0  0  0  0  0  0  0  0  0
   11.7567   15.4460   20.0508 C   0  0  0  0  0  0  0  0  0  0  0  0
   11.9719   16.6452   22.2471 C   0  0  0  0  0  0  0  0  0  0  0  0
   11.7486   15.2936   21.5703 C   0  0  0  0  0  0  0  0  0  0  0  0
    9.9296   12.7720   22.7448 N   0  0  0  0  0  0  0  0  0  0  0  0
   10.7769   14.3830   24.1831 O   0  0  0  0  0  0  0  0  0  0  0  0
    8.1865    9.2740   24.1873 O   0  0  0  0  0  0  0  0  0  0  0  0
    6.0143   14.0714   25.8401 O   0  0  0  0  0  0  0  0  0  0  0  0
   10.4574   14.8025   21.9477 O   0  0  0  0  0  0  0  0  0  0  0  0
    5.8869    9.5791   25.2761 H   0  0  0  0  0  0  0  0  0  0  0  0
    4.8821   11.7011   26.0314 H   0  0  0  0  0  0  0  0  0  0  0  0
    8.3602   13.8412   24.6963 H   0  0  0  0  0  0  0  0  0  0  0  0
   11.1100   10.2704   22.8425 H   0  0  0  0  0  0  0  0  0  0  0  0
    9.5293   10.2986   22.0565 H   0  0  0  0  0  0  0  0  0  0  0  0
    9.8642    8.2515   23.5528 H   0  0  0  0  0  0  0  0  0  0  0  0
   10.0896    9.3455   24.9157 H   0  0  0  0  0  0  0  0  0  0  0  0
   10.5430   11.8542   24.4677 H   0  0  0  0  0  0  0  0  0  0  0  0
   12.8003   14.1686   23.1049 H   0  0  0  0  0  0  0  0  0  0  0  0
   12.6335   13.2978   21.5635 H   0  0  0  0  0  0  0  0  0  0  0  0
   13.8091   14.6185   21.7412 H   0  0  0  0  0  0  0  0  0  0  0  0
   11.0017   16.1717   19.7274 H   0  0  0  0  0  0  0  0  0  0  0  0
   11.5031   14.4983   19.5621 H   0  0  0  0  0  0  0  0  0  0  0  0
   12.7339   15.7752   19.6830 H   0  0  0  0  0  0  0  0  0  0  0  0
   11.2157   17.3718   21.9284 H   0  0  0  0  0  0  0  0  0  0  0  0
   11.9325   16.5614   23.3380 H   0  0  0  0  0  0  0  0  0  0  0  0
   12.9436   17.0664   21.9650 H   0  0  0  0  0  0  0  0  0  0  0  0
    9.6693   12.5944   21.7798 H   0  0  0  0  0  0  0  0  0  0  0  0
    6.6150   14.8112   25.6569 H   0  0  0  0  0  0  0  0  0  0  0  0
  1  2  1  0  0  0  0
  1  5  2  0  0  0  0
  2  6  2  0  0  0  0
  3  4  2  0  0  0  0
  3  6  1  0  0  0  0
  4  5  1  0  0  0  0
  4 10  1  0  0  0  0
  5 17  1  0  0  0  0
  6 18  1  0  0  0  0
  7 15  1  0  0  0  0
  7 16  2  0  0  0  0
  7 19  1  0  0  0  0
  8  9  1  0  0  0  0
  8 10  1  0  0  0  0
  9 17  1  0  0  0  0
 10 15  1  6  0  0  0
 11 14  1  0  0  0  0
 12 14  1  0  0  0  0
 13 14  1  0  0  0  0
 14 19  1  0  0  0  0
  1 20  1  0  0  0  0
  2 21  1  0  0  0  0
  3 22  1  0  0  0  0
  8 23  1  0  0  0  0
  8 24  1  0  0  0  0
  9 25  1  0  0  0  0
  9 26  1  0  0  0  0
 10 27  1  0  0  0  0
 11 28  1  0  0  0  0
 11 29  1  0  0  0  0
 11 30  1  0  0  0  0
 12 31  1  0  0  0  0
 12 32  1  0  0  0  0
 12 33  1  0  0  0  0
 13 34  1  0  0  0  0
 13 35  1  0  0  0  0
 13 36  1  0  0  0  0
 15 37  1  0  0  0  0
 18 38  1  0  0  0  0
M  END
> <id>
EN300-27718418

> <smiles>
CC(C)(C)OC(=O)N[C@@H]1CCOC=2C=CC(O)=CC12

> <IUPAC Name>
tert-butyl N-[(4R)-6-hydroxy-3,4-dihydro-2H-1-benzopyran-4-yl]carbamate

> <CAS>
2580094-85-3

> <URL>
https://www.enaminestore.com/catalog/EN300-27718418

> <ROCS_ShapeQuery>
A71EV2A-x0451_0A_A71EV2A-x0310_0A_A71EV2A-x0416_0A_peptide

> <ROCS_TanimotoCombo>
0.508 

> <ROCS_ShapeTanimoto>
0.343 

> <ROCS_ColorTanimoto>
0.165 

> <ROCS_RefTversky>
0.298 

> <ROCS_RefColorTversky>
0.184 

> <ROCS_RefTverskyCombo>
0.483 

> <ROCS_FitTversky>
1.772 

> <ROCS_FitColorTversky>
0.612 

> <ROCS_FitTverskyCombo>
2.383 

> <ROCS_ColorScore>
-5.620

> <ROCS_Overlap>
2070.126

> <ROCS_Rank>
452                 

$$$$
untitled-dbase-105521_2
  -OEChem-11132313473D

 35 38  0     0  0  0  0  0  0999 V2000
    9.7406    8.9149   21.7907 C   0  0  0  0  0  0  0  0  0  0  0  0
   13.5413   14.7737   21.7442 C   0  0  0  0  0  0  0  0  0  0  0  0
   13.8244   13.7254   20.8741 C   0  0  0  0  0  0  0  0  0  0  0  0
   12.4830   14.6643   22.6463 C   0  0  0  0  0  0  0  0  0  0  0  0
   13.0484   12.5672   20.9066 C   0  0  0  0  0  0  0  0  0  0  0  0
    8.2557   12.9199   25.4902 C   0  0  0  0  0  0  0  0  0  0  0  0
   11.7028   13.4993   22.6790 C   0  0  0  0  0  0  0  0  0  0  0  0
   11.9832   12.4479   21.8093 C   0  0  0  0  0  0  0  0  0  0  0  0
    8.6999   12.0024   24.5469 C   0  0  0  0  0  0  0  0  0  0  0  0
    7.9570   10.8346   24.5422 C   0  0  0  0  0  0  0  0  0  0  0  0
    6.5874   11.5434   26.2094 C   0  0  0  0  0  0  0  0  0  0  0  0
    9.4294    9.9773   22.6959 C   0  0  0  0  0  0  0  0  0  0  0  0
   10.5717   13.3765   23.6402 C   0  0  0  0  0  0  0  0  0  0  0  0
    8.2851    9.7579   23.6119 C   0  0  0  0  0  0  0  0  0  0  0  0
   10.1413   11.1327   22.7216 C   0  0  0  0  0  0  0  0  0  0  0  0
    5.9293   11.3613   28.9090 C   0  0  0  0  0  0  0  0  0  0  0  0
    9.9930    8.0529   21.0565 N   0  0  0  0  0  0  0  0  0  0  0  0
    7.2096   12.7237   26.3315 N   0  0  0  0  0  0  0  0  0  0  0  0
    6.9033   10.5673   25.3489 N   0  0  0  0  0  0  0  0  0  0  0  0
   11.2056   11.2962   21.8460 N   0  0  0  0  0  0  0  0  0  0  0  0
    9.8065   12.1714   23.6346 N   0  0  0  0  0  0  0  0  0  0  0  0
   10.3967   14.3506   24.3694 O   0  0  0  0  0  0  0  0  0  0  0  0
    7.6280    8.7234   23.6059 O   0  0  0  0  0  0  0  0  0  0  0  0
    4.2916   12.3468   27.1141 O   0  0  0  0  0  0  0  0  0  0  0  0
    4.7848    9.8765   27.0981 O   0  0  0  0  0  0  0  0  0  0  0  0
    5.2528   11.2538   27.2615 S   0  0  0  0  0  0  0  0  0  0  0  0
   14.1443   15.6768   21.7221 H   0  0  0  0  0  0  0  0  0  0  0  0
   14.6481   13.8080   20.1713 H   0  0  0  0  0  0  0  0  0  0  0  0
   12.2854   15.4981   23.3146 H   0  0  0  0  0  0  0  0  0  0  0  0
   13.2809   11.7551   20.2218 H   0  0  0  0  0  0  0  0  0  0  0  0
    8.7047   13.8897   25.6491 H   0  0  0  0  0  0  0  0  0  0  0  0
    5.1242   11.1851   29.6240 H   0  0  0  0  0  0  0  0  0  0  0  0
    6.7057   10.6018   29.0126 H   0  0  0  0  0  0  0  0  0  0  0  0
    6.3494   12.3590   29.0442 H   0  0  0  0  0  0  0  0  0  0  0  0
   11.4331   10.5498   21.2018 H   0  0  0  0  0  0  0  0  0  0  0  0
  1 12  1  0  0  0  0
  1 17  3  0  0  0  0
  2  3  2  0  0  0  0
  2  4  1  0  0  0  0
  3  5  1  0  0  0  0
  4  7  2  0  0  0  0
  5  8  2  0  0  0  0
  6  9  2  0  0  0  0
  6 18  1  0  0  0  0
  7  8  1  0  0  0  0
  7 13  1  0  0  0  0
  8 20  1  0  0  0  0
  9 10  1  0  0  0  0
  9 21  1  0  0  0  0
 10 14  1  0  0  0  0
 10 19  2  0  0  0  0
 11 18  2  0  0  0  0
 11 19  1  0  0  0  0
 11 26  1  0  0  0  0
 12 14  1  0  0  0  0
 12 15  2  0  0  0  0
 13 21  1  0  0  0  0
 13 22  2  0  0  0  0
 14 23  2  0  0  0  0
 15 20  1  0  0  0  0
 15 21  1  0  0  0  0
 16 26  1  0  0  0  0
 24 26  2  0  0  0  0
 25 26  2  0  0  0  0
  2 27  1  0  0  0  0
  3 28  1  0  0  0  0
  4 29  1  0  0  0  0
  5 30  1  0  0  0  0
  6 31  1  0  0  0  0
 16 32  1  0  0  0  0
 16 33  1  0  0  0  0
 16 34  1  0  0  0  0
 20 35  1  0  0  0  0
M  END
> <id>
EN300-26611851

> <smiles>
CS(=O)(=O)C=1N=CC2=C(N1)C(=O)C(C#N)=C3NC=4C=CC=CC4C(=O)N23

> <IUPAC Name>
2-methanesulfonyl-6,13-dioxo-11,13-dihydro-6H-1,3,5a,11-tetraazatetraphene-12-carbonitrile

> <CAS>
301325-40-6

> <URL>
https://www.enaminestore.com/catalog/EN300-26611851

> <ROCS_ShapeQuery>
A71EV2A-x0451_0A_A71EV2A-x0310_0A_A71EV2A-x0416_0A_peptide

> <ROCS_TanimotoCombo>
0.508 

> <ROCS_ShapeTanimoto>
0.354 

> <ROCS_ColorTanimoto>
0.154 

> <ROCS_RefTversky>
0.319 

> <ROCS_RefColorTversky>
0.190 

> <ROCS_RefTverskyCombo>
0.508 

> <ROCS_FitTversky>
1.460 

> <ROCS_FitColorTversky>
0.448 

> <ROCS_FitTverskyCombo>
1.907 

> <ROCS_ColorScore>
-5.826

> <ROCS_Overlap>
2215.882

> <ROCS_Rank>
453                 

$$$$
untitled-dbase-104093_11
  -OEChem-11132313473D

 35 36  0     0  0  0  0  0  0999 V2000
    5.5035   11.6722   26.4524 C   0  0  0  0  0  0  0  0  0  0  0  0
    5.4390   10.2880   26.3528 C   0  0  0  0  0  0  0  0  0  0  0  0
    6.4945   12.3652   25.7631 C   0  0  0  0  0  0  0  0  0  0  0  0
    6.3651    9.6001   25.5646 C   0  0  0  0  0  0  0  0  0  0  0  0
    8.4336   12.3456   24.2660 C   0  0  0  0  0  0  0  0  0  0  0  0
    7.4258   11.6731   24.9704 C   0  0  0  0  0  0  0  0  0  0  0  0
    7.3662   10.2677   24.8645 C   0  0  0  0  0  0  0  0  0  0  0  0
    9.3380   11.6335   23.4916 C   0  0  0  0  0  0  0  0  0  0  0  0
    9.2002   10.2609   23.4496 C   0  0  0  0  0  0  0  0  0  0  0  0
   10.9582   13.5194   23.1322 C   0  0  0  0  0  0  0  0  0  0  0  0
   11.7121   16.2086   22.5165 C   0  0  0  0  0  0  0  0  0  0  0  0
   12.8033   15.2390   20.4724 C   0  0  0  0  0  0  0  0  0  0  0  0
   10.3196   15.0306   20.7821 C   0  0  0  0  0  0  0  0  0  0  0  0
   11.6740   15.0793   21.4879 C   0  0  0  0  0  0  0  0  0  0  0  0
    8.2426    9.5739   24.1138 N   0  0  0  0  0  0  0  0  0  0  0  0
   10.3343   12.3213   22.7959 N   0  0  0  0  0  0  0  0  0  0  0  0
   10.7477   14.2118   24.1206 O   0  0  0  0  0  0  0  0  0  0  0  0
   11.8784   13.8357   22.1686 O   0  0  0  0  0  0  0  0  0  0  0  0
   10.3119    9.2458   22.4813 S   0  0  0  0  0  0  0  0  0  0  0  0
    4.7862   12.2098   27.0651 H   0  0  0  0  0  0  0  0  0  0  0  0
    4.6696    9.7387   26.8873 H   0  0  0  0  0  0  0  0  0  0  0  0
    6.5358   13.4489   25.8485 H   0  0  0  0  0  0  0  0  0  0  0  0
    6.2941    8.5156   25.5046 H   0  0  0  0  0  0  0  0  0  0  0  0
    8.5068   13.4303   24.3242 H   0  0  0  0  0  0  0  0  0  0  0  0
   10.9030   16.0976   23.2472 H   0  0  0  0  0  0  0  0  0  0  0  0
   12.6655   16.2324   23.0542 H   0  0  0  0  0  0  0  0  0  0  0  0
   11.5621   17.1816   22.0347 H   0  0  0  0  0  0  0  0  0  0  0  0
   12.7798   14.4308   19.7324 H   0  0  0  0  0  0  0  0  0  0  0  0
   13.7812   15.1793   20.9636 H   0  0  0  0  0  0  0  0  0  0  0  0
   12.7388   16.1953   19.9434 H   0  0  0  0  0  0  0  0  0  0  0  0
   10.2920   14.2206   20.0443 H   0  0  0  0  0  0  0  0  0  0  0  0
    9.5000   14.8794   21.4921 H   0  0  0  0  0  0  0  0  0  0  0  0
   10.1347   15.9588   20.2294 H   0  0  0  0  0  0  0  0  0  0  0  0
   10.6476   11.8868   21.9223 H   0  0  0  0  0  0  0  0  0  0  0  0
    9.7567    8.0632   22.7822 H   0  0  0  0  0  0  0  0  0  0  0  0
  1  2  2  0  0  0  0
  1  3  1  0  0  0  0
  2  4  1  0  0  0  0
  3  6  2  0  0  0  0
  4  7  2  0  0  0  0
  5  6  1  0  0  0  0
  5  8  2  0  0  0  0
  6  7  1  0  0  0  0
  7 15  1  0  0  0  0
  8  9  1  0  0  0  0
  8 16  1  0  0  0  0
  9 15  2  0  0  0  0
  9 19  1  0  0  0  0
 10 16  1  0  0  0  0
 10 17  2  0  0  0  0
 10 18  1  0  0  0  0
 11 14  1  0  0  0  0
 12 14  1  0  0  0  0
 13 14  1  0  0  0  0
 14 18  1  0  0  0  0
  1 20  1  0  0  0  0
  2 21  1  0  0  0  0
  3 22  1  0  0  0  0
  4 23  1  0  0  0  0
  5 24  1  0  0  0  0
 11 25  1  0  0  0  0
 11 26  1  0  0  0  0
 11 27  1  0  0  0  0
 12 28  1  0  0  0  0
 12 29  1  0  0  0  0
 12 30  1  0  0  0  0
 13 31  1  0  0  0  0
 13 32  1  0  0  0  0
 13 33  1  0  0  0  0
 16 34  1  0  0  0  0
 19 35  1  0  0  0  0
M  END
> <id>
EN300-26666394

> <smiles>
CC(C)(C)OC(=O)NC=1C=C2C=CC=CC2=NC1S

> <IUPAC Name>
tert-butyl N-(2-sulfanylquinolin-3-yl)carbamate

> <CAS>
2413900-82-8

> <URL>
https://www.enaminestore.com/catalog/EN300-26666394

> <ROCS_ShapeQuery>
A71EV2A-x0451_0A_A71EV2A-x0310_0A_A71EV2A-x0416_0A_peptide

> <ROCS_TanimotoCombo>
0.508 

> <ROCS_ShapeTanimoto>
0.346 

> <ROCS_ColorTanimoto>
0.162 

> <ROCS_RefTversky>
0.301 

> <ROCS_RefColorTversky>
0.177 

> <ROCS_RefTverskyCombo>
0.477 

> <ROCS_FitTversky>
1.779 

> <ROCS_FitColorTversky>
0.654 

> <ROCS_FitTverskyCombo>
2.433 

> <ROCS_ColorScore>
-5.386

> <ROCS_Overlap>
2085.349

> <ROCS_Rank>
454                 

$$$$
untitled-dbase-161427_32
  -OEChem-11132313473D

 35 36  0     0  0  0  0  0  0999 V2000
    4.9143   12.5359   27.3095 C   0  0  0  0  0  0  0  0  0  0  0  0
    7.1805    9.9760   24.9571 C   0  0  0  0  0  0  0  0  0  0  0  0
    6.5657   10.7808   25.9184 C   0  0  0  0  0  0  0  0  0  0  0  0
    9.0448    9.9535   23.1566 C   0  0  0  0  0  0  0  0  0  0  0  0
    8.0354   12.6283   25.3594 C   0  0  0  0  0  0  0  0  0  0  0  0
    9.9257   10.9280   22.7593 C   0  0  0  0  0  0  0  0  0  0  0  0
    8.2376   10.4981   24.1827 C   0  0  0  0  0  0  0  0  0  0  0  0
    6.9894   12.0889   26.1152 C   0  0  0  0  0  0  0  0  0  0  0  0
    8.6571   11.8195   24.3887 C   0  0  0  0  0  0  0  0  0  0  0  0
   10.4163   13.2824   23.3712 C   0  0  0  0  0  0  0  0  0  0  0  0
   12.8267   14.6388   22.7372 C   0  0  0  0  0  0  0  0  0  0  0  0
   11.9930   14.6223   20.3678 C   0  0  0  0  0  0  0  0  0  0  0  0
   10.6921   15.8324   22.1430 C   0  0  0  0  0  0  0  0  0  0  0  0
    6.3203   12.9341   27.1487 C   0  0  0  0  0  0  0  0  0  0  0  0
   11.5894   14.6332   21.8406 C   0  0  0  0  0  0  0  0  0  0  0  0
    3.8040   12.2239   27.4371 N   0  0  0  0  0  0  0  0  0  0  0  0
    9.7059   12.0769   23.4993 N   0  0  0  0  0  0  0  0  0  0  0  0
   10.5789   14.0326   24.3194 O   0  0  0  0  0  0  0  0  0  0  0  0
   10.8493   13.4351   22.0936 O   0  0  0  0  0  0  0  0  0  0  0  0
    6.8422    8.9538   24.8112 H   0  0  0  0  0  0  0  0  0  0  0  0
    5.7518   10.3702   26.5108 H   0  0  0  0  0  0  0  0  0  0  0  0
    8.9915    8.9540   22.7471 H   0  0  0  0  0  0  0  0  0  0  0  0
    8.3499   13.6522   25.5316 H   0  0  0  0  0  0  0  0  0  0  0  0
   10.6963   10.8870   22.0009 H   0  0  0  0  0  0  0  0  0  0  0  0
   12.5412   14.6466   23.7952 H   0  0  0  0  0  0  0  0  0  0  0  0
   13.4611   13.7652   22.5546 H   0  0  0  0  0  0  0  0  0  0  0  0
   13.4253   15.5418   22.5719 H   0  0  0  0  0  0  0  0  0  0  0  0
   11.1083   14.6183   19.7209 H   0  0  0  0  0  0  0  0  0  0  0  0
   12.5575   13.7149   20.1245 H   0  0  0  0  0  0  0  0  0  0  0  0
   12.6067   15.4917   20.1106 H   0  0  0  0  0  0  0  0  0  0  0  0
    9.8045   15.8287   21.5000 H   0  0  0  0  0  0  0  0  0  0  0  0
   10.3625   15.8364   23.1870 H   0  0  0  0  0  0  0  0  0  0  0  0
   11.2170   16.7729   21.9400 H   0  0  0  0  0  0  0  0  0  0  0  0
    6.3741   13.9947   26.8703 H   0  0  0  0  0  0  0  0  0  0  0  0
    6.8411   12.8476   28.1113 H   0  0  0  0  0  0  0  0  0  0  0  0
  1 14  1  0  0  0  0
  1 16  3  0  0  0  0
  2  3  1  0  0  0  0
  2  7  2  0  0  0  0
  3  8  2  0  0  0  0
  4  6  2  0  0  0  0
  4  7  1  0  0  0  0
  5  8  1  0  0  0  0
  5  9  2  0  0  0  0
  6 17  1  0  0  0  0
  7  9  1  0  0  0  0
  8 14  1  0  0  0  0
  9 17  1  0  0  0  0
 10 17  1  0  0  0  0
 10 18  2  0  0  0  0
 10 19  1  0  0  0  0
 11 15  1  0  0  0  0
 12 15  1  0  0  0  0
 13 15  1  0  0  0  0
 15 19  1  0  0  0  0
  2 20  1  0  0  0  0
  3 21  1  0  0  0  0
  4 22  1  0  0  0  0
  5 23  1  0  0  0  0
  6 24  1  0  0  0  0
 11 25  1  0  0  0  0
 11 26  1  0  0  0  0
 11 27  1  0  0  0  0
 12 28  1  0  0  0  0
 12 29  1  0  0  0  0
 12 30  1  0  0  0  0
 13 31  1  0  0  0  0
 13 32  1  0  0  0  0
 13 33  1  0  0  0  0
 14 34  1  0  0  0  0
 14 35  1  0  0  0  0
M  END
> <id>
EN300-319171

> <smiles>
CC(C)(C)OC(=O)N1C=CC=2C=CC(CC#N)=CC12

> <MDLNUMBER>
MFCD30477014

> <IUPAC Name>
tert-butyl 6-(cyanomethyl)-1H-indole-1-carboxylate

> <CAS>
2060048-93-1

> <URL>
https://www.enaminestore.com/catalog/EN300-319171

> <ROCS_ShapeQuery>
A71EV2A-x0451_0A_A71EV2A-x0310_0A_A71EV2A-x0416_0A_peptide

> <ROCS_TanimotoCombo>
0.508 

> <ROCS_ShapeTanimoto>
0.341 

> <ROCS_ColorTanimoto>
0.166 

> <ROCS_RefTversky>
0.298 

> <ROCS_RefColorTversky>
0.172 

> <ROCS_RefTverskyCombo>
0.470 

> <ROCS_FitTversky>
1.753 

> <ROCS_FitColorTversky>
0.825 

> <ROCS_FitTverskyCombo>
2.578 

> <ROCS_ColorScore>
-5.238

> <ROCS_Overlap>
2065.792

> <ROCS_Rank>
455                 

$$$$
untitled-dbase-38546_71
  -OEChem-11132313473D

 49 52  0     1  0  0  0  0  0999 V2000
    4.1330   12.3881   28.2069 C   0  0  0  0  0  0  0  0  0  0  0  0
    5.0761   11.8796   29.0719 C   0  0  0  0  0  0  0  0  0  0  0  0
    4.6771   12.6454   26.9149 C   0  0  0  0  0  0  0  0  0  0  0  0
    6.0179   12.3096   26.8394 C   0  0  0  0  0  0  0  0  0  0  0  0
   10.1770   13.2091   23.5064 C   0  0  0  0  0  0  0  0  0  0  0  0
    3.9498   13.1956   25.7312 C   0  0  0  0  0  0  0  0  0  0  0  0
    8.9368    9.8704   24.2769 C   0  0  0  0  0  0  0  0  0  0  0  0
    4.9365   13.7468   24.6922 C   0  0  0  0  0  0  0  0  0  0  0  0
    8.2208   11.7532   22.8528 C   0  0  0  0  0  0  0  0  0  0  0  0
    7.6655   10.6494   23.7642 C   0  0  2  0  0  0  0  0  0  0  0  0
    7.6484   11.2035   25.2526 C   0  0  1  0  0  0  0  0  0  0  0  0
    9.1952   11.2857   24.9209 C   0  0  2  0  0  0  0  0  0  0  0  0
    6.8747   12.4914   25.5950 C   0  0  2  0  0  0  0  0  0  0  0  0
    7.8775   13.6434   25.7885 C   0  0  0  0  0  0  0  0  0  0  0  0
   12.7617   12.9005   22.3305 C   0  0  0  0  0  0  0  0  0  0  0  0
   11.7587   13.9723   20.2923 C   0  0  0  0  0  0  0  0  0  0  0  0
   11.8780   15.2541   22.4489 C   0  0  0  0  0  0  0  0  0  0  0  0
   11.7033   13.8747   21.8153 C   0  0  0  0  0  0  0  0  0  0  0  0
    6.0203   12.7921   24.4102 N   0  0  0  0  0  0  0  0  0  0  0  0
    9.2948   12.1811   23.7475 N   0  0  0  0  0  0  0  0  0  0  0  0
   10.6924   13.8961   24.3846 O   0  0  0  0  0  0  0  0  0  0  0  0
   10.4102   13.3713   22.1685 O   0  0  0  0  0  0  0  0  0  0  0  0
    6.6086   11.7165   28.3294 S   0  0  0  0  0  0  0  0  0  0  0  0
    3.1039   12.5678   28.4903 H   0  0  0  0  0  0  0  0  0  0  0  0
    4.9381   11.5993   30.1067 H   0  0  0  0  0  0  0  0  0  0  0  0
    3.3485   12.3946   25.2832 H   0  0  0  0  0  0  0  0  0  0  0  0
    3.2626   13.9908   26.0414 H   0  0  0  0  0  0  0  0  0  0  0  0
    8.7598    9.0397   24.9695 H   0  0  0  0  0  0  0  0  0  0  0  0
    9.6492    9.5438   23.5128 H   0  0  0  0  0  0  0  0  0  0  0  0
    4.3985   13.9556   23.7606 H   0  0  0  0  0  0  0  0  0  0  0  0
    5.3521   14.7045   25.0265 H   0  0  0  0  0  0  0  0  0  0  0  0
    8.6405   11.3788   21.9151 H   0  0  0  0  0  0  0  0  0  0  0  0
    7.5233   12.5743   22.6699 H   0  0  0  0  0  0  0  0  0  0  0  0
    6.8129   10.0649   23.4198 H   0  0  0  0  0  0  0  0  0  0  0  0
    7.3903   10.4437   26.0067 H   0  0  0  0  0  0  0  0  0  0  0  0
    9.9222   11.3856   25.7238 H   0  0  0  0  0  0  0  0  0  0  0  0
    8.4693   13.7458   24.8883 H   0  0  0  0  0  0  0  0  0  0  0  0
    8.5171   13.4116   26.6300 H   0  0  0  0  0  0  0  0  0  0  0  0
    7.3281   14.5561   25.9787 H   0  0  0  0  0  0  0  0  0  0  0  0
   12.7252   12.8276   23.4233 H   0  0  0  0  0  0  0  0  0  0  0  0
   12.6262   11.8985   21.9104 H   0  0  0  0  0  0  0  0  0  0  0  0
   13.7697   13.2485   22.0774 H   0  0  0  0  0  0  0  0  0  0  0  0
   11.0009   14.6703   19.9182 H   0  0  0  0  0  0  0  0  0  0  0  0
   11.5397   13.0026   19.8308 H   0  0  0  0  0  0  0  0  0  0  0  0
   12.7410   14.3079   19.9444 H   0  0  0  0  0  0  0  0  0  0  0  0
   11.1189   15.9531   22.0795 H   0  0  0  0  0  0  0  0  0  0  0  0
   11.8042   15.2089   23.5403 H   0  0  0  0  0  0  0  0  0  0  0  0
   12.8502   15.6847   22.1831 H   0  0  0  0  0  0  0  0  0  0  0  0
    5.5916   11.9230   24.0962 H   0  0  0  0  0  0  0  0  0  0  0  0
  1  2  2  0  0  0  0
  1  3  1  0  0  0  0
  2 23  1  0  0  0  0
  3  4  2  0  0  0  0
  3  6  1  0  0  0  0
  4 13  1  0  0  0  0
  4 23  1  0  0  0  0
  5 20  1  0  0  0  0
  5 21  2  0  0  0  0
  5 22  1  0  0  0  0
  6  8  1  0  0  0  0
  7 10  1  0  0  0  0
  7 12  1  0  0  0  0
  8 19  1  0  0  0  0
  9 10  1  0  0  0  0
  9 20  1  0  0  0  0
 10 11  1  0  0  0  0
 11 12  1  0  0  0  0
 11 13  1  0  0  0  0
 12 20  1  0  0  0  0
 13 14  1  0  0  0  0
 13 19  1  0  0  0  0
 15 18  1  0  0  0  0
 16 18  1  0  0  0  0
 17 18  1  0  0  0  0
 18 22  1  0  0  0  0
  1 24  1  0  0  0  0
  2 25  1  0  0  0  0
  6 26  1  0  0  0  0
  6 27  1  0  0  0  0
  7 28  1  0  0  0  0
  7 29  1  0  0  0  0
  8 30  1  0  0  0  0
  8 31  1  0  0  0  0
  9 32  1  0  0  0  0
  9 33  1  0  0  0  0
 10 34  1  0  0  0  0
 11 35  1  0  0  0  0
 12 36  1  0  0  0  0
 14 37  1  0  0  0  0
 14 38  1  0  0  0  0
 14 39  1  0  0  0  0
 15 40  1  0  0  0  0
 15 41  1  0  0  0  0
 15 42  1  0  0  0  0
 16 43  1  0  0  0  0
 16 44  1  0  0  0  0
 16 45  1  0  0  0  0
 17 46  1  0  0  0  0
 17 47  1  0  0  0  0
 17 48  1  0  0  0  0
 19 49  1  0  0  0  0
M  END
> <id>
EN300-1075784

> <smiles>
CC(C)(C)OC(=O)N1CC2CC1C2C3(C)NCCC=4C=CSC43

> <IUPAC Name>
tert-butyl 5-{7-methyl-4H,5H,6H,7H-thieno[2,3-c]pyridin-7-yl}-2-azabicyclo[2.1.1]hexane-2-carboxylate

> <CAS>
2137687-07-9

> <URL>
https://www.enaminestore.com/catalog/EN300-1075784

> <ROCS_ShapeQuery>
A71EV2A-x0451_0A_A71EV2A-x0310_0A_A71EV2A-x0416_0A_peptide

> <ROCS_TanimotoCombo>
0.508 

> <ROCS_ShapeTanimoto>
0.315 

> <ROCS_ColorTanimoto>
0.192 

> <ROCS_RefTversky>
0.286 

> <ROCS_RefColorTversky>
0.233 

> <ROCS_RefTverskyCombo>
0.519 

> <ROCS_FitTversky>
1.475 

> <ROCS_FitColorTversky>
0.523 

> <ROCS_FitTverskyCombo>
1.998 

> <ROCS_ColorScore>
-7.173

> <ROCS_Overlap>
1988.975

> <ROCS_Rank>
456                 

$$$$
untitled-dbase-158124_117
  -OEChem-11132313473D

 46 47  0     1  0  0  0  0  0999 V2000
    5.6545   13.2175   26.0866 C   0  0  0  0  0  0  0  0  0  0  0  0
   10.0216   13.5003   23.4330 C   0  0  0  0  0  0  0  0  0  0  0  0
    7.6321   11.7585   26.3310 C   0  0  0  0  0  0  0  0  0  0  0  0
    6.2842   11.7923   24.1572 C   0  0  0  0  0  0  0  0  0  0  0  0
    9.7855   11.5737   24.9648 C   0  0  0  0  0  0  0  0  0  0  0  0
    8.4645   11.6128   22.8320 C   0  0  0  0  0  0  0  0  0  0  0  0
    6.8075   12.6036   25.3502 C   0  0  0  0  0  0  0  0  0  0  0  0
    8.6356   10.8120   25.6476 C   0  0  2  0  0  0  0  0  0  0  0  0
    7.3309   10.8473   23.5393 C   0  0  1  0  0  0  0  0  0  0  0  0
    7.8970    9.9370   24.6323 C   0  0  0  0  0  0  0  0  0  0  0  0
   12.4695   13.7257   21.9678 C   0  0  0  0  0  0  0  0  0  0  0  0
   11.0505   14.6101   20.0933 C   0  0  0  0  0  0  0  0  0  0  0  0
   11.1672   15.8582   22.2698 C   0  0  0  0  0  0  0  0  0  0  0  0
    3.7001   12.6804   27.3013 C   0  0  0  0  0  0  0  0  0  0  0  0
   11.1907   14.4809   21.6085 C   0  0  0  0  0  0  0  0  0  0  0  0
    9.3794   12.2967   23.7567 N   0  0  0  0  0  0  0  0  0  0  0  0
    5.4886   14.4227   26.2172 O   0  0  0  0  0  0  0  0  0  0  0  0
   10.4973   14.2755   24.2608 O   0  0  0  0  0  0  0  0  0  0  0  0
    8.7903    8.9763   24.0796 O   0  0  0  0  0  0  0  0  0  0  0  0
    4.8468   12.2321   26.5718 O   0  0  0  0  0  0  0  0  0  0  0  0
   10.0684   13.7281   22.0830 O   0  0  0  0  0  0  0  0  0  0  0  0
    8.1580   12.4192   27.0322 H   0  0  0  0  0  0  0  0  0  0  0  0
    6.9538   11.1526   26.9479 H   0  0  0  0  0  0  0  0  0  0  0  0
    5.4234   11.1878   24.4753 H   0  0  0  0  0  0  0  0  0  0  0  0
    5.8975   12.4762   23.3908 H   0  0  0  0  0  0  0  0  0  0  0  0
   10.2532   12.2641   25.6758 H   0  0  0  0  0  0  0  0  0  0  0  0
   10.5673   10.8701   24.6530 H   0  0  0  0  0  0  0  0  0  0  0  0
    9.0814   10.9160   22.2514 H   0  0  0  0  0  0  0  0  0  0  0  0
    8.0368   12.3233   22.1174 H   0  0  0  0  0  0  0  0  0  0  0  0
    7.4155   13.4395   24.9875 H   0  0  0  0  0  0  0  0  0  0  0  0
    9.0857   10.1690   26.4150 H   0  0  0  0  0  0  0  0  0  0  0  0
    6.8349   10.2306   22.7786 H   0  0  0  0  0  0  0  0  0  0  0  0
    7.0913    9.3819   25.1278 H   0  0  0  0  0  0  0  0  0  0  0  0
   12.5738   13.6308   23.0546 H   0  0  0  0  0  0  0  0  0  0  0  0
   12.4828   12.7230   21.5283 H   0  0  0  0  0  0  0  0  0  0  0  0
   13.3553   14.2685   21.6185 H   0  0  0  0  0  0  0  0  0  0  0  0
   10.1343   15.1513   19.8310 H   0  0  0  0  0  0  0  0  0  0  0  0
   10.9715   13.6233   19.6231 H   0  0  0  0  0  0  0  0  0  0  0  0
   11.9028   15.1371   19.6523 H   0  0  0  0  0  0  0  0  0  0  0  0
   10.2500   16.4001   22.0123 H   0  0  0  0  0  0  0  0  0  0  0  0
   11.2296   15.7832   23.3603 H   0  0  0  0  0  0  0  0  0  0  0  0
   12.0008   16.4750   21.9149 H   0  0  0  0  0  0  0  0  0  0  0  0
    3.1245   11.8169   27.6435 H   0  0  0  0  0  0  0  0  0  0  0  0
    3.0821   13.3120   26.6582 H   0  0  0  0  0  0  0  0  0  0  0  0
    4.0329   13.2594   28.1660 H   0  0  0  0  0  0  0  0  0  0  0  0
    8.2762    8.4507   23.4466 H   0  0  0  0  0  0  0  0  0  0  0  0
  1  7  1  0  0  0  0
  1 17  2  0  0  0  0
  1 20  1  0  0  0  0
  2 16  1  0  0  0  0
  2 18  2  0  0  0  0
  2 21  1  0  0  0  0
  3  7  1  0  0  0  0
  3  8  1  0  0  0  0
  4  7  1  0  0  0  0
  4  9  1  0  0  0  0
  5  8  1  0  0  0  0
  5 16  1  0  0  0  0
  6  9  1  0  0  0  0
  6 16  1  0  0  0  0
  8 10  1  0  0  0  0
  9 10  1  0  0  0  0
 10 19  1  0  0  0  0
 11 15  1  0  0  0  0
 12 15  1  0  0  0  0
 13 15  1  0  0  0  0
 14 20  1  0  0  0  0
 15 21  1  0  0  0  0
  3 22  1  0  0  0  0
  3 23  1  0  0  0  0
  4 24  1  0  0  0  0
  4 25  1  0  0  0  0
  5 26  1  0  0  0  0
  5 27  1  0  0  0  0
  6 28  1  0  0  0  0
  6 29  1  0  0  0  0
  7 30  1  0  0  0  0
  8 31  1  0  0  0  0
  9 32  1  0  0  0  0
 10 33  1  0  0  0  0
 11 34  1  0  0  0  0
 11 35  1  0  0  0  0
 11 36  1  0  0  0  0
 12 37  1  0  0  0  0
 12 38  1  0  0  0  0
 12 39  1  0  0  0  0
 13 40  1  0  0  0  0
 13 41  1  0  0  0  0
 13 42  1  0  0  0  0
 14 43  1  0  0  0  0
 14 44  1  0  0  0  0
 14 45  1  0  0  0  0
 19 46  1  0  0  0  0
M  END
> <id>
EN300-26665755

> <smiles>
COC(=O)C1CC2CN(CC(C1)C2O)C(=O)OC(C)(C)C

> <IUPAC Name>
3-tert-butyl 7-methyl 9-hydroxy-3-azabicyclo[3.3.1]nonane-3,7-dicarboxylate

> <CAS>
2113294-56-5

> <URL>
https://www.enaminestore.com/catalog/EN300-26665755

> <ROCS_ShapeQuery>
A71EV2A-x0451_0A_A71EV2A-x0310_0A_A71EV2A-x0416_0A_peptide

> <ROCS_TanimotoCombo>
0.508 

> <ROCS_ShapeTanimoto>
0.304 

> <ROCS_ColorTanimoto>
0.204 

> <ROCS_RefTversky>
0.275 

> <ROCS_RefColorTversky>
0.217 

> <ROCS_RefTverskyCombo>
0.491 

> <ROCS_FitTversky>
1.537 

> <ROCS_FitColorTversky>
0.774 

> <ROCS_FitTverskyCombo>
2.312 

> <ROCS_ColorScore>
-6.608

> <ROCS_Overlap>
1906.184

> <ROCS_Rank>
457                 

$$$$
untitled-dbase-180008_173
  -OEChem-11132313473D

 49 51  0     1  0  0  0  0  0999 V2000
    7.9759   13.7416   23.7184 C   0  0  0  0  0  0  0  0  0  0  0  0
    7.0766   11.8690   25.5690 C   0  0  0  0  0  0  0  0  0  0  0  0
    8.4778   12.4308   23.6597 C   0  0  0  0  0  0  0  0  0  0  0  0
    7.9898   11.4901   24.5789 C   0  0  0  0  0  0  0  0  0  0  0  0
    7.0555   14.1146   24.7000 C   0  0  0  0  0  0  0  0  0  0  0  0
    6.6121   13.1803   25.6302 C   0  0  0  0  0  0  0  0  0  0  0  0
   11.0303   13.8295   23.3608 C   0  0  0  0  0  0  0  0  0  0  0  0
    8.0166    9.2987   22.3369 C   0  0  0  0  0  0  0  0  0  0  0  0
    9.7552    8.3688   23.8846 C   0  0  0  0  0  0  0  0  0  0  0  0
   10.0998   10.6724   22.9588 C   0  0  0  0  0  0  0  0  0  0  0  0
    7.0947    8.1548   22.7695 C   0  0  0  0  0  0  0  0  0  0  0  0
    8.7660    7.2611   24.2561 C   0  0  0  0  0  0  0  0  0  0  0  0
    9.4692   12.0201   22.5948 C   0  0  2  0  0  0  0  0  0  0  0  0
    9.0415    9.6638   23.4345 C   0  0  0  0  0  0  0  0  0  0  0  0
   11.6294   16.4481   24.3271 C   0  0  0  0  0  0  0  0  0  0  0  0
   13.0723   16.6709   22.2832 C   0  0  0  0  0  0  0  0  0  0  0  0
   10.5967   16.3274   22.0350 C   0  0  0  0  0  0  0  0  0  0  0  0
   11.8310   16.0089   22.8776 C   0  0  0  0  0  0  0  0  0  0  0  0
    7.8495    6.9626   23.1555 N   0  0  0  0  0  0  0  0  0  0  0  0
   10.5594   12.9770   22.3839 N   0  0  0  0  0  0  0  0  0  0  0  0
   10.6111   13.9012   24.5114 O   0  0  0  0  0  0  0  0  0  0  0  0
    8.3541   10.1694   24.5956 O   0  0  0  0  0  0  0  0  0  0  0  0
   12.0449   14.5931   22.8560 O   0  0  0  0  0  0  0  0  0  0  0  0
    6.5020   15.7531   24.7038 Cl  0  0  0  0  0  0  0  0  0  0  0  0
    5.4883   13.5830   26.8796 Cl  0  0  0  0  0  0  0  0  0  0  0  0
    8.3116   14.4720   22.9828 H   0  0  0  0  0  0  0  0  0  0  0  0
    6.7367   11.1297   26.2913 H   0  0  0  0  0  0  0  0  0  0  0  0
    8.5380    9.0091   21.4179 H   0  0  0  0  0  0  0  0  0  0  0  0
    7.3918   10.1673   22.1033 H   0  0  0  0  0  0  0  0  0  0  0  0
   10.3799    8.5529   24.7647 H   0  0  0  0  0  0  0  0  0  0  0  0
   10.4137    8.0118   23.0827 H   0  0  0  0  0  0  0  0  0  0  0  0
   10.5659   10.2803   22.0508 H   0  0  0  0  0  0  0  0  0  0  0  0
   10.8912   10.8013   23.6959 H   0  0  0  0  0  0  0  0  0  0  0  0
    6.4431    8.4748   23.5948 H   0  0  0  0  0  0  0  0  0  0  0  0
    6.4329    7.8960   21.9325 H   0  0  0  0  0  0  0  0  0  0  0  0
    9.3267    6.3520   24.5007 H   0  0  0  0  0  0  0  0  0  0  0  0
    8.2003    7.5359   25.1549 H   0  0  0  0  0  0  0  0  0  0  0  0
    8.9810   11.9118   21.6280 H   0  0  0  0  0  0  0  0  0  0  0  0
   10.7393   15.9751   24.7574 H   0  0  0  0  0  0  0  0  0  0  0  0
   12.4935   16.1939   24.9496 H   0  0  0  0  0  0  0  0  0  0  0  0
   11.4648   17.5300   24.3886 H   0  0  0  0  0  0  0  0  0  0  0  0
   13.2209   16.3586   21.2432 H   0  0  0  0  0  0  0  0  0  0  0  0
   13.9742   16.3691   22.8279 H   0  0  0  0  0  0  0  0  0  0  0  0
   13.0000   17.7629   22.3103 H   0  0  0  0  0  0  0  0  0  0  0  0
   10.7411   16.0124   20.9952 H   0  0  0  0  0  0  0  0  0  0  0  0
    9.7027   15.8306   22.4256 H   0  0  0  0  0  0  0  0  0  0  0  0
   10.4113   17.4073   22.0081 H   0  0  0  0  0  0  0  0  0  0  0  0
    7.2017    6.2334   23.4455 H   0  0  0  0  0  0  0  0  0  0  0  0
   10.9928   13.0145   21.4661 H   0  0  0  0  0  0  0  0  0  0  0  0
  1  3  2  0  0  0  0
  1  5  1  0  0  0  0
  2  4  2  0  0  0  0
  2  6  1  0  0  0  0
  3  4  1  0  0  0  0
  3 13  1  0  0  0  0
  4 22  1  0  0  0  0
  5  6  2  0  0  0  0
  5 24  1  0  0  0  0
  6 25  1  0  0  0  0
  7 20  1  0  0  0  0
  7 21  2  0  0  0  0
  7 23  1  0  0  0  0
  8 11  1  0  0  0  0
  8 14  1  0  0  0  0
  9 12  1  0  0  0  0
  9 14  1  0  0  0  0
 10 13  1  0  0  0  0
 10 14  1  0  0  0  0
 11 19  1  0  0  0  0
 12 19  1  0  0  0  0
 13 20  1  0  0  0  0
 14 22  1  0  0  0  0
 15 18  1  0  0  0  0
 16 18  1  0  0  0  0
 17 18  1  0  0  0  0
 18 23  1  0  0  0  0
  1 26  1  0  0  0  0
  2 27  1  0  0  0  0
  8 28  1  0  0  0  0
  8 29  1  0  0  0  0
  9 30  1  0  0  0  0
  9 31  1  0  0  0  0
 10 32  1  0  0  0  0
 10 33  1  0  0  0  0
 11 34  1  0  0  0  0
 11 35  1  0  0  0  0
 12 36  1  0  0  0  0
 12 37  1  0  0  0  0
 13 38  1  0  0  0  0
 15 39  1  0  0  0  0
 15 40  1  0  0  0  0
 15 41  1  0  0  0  0
 16 42  1  0  0  0  0
 16 43  1  0  0  0  0
 16 44  1  0  0  0  0
 17 45  1  0  0  0  0
 17 46  1  0  0  0  0
 17 47  1  0  0  0  0
 19 48  1  0  0  0  0
 20 49  1  0  0  0  0
M  END
> <id>
EN300-737686

> <smiles>
CC(C)(C)OC(=O)NC1CC2(CCNCC2)OC=3C=C(Cl)C(Cl)=CC13

> <IUPAC Name>
tert-butyl N-{6,7-dichloro-3,4-dihydrospiro[1-benzopyran-2,4'-piperidine]-4-yl}carbamate

> <CAS>
2137798-69-5

> <URL>
https://www.enaminestore.com/catalog/EN300-737686

> <ROCS_ShapeQuery>
A71EV2A-x0451_0A_A71EV2A-x0310_0A_A71EV2A-x0416_0A_peptide

> <ROCS_TanimotoCombo>
0.508 

> <ROCS_ShapeTanimoto>
0.344 

> <ROCS_ColorTanimoto>
0.164 

> <ROCS_RefTversky>
0.308 

> <ROCS_RefColorTversky>
0.187 

> <ROCS_RefTverskyCombo>
0.495 

> <ROCS_FitTversky>
1.516 

> <ROCS_FitColorTversky>
0.565 

> <ROCS_FitTverskyCombo>
2.081 

> <ROCS_ColorScore>
-5.730

> <ROCS_Overlap>
2139.084

> <ROCS_Rank>
458                 

$$$$
untitled-dbase-154383_51
  -OEChem-11132313473D

 31 33  0     0  0  0  0  0  0999 V2000
    6.8803   12.9069   26.1372 C   0  0  0  0  0  0  0  0  0  0  0  0
    6.2924   11.6615   26.3208 C   0  0  0  0  0  0  0  0  0  0  0  0
    7.9389   13.0658   25.2342 C   0  0  0  0  0  0  0  0  0  0  0  0
    6.7604   10.5714   25.5981 C   0  0  0  0  0  0  0  0  0  0  0  0
    8.4423   11.9788   24.5019 C   0  0  0  0  0  0  0  0  0  0  0  0
    7.8251   10.7286   24.7028 C   0  0  0  0  0  0  0  0  0  0  0  0
    6.1144    9.2791   25.7939 C   0  0  0  0  0  0  0  0  0  0  0  0
   10.2940   13.2674   23.4110 C   0  0  0  0  0  0  0  0  0  0  0  0
   10.6341    9.0104   24.1712 C   0  0  0  0  0  0  0  0  0  0  0  0
   10.0741    8.3819   22.9268 C   0  0  0  0  0  0  0  0  0  0  0  0
    9.7227   10.9358   22.6732 C   0  0  0  0  0  0  0  0  0  0  0  0
    9.4980    9.6770   23.4377 C   0  0  0  0  0  0  0  0  0  0  0  0
   10.8379   13.5486   22.0276 C   0  0  0  0  0  0  0  0  0  0  0  0
    9.5110   12.1069   23.5394 N   0  0  0  0  0  0  0  0  0  0  0  0
    5.1712    9.0626   26.5585 O   0  0  0  0  0  0  0  0  0  0  0  0
   10.5842   14.0512   24.3169 O   0  0  0  0  0  0  0  0  0  0  0  0
    8.2005    9.5828   24.0425 O   0  0  0  0  0  0  0  0  0  0  0  0
    6.6686    8.3027   25.0265 O   0  0  0  0  0  0  0  0  0  0  0  0
   10.4462   12.5933   21.1684 F   0  0  0  0  0  0  0  0  0  0  0  0
   10.3910   14.7335   21.5797 F   0  0  0  0  0  0  0  0  0  0  0  0
   12.1807   13.5799   22.0463 F   0  0  0  0  0  0  0  0  0  0  0  0
    6.5261   13.7618   26.7068 H   0  0  0  0  0  0  0  0  0  0  0  0
    5.4794   11.5529   27.0334 H   0  0  0  0  0  0  0  0  0  0  0  0
    8.3626   14.0612   25.1661 H   0  0  0  0  0  0  0  0  0  0  0  0
   10.4202    8.5295   25.1177 H   0  0  0  0  0  0  0  0  0  0  0  0
   11.6206    9.4531   24.1101 H   0  0  0  0  0  0  0  0  0  0  0  0
   10.6849    8.4047   22.0320 H   0  0  0  0  0  0  0  0  0  0  0  0
    9.4852    7.4792   23.0394 H   0  0  0  0  0  0  0  0  0  0  0  0
   10.7537   10.9833   22.3020 H   0  0  0  0  0  0  0  0  0  0  0  0
    9.0576   10.9712   21.8059 H   0  0  0  0  0  0  0  0  0  0  0  0
    6.2401    7.4290   25.1504 H   0  0  0  0  0  0  0  0  0  0  0  0
  1  2  1  0  0  0  0
  1  3  2  0  0  0  0
  2  4  2  0  0  0  0
  3  5  1  0  0  0  0
  4  6  1  0  0  0  0
  4  7  1  0  0  0  0
  5  6  2  0  0  0  0
  5 14  1  0  0  0  0
  6 17  1  0  0  0  0
  7 15  2  0  0  0  0
  7 18  1  0  0  0  0
  8 13  1  0  0  0  0
  8 14  1  0  0  0  0
  8 16  2  0  0  0  0
  9 10  1  0  0  0  0
  9 12  1  0  0  0  0
 10 12  1  0  0  0  0
 11 12  1  0  0  0  0
 11 14  1  0  0  0  0
 12 17  1  0  0  0  0
 13 19  1  0  0  0  0
 13 20  1  0  0  0  0
 13 21  1  0  0  0  0
  1 22  1  0  0  0  0
  2 23  1  0  0  0  0
  3 24  1  0  0  0  0
  9 25  1  0  0  0  0
  9 26  1  0  0  0  0
 10 27  1  0  0  0  0
 10 28  1  0  0  0  0
 11 29  1  0  0  0  0
 11 30  1  0  0  0  0
 18 31  1  0  0  0  0
M  END
> <id>
EN300-28290399

> <smiles>
OC(=O)C=1C=CC=C2N(CC3(CC3)OC12)C(=O)C(F)(F)F

> <IUPAC Name>
4-(2,2,2-trifluoroacetyl)-3,4-dihydrospiro[1,4-benzoxazine-2,1'-cyclopropane]-8-carboxylic acid

> <CAS>
2680681-38-1

> <URL>
https://www.enaminestore.com/catalog/EN300-28290399

> <ROCS_ShapeQuery>
A71EV2A-x0451_0A_A71EV2A-x0310_0A_A71EV2A-x0416_0A_peptide

> <ROCS_TanimotoCombo>
0.507 

> <ROCS_ShapeTanimoto>
0.357 

> <ROCS_ColorTanimoto>
0.150 

> <ROCS_RefTversky>
0.312 

> <ROCS_RefColorTversky>
0.166 

> <ROCS_RefTverskyCombo>
0.478 

> <ROCS_FitTversky>
1.671 

> <ROCS_FitColorTversky>
0.614 

> <ROCS_FitTverskyCombo>
2.285 

> <ROCS_ColorScore>
-5.064

> <ROCS_Overlap>
2168.734

> <ROCS_Rank>
459                 

$$$$
untitled-dbase-177552_19
  -OEChem-11132313473D

 36 37  0     0  0  0  0  0  0999 V2000
   10.5010   10.8098   23.1756 C   0  0  0  0  0  0  0  0  0  0  0  0
    9.9238   11.9142   23.6739 C   0  0  0  0  0  0  0  0  0  0  0  0
    8.6597   11.8538   24.3895 C   0  0  0  0  0  0  0  0  0  0  0  0
    8.0794   10.6517   24.5746 C   0  0  0  0  0  0  0  0  0  0  0  0
    9.8434    9.4860   23.3655 C   0  0  0  0  0  0  0  0  0  0  0  0
   10.6653   13.1628   23.4594 C   0  0  0  0  0  0  0  0  0  0  0  0
    8.0030   13.1138   24.9024 C   0  0  0  0  0  0  0  0  0  0  0  0
    6.7941   10.4929   25.3371 C   0  0  0  0  0  0  0  0  0  0  0  0
    6.4474   11.7462   26.1464 C   0  0  0  0  0  0  0  0  0  0  0  0
   12.3646   15.2314   22.5162 C   0  0  0  0  0  0  0  0  0  0  0  0
   12.3969   13.9594   20.3505 C   0  0  0  0  0  0  0  0  0  0  0  0
   10.2304   14.8759   21.2305 C   0  0  0  0  0  0  0  0  0  0  0  0
   11.5878   14.2824   21.6048 C   0  0  0  0  0  0  0  0  0  0  0  0
    8.6574    9.5055   24.0760 N   0  0  0  0  0  0  0  0  0  0  0  0
    6.6063   12.9537   25.3358 N   0  0  0  0  0  0  0  0  0  0  0  0
   10.3570    8.4673   22.9102 O   0  0  0  0  0  0  0  0  0  0  0  0
   10.6206   14.1120   24.2236 O   0  0  0  0  0  0  0  0  0  0  0  0
   11.3702   13.0537   22.3059 O   0  0  0  0  0  0  0  0  0  0  0  0
   11.4332   10.8218   22.6210 H   0  0  0  0  0  0  0  0  0  0  0  0
    8.5568   13.5016   25.7674 H   0  0  0  0  0  0  0  0  0  0  0  0
    8.0465   13.8883   24.1241 H   0  0  0  0  0  0  0  0  0  0  0  0
    5.9680   10.2835   24.6483 H   0  0  0  0  0  0  0  0  0  0  0  0
    6.8875    9.6316   26.0092 H   0  0  0  0  0  0  0  0  0  0  0  0
    5.4193   11.6869   26.5318 H   0  0  0  0  0  0  0  0  0  0  0  0
    7.1029   11.8096   27.0246 H   0  0  0  0  0  0  0  0  0  0  0  0
   11.7872   15.4657   23.4177 H   0  0  0  0  0  0  0  0  0  0  0  0
   13.3251   14.8026   22.8202 H   0  0  0  0  0  0  0  0  0  0  0  0
   12.5555   16.1868   22.0143 H   0  0  0  0  0  0  0  0  0  0  0  0
   11.8432   13.2788   19.6937 H   0  0  0  0  0  0  0  0  0  0  0  0
   13.3305   13.4470   20.6095 H   0  0  0  0  0  0  0  0  0  0  0  0
   12.6431   14.8636   19.7846 H   0  0  0  0  0  0  0  0  0  0  0  0
    9.6729   14.1954   20.5767 H   0  0  0  0  0  0  0  0  0  0  0  0
    9.6211   15.0799   22.1170 H   0  0  0  0  0  0  0  0  0  0  0  0
   10.3545   15.8100   20.6708 H   0  0  0  0  0  0  0  0  0  0  0  0
    8.1821    8.6238   24.2465 H   0  0  0  0  0  0  0  0  0  0  0  0
    6.3327   13.7662   25.8860 H   0  0  0  0  0  0  0  0  0  0  0  0
  1  2  2  0  0  0  0
  1  5  1  0  0  0  0
  2  3  1  0  0  0  0
  2  6  1  0  0  0  0
  3  4  2  0  0  0  0
  3  7  1  0  0  0  0
  4  8  1  0  0  0  0
  4 14  1  0  0  0  0
  5 14  1  0  0  0  0
  5 16  2  0  0  0  0
  6 17  2  0  0  0  0
  6 18  1  0  0  0  0
  7 15  1  0  0  0  0
  8  9  1  0  0  0  0
  9 15  1  0  0  0  0
 10 13  1  0  0  0  0
 11 13  1  0  0  0  0
 12 13  1  0  0  0  0
 13 18  1  0  0  0  0
  1 19  1  0  0  0  0
  7 20  1  0  0  0  0
  7 21  1  0  0  0  0
  8 22  1  0  0  0  0
  8 23  1  0  0  0  0
  9 24  1  0  0  0  0
  9 25  1  0  0  0  0
 10 26  1  0  0  0  0
 10 27  1  0  0  0  0
 10 28  1  0  0  0  0
 11 29  1  0  0  0  0
 11 30  1  0  0  0  0
 11 31  1  0  0  0  0
 12 32  1  0  0  0  0
 12 33  1  0  0  0  0
 12 34  1  0  0  0  0
 14 35  1  0  0  0  0
 15 36  1  0  0  0  0
M  END
> <id>
EN300-27726042

> <smiles>
CC(C)(C)OC(=O)C1=CC(=O)NC=2CCNCC12

> <IUPAC Name>
tert-butyl 2-oxo-1,2,5,6,7,8-hexahydro-1,6-naphthyridine-4-carboxylate

> <URL>
https://www.enaminestore.com/catalog/EN300-27726042

> <ROCS_ShapeQuery>
A71EV2A-x0451_0A_A71EV2A-x0310_0A_A71EV2A-x0416_0A_peptide

> <ROCS_TanimotoCombo>
0.507 

> <ROCS_ShapeTanimoto>
0.350 

> <ROCS_ColorTanimoto>
0.157 

> <ROCS_RefTversky>
0.301 

> <ROCS_RefColorTversky>
0.177 

> <ROCS_RefTverskyCombo>
0.478 

> <ROCS_FitTversky>
1.854 

> <ROCS_FitColorTversky>
0.588 

> <ROCS_FitTverskyCombo>
2.441 

> <ROCS_ColorScore>
-5.402

> <ROCS_Overlap>
2090.716

> <ROCS_Rank>
460                 

$$$$
untitled-dbase-178811_66
  -OEChem-11132313473D

 36 37  0     1  0  0  0  0  0999 V2000
   10.1426   13.3896   23.3078 C   0  0  0  0  0  0  0  0  0  0  0  0
    9.4849   10.0024   24.3230 C   0  0  0  0  0  0  0  0  0  0  0  0
    8.5832   11.4837   22.6804 C   0  0  0  0  0  0  0  0  0  0  0  0
    8.2654   11.5852   25.5197 C   0  0  0  0  0  0  0  0  0  0  0  0
    9.6131   11.4354   24.8142 C   0  0  2  0  0  0  0  0  0  0  0  0
    8.1805   10.3140   23.5937 C   0  0  1  0  0  0  0  0  0  0  0  0
   12.7615   13.6520   22.1947 C   0  0  0  0  0  0  0  0  0  0  0  0
   11.5962   14.4148   20.1045 C   0  0  0  0  0  0  0  0  0  0  0  0
   11.3614   15.7433   22.2230 C   0  0  0  0  0  0  0  0  0  0  0  0
    7.5026    9.1594   22.9008 C   0  0  0  0  0  0  0  0  0  0  0  0
   11.5232   14.3451   21.6283 C   0  0  0  0  0  0  0  0  0  0  0  0
    9.5103   12.1915   23.5629 N   0  0  0  0  0  0  0  0  0  0  0  0
    7.5892    7.9747   23.6986 N   0  0  0  0  0  0  0  0  0  0  0  0
   10.4649   14.2004   24.1726 O   0  0  0  0  0  0  0  0  0  0  0  0
    7.3481   10.8633   24.6507 O   0  0  0  0  0  0  0  0  0  0  0  0
   10.3698   13.5681   21.9698 O   0  0  0  0  0  0  0  0  0  0  0  0
   10.2986    9.6851   23.6627 H   0  0  0  0  0  0  0  0  0  0  0  0
    9.3632    9.2869   25.1436 H   0  0  0  0  0  0  0  0  0  0  0  0
    9.1226   11.1723   21.7805 H   0  0  0  0  0  0  0  0  0  0  0  0
    7.7519   12.1471   22.4232 H   0  0  0  0  0  0  0  0  0  0  0  0
    8.2545   11.0983   26.5001 H   0  0  0  0  0  0  0  0  0  0  0  0
    7.9333   12.6226   25.6241 H   0  0  0  0  0  0  0  0  0  0  0  0
   10.4882   11.6962   25.4109 H   0  0  0  0  0  0  0  0  0  0  0  0
   12.7129   13.5999   23.2883 H   0  0  0  0  0  0  0  0  0  0  0  0
   12.8696   12.6354   21.8027 H   0  0  0  0  0  0  0  0  0  0  0  0
   13.6701   14.2149   21.9522 H   0  0  0  0  0  0  0  0  0  0  0  0
   10.7097   14.9114   19.6937 H   0  0  0  0  0  0  0  0  0  0  0  0
   11.6168   13.4096   19.6683 H   0  0  0  0  0  0  0  0  0  0  0  0
   12.4851   14.9575   19.7670 H   0  0  0  0  0  0  0  0  0  0  0  0
   10.4732   16.2406   21.8168 H   0  0  0  0  0  0  0  0  0  0  0  0
   11.2703   15.7096   23.3135 H   0  0  0  0  0  0  0  0  0  0  0  0
   12.2166   16.3780   21.9644 H   0  0  0  0  0  0  0  0  0  0  0  0
    6.4522    9.4239   22.7430 H   0  0  0  0  0  0  0  0  0  0  0  0
    8.0010    8.9964   21.9400 H   0  0  0  0  0  0  0  0  0  0  0  0
    7.1523    8.1301   24.5870 H   0  0  0  0  0  0  0  0  0  0  0  0
    7.1265    7.2174   23.2332 H   0  0  0  0  0  0  0  0  0  0  0  0
  1 12  1  0  0  0  0
  1 14  2  0  0  0  0
  1 16  1  0  0  0  0
  2  5  1  0  0  0  0
  2  6  1  0  0  0  0
  3  6  1  0  0  0  0
  3 12  1  0  0  0  0
  4  5  1  0  0  0  0
  4 15  1  0  0  0  0
  5 12  1  0  0  0  0
  6 10  1  0  0  0  0
  6 15  1  0  0  0  0
  7 11  1  0  0  0  0
  8 11  1  0  0  0  0
  9 11  1  0  0  0  0
 10 13  1  0  0  0  0
 11 16  1  0  0  0  0
  2 17  1  0  0  0  0
  2 18  1  0  0  0  0
  3 19  1  0  0  0  0
  3 20  1  0  0  0  0
  4 21  1  0  0  0  0
  4 22  1  0  0  0  0
  5 23  1  0  0  0  0
  7 24  1  0  0  0  0
  7 25  1  0  0  0  0
  7 26  1  0  0  0  0
  8 27  1  0  0  0  0
  8 28  1  0  0  0  0
  8 29  1  0  0  0  0
  9 30  1  0  0  0  0
  9 31  1  0  0  0  0
  9 32  1  0  0  0  0
 10 33  1  0  0  0  0
 10 34  1  0  0  0  0
 13 35  1  0  0  0  0
 13 36  1  0  0  0  0
M  END
> <id>
EN300-43379321

> <smiles>
Cl.CC(C)(C)OC(=O)N1CC2(CN)CC1CO2

> <IUPAC Name>
tert-butyl 1-(aminomethyl)-2-oxa-5-azabicyclo[2.2.1]heptane-5-carboxylate hydrochloride

> <Purity>
95

> <URL>
https://www.enaminestore.com/catalog/EN300-43379321

> <ROCS_ShapeQuery>
A71EV2A-x0451_0A_A71EV2A-x0310_0A_A71EV2A-x0416_0A_peptide

> <ROCS_TanimotoCombo>
0.507 

> <ROCS_ShapeTanimoto>
0.275 

> <ROCS_ColorTanimoto>
0.233 

> <ROCS_RefTversky>
0.248 

> <ROCS_RefColorTversky>
0.265 

> <ROCS_RefTverskyCombo>
0.513 

> <ROCS_FitTversky>
1.643 

> <ROCS_FitColorTversky>
0.654 

> <ROCS_FitTverskyCombo>
2.297 

> <ROCS_ColorScore>
-8.147

> <ROCS_Overlap>
1718.882

> <ROCS_Rank>
461                 

$$$$
untitled-dbase-40728_66
  -OEChem-11132313473D

 36 37  0     1  0  0  0  0  0999 V2000
   10.1426   13.3896   23.3078 C   0  0  0  0  0  0  0  0  0  0  0  0
    9.4849   10.0024   24.3230 C   0  0  0  0  0  0  0  0  0  0  0  0
    8.5832   11.4837   22.6804 C   0  0  0  0  0  0  0  0  0  0  0  0
    8.2654   11.5852   25.5197 C   0  0  0  0  0  0  0  0  0  0  0  0
    9.6131   11.4354   24.8142 C   0  0  2  0  0  0  0  0  0  0  0  0
    8.1805   10.3140   23.5937 C   0  0  1  0  0  0  0  0  0  0  0  0
   12.7615   13.6520   22.1947 C   0  0  0  0  0  0  0  0  0  0  0  0
   11.5962   14.4148   20.1045 C   0  0  0  0  0  0  0  0  0  0  0  0
   11.3614   15.7433   22.2230 C   0  0  0  0  0  0  0  0  0  0  0  0
    7.5026    9.1594   22.9008 C   0  0  0  0  0  0  0  0  0  0  0  0
   11.5232   14.3451   21.6283 C   0  0  0  0  0  0  0  0  0  0  0  0
    9.5103   12.1915   23.5629 N   0  0  0  0  0  0  0  0  0  0  0  0
    7.5892    7.9747   23.6986 N   0  0  0  0  0  0  0  0  0  0  0  0
   10.4649   14.2004   24.1726 O   0  0  0  0  0  0  0  0  0  0  0  0
    7.3481   10.8633   24.6507 O   0  0  0  0  0  0  0  0  0  0  0  0
   10.3698   13.5681   21.9698 O   0  0  0  0  0  0  0  0  0  0  0  0
   10.2986    9.6851   23.6627 H   0  0  0  0  0  0  0  0  0  0  0  0
    9.3632    9.2869   25.1436 H   0  0  0  0  0  0  0  0  0  0  0  0
    9.1226   11.1723   21.7805 H   0  0  0  0  0  0  0  0  0  0  0  0
    7.7519   12.1471   22.4232 H   0  0  0  0  0  0  0  0  0  0  0  0
    8.2545   11.0983   26.5001 H   0  0  0  0  0  0  0  0  0  0  0  0
    7.9333   12.6226   25.6241 H   0  0  0  0  0  0  0  0  0  0  0  0
   10.4882   11.6962   25.4109 H   0  0  0  0  0  0  0  0  0  0  0  0
   12.7129   13.5999   23.2883 H   0  0  0  0  0  0  0  0  0  0  0  0
   12.8696   12.6354   21.8027 H   0  0  0  0  0  0  0  0  0  0  0  0
   13.6701   14.2149   21.9522 H   0  0  0  0  0  0  0  0  0  0  0  0
   10.7097   14.9114   19.6937 H   0  0  0  0  0  0  0  0  0  0  0  0
   11.6168   13.4096   19.6683 H   0  0  0  0  0  0  0  0  0  0  0  0
   12.4851   14.9575   19.7670 H   0  0  0  0  0  0  0  0  0  0  0  0
   10.4732   16.2406   21.8168 H   0  0  0  0  0  0  0  0  0  0  0  0
   11.2703   15.7096   23.3135 H   0  0  0  0  0  0  0  0  0  0  0  0
   12.2166   16.3780   21.9644 H   0  0  0  0  0  0  0  0  0  0  0  0
    6.4522    9.4239   22.7430 H   0  0  0  0  0  0  0  0  0  0  0  0
    8.0010    8.9964   21.9400 H   0  0  0  0  0  0  0  0  0  0  0  0
    7.1523    8.1301   24.5870 H   0  0  0  0  0  0  0  0  0  0  0  0
    7.1265    7.2174   23.2332 H   0  0  0  0  0  0  0  0  0  0  0  0
  1 12  1  0  0  0  0
  1 14  2  0  0  0  0
  1 16  1  0  0  0  0
  2  5  1  0  0  0  0
  2  6  1  0  0  0  0
  3  6  1  0  0  0  0
  3 12  1  0  0  0  0
  4  5  1  0  0  0  0
  4 15  1  0  0  0  0
  5 12  1  0  0  0  0
  6 10  1  0  0  0  0
  6 15  1  0  0  0  0
  7 11  1  0  0  0  0
  8 11  1  0  0  0  0
  9 11  1  0  0  0  0
 10 13  1  0  0  0  0
 11 16  1  0  0  0  0
  2 17  1  0  0  0  0
  2 18  1  0  0  0  0
  3 19  1  0  0  0  0
  3 20  1  0  0  0  0
  4 21  1  0  0  0  0
  4 22  1  0  0  0  0
  5 23  1  0  0  0  0
  7 24  1  0  0  0  0
  7 25  1  0  0  0  0
  7 26  1  0  0  0  0
  8 27  1  0  0  0  0
  8 28  1  0  0  0  0
  8 29  1  0  0  0  0
  9 30  1  0  0  0  0
  9 31  1  0  0  0  0
  9 32  1  0  0  0  0
 10 33  1  0  0  0  0
 10 34  1  0  0  0  0
 13 35  1  0  0  0  0
 13 36  1  0  0  0  0
M  END
> <id>
EN300-268837

> <smiles>
CC(C)(C)OC(=O)N1CC2(CN)CC1CO2

> <MDLNUMBER>
MFCD22209628

> <IUPAC Name>
tert-butyl 1-(aminomethyl)-2-oxa-5-azabicyclo[2.2.1]heptane-5-carboxylate

> <CAS>
1357351-98-4

> <Purity>
95

> <URL>
https://www.enaminestore.com/catalog/EN300-268837

> <ROCS_ShapeQuery>
A71EV2A-x0451_0A_A71EV2A-x0310_0A_A71EV2A-x0416_0A_peptide

> <ROCS_TanimotoCombo>
0.507 

> <ROCS_ShapeTanimoto>
0.275 

> <ROCS_ColorTanimoto>
0.233 

> <ROCS_RefTversky>
0.248 

> <ROCS_RefColorTversky>
0.265 

> <ROCS_RefTverskyCombo>
0.513 

> <ROCS_FitTversky>
1.643 

> <ROCS_FitColorTversky>
0.654 

> <ROCS_FitTverskyCombo>
2.297 

> <ROCS_ColorScore>
-8.147

> <ROCS_Overlap>
1718.882

> <ROCS_Rank>
462                 

$$$$
untitled-dbase-153486_9
  -OEChem-11132313473D

 30 31  0     0  0  0  0  0  0999 V2000
    6.8522   12.3267   25.8063 C   0  0  0  0  0  0  0  0  0  0  0  0
    8.4751   12.2301   24.3474 C   0  0  0  0  0  0  0  0  0  0  0  0
    7.4524   10.0987   24.8837 C   0  0  0  0  0  0  0  0  0  0  0  0
    9.3482   11.5490   23.4520 C   0  0  0  0  0  0  0  0  0  0  0  0
    9.1733   10.2053   23.3727 C   0  0  0  0  0  0  0  0  0  0  0  0
   10.8563   13.4315   23.2127 C   0  0  0  0  0  0  0  0  0  0  0  0
   11.4810   16.2025   22.9219 C   0  0  0  0  0  0  0  0  0  0  0  0
   12.5598   15.5416   20.7520 C   0  0  0  0  0  0  0  0  0  0  0  0
   10.0958   15.1851   21.0832 C   0  0  0  0  0  0  0  0  0  0  0  0
   11.4644   15.2076   21.7623 C   0  0  0  0  0  0  0  0  0  0  0  0
    7.2983   13.5502   25.6241 N   0  0  0  0  0  0  0  0  0  0  0  0
    8.3263   13.4904   24.7006 N   0  0  0  0  0  0  0  0  0  0  0  0
    8.2389    9.4616   24.0729 N   0  0  0  0  0  0  0  0  0  0  0  0
    7.5617   11.4679   25.0260 N   0  0  0  0  0  0  0  0  0  0  0  0
   10.2734   12.2657   22.7551 N   0  0  0  0  0  0  0  0  0  0  0  0
   10.6291   13.9768   24.2883 O   0  0  0  0  0  0  0  0  0  0  0  0
   11.7383   13.9005   22.2793 O   0  0  0  0  0  0  0  0  0  0  0  0
   10.1810    9.2582   22.3113 Cl  0  0  0  0  0  0  0  0  0  0  0  0
    6.0511   12.0227   26.4646 H   0  0  0  0  0  0  0  0  0  0  0  0
    6.6884    9.5628   25.4691 H   0  0  0  0  0  0  0  0  0  0  0  0
   10.6961   15.9662   23.6493 H   0  0  0  0  0  0  0  0  0  0  0  0
   12.4459   16.2029   23.4393 H   0  0  0  0  0  0  0  0  0  0  0  0
   11.2779   17.2195   22.5675 H   0  0  0  0  0  0  0  0  0  0  0  0
   12.5516   14.8302   19.9182 H   0  0  0  0  0  0  0  0  0  0  0  0
   13.5516   15.4661   21.2124 H   0  0  0  0  0  0  0  0  0  0  0  0
   12.4415   16.5518   20.3470 H   0  0  0  0  0  0  0  0  0  0  0  0
   10.0836   14.4716   20.2514 H   0  0  0  0  0  0  0  0  0  0  0  0
    9.3016   14.9110   21.7852 H   0  0  0  0  0  0  0  0  0  0  0  0
    9.8579   16.1649   20.6535 H   0  0  0  0  0  0  0  0  0  0  0  0
   10.5525   11.9210   21.8408 H   0  0  0  0  0  0  0  0  0  0  0  0
  1 11  2  0  0  0  0
  1 14  1  0  0  0  0
  2  4  1  0  0  0  0
  2 12  2  0  0  0  0
  2 14  1  0  0  0  0
  3 13  2  0  0  0  0
  3 14  1  0  0  0  0
  4  5  2  0  0  0  0
  4 15  1  0  0  0  0
  5 13  1  0  0  0  0
  5 18  1  0  0  0  0
  6 15  1  0  0  0  0
  6 16  2  0  0  0  0
  6 17  1  0  0  0  0
  7 10  1  0  0  0  0
  8 10  1  0  0  0  0
  9 10  1  0  0  0  0
 10 17  1  0  0  0  0
 11 12  1  0  0  0  0
  1 19  1  0  0  0  0
  3 20  1  0  0  0  0
  7 21  1  0  0  0  0
  7 22  1  0  0  0  0
  7 23  1  0  0  0  0
  8 24  1  0  0  0  0
  8 25  1  0  0  0  0
  8 26  1  0  0  0  0
  9 27  1  0  0  0  0
  9 28  1  0  0  0  0
  9 29  1  0  0  0  0
 15 30  1  0  0  0  0
M  END
> <id>
EN300-28283259

> <smiles>
CC(C)(C)OC(=O)NC1=C(Cl)N=CN2C=NN=C12

> <IUPAC Name>
tert-butyl N-{7-chloro-[1,2,4]triazolo[4,3-c]pyrimidin-8-yl}carbamate

> <CAS>
2680780-76-9

> <URL>
https://www.enaminestore.com/catalog/EN300-28283259

> <ROCS_ShapeQuery>
A71EV2A-x0451_0A_A71EV2A-x0310_0A_A71EV2A-x0416_0A_peptide

> <ROCS_TanimotoCombo>
0.507 

> <ROCS_ShapeTanimoto>
0.347 

> <ROCS_ColorTanimoto>
0.160 

> <ROCS_RefTversky>
0.300 

> <ROCS_RefColorTversky>
0.181 

> <ROCS_RefTverskyCombo>
0.482 

> <ROCS_FitTversky>
1.807 

> <ROCS_FitColorTversky>
0.583 

> <ROCS_FitTverskyCombo>
2.390 

> <ROCS_ColorScore>
-5.531

> <ROCS_Overlap>
2084.374

> <ROCS_Rank>
463                 

$$$$
untitled-dbase-161174_0
  -OEChem-11132313473D

 23 25  0     0  0  0  0  0  0999 V2000
   11.8591   14.0905   21.7159 C   0  0  0  0  0  0  0  0  0  0  0  0
   11.1558   12.9500   22.0616 C   0  0  0  0  0  0  0  0  0  0  0  0
    7.6319   12.6923   25.0143 C   0  0  0  0  0  0  0  0  0  0  0  0
   11.7877   15.1760   22.5655 C   0  0  0  0  0  0  0  0  0  0  0  0
    7.0444    9.9594   25.2477 C   0  0  0  0  0  0  0  0  0  0  0  0
   10.0576   10.5379   23.3439 C   0  0  0  0  0  0  0  0  0  0  0  0
    8.4792   11.7460   24.4207 C   0  0  0  0  0  0  0  0  0  0  0  0
    9.6766   11.8230   23.6561 C   0  0  0  0  0  0  0  0  0  0  0  0
    8.1651   10.3922   24.5510 C   0  0  0  0  0  0  0  0  0  0  0  0
   10.4278   12.9705   23.2343 C   0  0  0  0  0  0  0  0  0  0  0  0
    6.5316   12.1876   25.6944 C   0  0  0  0  0  0  0  0  0  0  0  0
    6.2285   10.8751   25.8197 N   0  0  0  0  0  0  0  0  0  0  0  0
   11.0671   15.1681   23.7070 N   0  0  0  0  0  0  0  0  0  0  0  0
   10.3762   14.0470   24.0469 N   0  0  0  0  0  0  0  0  0  0  0  0
    9.1384    9.6814   23.8886 N   0  0  0  0  0  0  0  0  0  0  0  0
    5.6964   13.0632   26.2767 F   0  0  0  0  0  0  0  0  0  0  0  0
   12.4472   14.1302   20.8062 H   0  0  0  0  0  0  0  0  0  0  0  0
   11.1860   12.0748   21.4200 H   0  0  0  0  0  0  0  0  0  0  0  0
    7.8163   13.7585   24.9517 H   0  0  0  0  0  0  0  0  0  0  0  0
   12.3157   16.0980   22.3514 H   0  0  0  0  0  0  0  0  0  0  0  0
    6.7785    8.9170   25.3634 H   0  0  0  0  0  0  0  0  0  0  0  0
   10.8981   10.1501   22.7840 H   0  0  0  0  0  0  0  0  0  0  0  0
    9.1704    8.6739   23.8149 H   0  0  0  0  0  0  0  0  0  0  0  0
  1  2  1  0  0  0  0
  1  4  2  0  0  0  0
  2 10  2  0  0  0  0
  3  7  1  0  0  0  0
  3 11  2  0  0  0  0
  4 13  1  0  0  0  0
  5  9  1  0  0  0  0
  5 12  2  0  0  0  0
  6  8  2  0  0  0  0
  6 15  1  0  0  0  0
  7  8  1  0  0  0  0
  7  9  2  0  0  0  0
  8 10  1  0  0  0  0
  9 15  1  0  0  0  0
 10 14  1  0  0  0  0
 11 12  1  0  0  0  0
 11 16  1  0  0  0  0
 13 14  2  0  0  0  0
  1 17  1  0  0  0  0
  2 18  1  0  0  0  0
  3 19  1  0  0  0  0
  4 20  1  0  0  0  0
  5 21  1  0  0  0  0
  6 22  1  0  0  0  0
 15 23  1  0  0  0  0
M  END
> <id>
EN300-696093

> <smiles>
FC=1C=C2C(=CNC2=CN1)C=3C=CC=NN3

> <IUPAC Name>
3-{5-fluoro-1H-pyrrolo[2,3-c]pyridin-3-yl}pyridazine

> <CAS>
2137900-25-3

> <URL>
https://www.enaminestore.com/catalog/EN300-696093

> <ROCS_ShapeQuery>
A71EV2A-x0451_0A_A71EV2A-x0310_0A_A71EV2A-x0416_0A_peptide

> <ROCS_TanimotoCombo>
0.507 

> <ROCS_ShapeTanimoto>
0.327 

> <ROCS_ColorTanimoto>
0.180 

> <ROCS_RefTversky>
0.285 

> <ROCS_RefColorTversky>
0.196 

> <ROCS_RefTverskyCombo>
0.481 

> <ROCS_FitTversky>
1.821 

> <ROCS_FitColorTversky>
0.698 

> <ROCS_FitTverskyCombo>
2.519 

> <ROCS_ColorScore>
-5.967

> <ROCS_Overlap>
1975.322

> <ROCS_Rank>
464                 

$$$$
untitled-dbase-81925_92
  -OEChem-11132313473D

 40 41  0     1  0  0  0  0  0999 V2000
   11.0343   13.4952   23.1805 C   0  0  0  0  0  0  0  0  0  0  0  0
    7.0738   12.3399   25.0818 C   0  0  0  0  0  0  0  0  0  0  0  0
    8.0310   11.8296   26.1654 C   0  0  0  0  0  0  0  0  0  0  0  0
    8.3850   11.8896   22.9624 C   0  0  0  0  0  0  0  0  0  0  0  0
   10.0018   11.0351   24.7889 C   0  0  0  0  0  0  0  0  0  0  0  0
    7.2617   11.3815   23.8921 C   0  0  1  0  0  0  0  0  0  0  0  0
    8.7266   10.6044   25.5458 C   0  0  2  0  0  0  0  0  0  0  0  0
    9.7778   11.3322   23.2968 C   0  0  2  0  0  0  0  0  0  0  0  0
    7.6352   10.0815   24.6092 C   0  0  2  0  0  0  0  0  0  0  0  0
   11.2654   16.2922   22.6582 C   0  0  0  0  0  0  0  0  0  0  0  0
   13.0781   15.6520   21.0415 C   0  0  0  0  0  0  0  0  0  0  0  0
   10.7301   14.8399   20.6736 C   0  0  0  0  0  0  0  0  0  0  0  0
   11.7839   15.2051   21.7180 C   0  0  0  0  0  0  0  0  0  0  0  0
   10.8268   12.2001   22.7600 N   0  0  0  0  0  0  0  0  0  0  0  0
   10.3861   14.0839   24.0395 O   0  0  0  0  0  0  0  0  0  0  0  0
    8.0725    9.0496   23.7534 O   0  0  0  0  0  0  0  0  0  0  0  0
   12.0826   14.0378   22.4919 O   0  0  0  0  0  0  0  0  0  0  0  0
    6.0419   12.2794   25.4499 H   0  0  0  0  0  0  0  0  0  0  0  0
    7.2591   13.3855   24.8153 H   0  0  0  0  0  0  0  0  0  0  0  0
    8.7399   12.5960   26.4952 H   0  0  0  0  0  0  0  0  0  0  0  0
    7.4532   11.5243   27.0469 H   0  0  0  0  0  0  0  0  0  0  0  0
    8.1385   11.6033   21.9327 H   0  0  0  0  0  0  0  0  0  0  0  0
    8.3978   12.9857   22.9662 H   0  0  0  0  0  0  0  0  0  0  0  0
   10.4525   11.8996   25.2899 H   0  0  0  0  0  0  0  0  0  0  0  0
   10.7425   10.2305   24.8715 H   0  0  0  0  0  0  0  0  0  0  0  0
    6.3391   11.2853   23.3134 H   0  0  0  0  0  0  0  0  0  0  0  0
    8.9991    9.8760   26.3137 H   0  0  0  0  0  0  0  0  0  0  0  0
    9.9230   10.3893   22.7243 H   0  0  0  0  0  0  0  0  0  0  0  0
    6.7771    9.7040   25.1910 H   0  0  0  0  0  0  0  0  0  0  0  0
   10.3366   15.9753   23.1458 H   0  0  0  0  0  0  0  0  0  0  0  0
   11.9985   16.5385   23.4333 H   0  0  0  0  0  0  0  0  0  0  0  0
   11.0270   17.2073   22.1041 H   0  0  0  0  0  0  0  0  0  0  0  0
   13.4537   14.8750   20.3660 H   0  0  0  0  0  0  0  0  0  0  0  0
   13.8668   15.8241   21.7829 H   0  0  0  0  0  0  0  0  0  0  0  0
   12.9362   16.5726   20.4662 H   0  0  0  0  0  0  0  0  0  0  0  0
   11.1017   14.0601   19.9991 H   0  0  0  0  0  0  0  0  0  0  0  0
    9.8068   14.4817   21.1404 H   0  0  0  0  0  0  0  0  0  0  0  0
   10.4894   15.7042   20.0441 H   0  0  0  0  0  0  0  0  0  0  0  0
   11.4344   11.8274   22.0389 H   0  0  0  0  0  0  0  0  0  0  0  0
    7.3445    8.8579   23.1361 H   0  0  0  0  0  0  0  0  0  0  0  0
  1 14  1  0  0  0  0
  1 15  2  0  0  0  0
  1 17  1  0  0  0  0
  2  3  1  0  0  0  0
  2  6  1  0  0  0  0
  3  7  1  1  0  0  0
  4  6  1  1  0  0  0
  4  8  1  0  0  0  0
  5  7  1  0  0  0  0
  5  8  1  0  0  0  0
  6  9  1  0  0  0  0
  7  9  1  0  0  0  0
  8 14  1  1  0  0  0
  9 16  1  6  0  0  0
 10 13  1  0  0  0  0
 11 13  1  0  0  0  0
 12 13  1  0  0  0  0
 13 17  1  0  0  0  0
  2 18  1  0  0  0  0
  2 19  1  0  0  0  0
  3 20  1  0  0  0  0
  3 21  1  0  0  0  0
  4 22  1  0  0  0  0
  4 23  1  0  0  0  0
  5 24  1  0  0  0  0
  5 25  1  0  0  0  0
  6 26  1  0  0  0  0
  7 27  1  0  0  0  0
  8 28  1  0  0  0  0
  9 29  1  0  0  0  0
 10 30  1  0  0  0  0
 10 31  1  0  0  0  0
 10 32  1  0  0  0  0
 11 33  1  0  0  0  0
 11 34  1  0  0  0  0
 11 35  1  0  0  0  0
 12 36  1  0  0  0  0
 12 37  1  0  0  0  0
 12 38  1  0  0  0  0
 14 39  1  0  0  0  0
 16 40  1  0  0  0  0
M  END
> <id>
EN300-7548770

> <smiles>
CC(C)(C)OC(=O)N[C@@H]1C[C@@H]2CC[C@H](C1)[C@@H]2O

> <IUPAC Name>
tert-butyl N-[(1R,3S,5S,8R)-8-hydroxybicyclo[3.2.1]octan-3-yl]carbamate

> <CAS>
2648901-66-8

> <URL>
https://www.enaminestore.com/catalog/EN300-7548770

> <ROCS_ShapeQuery>
A71EV2A-x0451_0A_A71EV2A-x0310_0A_A71EV2A-x0416_0A_peptide

> <ROCS_TanimotoCombo>
0.507 

> <ROCS_ShapeTanimoto>
0.292 

> <ROCS_ColorTanimoto>
0.215 

> <ROCS_RefTversky>
0.261 

> <ROCS_RefColorTversky>
0.245 

> <ROCS_RefTverskyCombo>
0.506 

> <ROCS_FitTversky>
1.694 

> <ROCS_FitColorTversky>
0.637 

> <ROCS_FitTverskyCombo>
2.331 

> <ROCS_ColorScore>
-7.524

> <ROCS_Overlap>
1807.430

> <ROCS_Rank>
465                 

$$$$
untitled-dbase-151829_92
  -OEChem-11132313473D

 43 45  0     0  0  0  0  0  0999 V2000
    6.1088   10.5835   26.0532 C   0  0  0  0  0  0  0  0  0  0  0  0
    7.1125    9.8360   25.4310 C   0  0  0  0  0  0  0  0  0  0  0  0
    7.0072   12.6498   25.1488 C   0  0  0  0  0  0  0  0  0  0  0  0
    8.0305   11.9191   24.5115 C   0  0  0  0  0  0  0  0  0  0  0  0
    6.0549   11.9688   25.9154 C   0  0  0  0  0  0  0  0  0  0  0  0
    9.1330   12.2689   23.6806 C   0  0  0  0  0  0  0  0  0  0  0  0
    8.0588   10.5283   24.6667 C   0  0  0  0  0  0  0  0  0  0  0  0
    9.7848   11.0980   23.3575 C   0  0  0  0  0  0  0  0  0  0  0  0
    4.9970   12.7180   26.5754 C   0  0  0  0  0  0  0  0  0  0  0  0
   11.8436   14.5146   22.5356 C   0  0  0  0  0  0  0  0  0  0  0  0
    9.5746   13.6033   23.1868 C   0  0  0  0  0  0  0  0  0  0  0  0
   11.0010   10.9954   22.5144 C   0  0  0  0  0  0  0  0  0  0  0  0
   11.1288   12.2851   21.6884 C   0  0  0  0  0  0  0  0  0  0  0  0
   13.5306   16.4559   21.2805 C   0  0  0  0  0  0  0  0  0  0  0  0
   14.6272   14.4998   20.1491 C   0  0  0  0  0  0  0  0  0  0  0  0
   12.1994   14.9874   19.7294 C   0  0  0  0  0  0  0  0  0  0  0  0
   13.3315   15.0352   20.7546 C   0  0  0  0  0  0  0  0  0  0  0  0
    9.1397   10.0549   23.9533 N   0  0  0  0  0  0  0  0  0  0  0  0
   10.8919   13.4880   22.5143 N   0  0  0  0  0  0  0  0  0  0  0  0
    4.1038   12.2300   27.2752 O   0  0  0  0  0  0  0  0  0  0  0  0
   11.6874   15.5945   23.1027 O   0  0  0  0  0  0  0  0  0  0  0  0
    5.0851   14.0564   26.3438 O   0  0  0  0  0  0  0  0  0  0  0  0
   12.9863   14.1860   21.8550 O   0  0  0  0  0  0  0  0  0  0  0  0
    5.3637   10.0633   26.6516 H   0  0  0  0  0  0  0  0  0  0  0  0
    7.1525    8.7572   25.5390 H   0  0  0  0  0  0  0  0  0  0  0  0
    6.9618   13.7310   25.0438 H   0  0  0  0  0  0  0  0  0  0  0  0
    8.8669   13.9870   22.4438 H   0  0  0  0  0  0  0  0  0  0  0  0
    9.6283   14.3155   24.0153 H   0  0  0  0  0  0  0  0  0  0  0  0
   11.8822   10.8734   23.1548 H   0  0  0  0  0  0  0  0  0  0  0  0
   10.9446   10.1296   21.8461 H   0  0  0  0  0  0  0  0  0  0  0  0
   12.1144   12.3247   21.2139 H   0  0  0  0  0  0  0  0  0  0  0  0
   10.3798   12.3030   20.8867 H   0  0  0  0  0  0  0  0  0  0  0  0
   12.6027   16.8438   21.7159 H   0  0  0  0  0  0  0  0  0  0  0  0
   14.3161   16.4978   22.0421 H   0  0  0  0  0  0  0  0  0  0  0  0
   13.8000   17.1397   20.4675 H   0  0  0  0  0  0  0  0  0  0  0  0
   14.4890   13.4806   19.7705 H   0  0  0  0  0  0  0  0  0  0  0  0
   15.4176   14.4432   20.9063 H   0  0  0  0  0  0  0  0  0  0  0  0
   14.9797   15.1304   19.3265 H   0  0  0  0  0  0  0  0  0  0  0  0
   12.0564   13.9684   19.3520 H   0  0  0  0  0  0  0  0  0  0  0  0
   11.2530   15.3334   20.1573 H   0  0  0  0  0  0  0  0  0  0  0  0
   12.4359   15.6093   18.8585 H   0  0  0  0  0  0  0  0  0  0  0  0
    9.4085    9.0826   23.8859 H   0  0  0  0  0  0  0  0  0  0  0  0
    4.3763   14.5710   26.7855 H   0  0  0  0  0  0  0  0  0  0  0  0
  1  2  1  0  0  0  0
  1  5  2  0  0  0  0
  2  7  2  0  0  0  0
  3  4  2  0  0  0  0
  3  5  1  0  0  0  0
  4  6  1  0  0  0  0
  4  7  1  0  0  0  0
  5  9  1  0  0  0  0
  6  8  2  0  0  0  0
  6 11  1  0  0  0  0
  7 18  1  0  0  0  0
  8 12  1  0  0  0  0
  8 18  1  0  0  0  0
  9 20  2  0  0  0  0
  9 22  1  0  0  0  0
 10 19  1  0  0  0  0
 10 21  2  0  0  0  0
 10 23  1  0  0  0  0
 11 19  1  0  0  0  0
 12 13  1  0  0  0  0
 13 19  1  0  0  0  0
 14 17  1  0  0  0  0
 15 17  1  0  0  0  0
 16 17  1  0  0  0  0
 17 23  1  0  0  0  0
  1 24  1  0  0  0  0
  2 25  1  0  0  0  0
  3 26  1  0  0  0  0
 11 27  1  0  0  0  0
 11 28  1  0  0  0  0
 12 29  1  0  0  0  0
 12 30  1  0  0  0  0
 13 31  1  0  0  0  0
 13 32  1  0  0  0  0
 14 33  1  0  0  0  0
 14 34  1  0  0  0  0
 14 35  1  0  0  0  0
 15 36  1  0  0  0  0
 15 37  1  0  0  0  0
 15 38  1  0  0  0  0
 16 39  1  0  0  0  0
 16 40  1  0  0  0  0
 16 41  1  0  0  0  0
 18 42  1  0  0  0  0
 22 43  1  0  0  0  0
M  END
> <id>
EN300-1071118

> <smiles>
CC(C)(C)OC(=O)N1CCC=2NC=3C=CC(=CC3C2C1)C(=O)O

> <MDLNUMBER>
MFCD04115223

> <IUPAC Name>
2-[(tert-butoxy)carbonyl]-1H,2H,3H,4H,5H-pyrido[4,3-b]indole-8-carboxylic acid

> <CAS>
300715-96-2

> <URL>
https://www.enaminestore.com/catalog/EN300-1071118

> <ROCS_ShapeQuery>
A71EV2A-x0451_0A_A71EV2A-x0310_0A_A71EV2A-x0416_0A_peptide

> <ROCS_TanimotoCombo>
0.507 

> <ROCS_ShapeTanimoto>
0.351 

> <ROCS_ColorTanimoto>
0.156 

> <ROCS_RefTversky>
0.311 

> <ROCS_RefColorTversky>
0.180 

> <ROCS_RefTverskyCombo>
0.491 

> <ROCS_FitTversky>
1.581 

> <ROCS_FitColorTversky>
0.540 

> <ROCS_FitTverskyCombo>
2.122 

> <ROCS_ColorScore>
-5.501

> <ROCS_Overlap>
2160.853

> <ROCS_Rank>
466                 

$$$$
untitled-dbase-156473_21
  -OEChem-11132313473D

 35 36  0     0  0  0  0  0  0999 V2000
   10.9974   10.0689   22.0163 C   0  0  0  0  0  0  0  0  0  0  0  0
    6.8072   11.2667   25.4474 C   0  0  0  0  0  0  0  0  0  0  0  0
    6.8698   12.6493   25.2414 C   0  0  0  0  0  0  0  0  0  0  0  0
    7.8068   10.7458   24.6580 C   0  0  0  0  0  0  0  0  0  0  0  0
    9.2095    9.3201   23.6252 C   0  0  0  0  0  0  0  0  0  0  0  0
    9.9291   10.3986   22.8913 C   0  0  0  0  0  0  0  0  0  0  0  0
    9.4918   11.6519   23.1240 C   0  0  0  0  0  0  0  0  0  0  0  0
   10.6120   13.7987   23.2354 C   0  0  0  0  0  0  0  0  0  0  0  0
    6.0179   13.6851   25.8495 C   0  0  0  0  0  0  0  0  0  0  0  0
   13.1969   13.7537   22.8303 C   0  0  0  0  0  0  0  0  0  0  0  0
   12.8923   15.4394   20.9932 C   0  0  0  0  0  0  0  0  0  0  0  0
   12.7064   16.1574   23.3928 C   0  0  0  0  0  0  0  0  0  0  0  0
   12.4636   15.0228   22.3985 C   0  0  0  0  0  0  0  0  0  0  0  0
   11.8704    9.7992   21.3014 N   0  0  0  0  0  0  0  0  0  0  0  0
    7.8290   13.0031   24.3885 N   0  0  0  0  0  0  0  0  0  0  0  0
    8.2202    9.4666   24.4505 N   0  0  0  0  0  0  0  0  0  0  0  0
    8.4170   11.8286   24.0189 N   0  0  0  0  0  0  0  0  0  0  0  0
   10.0374   12.7601   22.5354 N   0  0  0  0  0  0  0  0  0  0  0  0
   10.7155   13.8800   24.4555 O   0  0  0  0  0  0  0  0  0  0  0  0
   11.0593   14.7458   22.3568 O   0  0  0  0  0  0  0  0  0  0  0  0
    6.1321   10.7103   26.0817 H   0  0  0  0  0  0  0  0  0  0  0  0
    9.5713    8.2961   23.4316 H   0  0  0  0  0  0  0  0  0  0  0  0
    6.4487   14.0534   26.7963 H   0  0  0  0  0  0  0  0  0  0  0  0
    5.8823   14.5570   25.1849 H   0  0  0  0  0  0  0  0  0  0  0  0
    5.0012   13.3128   26.0697 H   0  0  0  0  0  0  0  0  0  0  0  0
   12.8920   13.4515   23.8386 H   0  0  0  0  0  0  0  0  0  0  0  0
   13.0029   12.9226   22.1445 H   0  0  0  0  0  0  0  0  0  0  0  0
   14.2791   13.9225   22.8722 H   0  0  0  0  0  0  0  0  0  0  0  0
   12.3686   16.3495   20.6793 H   0  0  0  0  0  0  0  0  0  0  0  0
   12.6333   14.6661   20.2609 H   0  0  0  0  0  0  0  0  0  0  0  0
   13.9702   15.6228   20.9373 H   0  0  0  0  0  0  0  0  0  0  0  0
   12.1806   17.0678   23.0832 H   0  0  0  0  0  0  0  0  0  0  0  0
   12.3707   15.8899   24.3999 H   0  0  0  0  0  0  0  0  0  0  0  0
   13.7708   16.4152   23.4375 H   0  0  0  0  0  0  0  0  0  0  0  0
   10.0177   12.8207   21.5240 H   0  0  0  0  0  0  0  0  0  0  0  0
  1  6  1  0  0  0  0
  1 14  3  0  0  0  0
  2  3  1  0  0  0  0
  2  4  2  0  0  0  0
  3  9  1  0  0  0  0
  3 15  2  0  0  0  0
  4 16  1  0  0  0  0
  4 17  1  0  0  0  0
  5  6  1  0  0  0  0
  5 16  2  0  0  0  0
  6  7  2  0  0  0  0
  7 17  1  0  0  0  0
  7 18  1  0  0  0  0
  8 18  1  0  0  0  0
  8 19  2  0  0  0  0
  8 20  1  0  0  0  0
 10 13  1  0  0  0  0
 11 13  1  0  0  0  0
 12 13  1  0  0  0  0
 13 20  1  0  0  0  0
 15 17  1  0  0  0  0
  2 21  1  0  0  0  0
  5 22  1  0  0  0  0
  9 23  1  0  0  0  0
  9 24  1  0  0  0  0
  9 25  1  0  0  0  0
 10 26  1  0  0  0  0
 10 27  1  0  0  0  0
 10 28  1  0  0  0  0
 11 29  1  0  0  0  0
 11 30  1  0  0  0  0
 11 31  1  0  0  0  0
 12 32  1  0  0  0  0
 12 33  1  0  0  0  0
 12 34  1  0  0  0  0
 18 35  1  0  0  0  0
M  END
> <id>
EN300-28283967

> <smiles>
CC=1C=C2N=CC(C#N)=C(NC(=O)OC(C)(C)C)N2N1

> <IUPAC Name>
tert-butyl N-{6-cyano-2-methylpyrazolo[1,5-a]pyrimidin-7-yl}carbamate

> <CAS>
2680794-91-4

> <URL>
https://www.enaminestore.com/catalog/EN300-28283967

> <ROCS_ShapeQuery>
A71EV2A-x0451_0A_A71EV2A-x0310_0A_A71EV2A-x0416_0A_peptide

> <ROCS_TanimotoCombo>
0.507 

> <ROCS_ShapeTanimoto>
0.348 

> <ROCS_ColorTanimoto>
0.159 

> <ROCS_RefTversky>
0.304 

> <ROCS_RefColorTversky>
0.179 

> <ROCS_RefTverskyCombo>
0.483 

> <ROCS_FitTversky>
1.710 

> <ROCS_FitColorTversky>
0.592 

> <ROCS_FitTverskyCombo>
2.301 

> <ROCS_ColorScore>
-5.450

> <ROCS_Overlap>
2111.569

> <ROCS_Rank>
467                 

$$$$
untitled-dbase-7104_3
  -OEChem-11132313473D

 30 33  0     0  0  0  0  0  0999 V2000
   12.7115   17.1439   23.3280 C   0  0  0  0  0  0  0  0  0  0  0  0
   13.0077   16.7446   22.0227 C   0  0  0  0  0  0  0  0  0  0  0  0
    9.4367    9.7152   22.8979 C   0  0  0  0  0  0  0  0  0  0  0  0
    7.0523   12.9141   25.9442 C   0  0  0  0  0  0  0  0  0  0  0  0
    8.1571   13.0332   25.1135 C   0  0  0  0  0  0  0  0  0  0  0  0
   10.1309   10.9132   22.7836 C   0  0  0  0  0  0  0  0  0  0  0  0
   11.9207   16.3461   24.1645 C   0  0  0  0  0  0  0  0  0  0  0  0
    8.3278    9.6279   23.7432 C   0  0  0  0  0  0  0  0  0  0  0  0
   12.5265   15.5370   21.5061 C   0  0  0  0  0  0  0  0  0  0  0  0
    6.4229   11.6869   25.9970 C   0  0  0  0  0  0  0  0  0  0  0  0
    8.5985   11.9333   24.3655 C   0  0  0  0  0  0  0  0  0  0  0  0
    9.7139   12.0214   23.5153 C   0  0  0  0  0  0  0  0  0  0  0  0
    7.8890   10.7201   24.4866 C   0  0  0  0  0  0  0  0  0  0  0  0
   11.4287   15.1297   23.6619 C   0  0  0  0  0  0  0  0  0  0  0  0
   11.7411   14.7588   22.3571 C   0  0  0  0  0  0  0  0  0  0  0  0
   10.4760   13.2434   23.3559 C   0  0  0  0  0  0  0  0  0  0  0  0
    6.8165   10.6016   25.2919 N   0  0  0  0  0  0  0  0  0  0  0  0
   10.6423   14.1761   24.2666 N   0  0  0  0  0  0  0  0  0  0  0  0
   11.1187   13.5485   22.1885 N   0  0  0  0  0  0  0  0  0  0  0  0
   13.1000   18.0877   23.7013 H   0  0  0  0  0  0  0  0  0  0  0  0
   13.6232   17.3845   21.3950 H   0  0  0  0  0  0  0  0  0  0  0  0
    9.7548    8.8453   22.3306 H   0  0  0  0  0  0  0  0  0  0  0  0
    6.6972   13.7539   26.5298 H   0  0  0  0  0  0  0  0  0  0  0  0
    8.6562   13.9979   25.0687 H   0  0  0  0  0  0  0  0  0  0  0  0
   10.9918   10.9652   22.1215 H   0  0  0  0  0  0  0  0  0  0  0  0
   11.6958   16.6655   25.1771 H   0  0  0  0  0  0  0  0  0  0  0  0
    7.8012    8.6780   23.8150 H   0  0  0  0  0  0  0  0  0  0  0  0
   12.7555   15.2259   20.4933 H   0  0  0  0  0  0  0  0  0  0  0  0
    5.5541   11.5343   26.6288 H   0  0  0  0  0  0  0  0  0  0  0  0
   11.1342   12.9863   21.3475 H   0  0  0  0  0  0  0  0  0  0  0  0
  1  2  2  0  0  0  0
  1  7  1  0  0  0  0
  2  9  1  0  0  0  0
  3  6  1  0  0  0  0
  3  8  2  0  0  0  0
  4  5  1  0  0  0  0
  4 10  2  0  0  0  0
  5 11  2  0  0  0  0
  6 12  2  0  0  0  0
  7 14  2  0  0  0  0
  8 13  1  0  0  0  0
  9 15  2  0  0  0  0
 10 17  1  0  0  0  0
 11 12  1  0  0  0  0
 11 13  1  0  0  0  0
 12 16  1  0  0  0  0
 13 17  2  0  0  0  0
 14 15  1  0  0  0  0
 14 18  1  0  0  0  0
 15 19  1  0  0  0  0
 16 18  2  0  0  0  0
 16 19  1  0  0  0  0
  1 20  1  0  0  0  0
  2 21  1  0  0  0  0
  3 22  1  0  0  0  0
  4 23  1  0  0  0  0
  5 24  1  0  0  0  0
  6 25  1  0  0  0  0
  7 26  1  0  0  0  0
  8 27  1  0  0  0  0
  9 28  1  0  0  0  0
 10 29  1  0  0  0  0
 19 30  1  0  0  0  0
M  END
> <id>
EN300-92930

> <smiles>
C=1C=CC=2NC(=NC2C1)C=3C=CC=C4N=CC=CC34

> <MDLNUMBER>
MFCD18030739

> <IUPAC Name>
5-(1H-1,3-benzodiazol-2-yl)quinoline

> <CAS>
123995-39-1

> <Purity>
95

> <URL>
https://www.enaminestore.com/catalog/EN300-92930

> <MP>
254-256

> <ROCS_ShapeQuery>
A71EV2A-x0451_0A_A71EV2A-x0310_0A_A71EV2A-x0416_0A_peptide

> <ROCS_TanimotoCombo>
0.507 

> <ROCS_ShapeTanimoto>
0.337 

> <ROCS_ColorTanimoto>
0.170 

> <ROCS_RefTversky>
0.297 

> <ROCS_RefColorTversky>
0.189 

> <ROCS_RefTverskyCombo>
0.486 

> <ROCS_FitTversky>
1.673 

> <ROCS_FitColorTversky>
0.628 

> <ROCS_FitTverskyCombo>
2.301 

> <ROCS_ColorScore>
-5.782

> <ROCS_Overlap>
2058.975

> <ROCS_Rank>
468                 

$$$$
untitled-dbase-150935_6
  -OEChem-11132313473D

 26 27  0     0  0  0  0  0  0999 V2000
    6.6617   10.5112   25.3331 C   0  0  0  0  0  0  0  0  0  0  0  0
    6.1563   11.6178   25.9975 C   0  0  0  0  0  0  0  0  0  0  0  0
    7.8306   10.6290   24.5808 C   0  0  0  0  0  0  0  0  0  0  0  0
    6.8460   12.8070   25.8720 C   0  0  0  0  0  0  0  0  0  0  0  0
    8.4596   11.8726   24.4800 C   0  0  0  0  0  0  0  0  0  0  0  0
    6.3730   14.0042   26.5454 C   0  0  0  0  0  0  0  0  0  0  0  0
   10.2600   13.2437   23.4842 C   0  0  0  0  0  0  0  0  0  0  0  0
   10.0043   10.8014   22.8941 C   0  0  0  0  0  0  0  0  0  0  0  0
    9.6626    9.5445   23.6676 C   0  0  0  0  0  0  0  0  0  0  0  0
   10.8511   13.5151   22.1201 C   0  0  0  0  0  0  0  0  0  0  0  0
    7.9706   12.9559   25.1351 N   0  0  0  0  0  0  0  0  0  0  0  0
    9.6178   12.0059   23.6388 N   0  0  0  0  0  0  0  0  0  0  0  0
    5.2730   14.5400   26.3684 O   0  0  0  0  0  0  0  0  0  0  0  0
   10.3768   14.1047   24.3594 O   0  0  0  0  0  0  0  0  0  0  0  0
    8.2699    9.4907   23.9616 O   0  0  0  0  0  0  0  0  0  0  0  0
    7.2851   14.5032   27.4251 O   0  0  0  0  0  0  0  0  0  0  0  0
   10.6330   12.4741   21.2990 F   0  0  0  0  0  0  0  0  0  0  0  0
   10.2938   14.6098   21.5752 F   0  0  0  0  0  0  0  0  0  0  0  0
   12.1770   13.7143   22.2103 F   0  0  0  0  0  0  0  0  0  0  0  0
    6.1497    9.5560   25.4119 H   0  0  0  0  0  0  0  0  0  0  0  0
    5.2530   11.5393   26.5925 H   0  0  0  0  0  0  0  0  0  0  0  0
   11.0750   10.8087   22.6748 H   0  0  0  0  0  0  0  0  0  0  0  0
    9.4592   10.8331   21.9427 H   0  0  0  0  0  0  0  0  0  0  0  0
    9.9046    8.6632   23.0642 H   0  0  0  0  0  0  0  0  0  0  0  0
   10.2411    9.4686   24.5973 H   0  0  0  0  0  0  0  0  0  0  0  0
    8.1126   13.9777   27.4631 H   0  0  0  0  0  0  0  0  0  0  0  0
  1  2  1  0  0  0  0
  1  3  2  0  0  0  0
  2  4  2  0  0  0  0
  3  5  1  0  0  0  0
  3 15  1  0  0  0  0
  4  6  1  0  0  0  0
  4 11  1  0  0  0  0
  5 11  2  0  0  0  0
  5 12  1  0  0  0  0
  6 13  2  0  0  0  0
  6 16  1  0  0  0  0
  7 10  1  0  0  0  0
  7 12  1  0  0  0  0
  7 14  2  0  0  0  0
  8  9  1  0  0  0  0
  8 12  1  0  0  0  0
  9 15  1  0  0  0  0
 10 17  1  0  0  0  0
 10 18  1  0  0  0  0
 10 19  1  0  0  0  0
  1 20  1  0  0  0  0
  2 21  1  0  0  0  0
  8 22  1  0  0  0  0
  8 23  1  0  0  0  0
  9 24  1  0  0  0  0
  9 25  1  0  0  0  0
 16 26  1  0  0  0  0
M  END
> <id>
EN300-28284686

> <smiles>
OC(=O)C=1C=CC=2OCCN(C(=O)C(F)(F)F)C2N1

> <IUPAC Name>
4-(2,2,2-trifluoroacetyl)-2H,3H,4H-pyrido[3,2-b][1,4]oxazine-6-carboxylic acid

> <CAS>
2680870-63-5

> <URL>
https://www.enaminestore.com/catalog/EN300-28284686

> <ROCS_ShapeQuery>
A71EV2A-x0451_0A_A71EV2A-x0310_0A_A71EV2A-x0416_0A_peptide

> <ROCS_TanimotoCombo>
0.507 

> <ROCS_ShapeTanimoto>
0.335 

> <ROCS_ColorTanimoto>
0.172 

> <ROCS_RefTversky>
0.294 

> <ROCS_RefColorTversky>
0.191 

> <ROCS_RefTverskyCombo>
0.486 

> <ROCS_FitTversky>
1.692 

> <ROCS_FitColorTversky>
0.634 

> <ROCS_FitTverskyCombo>
2.326 

> <ROCS_ColorScore>
-5.838

> <ROCS_Overlap>
2043.778

> <ROCS_Rank>
469                 

$$$$
untitled-dbase-154445_1
  -OEChem-11132313473D

 28 29  0     0  0  0  0  0  0999 V2000
    6.5829   12.8823   25.7087 C   0  0  0  0  0  0  0  0  0  0  0  0
    7.7108   13.0920   24.9085 C   0  0  0  0  0  0  0  0  0  0  0  0
    6.7602   10.5118   25.3473 C   0  0  0  0  0  0  0  0  0  0  0  0
    7.8932   10.7199   24.5467 C   0  0  0  0  0  0  0  0  0  0  0  0
    6.1088   11.5948   25.9285 C   0  0  0  0  0  0  0  0  0  0  0  0
    8.3946   12.0169   24.3161 C   0  0  0  0  0  0  0  0  0  0  0  0
    8.5864    9.5311   23.9946 C   0  0  0  0  0  0  0  0  0  0  0  0
    4.9342   11.3815   26.7586 C   0  0  0  0  0  0  0  0  0  0  0  0
   10.2874   13.4036   23.4704 C   0  0  0  0  0  0  0  0  0  0  0  0
    9.8806    9.7744   23.2724 C   0  0  0  0  0  0  0  0  0  0  0  0
    9.8310   11.1016   22.5433 C   0  0  0  0  0  0  0  0  0  0  0  0
   10.9398   13.7973   22.1653 C   0  0  0  0  0  0  0  0  0  0  0  0
    9.5346   12.2181   23.4552 N   0  0  0  0  0  0  0  0  0  0  0  0
    8.1513    8.3986   24.1750 O   0  0  0  0  0  0  0  0  0  0  0  0
    4.2808   12.2692   27.3168 O   0  0  0  0  0  0  0  0  0  0  0  0
   10.4727   14.1232   24.4549 O   0  0  0  0  0  0  0  0  0  0  0  0
    4.6061   10.0648   26.8682 O   0  0  0  0  0  0  0  0  0  0  0  0
   10.6574   12.8961   21.2095 F   0  0  0  0  0  0  0  0  0  0  0  0
   10.4950   14.9990   21.7606 F   0  0  0  0  0  0  0  0  0  0  0  0
   12.2747   13.8641   22.3050 F   0  0  0  0  0  0  0  0  0  0  0  0
    6.0756   13.7396   26.1442 H   0  0  0  0  0  0  0  0  0  0  0  0
    7.9974   14.1240   24.7335 H   0  0  0  0  0  0  0  0  0  0  0  0
    6.3846    9.5073   25.5291 H   0  0  0  0  0  0  0  0  0  0  0  0
   10.7026    9.7432   23.9956 H   0  0  0  0  0  0  0  0  0  0  0  0
   10.0286    8.9693   22.5444 H   0  0  0  0  0  0  0  0  0  0  0  0
   10.7863   11.2428   22.0338 H   0  0  0  0  0  0  0  0  0  0  0  0
    9.0487   11.0994   21.7733 H   0  0  0  0  0  0  0  0  0  0  0  0
    3.8139    9.9103   27.4258 H   0  0  0  0  0  0  0  0  0  0  0  0
  1  2  1  0  0  0  0
  1  5  2  0  0  0  0
  2  6  2  0  0  0  0
  3  4  2  0  0  0  0
  3  5  1  0  0  0  0
  4  6  1  0  0  0  0
  4  7  1  0  0  0  0
  5  8  1  0  0  0  0
  6 13  1  0  0  0  0
  7 10  1  0  0  0  0
  7 14  2  0  0  0  0
  8 15  2  0  0  0  0
  8 17  1  0  0  0  0
  9 12  1  0  0  0  0
  9 13  1  0  0  0  0
  9 16  2  0  0  0  0
 10 11  1  0  0  0  0
 11 13  1  0  0  0  0
 12 18  1  0  0  0  0
 12 19  1  0  0  0  0
 12 20  1  0  0  0  0
  1 21  1  0  0  0  0
  2 22  1  0  0  0  0
  3 23  1  0  0  0  0
 10 24  1  0  0  0  0
 10 25  1  0  0  0  0
 11 26  1  0  0  0  0
 11 27  1  0  0  0  0
 17 28  1  0  0  0  0
M  END
> <id>
EN300-28287333

> <smiles>
OC(=O)C=1C=CC=2N(CCC(=O)C2C1)C(=O)C(F)(F)F

> <IUPAC Name>
4-oxo-1-(2,2,2-trifluoroacetyl)-1,2,3,4-tetrahydroquinoline-6-carboxylic acid

> <CAS>
2680785-25-3

> <URL>
https://www.enaminestore.com/catalog/EN300-28287333

> <ROCS_ShapeQuery>
A71EV2A-x0451_0A_A71EV2A-x0310_0A_A71EV2A-x0416_0A_peptide

> <ROCS_TanimotoCombo>
0.507 

> <ROCS_ShapeTanimoto>
0.355 

> <ROCS_ColorTanimoto>
0.152 

> <ROCS_RefTversky>
0.309 

> <ROCS_RefColorTversky>
0.168 

> <ROCS_RefTverskyCombo>
0.476 

> <ROCS_FitTversky>
1.729 

> <ROCS_FitColorTversky>
0.619 

> <ROCS_FitTverskyCombo>
2.348 

> <ROCS_ColorScore>
-5.107

> <ROCS_Overlap>
2144.310

> <ROCS_Rank>
470                 

$$$$
untitled-dbase-87937_45
  -OEChem-11132313473D

 39 40  0     1  0  0  0  0  0999 V2000
    7.0094   12.9762   25.8833 C   0  0  0  0  0  0  0  0  0  0  0  0
    6.7199   11.7162   26.3888 C   0  0  0  0  0  0  0  0  0  0  0  0
    7.9021   13.1076   24.8218 C   0  0  0  0  0  0  0  0  0  0  0  0
    7.3050   10.5865   25.8173 C   0  0  0  0  0  0  0  0  0  0  0  0
    8.5249   11.9811   24.2499 C   0  0  0  0  0  0  0  0  0  0  0  0
    8.1845   10.6934   24.7223 C   0  0  0  0  0  0  0  0  0  0  0  0
   10.4579   13.3002   23.3556 C   0  0  0  0  0  0  0  0  0  0  0  0
   10.3291   10.9284   22.7965 C   0  0  0  0  0  0  0  0  0  0  0  0
    9.4365    9.6992   22.7459 C   0  0  0  0  0  0  0  0  0  0  0  0
    9.4971   12.1762   23.1018 C   0  0  1  0  0  0  0  0  0  0  0  0
    8.8054    9.4406   24.1215 C   0  0  2  0  0  0  0  0  0  0  0  0
   12.5497   15.2277   23.2804 C   0  0  0  0  0  0  0  0  0  0  0  0
   12.7105   14.6858   20.8330 C   0  0  0  0  0  0  0  0  0  0  0  0
   10.5902   15.6608   21.7613 C   0  0  0  0  0  0  0  0  0  0  0  0
   11.7850   14.7519   22.0460 C   0  0  0  0  0  0  0  0  0  0  0  0
    7.8485    8.3389   23.9559 N   0  0  0  0  0  0  0  0  0  0  0  0
   10.4611   13.9827   24.3711 O   0  0  0  0  0  0  0  0  0  0  0  0
   11.3017   13.4276   22.2922 O   0  0  0  0  0  0  0  0  0  0  0  0
    6.5444   13.8573   26.3145 H   0  0  0  0  0  0  0  0  0  0  0  0
    6.0361   11.6079   27.2259 H   0  0  0  0  0  0  0  0  0  0  0  0
    8.1177   14.1032   24.4364 H   0  0  0  0  0  0  0  0  0  0  0  0
    7.0658    9.6063   26.2294 H   0  0  0  0  0  0  0  0  0  0  0  0
   11.1075   10.7898   23.5517 H   0  0  0  0  0  0  0  0  0  0  0  0
   10.8354   11.0554   21.8351 H   0  0  0  0  0  0  0  0  0  0  0  0
    8.6607    9.8304   21.9869 H   0  0  0  0  0  0  0  0  0  0  0  0
   10.0228    8.8260   22.4459 H   0  0  0  0  0  0  0  0  0  0  0  0
    8.9417   12.4283   22.1981 H   0  0  0  0  0  0  0  0  0  0  0  0
    9.6176    9.0861   24.7774 H   0  0  0  0  0  0  0  0  0  0  0  0
   11.8888   15.2765   24.1532 H   0  0  0  0  0  0  0  0  0  0  0  0
   13.3884   14.5645   23.5158 H   0  0  0  0  0  0  0  0  0  0  0  0
   12.9407   16.2407   23.1317 H   0  0  0  0  0  0  0  0  0  0  0  0
   12.1661   14.3449   19.9450 H   0  0  0  0  0  0  0  0  0  0  0  0
   13.5176   13.9626   20.9968 H   0  0  0  0  0  0  0  0  0  0  0  0
   13.1578   15.6604   20.6125 H   0  0  0  0  0  0  0  0  0  0  0  0
   10.0416   15.3198   20.8759 H   0  0  0  0  0  0  0  0  0  0  0  0
    9.8961   15.6914   22.6074 H   0  0  0  0  0  0  0  0  0  0  0  0
   10.9211   16.6831   21.5452 H   0  0  0  0  0  0  0  0  0  0  0  0
    8.3307    7.5772   23.5462 H   0  0  0  0  0  0  0  0  0  0  0  0
    7.5030    8.1006   24.8529 H   0  0  0  0  0  0  0  0  0  0  0  0
  1  2  2  0  0  0  0
  1  3  1  0  0  0  0
  2  4  1  0  0  0  0
  3  5  2  0  0  0  0
  4  6  2  0  0  0  0
  5  6  1  0  0  0  0
  5 10  1  0  0  0  0
  6 11  1  0  0  0  0
  7 10  1  0  0  0  0
  7 17  2  0  0  0  0
  7 18  1  0  0  0  0
  8  9  1  0  0  0  0
  8 10  1  0  0  0  0
  9 11  1  0  0  0  0
 11 16  1  0  0  0  0
 12 15  1  0  0  0  0
 13 15  1  0  0  0  0
 14 15  1  0  0  0  0
 15 18  1  0  0  0  0
  1 19  1  0  0  0  0
  2 20  1  0  0  0  0
  3 21  1  0  0  0  0
  4 22  1  0  0  0  0
  8 23  1  0  0  0  0
  8 24  1  0  0  0  0
  9 25  1  0  0  0  0
  9 26  1  0  0  0  0
 10 27  1  0  0  0  0
 11 28  1  0  0  0  0
 12 29  1  0  0  0  0
 12 30  1  0  0  0  0
 12 31  1  0  0  0  0
 13 32  1  0  0  0  0
 13 33  1  0  0  0  0
 13 34  1  0  0  0  0
 14 35  1  0  0  0  0
 14 36  1  0  0  0  0
 14 37  1  0  0  0  0
 16 38  1  0  0  0  0
 16 39  1  0  0  0  0
M  END
> <id>
EN300-6512418

> <smiles>
CC(C)(C)OC(=O)C1CCC(N)C=2C=CC=CC12

> <IUPAC Name>
tert-butyl 4-amino-1,2,3,4-tetrahydronaphthalene-1-carboxylate

> <CAS>
2248412-67-9

> <URL>
https://www.enaminestore.com/catalog/EN300-6512418

> <ROCS_ShapeQuery>
A71EV2A-x0451_0A_A71EV2A-x0310_0A_A71EV2A-x0416_0A_peptide

> <ROCS_TanimotoCombo>
0.507 

> <ROCS_ShapeTanimoto>
0.341 

> <ROCS_ColorTanimoto>
0.166 

> <ROCS_RefTversky>
0.295 

> <ROCS_RefColorTversky>
0.176 

> <ROCS_RefTverskyCombo>
0.472 

> <ROCS_FitTversky>
1.836 

> <ROCS_FitColorTversky>
0.735 

> <ROCS_FitTverskyCombo>
2.571 

> <ROCS_ColorScore>
-5.361

> <ROCS_Overlap>
2048.722

> <ROCS_Rank>
471                 

$$$$
untitled-dbase-100415_195
  -OEChem-11132313473D

 41 42  0     1  0  0  0  0  0999 V2000
   10.3686   13.1369   23.4867 C   0  0  0  0  0  0  0  0  0  0  0  0
    7.4929   12.9130   24.9380 C   0  0  0  0  0  0  0  0  0  0  0  0
    6.6841   10.7927   25.6715 C   0  0  0  0  0  0  0  0  0  0  0  0
    9.2212   11.1050   22.5881 C   0  0  0  0  0  0  0  0  0  0  0  0
    8.0258   10.2178   22.8648 C   0  0  0  0  0  0  0  0  0  0  0  0
    6.6019   12.2805   26.0040 C   0  0  2  0  0  0  0  0  0  0  0  0
    8.7022   11.9684   24.8903 C   0  0  1  0  0  0  0  0  0  0  0  0
    8.1326   10.5698   25.2113 C   0  0  2  0  0  0  0  0  0  0  0  0
   12.3825   15.0153   22.7124 C   0  0  0  0  0  0  0  0  0  0  0  0
   12.0748   14.1089   20.3902 C   0  0  0  0  0  0  0  0  0  0  0  0
   10.1600   15.2437   21.5537 C   0  0  0  0  0  0  0  0  0  0  0  0
    5.1812   12.8177   25.9890 C   0  0  0  0  0  0  0  0  0  0  0  0
   11.4007   14.3705   21.7353 C   0  0  0  0  0  0  0  0  0  0  0  0
    9.4503   12.0902   23.6433 N   0  0  0  0  0  0  0  0  0  0  0  0
   10.5989   13.9906   24.3411 O   0  0  0  0  0  0  0  0  0  0  0  0
    8.1780    9.6256   24.1472 O   0  0  0  0  0  0  0  0  0  0  0  0
    5.2190   14.2135   26.2337 O   0  0  0  0  0  0  0  0  0  0  0  0
   10.9934   13.1047   22.2672 O   0  0  0  0  0  0  0  0  0  0  0  0
    6.9784   12.9476   23.9684 H   0  0  0  0  0  0  0  0  0  0  0  0
    7.7825   13.9365   25.2036 H   0  0  0  0  0  0  0  0  0  0  0  0
    6.4876   10.2119   26.5754 H   0  0  0  0  0  0  0  0  0  0  0  0
    5.9669   10.4906   24.9067 H   0  0  0  0  0  0  0  0  0  0  0  0
   10.1246   10.4965   22.4323 H   0  0  0  0  0  0  0  0  0  0  0  0
    9.0588   11.6802   21.6630 H   0  0  0  0  0  0  0  0  0  0  0  0
    7.1131   10.8183   22.8797 H   0  0  0  0  0  0  0  0  0  0  0  0
    7.9064    9.4431   22.1012 H   0  0  0  0  0  0  0  0  0  0  0  0
    7.0429   12.4490   26.9805 H   0  0  0  0  0  0  0  0  0  0  0  0
    9.3824   12.2613   25.7318 H   0  0  0  0  0  0  0  0  0  0  0  0
    8.7189   10.1081   26.0802 H   0  0  0  0  0  0  0  0  0  0  0  0
   11.9024   15.2047   23.6792 H   0  0  0  0  0  0  0  0  0  0  0  0
   13.2607   14.3827   22.8783 H   0  0  0  0  0  0  0  0  0  0  0  0
   12.7224   15.9885   22.3402 H   0  0  0  0  0  0  0  0  0  0  0  0
   11.3739   13.6463   19.6859 H   0  0  0  0  0  0  0  0  0  0  0  0
   12.9089   13.4067   20.5016 H   0  0  0  0  0  0  0  0  0  0  0  0
   12.4565   15.0325   19.9431 H   0  0  0  0  0  0  0  0  0  0  0  0
    9.4555   14.7814   20.8528 H   0  0  0  0  0  0  0  0  0  0  0  0
    9.6423   15.4115   22.5037 H   0  0  0  0  0  0  0  0  0  0  0  0
   10.4276   16.2169   21.1263 H   0  0  0  0  0  0  0  0  0  0  0  0
    4.5871   12.3349   26.7675 H   0  0  0  0  0  0  0  0  0  0  0  0
    4.7200   12.6384   25.0158 H   0  0  0  0  0  0  0  0  0  0  0  0
    4.2999   14.5293   26.2186 H   0  0  0  0  0  0  0  0  0  0  0  0
  1 14  1  0  0  0  0
  1 15  2  0  0  0  0
  1 18  1  0  0  0  0
  2  6  1  0  0  0  0
  2  7  1  6  0  0  0
  3  6  1  0  0  0  0
  3  8  1  6  0  0  0
  4  5  1  0  0  0  0
  4 14  1  0  0  0  0
  5 16  1  0  0  0  0
  6 12  1  6  0  0  0
  7  8  1  0  0  0  0
  7 14  1  0  0  0  0
  8 16  1  0  0  0  0
  9 13  1  0  0  0  0
 10 13  1  0  0  0  0
 11 13  1  0  0  0  0
 12 17  1  0  0  0  0
 13 18  1  0  0  0  0
  2 19  1  0  0  0  0
  2 20  1  0  0  0  0
  3 21  1  0  0  0  0
  3 22  1  0  0  0  0
  4 23  1  0  0  0  0
  4 24  1  0  0  0  0
  5 25  1  0  0  0  0
  5 26  1  0  0  0  0
  6 27  1  0  0  0  0
  7 28  1  0  0  0  0
  8 29  1  0  0  0  0
  9 30  1  0  0  0  0
  9 31  1  0  0  0  0
  9 32  1  0  0  0  0
 10 33  1  0  0  0  0
 10 34  1  0  0  0  0
 10 35  1  0  0  0  0
 11 36  1  0  0  0  0
 11 37  1  0  0  0  0
 11 38  1  0  0  0  0
 12 39  1  0  0  0  0
 12 40  1  0  0  0  0
 17 41  1  0  0  0  0
M  END
> <id>
EN300-33051613

> <smiles>
CC(C)(C)OC(=O)N1CCO[C@@H]2C[C@H](CO)C[C@@H]21 |&1:11,13,17,r|

> <IUPAC Name>
rac-tert-butyl (4aR,6S,7aS)-6-(hydroxymethyl)-octahydrocyclopenta[b][1,4]oxazine-4-carboxylate

> <URL>
https://www.enaminestore.com/catalog/EN300-33051613

> <ROCS_ShapeQuery>
A71EV2A-x0451_0A_A71EV2A-x0310_0A_A71EV2A-x0416_0A_peptide

> <ROCS_TanimotoCombo>
0.507 

> <ROCS_ShapeTanimoto>
0.314 

> <ROCS_ColorTanimoto>
0.193 

> <ROCS_RefTversky>
0.277 

> <ROCS_RefColorTversky>
0.206 

> <ROCS_RefTverskyCombo>
0.483 

> <ROCS_FitTversky>
1.730 

> <ROCS_FitColorTversky>
0.758 

> <ROCS_FitTverskyCombo>
2.488 

> <ROCS_ColorScore>
-6.268

> <ROCS_Overlap>
1922.420

> <ROCS_Rank>
472                 

$$$$
untitled-dbase-40431_38
  -OEChem-11132313473D

 39 41  0     1  0  0  0  0  0999 V2000
    6.8689   12.5047   25.7951 C   0  0  0  0  0  0  0  0  0  0  0  0
    6.1913   11.3033   25.6239 C   0  0  0  0  0  0  0  0  0  0  0  0
    8.1751   12.6394   25.3268 C   0  0  0  0  0  0  0  0  0  0  0  0
    6.8274   10.2293   25.0023 C   0  0  0  0  0  0  0  0  0  0  0  0
   10.9811   13.3204   22.2522 C   0  0  0  0  0  0  0  0  0  0  0  0
    8.8172   11.5767   24.6658 C   0  0  0  0  0  0  0  0  0  0  0  0
    8.1485   10.3394   24.5394 C   0  0  0  0  0  0  0  0  0  0  0  0
   11.1190   14.6853   22.2178 C   0  0  0  0  0  0  0  0  0  0  0  0
   10.6126   10.5997   23.1623 C   0  0  0  0  0  0  0  0  0  0  0  0
   10.1829    9.2426   23.7001 C   0  0  0  0  0  0  0  0  0  0  0  0
   10.2483   11.7242   24.1544 C   0  0  1  0  0  0  0  0  0  0  0  0
   11.8532   14.7169   19.8083 C   0  0  0  0  0  0  0  0  0  0  0  0
   12.8332   16.3610   21.4431 C   0  0  0  0  0  0  0  0  0  0  0  0
   10.4975   16.6302   20.6347 C   0  0  0  0  0  0  0  0  0  0  0  0
   11.5377   15.5446   21.1029 C   0  0  0  0  0  0  0  0  0  0  0  0
   10.7939   15.2107   23.4375 N   0  0  0  0  0  0  0  0  0  0  0  0
   10.4557   14.2057   24.2379 N   0  0  0  0  0  0  0  0  0  0  0  0
   10.5687   13.0732   23.5253 N   0  0  0  0  0  0  0  0  0  0  0  0
    8.7578    9.2368   23.9525 N   0  0  0  0  0  0  0  0  0  0  0  0
    6.3835   13.3372   26.2967 H   0  0  0  0  0  0  0  0  0  0  0  0
    5.1692   11.1996   25.9743 H   0  0  0  0  0  0  0  0  0  0  0  0
    8.6977   13.5821   25.4821 H   0  0  0  0  0  0  0  0  0  0  0  0
    6.2806    9.2971   24.8755 H   0  0  0  0  0  0  0  0  0  0  0  0
   11.1316   12.5413   21.5182 H   0  0  0  0  0  0  0  0  0  0  0  0
   11.6947   10.5942   23.0122 H   0  0  0  0  0  0  0  0  0  0  0  0
   10.1473   10.7799   22.1928 H   0  0  0  0  0  0  0  0  0  0  0  0
   10.4275    8.4544   22.9827 H   0  0  0  0  0  0  0  0  0  0  0  0
   10.7160    9.0204   24.6275 H   0  0  0  0  0  0  0  0  0  0  0  0
   10.9768   11.6618   25.0073 H   0  0  0  0  0  0  0  0  0  0  0  0
   12.1685   15.3353   18.9598 H   0  0  0  0  0  0  0  0  0  0  0  0
   12.6531   13.9906   19.9894 H   0  0  0  0  0  0  0  0  0  0  0  0
   10.9631   14.1558   19.4997 H   0  0  0  0  0  0  0  0  0  0  0  0
   13.1317   16.9962   20.6019 H   0  0  0  0  0  0  0  0  0  0  0  0
   12.7209   17.0162   22.3149 H   0  0  0  0  0  0  0  0  0  0  0  0
   13.6628   15.6738   21.6470 H   0  0  0  0  0  0  0  0  0  0  0  0
   10.8558   17.2460   19.8008 H   0  0  0  0  0  0  0  0  0  0  0  0
    9.5672   16.1529   20.3053 H   0  0  0  0  0  0  0  0  0  0  0  0
   10.2584   17.3124   21.4589 H   0  0  0  0  0  0  0  0  0  0  0  0
    8.1845    8.5300   23.5218 H   0  0  0  0  0  0  0  0  0  0  0  0
  1  2  2  0  0  0  0
  1  3  1  0  0  0  0
  2  4  1  0  0  0  0
  3  6  2  0  0  0  0
  4  7  2  0  0  0  0
  5  8  2  0  0  0  0
  5 18  1  0  0  0  0
  6  7  1  0  0  0  0
  6 11  1  0  0  0  0
  7 19  1  0  0  0  0
  8 15  1  0  0  0  0
  8 16  1  0  0  0  0
  9 10  1  0  0  0  0
  9 11  1  0  0  0  0
 10 19  1  0  0  0  0
 11 18  1  0  0  0  0
 12 15  1  0  0  0  0
 13 15  1  0  0  0  0
 14 15  1  0  0  0  0
 16 17  2  0  0  0  0
 17 18  1  0  0  0  0
  1 20  1  0  0  0  0
  2 21  1  0  0  0  0
  3 22  1  0  0  0  0
  4 23  1  0  0  0  0
  5 24  1  0  0  0  0
  9 25  1  0  0  0  0
  9 26  1  0  0  0  0
 10 27  1  0  0  0  0
 10 28  1  0  0  0  0
 11 29  1  0  0  0  0
 12 30  1  0  0  0  0
 12 31  1  0  0  0  0
 12 32  1  0  0  0  0
 13 33  1  0  0  0  0
 13 34  1  0  0  0  0
 13 35  1  0  0  0  0
 14 36  1  0  0  0  0
 14 37  1  0  0  0  0
 14 38  1  0  0  0  0
 19 39  1  0  0  0  0
M  END
> <id>
EN300-764395

> <smiles>
CC(C)(C)C1=CN(N=N1)C2CCNC=3C=CC=CC23

> <IUPAC Name>
4-(4-tert-butyl-1H-1,2,3-triazol-1-yl)-1,2,3,4-tetrahydroquinoline

> <CAS>
2138517-79-8

> <URL>
https://www.enaminestore.com/catalog/EN300-764395

> <ROCS_ShapeQuery>
A71EV2A-x0451_0A_A71EV2A-x0310_0A_A71EV2A-x0416_0A_peptide

> <ROCS_TanimotoCombo>
0.507 

> <ROCS_ShapeTanimoto>
0.339 

> <ROCS_ColorTanimoto>
0.168 

> <ROCS_RefTversky>
0.296 

> <ROCS_RefColorTversky>
0.184 

> <ROCS_RefTverskyCombo>
0.480 

> <ROCS_FitTversky>
1.747 

> <ROCS_FitColorTversky>
0.654 

> <ROCS_FitTverskyCombo>
2.401 

> <ROCS_ColorScore>
-5.604

> <ROCS_Overlap>
2056.417

> <ROCS_Rank>
473                 

$$$$
untitled-dbase-157109_18
  -OEChem-11132313473D

 35 36  0     0  0  0  0  0  0999 V2000
   11.0008   10.1419   22.0252 C   0  0  0  0  0  0  0  0  0  0  0  0
    6.7494   13.2076   25.2526 C   0  0  0  0  0  0  0  0  0  0  0  0
    7.8224   13.0741   24.3762 C   0  0  0  0  0  0  0  0  0  0  0  0
    6.1883   12.0739   25.8274 C   0  0  0  0  0  0  0  0  0  0  0  0
    9.2861    9.3007   23.5278 C   0  0  0  0  0  0  0  0  0  0  0  0
    9.9035   10.3709   22.9126 C   0  0  0  0  0  0  0  0  0  0  0  0
    8.3380   11.8029   24.0717 C   0  0  0  0  0  0  0  0  0  0  0  0
    7.7733   10.6475   24.6515 C   0  0  0  0  0  0  0  0  0  0  0  0
    9.4174   11.6397   23.1929 C   0  0  0  0  0  0  0  0  0  0  0  0
    6.7012   10.8101   25.5246 C   0  0  0  0  0  0  0  0  0  0  0  0
   10.6435   13.8323   23.1925 C   0  0  0  0  0  0  0  0  0  0  0  0
   13.2201   13.6847   22.7298 C   0  0  0  0  0  0  0  0  0  0  0  0
   12.9083   15.2145   20.7621 C   0  0  0  0  0  0  0  0  0  0  0  0
   12.8039   16.1400   23.0946 C   0  0  0  0  0  0  0  0  0  0  0  0
   12.5070   14.9314   22.2081 C   0  0  0  0  0  0  0  0  0  0  0  0
   11.8916    9.9560   21.3049 N   0  0  0  0  0  0  0  0  0  0  0  0
    8.2429    9.4149   24.3814 N   0  0  0  0  0  0  0  0  0  0  0  0
   10.0216   12.7512   22.5847 N   0  0  0  0  0  0  0  0  0  0  0  0
   10.7875   14.0301   24.3927 O   0  0  0  0  0  0  0  0  0  0  0  0
   11.0953   14.6895   22.2246 O   0  0  0  0  0  0  0  0  0  0  0  0
    5.8747    9.3089   26.3551 Br  0  0  0  0  0  0  0  0  0  0  0  0
    6.3536   14.1914   25.4855 H   0  0  0  0  0  0  0  0  0  0  0  0
    8.2403   13.9793   23.9422 H   0  0  0  0  0  0  0  0  0  0  0  0
    5.3507   12.1903   26.5105 H   0  0  0  0  0  0  0  0  0  0  0  0
    9.6121    8.2787   23.3563 H   0  0  0  0  0  0  0  0  0  0  0  0
   12.9346   13.4781   23.7675 H   0  0  0  0  0  0  0  0  0  0  0  0
   12.9875   12.8034   22.1231 H   0  0  0  0  0  0  0  0  0  0  0  0
   14.3067   13.8274   22.7306 H   0  0  0  0  0  0  0  0  0  0  0  0
   12.3990   16.1081   20.3836 H   0  0  0  0  0  0  0  0  0  0  0  0
   12.6111   14.3886   20.1057 H   0  0  0  0  0  0  0  0  0  0  0  0
   13.9885   15.3635   20.6643 H   0  0  0  0  0  0  0  0  0  0  0  0
   12.2925   17.0343   22.7206 H   0  0  0  0  0  0  0  0  0  0  0  0
   12.4885   15.9687   24.1289 H   0  0  0  0  0  0  0  0  0  0  0  0
   13.8750   16.3721   23.0911 H   0  0  0  0  0  0  0  0  0  0  0  0
   10.0008   12.7660   21.5635 H   0  0  0  0  0  0  0  0  0  0  0  0
  1  6  1  0  0  0  0
  1 16  3  0  0  0  0
  2  3  1  0  0  0  0
  2  4  2  0  0  0  0
  3  7  2  0  0  0  0
  4 10  1  0  0  0  0
  5  6  1  0  0  0  0
  5 17  2  0  0  0  0
  6  9  2  0  0  0  0
  7  8  1  0  0  0  0
  7  9  1  0  0  0  0
  8 10  2  0  0  0  0
  8 17  1  0  0  0  0
  9 18  1  0  0  0  0
 10 21  1  0  0  0  0
 11 18  1  0  0  0  0
 11 19  2  0  0  0  0
 11 20  1  0  0  0  0
 12 15  1  0  0  0  0
 13 15  1  0  0  0  0
 14 15  1  0  0  0  0
 15 20  1  0  0  0  0
  2 22  1  0  0  0  0
  3 23  1  0  0  0  0
  4 24  1  0  0  0  0
  5 25  1  0  0  0  0
 12 26  1  0  0  0  0
 12 27  1  0  0  0  0
 12 28  1  0  0  0  0
 13 29  1  0  0  0  0
 13 30  1  0  0  0  0
 13 31  1  0  0  0  0
 14 32  1  0  0  0  0
 14 33  1  0  0  0  0
 14 34  1  0  0  0  0
 18 35  1  0  0  0  0
M  END
> <id>
EN300-28298208

> <smiles>
CC(C)(C)OC(=O)NC=1C(C#N)=CN=C2C(Br)=CC=CC12

> <IUPAC Name>
tert-butyl N-(8-bromo-3-cyanoquinolin-4-yl)carbamate

> <CAS>
2680667-01-8

> <URL>
https://www.enaminestore.com/catalog/EN300-28298208

> <ROCS_ShapeQuery>
A71EV2A-x0451_0A_A71EV2A-x0310_0A_A71EV2A-x0416_0A_peptide

> <ROCS_TanimotoCombo>
0.507 

> <ROCS_ShapeTanimoto>
0.353 

> <ROCS_ColorTanimoto>
0.154 

> <ROCS_RefTversky>
0.308 

> <ROCS_RefColorTversky>
0.174 

> <ROCS_RefTverskyCombo>
0.482 

> <ROCS_FitTversky>
1.700 

> <ROCS_FitColorTversky>
0.577 

> <ROCS_FitTverskyCombo>
2.277 

> <ROCS_ColorScore>
-5.299

> <ROCS_Overlap>
2139.172

> <ROCS_Rank>
474                 

$$$$
untitled-dbase-157334_36
  -OEChem-11132313473D

 34 35  0     0  0  0  0  0  0999 V2000
    8.3606   13.4319   24.5430 C   0  0  0  0  0  0  0  0  0  0  0  0
   10.3309    8.1791   22.0594 C   0  0  0  0  0  0  0  0  0  0  0  0
    9.3905    7.3943   22.7158 C   0  0  0  0  0  0  0  0  0  0  0  0
   10.3451    9.5555   22.2695 C   0  0  0  0  0  0  0  0  0  0  0  0
    8.4675    7.9876   23.5798 C   0  0  0  0  0  0  0  0  0  0  0  0
    8.4675   12.0428   24.2331 C   0  0  0  0  0  0  0  0  0  0  0  0
    9.4160   10.1516   23.1390 C   0  0  0  0  0  0  0  0  0  0  0  0
    8.4630    9.3617   23.8049 C   0  0  0  0  0  0  0  0  0  0  0  0
    9.4076   11.5276   23.3676 C   0  0  0  0  0  0  0  0  0  0  0  0
   10.8524   13.5774   23.2188 C   0  0  0  0  0  0  0  0  0  0  0  0
   11.3597   16.3768   22.9271 C   0  0  0  0  0  0  0  0  0  0  0  0
   12.4769   15.7610   20.7633 C   0  0  0  0  0  0  0  0  0  0  0  0
   10.0285   15.3007   21.0820 C   0  0  0  0  0  0  0  0  0  0  0  0
   11.3913   15.3815   21.7682 C   0  0  0  0  0  0  0  0  0  0  0  0
    8.2737   14.5614   24.7952 N   0  0  0  0  0  0  0  0  0  0  0  0
    7.5643   11.2705   24.8604 N   0  0  0  0  0  0  0  0  0  0  0  0
    7.5693    9.9201   24.6388 N   0  0  0  0  0  0  0  0  0  0  0  0
   10.3273   12.3821   22.7448 N   0  0  0  0  0  0  0  0  0  0  0  0
   10.6091   14.1238   24.2878 O   0  0  0  0  0  0  0  0  0  0  0  0
   11.7177   14.0872   22.2878 O   0  0  0  0  0  0  0  0  0  0  0  0
   11.0509    7.7221   21.3874 H   0  0  0  0  0  0  0  0  0  0  0  0
    9.3732    6.3199   22.5579 H   0  0  0  0  0  0  0  0  0  0  0  0
   11.0923   10.1437   21.7422 H   0  0  0  0  0  0  0  0  0  0  0  0
    7.7404    7.3535   24.0834 H   0  0  0  0  0  0  0  0  0  0  0  0
   10.5817   16.1079   23.6506 H   0  0  0  0  0  0  0  0  0  0  0  0
   12.3210   16.4184   23.4495 H   0  0  0  0  0  0  0  0  0  0  0  0
   11.1155   17.3842   22.5708 H   0  0  0  0  0  0  0  0  0  0  0  0
   12.5032   15.0495   19.9301 H   0  0  0  0  0  0  0  0  0  0  0  0
   13.4685   15.7278   21.2289 H   0  0  0  0  0  0  0  0  0  0  0  0
   12.3181   16.7651   20.3570 H   0  0  0  0  0  0  0  0  0  0  0  0
   10.0509   14.5868   20.2506 H   0  0  0  0  0  0  0  0  0  0  0  0
    9.2430   14.9936   21.7801 H   0  0  0  0  0  0  0  0  0  0  0  0
    9.7515   16.2694   20.6503 H   0  0  0  0  0  0  0  0  0  0  0  0
   10.6541   12.0875   21.8218 H   0  0  0  0  0  0  0  0  0  0  0  0
  1  6  1  0  0  0  0
  1 15  3  0  0  0  0
  2  3  2  0  0  0  0
  2  4  1  0  0  0  0
  3  5  1  0  0  0  0
  4  7  2  0  0  0  0
  5  8  2  0  0  0  0
  6  9  2  0  0  0  0
  6 16  1  0  0  0  0
  7  8  1  0  0  0  0
  7  9  1  0  0  0  0
  8 17  1  0  0  0  0
  9 18  1  0  0  0  0
 10 18  1  0  0  0  0
 10 19  2  0  0  0  0
 10 20  1  0  0  0  0
 11 14  1  0  0  0  0
 12 14  1  0  0  0  0
 13 14  1  0  0  0  0
 14 20  1  0  0  0  0
 16 17  2  0  0  0  0
  2 21  1  0  0  0  0
  3 22  1  0  0  0  0
  4 23  1  0  0  0  0
  5 24  1  0  0  0  0
 11 25  1  0  0  0  0
 11 26  1  0  0  0  0
 11 27  1  0  0  0  0
 12 28  1  0  0  0  0
 12 29  1  0  0  0  0
 12 30  1  0  0  0  0
 13 31  1  0  0  0  0
 13 32  1  0  0  0  0
 13 33  1  0  0  0  0
 18 34  1  0  0  0  0
M  END
> <id>
EN300-28283341

> <smiles>
CC(C)(C)OC(=O)NC=1C(C#N)=NN=C2C=CC=CC12

> <IUPAC Name>
tert-butyl N-(3-cyanocinnolin-4-yl)carbamate

> <CAS>
2680763-07-7

> <URL>
https://www.enaminestore.com/catalog/EN300-28283341

> <ROCS_ShapeQuery>
A71EV2A-x0451_0A_A71EV2A-x0310_0A_A71EV2A-x0416_0A_peptide

> <ROCS_TanimotoCombo>
0.507 

> <ROCS_ShapeTanimoto>
0.342 

> <ROCS_ColorTanimoto>
0.165 

> <ROCS_RefTversky>
0.300 

> <ROCS_RefColorTversky>
0.186 

> <ROCS_RefTverskyCombo>
0.486 

> <ROCS_FitTversky>
1.692 

> <ROCS_FitColorTversky>
0.598 

> <ROCS_FitTverskyCombo>
2.290 

> <ROCS_ColorScore>
-5.675

> <ROCS_Overlap>
2080.666

> <ROCS_Rank>
475                 

$$$$
untitled-dbase-153854_7
  -OEChem-11132313473D

 34 35  0     0  0  0  0  0  0999 V2000
    6.4815   12.3576   25.7636 C   0  0  0  0  0  0  0  0  0  0  0  0
    5.4932   11.6593   26.4514 C   0  0  0  0  0  0  0  0  0  0  0  0
    8.4229   12.3484   24.2695 C   0  0  0  0  0  0  0  0  0  0  0  0
    6.3673    9.5918   25.5651 C   0  0  0  0  0  0  0  0  0  0  0  0
    7.4177   11.6705   24.9723 C   0  0  0  0  0  0  0  0  0  0  0  0
    7.3659   10.2648   24.8665 C   0  0  0  0  0  0  0  0  0  0  0  0
    9.3324   11.6411   23.4965 C   0  0  0  0  0  0  0  0  0  0  0  0
    5.4363   10.2747   26.3518 C   0  0  0  0  0  0  0  0  0  0  0  0
    9.2020   10.2677   23.4544 C   0  0  0  0  0  0  0  0  0  0  0  0
   10.9584   13.5202   23.1279 C   0  0  0  0  0  0  0  0  0  0  0  0
   11.7207   16.2036   22.4974 C   0  0  0  0  0  0  0  0  0  0  0  0
   12.8112   15.2190   20.4600 C   0  0  0  0  0  0  0  0  0  0  0  0
   10.3266   15.0196   20.7684 C   0  0  0  0  0  0  0  0  0  0  0  0
   11.6804   15.0685   21.4753 C   0  0  0  0  0  0  0  0  0  0  0  0
    8.2472    9.5757   24.1172 N   0  0  0  0  0  0  0  0  0  0  0  0
   10.3304   12.3214   22.7986 N   0  0  0  0  0  0  0  0  0  0  0  0
   10.7489   14.2189   24.1121 O   0  0  0  0  0  0  0  0  0  0  0  0
   11.8805   13.8283   22.1634 O   0  0  0  0  0  0  0  0  0  0  0  0
   10.2592    9.2646   22.5376 Cl  0  0  0  0  0  0  0  0  0  0  0  0
    4.0994    9.3146   27.2812 Br  0  0  0  0  0  0  0  0  0  0  0  0
    6.5172   13.4414   25.8484 H   0  0  0  0  0  0  0  0  0  0  0  0
    4.7788   12.2093   27.0579 H   0  0  0  0  0  0  0  0  0  0  0  0
    8.4922   13.4334   24.3281 H   0  0  0  0  0  0  0  0  0  0  0  0
    6.3151    8.5060   25.4921 H   0  0  0  0  0  0  0  0  0  0  0  0
   10.9106   16.0992   23.2279 H   0  0  0  0  0  0  0  0  0  0  0  0
   12.6737   16.2278   23.0360 H   0  0  0  0  0  0  0  0  0  0  0  0
   11.5740   17.1742   22.0098 H   0  0  0  0  0  0  0  0  0  0  0  0
   12.7861   14.4066   19.7248 H   0  0  0  0  0  0  0  0  0  0  0  0
   13.7885   15.1594   20.9526 H   0  0  0  0  0  0  0  0  0  0  0  0
   12.7500   16.1724   19.9255 H   0  0  0  0  0  0  0  0  0  0  0  0
   10.2974   14.2055   20.0353 H   0  0  0  0  0  0  0  0  0  0  0  0
    9.5058   14.8749   21.4784 H   0  0  0  0  0  0  0  0  0  0  0  0
   10.1449   15.9452   20.2101 H   0  0  0  0  0  0  0  0  0  0  0  0
   10.6433   11.8803   21.9273 H   0  0  0  0  0  0  0  0  0  0  0  0
  1  2  1  0  0  0  0
  1  5  2  0  0  0  0
  2  8  2  0  0  0  0
  3  5  1  0  0  0  0
  3  7  2  0  0  0  0
  4  6  2  0  0  0  0
  4  8  1  0  0  0  0
  5  6  1  0  0  0  0
  6 15  1  0  0  0  0
  7  9  1  0  0  0  0
  7 16  1  0  0  0  0
  8 20  1  0  0  0  0
  9 15  2  0  0  0  0
  9 19  1  0  0  0  0
 10 16  1  0  0  0  0
 10 17  2  0  0  0  0
 10 18  1  0  0  0  0
 11 14  1  0  0  0  0
 12 14  1  0  0  0  0
 13 14  1  0  0  0  0
 14 18  1  0  0  0  0
  1 21  1  0  0  0  0
  2 22  1  0  0  0  0
  3 23  1  0  0  0  0
  4 24  1  0  0  0  0
 11 25  1  0  0  0  0
 11 26  1  0  0  0  0
 11 27  1  0  0  0  0
 12 28  1  0  0  0  0
 12 29  1  0  0  0  0
 12 30  1  0  0  0  0
 13 31  1  0  0  0  0
 13 32  1  0  0  0  0
 13 33  1  0  0  0  0
 16 34  1  0  0  0  0
M  END
> <id>
EN300-28299438

> <smiles>
CC(C)(C)OC(=O)NC=1C=C2C=CC(Br)=CC2=NC1Cl

> <IUPAC Name>
tert-butyl N-(7-bromo-2-chloroquinolin-3-yl)carbamate

> <CAS>
2680746-50-1

> <URL>
https://www.enaminestore.com/catalog/EN300-28299438

> <ROCS_ShapeQuery>
A71EV2A-x0451_0A_A71EV2A-x0310_0A_A71EV2A-x0416_0A_peptide

> <ROCS_TanimotoCombo>
0.507 

> <ROCS_ShapeTanimoto>
0.346 

> <ROCS_ColorTanimoto>
0.161 

> <ROCS_RefTversky>
0.301 

> <ROCS_RefColorTversky>
0.176 

> <ROCS_RefTverskyCombo>
0.478 

> <ROCS_FitTversky>
1.737 

> <ROCS_FitColorTversky>
0.652 

> <ROCS_FitTverskyCombo>
2.390 

> <ROCS_ColorScore>
-5.375

> <ROCS_Overlap>
2091.508

> <ROCS_Rank>
476                 

$$$$
untitled-dbase-101670_12
  -OEChem-11132313473D

 37 38  0     0  0  0  0  0  0999 V2000
   10.8364   13.5614   23.0544 C   0  0  0  0  0  0  0  0  0  0  0  0
    8.0505   12.4438   23.9063 C   0  0  0  0  0  0  0  0  0  0  0  0
    9.9612   11.1859   24.9493 C   0  0  0  0  0  0  0  0  0  0  0  0
    7.0787   11.3546   24.3841 C   0  0  0  0  0  0  0  0  0  0  0  0
    8.9836   10.0993   25.4208 C   0  0  0  0  0  0  0  0  0  0  0  0
    8.7832   10.3366   23.0538 C   0  0  0  0  0  0  0  0  0  0  0  0
    9.3425   11.6485   23.6108 C   0  0  0  0  0  0  0  0  0  0  0  0
    7.9335   10.0801   24.2999 C   0  0  0  0  0  0  0  0  0  0  0  0
   12.3509   15.9801   23.1344 C   0  0  0  0  0  0  0  0  0  0  0  0
   12.7673   15.5822   20.6895 C   0  0  0  0  0  0  0  0  0  0  0  0
   10.4229   15.9386   21.5171 C   0  0  0  0  0  0  0  0  0  0  0  0
   11.7989   15.3635   21.8499 C   0  0  0  0  0  0  0  0  0  0  0  0
   10.2596   12.3322   22.7594 N   0  0  0  0  0  0  0  0  0  0  0  0
   10.6321   14.2094   24.0757 O   0  0  0  0  0  0  0  0  0  0  0  0
    7.1670    8.9089   24.2628 O   0  0  0  0  0  0  0  0  0  0  0  0
   11.6681   13.9505   22.0423 O   0  0  0  0  0  0  0  0  0  0  0  0
    7.6552   12.9182   23.0001 H   0  0  0  0  0  0  0  0  0  0  0  0
    8.1983   13.2207   24.6637 H   0  0  0  0  0  0  0  0  0  0  0  0
   10.0494   12.0002   25.6761 H   0  0  0  0  0  0  0  0  0  0  0  0
   10.9555   10.7478   24.8020 H   0  0  0  0  0  0  0  0  0  0  0  0
    6.7095   11.5433   25.3977 H   0  0  0  0  0  0  0  0  0  0  0  0
    6.2039   11.2934   23.7262 H   0  0  0  0  0  0  0  0  0  0  0  0
    9.4896    9.1312   25.5137 H   0  0  0  0  0  0  0  0  0  0  0  0
    8.5464   10.3301   26.3980 H   0  0  0  0  0  0  0  0  0  0  0  0
    8.1822   10.4507   22.1446 H   0  0  0  0  0  0  0  0  0  0  0  0
    9.5368    9.5592   22.8838 H   0  0  0  0  0  0  0  0  0  0  0  0
   11.6586   15.8252   23.9698 H   0  0  0  0  0  0  0  0  0  0  0  0
   13.3216   15.5508   23.4031 H   0  0  0  0  0  0  0  0  0  0  0  0
   12.4694   17.0645   23.0282 H   0  0  0  0  0  0  0  0  0  0  0  0
   12.3752   15.1415   19.7658 H   0  0  0  0  0  0  0  0  0  0  0  0
   13.7267   15.0893   20.8837 H   0  0  0  0  0  0  0  0  0  0  0  0
   12.9536   16.6466   20.5139 H   0  0  0  0  0  0  0  0  0  0  0  0
   10.0267   15.4965   20.5958 H   0  0  0  0  0  0  0  0  0  0  0  0
    9.7046   15.7584   22.3235 H   0  0  0  0  0  0  0  0  0  0  0  0
   10.4843   17.0185   21.3404 H   0  0  0  0  0  0  0  0  0  0  0  0
   10.5099   11.8876   21.8713 H   0  0  0  0  0  0  0  0  0  0  0  0
    6.6342    8.8716   25.0811 H   0  0  0  0  0  0  0  0  0  0  0  0
  1 13  1  0  0  0  0
  1 14  2  0  0  0  0
  1 16  1  0  0  0  0
  2  4  1  0  0  0  0
  2  7  1  0  0  0  0
  3  5  1  0  0  0  0
  3  7  1  0  0  0  0
  4  8  1  0  0  0  0
  5  8  1  0  0  0  0
  6  7  1  0  0  0  0
  6  8  1  0  0  0  0
  7 13  1  0  0  0  0
  8 15  1  0  0  0  0
  9 12  1  0  0  0  0
 10 12  1  0  0  0  0
 11 12  1  0  0  0  0
 12 16  1  0  0  0  0
  2 17  1  0  0  0  0
  2 18  1  0  0  0  0
  3 19  1  0  0  0  0
  3 20  1  0  0  0  0
  4 21  1  0  0  0  0
  4 22  1  0  0  0  0
  5 23  1  0  0  0  0
  5 24  1  0  0  0  0
  6 25  1  0  0  0  0
  6 26  1  0  0  0  0
  9 27  1  0  0  0  0
  9 28  1  0  0  0  0
  9 29  1  0  0  0  0
 10 30  1  0  0  0  0
 10 31  1  0  0  0  0
 10 32  1  0  0  0  0
 11 33  1  0  0  0  0
 11 34  1  0  0  0  0
 11 35  1  0  0  0  0
 13 36  1  0  0  0  0
 15 37  1  0  0  0  0
M  END
> <id>
EN300-23002517

> <smiles>
CC(C)(C)OC(=O)NC1(CCC2(O)CC1)C2

> <MDLNUMBER>
MFCD31697797

> <IUPAC Name>
tert-butyl N-{4-hydroxybicyclo[2.2.1]heptan-1-yl}carbamate

> <CAS>
2231676-44-9

> <URL>
https://www.enaminestore.com/catalog/EN300-23002517

> <ROCS_ShapeQuery>
A71EV2A-x0451_0A_A71EV2A-x0310_0A_A71EV2A-x0416_0A_peptide

> <ROCS_TanimotoCombo>
0.507 

> <ROCS_ShapeTanimoto>
0.284 

> <ROCS_ColorTanimoto>
0.222 

> <ROCS_RefTversky>
0.255 

> <ROCS_RefColorTversky>
0.255 

> <ROCS_RefTverskyCombo>
0.510 

> <ROCS_FitTversky>
1.700 

> <ROCS_FitColorTversky>
0.635 

> <ROCS_FitTverskyCombo>
2.335 

> <ROCS_ColorScore>
-7.826

> <ROCS_Overlap>
1764.303

> <ROCS_Rank>
477                 

$$$$
untitled-dbase-91597_154
  -OEChem-11132313473D

 47 49  0     1  0  0  0  0  0999 V2000
    6.3164   12.9831   26.8624 C   0  0  0  0  0  0  0  0  0  0  0  0
    5.4173   10.7611   27.1644 C   0  0  0  0  0  0  0  0  0  0  0  0
    5.4675   13.4622   27.8600 C   0  0  0  0  0  0  0  0  0  0  0  0
    4.5684   11.2402   28.1621 C   0  0  0  0  0  0  0  0  0  0  0  0
    6.2913   11.6325   26.5145 C   0  0  0  0  0  0  0  0  0  0  0  0
    4.5935   12.5908   28.5100 C   0  0  0  0  0  0  0  0  0  0  0  0
    9.8663   13.3593   23.5651 C   0  0  0  0  0  0  0  0  0  0  0  0
    8.4413   10.1731   22.7220 C   0  0  0  0  0  0  0  0  0  0  0  0
    9.4895    9.7753   23.7790 C   0  0  0  0  0  0  0  0  0  0  0  0
    6.9759   11.8074   24.0383 C   0  0  0  0  0  0  0  0  0  0  0  0
    8.7430   11.1538   25.8046 C   0  0  0  0  0  0  0  0  0  0  0  0
    8.1245   11.6418   23.0195 C   0  0  1  0  0  0  0  0  0  0  0  0
    9.7113   11.0445   24.6077 C   0  0  2  0  0  0  0  0  0  0  0  0
    7.2253   11.1054   25.4167 C   0  0  0  0  0  0  0  0  0  0  0  0
   11.8593   13.3243   21.8648 C   0  0  0  0  0  0  0  0  0  0  0  0
   10.2977   14.1672   20.0871 C   0  0  0  0  0  0  0  0  0  0  0  0
   11.1099   15.7270   21.8802 C   0  0  0  0  0  0  0  0  0  0  0  0
   10.7157   14.2879   21.5509 C   0  0  0  0  0  0  0  0  0  0  0  0
    9.3330   12.0905   23.6762 N   0  0  0  0  0  0  0  0  0  0  0  0
   10.5186   13.9140   24.4465 O   0  0  0  0  0  0  0  0  0  0  0  0
    6.8647    9.7229   25.2515 O   0  0  0  0  0  0  0  0  0  0  0  0
    9.5851   13.9300   22.3534 O   0  0  0  0  0  0  0  0  0  0  0  0
    3.4433   13.2408   29.8612 Br  0  0  0  0  0  0  0  0  0  0  0  0
    6.9942   13.6693   26.3614 H   0  0  0  0  0  0  0  0  0  0  0  0
    5.3902    9.7074   26.8993 H   0  0  0  0  0  0  0  0  0  0  0  0
    5.4990   14.5177   28.1184 H   0  0  0  0  0  0  0  0  0  0  0  0
    3.8937   10.5481   28.6590 H   0  0  0  0  0  0  0  0  0  0  0  0
    8.8838   10.0767   21.7233 H   0  0  0  0  0  0  0  0  0  0  0  0
    7.5573    9.5290   22.7542 H   0  0  0  0  0  0  0  0  0  0  0  0
    9.1668    8.9205   24.3809 H   0  0  0  0  0  0  0  0  0  0  0  0
   10.4181    9.4883   23.2709 H   0  0  0  0  0  0  0  0  0  0  0  0
    6.8285   12.8844   24.2003 H   0  0  0  0  0  0  0  0  0  0  0  0
    6.0478   11.4274   23.5920 H   0  0  0  0  0  0  0  0  0  0  0  0
    8.9652   10.3473   26.5157 H   0  0  0  0  0  0  0  0  0  0  0  0
    8.9579   12.0989   26.3229 H   0  0  0  0  0  0  0  0  0  0  0  0
    7.9164   12.2179   22.1124 H   0  0  0  0  0  0  0  0  0  0  0  0
   10.7478   11.1430   24.9434 H   0  0  0  0  0  0  0  0  0  0  0  0
   12.1623   13.4080   22.9146 H   0  0  0  0  0  0  0  0  0  0  0  0
   11.5773   12.2852   21.6659 H   0  0  0  0  0  0  0  0  0  0  0  0
   12.7466   13.5626   21.2671 H   0  0  0  0  0  0  0  0  0  0  0  0
    9.4774   14.8568   19.8574 H   0  0  0  0  0  0  0  0  0  0  0  0
    9.9242   13.1600   19.8696 H   0  0  0  0  0  0  0  0  0  0  0  0
   11.1308   14.3817   19.4100 H   0  0  0  0  0  0  0  0  0  0  0  0
   10.2898   16.4184   21.6552 H   0  0  0  0  0  0  0  0  0  0  0  0
   11.3777   15.8404   22.9357 H   0  0  0  0  0  0  0  0  0  0  0  0
   11.9611   16.0475   21.2686 H   0  0  0  0  0  0  0  0  0  0  0  0
    5.9315    9.7126   24.9905 H   0  0  0  0  0  0  0  0  0  0  0  0
  1  3  1  0  0  0  0
  1  5  2  0  0  0  0
  2  4  2  0  0  0  0
  2  5  1  0  0  0  0
  3  6  2  0  0  0  0
  4  6  1  0  0  0  0
  5 14  1  0  0  0  0
  6 23  1  0  0  0  0
  7 19  1  0  0  0  0
  7 20  2  0  0  0  0
  7 22  1  0  0  0  0
  8  9  1  0  0  0  0
  8 12  1  0  0  0  0
  9 13  1  0  0  0  0
 10 12  1  0  0  0  0
 10 14  1  0  0  0  0
 11 13  1  0  0  0  0
 11 14  1  0  0  0  0
 12 19  1  0  0  0  0
 13 19  1  0  0  0  0
 14 21  1  0  0  0  0
 15 18  1  0  0  0  0
 16 18  1  0  0  0  0
 17 18  1  0  0  0  0
 18 22  1  0  0  0  0
  1 24  1  0  0  0  0
  2 25  1  0  0  0  0
  3 26  1  0  0  0  0
  4 27  1  0  0  0  0
  8 28  1  0  0  0  0
  8 29  1  0  0  0  0
  9 30  1  0  0  0  0
  9 31  1  0  0  0  0
 10 32  1  0  0  0  0
 10 33  1  0  0  0  0
 11 34  1  0  0  0  0
 11 35  1  0  0  0  0
 12 36  1  0  0  0  0
 13 37  1  0  0  0  0
 15 38  1  0  0  0  0
 15 39  1  0  0  0  0
 15 40  1  0  0  0  0
 16 41  1  0  0  0  0
 16 42  1  0  0  0  0
 16 43  1  0  0  0  0
 17 44  1  0  0  0  0
 17 45  1  0  0  0  0
 17 46  1  0  0  0  0
 21 47  1  0  0  0  0
M  END
> <id>
EN300-7428215

> <smiles>
CC(C)(C)OC(=O)N1C2CCC1CC(O)(C2)C=3C=CC(Br)=CC3

> <IUPAC Name>
tert-butyl 3-(4-bromophenyl)-3-hydroxy-8-azabicyclo[3.2.1]octane-8-carboxylate

> <CAS>
2309449-58-7

> <URL>
https://www.enaminestore.com/catalog/EN300-7428215

> <ROCS_ShapeQuery>
A71EV2A-x0451_0A_A71EV2A-x0310_0A_A71EV2A-x0416_0A_peptide

> <ROCS_TanimotoCombo>
0.507 

> <ROCS_ShapeTanimoto>
0.314 

> <ROCS_ColorTanimoto>
0.192 

> <ROCS_RefTversky>
0.285 

> <ROCS_RefColorTversky>
0.229 

> <ROCS_RefTverskyCombo>
0.514 

> <ROCS_FitTversky>
1.482 

> <ROCS_FitColorTversky>
0.549 

> <ROCS_FitTverskyCombo>
2.030 

> <ROCS_ColorScore>
-7.022

> <ROCS_Overlap>
1980.566

> <ROCS_Rank>
478                 

$$$$
untitled-dbase-143814_195
  -OEChem-11132313473D

 36 37  0     0  0  0  0  0  0999 V2000
    8.0065   13.0514   25.2962 C   0  0  0  0  0  0  0  0  0  0  0  0
    6.3341   11.4539   25.9337 C   0  0  0  0  0  0  0  0  0  0  0  0
    6.8712   12.7355   26.0411 C   0  0  0  0  0  0  0  0  0  0  0  0
    8.5414   12.0681   24.4860 C   0  0  0  0  0  0  0  0  0  0  0  0
    7.9344   10.8216   24.4473 C   0  0  0  0  0  0  0  0  0  0  0  0
   10.5046   13.1718   23.4221 C   0  0  0  0  0  0  0  0  0  0  0  0
    8.6516    9.8884   23.5155 C   0  0  0  0  0  0  0  0  0  0  0  0
    9.7937   10.7709   22.9978 C   0  0  0  0  0  0  0  0  0  0  0  0
   12.3677   15.1210   22.4610 C   0  0  0  0  0  0  0  0  0  0  0  0
   11.9206   14.1576   20.1848 C   0  0  0  0  0  0  0  0  0  0  0  0
   10.0538   15.2316   21.4770 C   0  0  0  0  0  0  0  0  0  0  0  0
    6.2432   13.7473   26.9347 C   0  0  0  0  0  0  0  0  0  0  0  0
   11.3422   14.4160   21.5744 C   0  0  0  0  0  0  0  0  0  0  0  0
    6.8403   10.4751   25.1475 N   0  0  0  0  0  0  0  0  0  0  0  0
    9.6587   12.0944   23.6369 N   0  0  0  0  0  0  0  0  0  0  0  0
   10.7664   14.0523   24.2367 O   0  0  0  0  0  0  0  0  0  0  0  0
    5.0503   14.2373   26.3328 O   0  0  0  0  0  0  0  0  0  0  0  0
   11.0339   13.1443   22.1567 O   0  0  0  0  0  0  0  0  0  0  0  0
    8.4388   14.0424   25.3656 H   0  0  0  0  0  0  0  0  0  0  0  0
    5.4503   11.1697   26.4972 H   0  0  0  0  0  0  0  0  0  0  0  0
    9.0308    9.0176   24.0581 H   0  0  0  0  0  0  0  0  0  0  0  0
    7.9902    9.5706   22.7043 H   0  0  0  0  0  0  0  0  0  0  0  0
   10.7754   10.3539   23.2499 H   0  0  0  0  0  0  0  0  0  0  0  0
    9.7498   10.8956   21.9098 H   0  0  0  0  0  0  0  0  0  0  0  0
   11.9564   15.3083   23.4594 H   0  0  0  0  0  0  0  0  0  0  0  0
   13.2832   14.5299   22.5674 H   0  0  0  0  0  0  0  0  0  0  0  0
   12.6342   16.1005   22.0478 H   0  0  0  0  0  0  0  0  0  0  0  0
   11.1882   13.6519   19.5452 H   0  0  0  0  0  0  0  0  0  0  0  0
   12.7911   13.4941   20.2415 H   0  0  0  0  0  0  0  0  0  0  0  0
   12.2251   15.0879   19.6945 H   0  0  0  0  0  0  0  0  0  0  0  0
    9.3181   14.7261   20.8411 H   0  0  0  0  0  0  0  0  0  0  0  0
    9.6048   15.3954   22.4620 H   0  0  0  0  0  0  0  0  0  0  0  0
   10.2441   16.2069   21.0145 H   0  0  0  0  0  0  0  0  0  0  0  0
    5.9889   13.3178   27.9145 H   0  0  0  0  0  0  0  0  0  0  0  0
    6.9195   14.5953   27.1153 H   0  0  0  0  0  0  0  0  0  0  0  0
    4.4652   13.4727   26.2121 H   0  0  0  0  0  0  0  0  0  0  0  0
  1  3  1  0  0  0  0
  1  4  2  0  0  0  0
  2  3  2  0  0  0  0
  2 14  1  0  0  0  0
  3 12  1  0  0  0  0
  4  5  1  0  0  0  0
  4 15  1  0  0  0  0
  5  7  1  0  0  0  0
  5 14  2  0  0  0  0
  6 15  1  0  0  0  0
  6 16  2  0  0  0  0
  6 18  1  0  0  0  0
  7  8  1  0  0  0  0
  8 15  1  0  0  0  0
  9 13  1  0  0  0  0
 10 13  1  0  0  0  0
 11 13  1  0  0  0  0
 12 17  1  0  0  0  0
 13 18  1  0  0  0  0
  1 19  1  0  0  0  0
  2 20  1  0  0  0  0
  7 21  1  0  0  0  0
  7 22  1  0  0  0  0
  8 23  1  0  0  0  0
  8 24  1  0  0  0  0
  9 25  1  0  0  0  0
  9 26  1  0  0  0  0
  9 27  1  0  0  0  0
 10 28  1  0  0  0  0
 10 29  1  0  0  0  0
 10 30  1  0  0  0  0
 11 31  1  0  0  0  0
 11 32  1  0  0  0  0
 11 33  1  0  0  0  0
 12 34  1  0  0  0  0
 12 35  1  0  0  0  0
 17 36  1  0  0  0  0
M  END
> <id>
EN300-27718628

> <smiles>
CC(C)(C)OC(=O)N1CCC=2N=CC(CO)=CC12

> <IUPAC Name>
tert-butyl 6-(hydroxymethyl)-1H,2H,3H-pyrrolo[3,2-b]pyridine-1-carboxylate

> <CAS>
2580197-05-1

> <URL>
https://www.enaminestore.com/catalog/EN300-27718628

> <ROCS_ShapeQuery>
A71EV2A-x0451_0A_A71EV2A-x0310_0A_A71EV2A-x0416_0A_peptide

> <ROCS_TanimotoCombo>
0.506 

> <ROCS_ShapeTanimoto>
0.325 

> <ROCS_ColorTanimoto>
0.181 

> <ROCS_RefTversky>
0.285 

> <ROCS_RefColorTversky>
0.195 

> <ROCS_RefTverskyCombo>
0.480 

> <ROCS_FitTversky>
1.749 

> <ROCS_FitColorTversky>
0.720 

> <ROCS_FitTverskyCombo>
2.469 

> <ROCS_ColorScore>
-5.945

> <ROCS_Overlap>
1979.180

> <ROCS_Rank>
479                 

$$$$
untitled-dbase-104220_8
  -OEChem-11132313473D

 30 31  0     0  0  0  0  0  0999 V2000
    7.1739    9.7541   24.8305 C   0  0  0  0  0  0  0  0  0  0  0  0
    8.4657   12.0036   24.2219 C   0  0  0  0  0  0  0  0  0  0  0  0
    7.3107   12.0508   25.0040 C   0  0  0  0  0  0  0  0  0  0  0  0
    8.8765   10.7459   23.7996 C   0  0  0  0  0  0  0  0  0  0  0  0
   10.2596   12.5689   23.0810 C   0  0  0  0  0  0  0  0  0  0  0  0
   11.5205   14.6553   22.4744 C   0  0  0  0  0  0  0  0  0  0  0  0
   11.9316   17.1325   21.1055 C   0  0  0  0  0  0  0  0  0  0  0  0
   13.8437   15.9715   19.9631 C   0  0  0  0  0  0  0  0  0  0  0  0
   11.4995   15.1270   19.6474 C   0  0  0  0  0  0  0  0  0  0  0  0
   12.4758   15.7907   20.6175 C   0  0  0  0  0  0  0  0  0  0  0  0
    6.6593   10.9067   25.3101 N   0  0  0  0  0  0  0  0  0  0  0  0
    8.2720    9.5756   24.0706 N   0  0  0  0  0  0  0  0  0  0  0  0
    9.2696   13.0486   23.8026 N   0  0  0  0  0  0  0  0  0  0  0  0
   11.3049   13.2909   22.4613 N   0  0  0  0  0  0  0  0  0  0  0  0
   10.8465   15.5157   23.0275 O   0  0  0  0  0  0  0  0  0  0  0  0
    6.8029   13.2320   25.4844 O   0  0  0  0  0  0  0  0  0  0  0  0
   12.6489   14.9330   21.7462 O   0  0  0  0  0  0  0  0  0  0  0  0
   10.2935   10.8661   22.8603 S   0  0  0  0  0  0  0  0  0  0  0  0
    6.6282    8.8530   25.0892 H   0  0  0  0  0  0  0  0  0  0  0  0
   10.9498   17.0070   21.5759 H   0  0  0  0  0  0  0  0  0  0  0  0
   12.6061   17.6025   21.8286 H   0  0  0  0  0  0  0  0  0  0  0  0
   11.7866   17.8238   20.2673 H   0  0  0  0  0  0  0  0  0  0  0  0
   14.2380   15.0112   19.6115 H   0  0  0  0  0  0  0  0  0  0  0  0
   14.5729   16.3594   20.6835 H   0  0  0  0  0  0  0  0  0  0  0  0
   13.7970   16.6594   19.1126 H   0  0  0  0  0  0  0  0  0  0  0  0
   11.8897   14.1645   19.2973 H   0  0  0  0  0  0  0  0  0  0  0  0
   10.5231   14.9557   20.1120 H   0  0  0  0  0  0  0  0  0  0  0  0
   11.3564   15.7460   18.7543 H   0  0  0  0  0  0  0  0  0  0  0  0
   11.9820   12.7375   21.9417 H   0  0  0  0  0  0  0  0  0  0  0  0
    7.3607   13.9667   25.1958 H   0  0  0  0  0  0  0  0  0  0  0  0
  1 11  2  0  0  0  0
  1 12  1  0  0  0  0
  2  3  2  0  0  0  0
  2  4  1  0  0  0  0
  2 13  1  0  0  0  0
  3 11  1  0  0  0  0
  3 16  1  0  0  0  0
  4 12  2  0  0  0  0
  4 18  1  0  0  0  0
  5 13  2  0  0  0  0
  5 14  1  0  0  0  0
  5 18  1  0  0  0  0
  6 14  1  0  0  0  0
  6 15  2  0  0  0  0
  6 17  1  0  0  0  0
  7 10  1  0  0  0  0
  8 10  1  0  0  0  0
  9 10  1  0  0  0  0
 10 17  1  0  0  0  0
  1 19  1  0  0  0  0
  7 20  1  0  0  0  0
  7 21  1  0  0  0  0
  7 22  1  0  0  0  0
  8 23  1  0  0  0  0
  8 24  1  0  0  0  0
  8 25  1  0  0  0  0
  9 26  1  0  0  0  0
  9 27  1  0  0  0  0
  9 28  1  0  0  0  0
 14 29  1  0  0  0  0
 16 30  1  0  0  0  0
M  END
> <id>
EN300-26665175

> <smiles>
CC(C)(C)OC(=O)NC1=NC=2C(O)=NC=NC2S1

> <IUPAC Name>
tert-butyl N-{7-hydroxy-[1,3]thiazolo[5,4-d]pyrimidin-2-yl}carbamate

> <CAS>
2413884-75-8

> <URL>
https://www.enaminestore.com/catalog/EN300-26665175

> <ROCS_ShapeQuery>
A71EV2A-x0451_0A_A71EV2A-x0310_0A_A71EV2A-x0416_0A_peptide

> <ROCS_TanimotoCombo>
0.506 

> <ROCS_ShapeTanimoto>
0.324 

> <ROCS_ColorTanimoto>
0.182 

> <ROCS_RefTversky>
0.285 

> <ROCS_RefColorTversky>
0.210 

> <ROCS_RefTverskyCombo>
0.495 

> <ROCS_FitTversky>
1.747 

> <ROCS_FitColorTversky>
0.578 

> <ROCS_FitTverskyCombo>
2.326 

> <ROCS_ColorScore>
-6.429

> <ROCS_Overlap>
1975.366

> <ROCS_Rank>
480                 

$$$$
untitled-dbase-154284_21
  -OEChem-11132313473D

 31 32  0     0  0  0  0  0  0999 V2000
    6.5240   11.5289   26.1026 C   0  0  0  0  0  0  0  0  0  0  0  0
    7.1018   12.7133   25.6584 C   0  0  0  0  0  0  0  0  0  0  0  0
    8.5755   11.6259   24.3133 C   0  0  0  0  0  0  0  0  0  0  0  0
    8.0532   10.4022   24.7070 C   0  0  0  0  0  0  0  0  0  0  0  0
    7.0056   10.3150   25.6188 C   0  0  0  0  0  0  0  0  0  0  0  0
    9.5980   11.3062   23.4024 C   0  0  0  0  0  0  0  0  0  0  0  0
   10.7976   13.5028   23.1862 C   0  0  0  0  0  0  0  0  0  0  0  0
   10.9806   16.3354   22.8368 C   0  0  0  0  0  0  0  0  0  0  0  0
   12.1235   15.8076   20.6631 C   0  0  0  0  0  0  0  0  0  0  0  0
    9.7484   15.0809   21.0361 C   0  0  0  0  0  0  0  0  0  0  0  0
   11.1049   15.3278   21.6948 C   0  0  0  0  0  0  0  0  0  0  0  0
    8.1208   12.8165   24.7725 N   0  0  0  0  0  0  0  0  0  0  0  0
    9.7262    9.9883   23.2221 N   0  0  0  0  0  0  0  0  0  0  0  0
    8.7787    9.4678   24.0241 N   0  0  0  0  0  0  0  0  0  0  0  0
   10.4098   12.2545   22.7394 N   0  0  0  0  0  0  0  0  0  0  0  0
   10.5146   14.0396   24.2503 O   0  0  0  0  0  0  0  0  0  0  0  0
   11.5826   14.0924   22.2287 O   0  0  0  0  0  0  0  0  0  0  0  0
    6.1947    8.5207   26.2340 I   0  0  0  0  0  0  0  0  0  0  0  0
    5.7074   11.5712   26.8176 H   0  0  0  0  0  0  0  0  0  0  0  0
    6.7325   13.6662   26.0289 H   0  0  0  0  0  0  0  0  0  0  0  0
   10.2504   15.9946   23.5794 H   0  0  0  0  0  0  0  0  0  0  0  0
   11.9398   16.4949   23.3400 H   0  0  0  0  0  0  0  0  0  0  0  0
   10.6184   17.3018   22.4679 H   0  0  0  0  0  0  0  0  0  0  0  0
   12.2158   15.0877   19.8419 H   0  0  0  0  0  0  0  0  0  0  0  0
   13.1203   15.8953   21.1103 H   0  0  0  0  0  0  0  0  0  0  0  0
   11.8455   16.7794   20.2426 H   0  0  0  0  0  0  0  0  0  0  0  0
    9.8372   14.3582   20.2169 H   0  0  0  0  0  0  0  0  0  0  0  0
    9.0145   14.7008   21.7541 H   0  0  0  0  0  0  0  0  0  0  0  0
    9.3566   16.0037   20.5931 H   0  0  0  0  0  0  0  0  0  0  0  0
    8.6820    8.4605   24.0583 H   0  0  0  0  0  0  0  0  0  0  0  0
   10.7504   11.9845   21.8198 H   0  0  0  0  0  0  0  0  0  0  0  0
  1  2  2  0  0  0  0
  1  5  1  0  0  0  0
  2 12  1  0  0  0  0
  3  4  1  0  0  0  0
  3  6  1  0  0  0  0
  3 12  2  0  0  0  0
  4  5  2  0  0  0  0
  4 14  1  0  0  0  0
  5 18  1  0  0  0  0
  6 13  2  0  0  0  0
  6 15  1  0  0  0  0
  7 15  1  0  0  0  0
  7 16  2  0  0  0  0
  7 17  1  0  0  0  0
  8 11  1  0  0  0  0
  9 11  1  0  0  0  0
 10 11  1  0  0  0  0
 11 17  1  0  0  0  0
 13 14  1  0  0  0  0
  1 19  1  0  0  0  0
  2 20  1  0  0  0  0
  8 21  1  0  0  0  0
  8 22  1  0  0  0  0
  8 23  1  0  0  0  0
  9 24  1  0  0  0  0
  9 25  1  0  0  0  0
  9 26  1  0  0  0  0
 10 27  1  0  0  0  0
 10 28  1  0  0  0  0
 10 29  1  0  0  0  0
 14 30  1  0  0  0  0
 15 31  1  0  0  0  0
M  END
> <id>
EN300-28299684

> <smiles>
CC(C)(C)OC(=O)NC1=NNC=2C(I)=CC=NC12

> <IUPAC Name>
tert-butyl N-{7-iodo-1H-pyrazolo[4,3-b]pyridin-3-yl}carbamate

> <CAS>
2680703-67-5

> <URL>
https://www.enaminestore.com/catalog/EN300-28299684

> <ROCS_ShapeQuery>
A71EV2A-x0451_0A_A71EV2A-x0310_0A_A71EV2A-x0416_0A_peptide

> <ROCS_TanimotoCombo>
0.506 

> <ROCS_ShapeTanimoto>
0.337 

> <ROCS_ColorTanimoto>
0.169 

> <ROCS_RefTversky>
0.293 

> <ROCS_RefColorTversky>
0.193 

> <ROCS_RefTverskyCombo>
0.486 

> <ROCS_FitTversky>
1.797 

> <ROCS_FitColorTversky>
0.580 

> <ROCS_FitTverskyCombo>
2.377 

> <ROCS_ColorScore>
-5.893

> <ROCS_Overlap>
2034.548

> <ROCS_Rank>
481                 

$$$$
untitled-dbase-173538_65
  -OEChem-11132313473D

 37 38  0     0  0  0  0  0  0999 V2000
   10.4636   13.2509   23.4037 C   0  0  0  0  0  0  0  0  0  0  0  0
    9.2432    9.6756   23.5521 C   0  0  0  0  0  0  0  0  0  0  0  0
    8.4480   11.0994   25.5348 C   0  0  0  0  0  0  0  0  0  0  0  0
    7.2150   11.2352   23.8165 C   0  0  0  0  0  0  0  0  0  0  0  0
    9.8324   10.8930   22.8285 C   0  0  0  0  0  0  0  0  0  0  0  0
    8.0546   10.0797   24.4246 C   0  0  0  0  0  0  0  0  0  0  0  0
    8.3316   12.1732   24.4056 C   0  0  0  0  0  0  0  0  0  0  0  0
   13.1032   14.2788   22.9734 C   0  0  0  0  0  0  0  0  0  0  0  0
   12.5424   14.1830   20.5269 C   0  0  0  0  0  0  0  0  0  0  0  0
   11.2181   15.6715   22.0561 C   0  0  0  0  0  0  0  0  0  0  0  0
    7.8207   13.5402   24.8105 C   0  0  0  0  0  0  0  0  0  0  0  0
   11.9825   14.3538   21.9374 C   0  0  0  0  0  0  0  0  0  0  0  0
    9.5855   12.1642   23.5422 N   0  0  0  0  0  0  0  0  0  0  0  0
   10.6819   14.1014   24.2621 O   0  0  0  0  0  0  0  0  0  0  0  0
    6.5123   13.4047   25.3441 O   0  0  0  0  0  0  0  0  0  0  0  0
   11.0706   13.2747   22.1734 O   0  0  0  0  0  0  0  0  0  0  0  0
    8.9189    8.9267   22.8199 H   0  0  0  0  0  0  0  0  0  0  0  0
   10.0215    9.2084   24.1661 H   0  0  0  0  0  0  0  0  0  0  0  0
    7.7031   11.1811   26.3384 H   0  0  0  0  0  0  0  0  0  0  0  0
    9.4293   10.9641   26.0019 H   0  0  0  0  0  0  0  0  0  0  0  0
    7.1018   11.2414   22.7297 H   0  0  0  0  0  0  0  0  0  0  0  0
    6.2264   11.3639   24.2714 H   0  0  0  0  0  0  0  0  0  0  0  0
   10.9221   10.7946   22.7527 H   0  0  0  0  0  0  0  0  0  0  0  0
    9.4431   10.9340   21.8061 H   0  0  0  0  0  0  0  0  0  0  0  0
    7.4714    9.2198   24.7675 H   0  0  0  0  0  0  0  0  0  0  0  0
   12.7054   14.4010   23.9872 H   0  0  0  0  0  0  0  0  0  0  0  0
   13.6368   13.3241   22.9219 H   0  0  0  0  0  0  0  0  0  0  0  0
   13.8271   15.0883   22.8257 H   0  0  0  0  0  0  0  0  0  0  0  0
   11.7417   14.2362   19.7803 H   0  0  0  0  0  0  0  0  0  0  0  0
   13.0095   13.1986   20.4089 H   0  0  0  0  0  0  0  0  0  0  0  0
   13.2869   14.9505   20.2920 H   0  0  0  0  0  0  0  0  0  0  0  0
   10.4142   15.7256   21.3131 H   0  0  0  0  0  0  0  0  0  0  0  0
   10.7779   15.7942   23.0511 H   0  0  0  0  0  0  0  0  0  0  0  0
   11.8784   16.5241   21.8600 H   0  0  0  0  0  0  0  0  0  0  0  0
    7.7811   14.2065   23.9440 H   0  0  0  0  0  0  0  0  0  0  0  0
    8.4689   13.9814   25.5732 H   0  0  0  0  0  0  0  0  0  0  0  0
    6.2155   14.2957   25.5927 H   0  0  0  0  0  0  0  0  0  0  0  0
  1 13  1  0  0  0  0
  1 14  2  0  0  0  0
  1 16  1  0  0  0  0
  2  5  1  0  0  0  0
  2  6  1  1  0  0  0
  3  6  1  0  0  0  0
  3  7  1  0  0  0  0
  4  6  1  0  0  0  0
  4  7  1  0  0  0  0
  5 13  1  0  0  0  0
  7 11  1  6  0  0  0
  7 13  1  0  0  0  0
  8 12  1  0  0  0  0
  9 12  1  0  0  0  0
 10 12  1  0  0  0  0
 11 15  1  0  0  0  0
 12 16  1  0  0  0  0
  2 17  1  0  0  0  0
  2 18  1  0  0  0  0
  3 19  1  0  0  0  0
  3 20  1  0  0  0  0
  4 21  1  0  0  0  0
  4 22  1  0  0  0  0
  5 23  1  0  0  0  0
  5 24  1  0  0  0  0
  6 25  1  0  0  0  0
  8 26  1  0  0  0  0
  8 27  1  0  0  0  0
  8 28  1  0  0  0  0
  9 29  1  0  0  0  0
  9 30  1  0  0  0  0
  9 31  1  0  0  0  0
 10 32  1  0  0  0  0
 10 33  1  0  0  0  0
 10 34  1  0  0  0  0
 11 35  1  0  0  0  0
 11 36  1  0  0  0  0
 15 37  1  0  0  0  0
M  END
> <id>
EN300-27747586

> <smiles>
CC(C)(C)OC(=O)N1CC[C@H]2C[C@]1(CO)C2

> <IUPAC Name>
tert-butyl (1r,5s)-1-(hydroxymethyl)-2-azabicyclo[3.1.1]heptane-2-carboxylate

> <CAS>
1392803-56-3

> <URL>
https://www.enaminestore.com/catalog/EN300-27747586

> <ROCS_ShapeQuery>
A71EV2A-x0451_0A_A71EV2A-x0310_0A_A71EV2A-x0416_0A_peptide

> <ROCS_TanimotoCombo>
0.506 

> <ROCS_ShapeTanimoto>
0.297 

> <ROCS_ColorTanimoto>
0.209 

> <ROCS_RefTversky>
0.263 

> <ROCS_RefColorTversky>
0.236 

> <ROCS_RefTverskyCombo>
0.499 

> <ROCS_FitTversky>
1.768 

> <ROCS_FitColorTversky>
0.647 

> <ROCS_FitTverskyCombo>
2.415 

> <ROCS_ColorScore>
-7.238

> <ROCS_Overlap>
1823.185

> <ROCS_Rank>
482                 

$$$$
untitled-dbase-23038_98
  -OEChem-11132313473D

 34 35  0     0  0  0  0  0  0999 V2000
    6.8402    9.9948   24.8148 C   0  0  0  0  0  0  0  0  0  0  0  0
    6.0116   10.8774   25.5106 C   0  0  0  0  0  0  0  0  0  0  0  0
    9.0736    9.8413   23.5085 C   0  0  0  0  0  0  0  0  0  0  0  0
    7.5567   12.7025   25.1015 C   0  0  0  0  0  0  0  0  0  0  0  0
   10.0152   10.7965   23.2181 C   0  0  0  0  0  0  0  0  0  0  0  0
    8.0448   10.4658   24.2519 C   0  0  0  0  0  0  0  0  0  0  0  0
    6.3674   12.2128   25.6509 C   0  0  0  0  0  0  0  0  0  0  0  0
    8.3942   11.8152   24.3986 C   0  0  0  0  0  0  0  0  0  0  0  0
    5.4911   13.1168   26.3801 C   0  0  0  0  0  0  0  0  0  0  0  0
   10.3308   13.2186   23.6568 C   0  0  0  0  0  0  0  0  0  0  0  0
   12.0120   15.3987   22.9695 C   0  0  0  0  0  0  0  0  0  0  0  0
   12.0818   14.3787   20.6752 C   0  0  0  0  0  0  0  0  0  0  0  0
    9.8949   15.1638   21.6288 C   0  0  0  0  0  0  0  0  0  0  0  0
   11.2566   14.5488   21.9489 C   0  0  0  0  0  0  0  0  0  0  0  0
    9.6197   12.0105   23.7526 N   0  0  0  0  0  0  0  0  0  0  0  0
    5.3725   14.3271   26.1646 O   0  0  0  0  0  0  0  0  0  0  0  0
   10.2616   14.0719   24.5259 O   0  0  0  0  0  0  0  0  0  0  0  0
    4.7867   12.4828   27.3570 O   0  0  0  0  0  0  0  0  0  0  0  0
   11.0490   13.2469   22.5050 O   0  0  0  0  0  0  0  0  0  0  0  0
    6.5532    8.9519   24.7107 H   0  0  0  0  0  0  0  0  0  0  0  0
    5.0853   10.5033   25.9406 H   0  0  0  0  0  0  0  0  0  0  0  0
    9.1254    8.8021   23.2135 H   0  0  0  0  0  0  0  0  0  0  0  0
    7.8157   13.7494   25.2227 H   0  0  0  0  0  0  0  0  0  0  0  0
   10.9415   10.7002   22.6677 H   0  0  0  0  0  0  0  0  0  0  0  0
   11.4229   15.5232   23.8852 H   0  0  0  0  0  0  0  0  0  0  0  0
   12.9752   14.9504   23.2339 H   0  0  0  0  0  0  0  0  0  0  0  0
   12.1947   16.4068   22.5802 H   0  0  0  0  0  0  0  0  0  0  0  0
   11.5436   13.7695   19.9401 H   0  0  0  0  0  0  0  0  0  0  0  0
   13.0197   13.8520   20.8852 H   0  0  0  0  0  0  0  0  0  0  0  0
   12.3213   15.3438   20.2170 H   0  0  0  0  0  0  0  0  0  0  0  0
    9.3529   14.5543   20.8967 H   0  0  0  0  0  0  0  0  0  0  0  0
    9.2746   15.2594   22.5258 H   0  0  0  0  0  0  0  0  0  0  0  0
   10.0118   16.1564   21.1788 H   0  0  0  0  0  0  0  0  0  0  0  0
    4.1919   13.0839   27.8542 H   0  0  0  0  0  0  0  0  0  0  0  0
  1  2  1  0  0  0  0
  1  6  2  0  0  0  0
  2  7  2  0  0  0  0
  3  5  2  0  0  0  0
  3  6  1  0  0  0  0
  4  7  1  0  0  0  0
  4  8  2  0  0  0  0
  5 15  1  0  0  0  0
  6  8  1  0  0  0  0
  7  9  1  0  0  0  0
  8 15  1  0  0  0  0
  9 16  2  0  0  0  0
  9 18  1  0  0  0  0
 10 15  1  0  0  0  0
 10 17  2  0  0  0  0
 10 19  1  0  0  0  0
 11 14  1  0  0  0  0
 12 14  1  0  0  0  0
 13 14  1  0  0  0  0
 14 19  1  0  0  0  0
  1 20  1  0  0  0  0
  2 21  1  0  0  0  0
  3 22  1  0  0  0  0
  4 23  1  0  0  0  0
  5 24  1  0  0  0  0
 11 25  1  0  0  0  0
 11 26  1  0  0  0  0
 11 27  1  0  0  0  0
 12 28  1  0  0  0  0
 12 29  1  0  0  0  0
 12 30  1  0  0  0  0
 13 31  1  0  0  0  0
 13 32  1  0  0  0  0
 13 33  1  0  0  0  0
 18 34  1  0  0  0  0
M  END
> <id>
EN300-245100

> <smiles>
CC(C)(C)OC(=O)N1C=CC=2C=CC(=CC12)C(=O)O

> <MDLNUMBER>
MFCD24469883

> <IUPAC Name>
1-[(tert-butoxy)carbonyl]-1H-indole-6-carboxylic acid

> <CAS>
208772-42-3

> <Purity>
94

> <URL>
https://www.enaminestore.com/catalog/EN300-245100

> <ROCS_ShapeQuery>
A71EV2A-x0451_0A_A71EV2A-x0310_0A_A71EV2A-x0416_0A_peptide

> <ROCS_TanimotoCombo>
0.506 

> <ROCS_ShapeTanimoto>
0.348 

> <ROCS_ColorTanimoto>
0.158 

> <ROCS_RefTversky>
0.302 

> <ROCS_RefColorTversky>
0.174 

> <ROCS_RefTverskyCombo>
0.476 

> <ROCS_FitTversky>
1.764 

> <ROCS_FitColorTversky>
0.641 

> <ROCS_FitTverskyCombo>
2.405 

> <ROCS_ColorScore>
-5.299

> <ROCS_Overlap>
2097.916

> <ROCS_Rank>
483                 

$$$$
untitled-dbase-116776_12
  -OEChem-11132313473D

 35 36  0     0  0  0  0  0  0999 V2000
   10.8354   13.5886   23.2854 C   0  0  0  0  0  0  0  0  0  0  0  0
    7.4037   11.0624   24.6181 C   0  0  0  0  0  0  0  0  0  0  0  0
    8.0519   12.3374   24.0313 C   0  0  0  0  0  0  0  0  0  0  0  0
    8.7392   10.4054   22.6304 C   0  0  0  0  0  0  0  0  0  0  0  0
    9.8435   10.6537   24.3880 C   0  0  0  0  0  0  0  0  0  0  0  0
    8.4302   10.0630   24.1162 C   0  0  0  0  0  0  0  0  0  0  0  0
    9.2477   11.6723   23.3750 C   0  0  0  0  0  0  0  0  0  0  0  0
   11.5256   16.3506   23.4971 C   0  0  0  0  0  0  0  0  0  0  0  0
   12.3009   16.1484   21.1165 C   0  0  0  0  0  0  0  0  0  0  0  0
    9.8850   15.7593   21.6824 C   0  0  0  0  0  0  0  0  0  0  0  0
   11.3270   15.6222   22.1687 C   0  0  0  0  0  0  0  0  0  0  0  0
    8.3162    8.6551   24.3835 N   0  0  0  0  0  0  0  0  0  0  0  0
   10.1528   12.5496   22.6811 N   0  0  0  0  0  0  0  0  0  0  0  0
   10.7624   13.8955   24.4708 O   0  0  0  0  0  0  0  0  0  0  0  0
   11.6123   14.2325   22.3638 O   0  0  0  0  0  0  0  0  0  0  0  0
    7.3469   11.1039   25.7103 H   0  0  0  0  0  0  0  0  0  0  0  0
    6.4042   10.8910   24.2063 H   0  0  0  0  0  0  0  0  0  0  0  0
    7.3901   12.8325   23.3137 H   0  0  0  0  0  0  0  0  0  0  0  0
    8.3337   13.0448   24.8175 H   0  0  0  0  0  0  0  0  0  0  0  0
    9.4949    9.8007   22.1146 H   0  0  0  0  0  0  0  0  0  0  0  0
    7.8762   10.5374   21.9705 H   0  0  0  0  0  0  0  0  0  0  0  0
   10.0314   11.0221   25.4013 H   0  0  0  0  0  0  0  0  0  0  0  0
   10.7114   10.0740   24.0511 H   0  0  0  0  0  0  0  0  0  0  0  0
   10.8284   15.9757   24.2550 H   0  0  0  0  0  0  0  0  0  0  0  0
   12.5465   16.2308   23.8742 H   0  0  0  0  0  0  0  0  0  0  0  0
   11.3195   17.4217   23.3904 H   0  0  0  0  0  0  0  0  0  0  0  0
   12.1620   15.6286   20.1617 H   0  0  0  0  0  0  0  0  0  0  0  0
   13.3384   15.9661   21.4192 H   0  0  0  0  0  0  0  0  0  0  0  0
   12.1724   17.2226   20.9484 H   0  0  0  0  0  0  0  0  0  0  0  0
    9.7423   15.2369   20.7294 H   0  0  0  0  0  0  0  0  0  0  0  0
    9.1740   15.3530   22.4090 H   0  0  0  0  0  0  0  0  0  0  0  0
    9.6337   16.8103   21.4995 H   0  0  0  0  0  0  0  0  0  0  0  0
    8.3195    8.5019   25.3716 H   0  0  0  0  0  0  0  0  0  0  0  0
    7.4613    8.3108   23.9955 H   0  0  0  0  0  0  0  0  0  0  0  0
   10.2991   12.3959   21.6853 H   0  0  0  0  0  0  0  0  0  0  0  0
  1 13  1  0  0  0  0
  1 14  2  0  0  0  0
  1 15  1  0  0  0  0
  2  3  1  0  0  0  0
  2  6  1  0  0  0  0
  3  7  1  0  0  0  0
  4  6  1  0  0  0  0
  4  7  1  0  0  0  0
  5  6  1  0  0  0  0
  5  7  1  0  0  0  0
  6 12  1  0  0  0  0
  7 13  1  0  0  0  0
  8 11  1  0  0  0  0
  9 11  1  0  0  0  0
 10 11  1  0  0  0  0
 11 15  1  0  0  0  0
  2 16  1  0  0  0  0
  2 17  1  0  0  0  0
  3 18  1  0  0  0  0
  3 19  1  0  0  0  0
  4 20  1  0  0  0  0
  4 21  1  0  0  0  0
  5 22  1  0  0  0  0
  5 23  1  0  0  0  0
  8 24  1  0  0  0  0
  8 25  1  0  0  0  0
  8 26  1  0  0  0  0
  9 27  1  0  0  0  0
  9 28  1  0  0  0  0
  9 29  1  0  0  0  0
 10 30  1  0  0  0  0
 10 31  1  0  0  0  0
 10 32  1  0  0  0  0
 12 33  1  0  0  0  0
 12 34  1  0  0  0  0
 13 35  1  0  0  0  0
M  END
> <id>
EN300-88111

> <smiles>
CC(C)(C)OC(=O)NC1(CC2(N)C1)CC2

> <MDLNUMBER>
MFCD13806409

> <IUPAC Name>
tert-butyl N-{4-aminobicyclo[2.1.1]hexan-1-yl}carbamate

> <CAS>
1050890-47-5

> <URL>
https://www.enaminestore.com/catalog/EN300-88111

> <ROCS_ShapeQuery>
A71EV2A-x0451_0A_A71EV2A-x0310_0A_A71EV2A-x0416_0A_peptide

> <ROCS_TanimotoCombo>
0.506 

> <ROCS_ShapeTanimoto>
0.275 

> <ROCS_ColorTanimoto>
0.232 

> <ROCS_RefTversky>
0.246 

> <ROCS_RefColorTversky>
0.266 

> <ROCS_RefTverskyCombo>
0.513 

> <ROCS_FitTversky>
1.718 

> <ROCS_FitColorTversky>
0.641 

> <ROCS_FitTverskyCombo>
2.359 

> <ROCS_ColorScore>
-8.174

> <ROCS_Overlap>
1706.995

> <ROCS_Rank>
484                 

$$$$
untitled-dbase-8716_12
  -OEChem-11132313473D

 35 36  0     0  0  0  0  0  0999 V2000
   10.8354   13.5886   23.2854 C   0  0  0  0  0  0  0  0  0  0  0  0
    7.4037   11.0624   24.6181 C   0  0  0  0  0  0  0  0  0  0  0  0
    8.0519   12.3374   24.0313 C   0  0  0  0  0  0  0  0  0  0  0  0
    8.7392   10.4054   22.6304 C   0  0  0  0  0  0  0  0  0  0  0  0
    9.8435   10.6537   24.3880 C   0  0  0  0  0  0  0  0  0  0  0  0
    8.4302   10.0630   24.1162 C   0  0  0  0  0  0  0  0  0  0  0  0
    9.2477   11.6723   23.3750 C   0  0  0  0  0  0  0  0  0  0  0  0
   11.5256   16.3506   23.4971 C   0  0  0  0  0  0  0  0  0  0  0  0
   12.3009   16.1484   21.1165 C   0  0  0  0  0  0  0  0  0  0  0  0
    9.8850   15.7593   21.6824 C   0  0  0  0  0  0  0  0  0  0  0  0
   11.3270   15.6222   22.1687 C   0  0  0  0  0  0  0  0  0  0  0  0
    8.3162    8.6551   24.3835 N   0  0  0  0  0  0  0  0  0  0  0  0
   10.1528   12.5496   22.6811 N   0  0  0  0  0  0  0  0  0  0  0  0
   10.7624   13.8955   24.4708 O   0  0  0  0  0  0  0  0  0  0  0  0
   11.6123   14.2325   22.3638 O   0  0  0  0  0  0  0  0  0  0  0  0
    7.3469   11.1039   25.7103 H   0  0  0  0  0  0  0  0  0  0  0  0
    6.4042   10.8910   24.2063 H   0  0  0  0  0  0  0  0  0  0  0  0
    7.3901   12.8325   23.3137 H   0  0  0  0  0  0  0  0  0  0  0  0
    8.3337   13.0448   24.8175 H   0  0  0  0  0  0  0  0  0  0  0  0
    9.4949    9.8007   22.1146 H   0  0  0  0  0  0  0  0  0  0  0  0
    7.8762   10.5374   21.9705 H   0  0  0  0  0  0  0  0  0  0  0  0
   10.0314   11.0221   25.4013 H   0  0  0  0  0  0  0  0  0  0  0  0
   10.7114   10.0740   24.0511 H   0  0  0  0  0  0  0  0  0  0  0  0
   10.8284   15.9757   24.2550 H   0  0  0  0  0  0  0  0  0  0  0  0
   12.5465   16.2308   23.8742 H   0  0  0  0  0  0  0  0  0  0  0  0
   11.3195   17.4217   23.3904 H   0  0  0  0  0  0  0  0  0  0  0  0
   12.1620   15.6286   20.1617 H   0  0  0  0  0  0  0  0  0  0  0  0
   13.3384   15.9661   21.4192 H   0  0  0  0  0  0  0  0  0  0  0  0
   12.1724   17.2226   20.9484 H   0  0  0  0  0  0  0  0  0  0  0  0
    9.7423   15.2369   20.7294 H   0  0  0  0  0  0  0  0  0  0  0  0
    9.1740   15.3530   22.4090 H   0  0  0  0  0  0  0  0  0  0  0  0
    9.6337   16.8103   21.4995 H   0  0  0  0  0  0  0  0  0  0  0  0
    8.3195    8.5019   25.3716 H   0  0  0  0  0  0  0  0  0  0  0  0
    7.4613    8.3108   23.9955 H   0  0  0  0  0  0  0  0  0  0  0  0
   10.2991   12.3959   21.6853 H   0  0  0  0  0  0  0  0  0  0  0  0
  1 13  1  0  0  0  0
  1 14  2  0  0  0  0
  1 15  1  0  0  0  0
  2  3  1  0  0  0  0
  2  6  1  0  0  0  0
  3  7  1  0  0  0  0
  4  6  1  0  0  0  0
  4  7  1  0  0  0  0
  5  6  1  0  0  0  0
  5  7  1  0  0  0  0
  6 12  1  0  0  0  0
  7 13  1  0  0  0  0
  8 11  1  0  0  0  0
  9 11  1  0  0  0  0
 10 11  1  0  0  0  0
 11 15  1  0  0  0  0
  2 16  1  0  0  0  0
  2 17  1  0  0  0  0
  3 18  1  0  0  0  0
  3 19  1  0  0  0  0
  4 20  1  0  0  0  0
  4 21  1  0  0  0  0
  5 22  1  0  0  0  0
  5 23  1  0  0  0  0
  8 24  1  0  0  0  0
  8 25  1  0  0  0  0
  8 26  1  0  0  0  0
  9 27  1  0  0  0  0
  9 28  1  0  0  0  0
  9 29  1  0  0  0  0
 10 30  1  0  0  0  0
 10 31  1  0  0  0  0
 10 32  1  0  0  0  0
 12 33  1  0  0  0  0
 12 34  1  0  0  0  0
 13 35  1  0  0  0  0
M  END
> <id>
EN300-139240

> <smiles>
Cl.CC(C)(C)OC(=O)NC1(CC2(N)C1)CC2

> <MDLNUMBER>
MFCD26407985

> <IUPAC Name>
tert-butyl N-{4-aminobicyclo[2.1.1]hexan-1-yl}carbamate hydrochloride

> <CAS>
1461705-62-3

> <URL>
https://www.enaminestore.com/catalog/EN300-139240

> <Saltdate>
Cl

> <ROCS_ShapeQuery>
A71EV2A-x0451_0A_A71EV2A-x0310_0A_A71EV2A-x0416_0A_peptide

> <ROCS_TanimotoCombo>
0.506 

> <ROCS_ShapeTanimoto>
0.275 

> <ROCS_ColorTanimoto>
0.232 

> <ROCS_RefTversky>
0.246 

> <ROCS_RefColorTversky>
0.266 

> <ROCS_RefTverskyCombo>
0.513 

> <ROCS_FitTversky>
1.718 

> <ROCS_FitColorTversky>
0.641 

> <ROCS_FitTverskyCombo>
2.359 

> <ROCS_ColorScore>
-8.174

> <ROCS_Overlap>
1706.995

> <ROCS_Rank>
485                 

$$$$
untitled-dbase-152369_105
  -OEChem-11132313473D

 33 34  0     0  0  0  0  0  0999 V2000
    6.8248    9.9894   24.8055 C   0  0  0  0  0  0  0  0  0  0  0  0
    5.9871   10.8652   25.5024 C   0  0  0  0  0  0  0  0  0  0  0  0
    7.5198   12.7140   25.1218 C   0  0  0  0  0  0  0  0  0  0  0  0
    9.0890    9.9420   23.5237 C   0  0  0  0  0  0  0  0  0  0  0  0
    8.0230   10.4848   24.2617 C   0  0  0  0  0  0  0  0  0  0  0  0
    6.3312   12.2059   25.6571 C   0  0  0  0  0  0  0  0  0  0  0  0
    8.3552   11.8290   24.4234 C   0  0  0  0  0  0  0  0  0  0  0  0
    5.4407   13.0951   26.3874 C   0  0  0  0  0  0  0  0  0  0  0  0
   10.3385   13.1584   23.6545 C   0  0  0  0  0  0  0  0  0  0  0  0
   12.1154   15.2396   22.9097 C   0  0  0  0  0  0  0  0  0  0  0  0
   12.1221   14.1682   20.6378 C   0  0  0  0  0  0  0  0  0  0  0  0
    9.9807   15.0752   21.5865 C   0  0  0  0  0  0  0  0  0  0  0  0
   11.3143   14.4041   21.9122 C   0  0  0  0  0  0  0  0  0  0  0  0
   10.0269   10.8397   23.2305 N   0  0  0  0  0  0  0  0  0  0  0  0
    9.5756   11.9948   23.7819 N   0  0  0  0  0  0  0  0  0  0  0  0
    5.3124   14.3061   26.1817 O   0  0  0  0  0  0  0  0  0  0  0  0
   10.3107   14.0298   24.5079 O   0  0  0  0  0  0  0  0  0  0  0  0
    4.7347   12.4458   27.3530 O   0  0  0  0  0  0  0  0  0  0  0  0
   11.0500   13.1258   22.4978 O   0  0  0  0  0  0  0  0  0  0  0  0
    6.5482    8.9457   24.6895 H   0  0  0  0  0  0  0  0  0  0  0  0
    5.0598   10.4830   25.9236 H   0  0  0  0  0  0  0  0  0  0  0  0
    7.7790   13.7601   25.2472 H   0  0  0  0  0  0  0  0  0  0  0  0
    9.2222    8.9241   23.1856 H   0  0  0  0  0  0  0  0  0  0  0  0
   11.5390   15.4111   23.8258 H   0  0  0  0  0  0  0  0  0  0  0  0
   13.0584   14.7524   23.1783 H   0  0  0  0  0  0  0  0  0  0  0  0
   12.3424   16.2294   22.4974 H   0  0  0  0  0  0  0  0  0  0  0  0
   11.5511   13.5691   19.9193 H   0  0  0  0  0  0  0  0  0  0  0  0
   13.0358   13.6028   20.8540 H   0  0  0  0  0  0  0  0  0  0  0  0
   12.4032   15.1109   20.1573 H   0  0  0  0  0  0  0  0  0  0  0  0
    9.4059   14.4761   20.8710 H   0  0  0  0  0  0  0  0  0  0  0  0
    9.3716   15.2190   22.4848 H   0  0  0  0  0  0  0  0  0  0  0  0
   10.1407   16.0512   21.1143 H   0  0  0  0  0  0  0  0  0  0  0  0
    4.1304   13.0368   27.8508 H   0  0  0  0  0  0  0  0  0  0  0  0
  1  2  1  0  0  0  0
  1  5  2  0  0  0  0
  2  6  2  0  0  0  0
  3  6  1  0  0  0  0
  3  7  2  0  0  0  0
  4  5  1  0  0  0  0
  4 14  2  0  0  0  0
  5  7  1  0  0  0  0
  6  8  1  0  0  0  0
  7 15  1  0  0  0  0
  8 16  2  0  0  0  0
  8 18  1  0  0  0  0
  9 15  1  0  0  0  0
  9 17  2  0  0  0  0
  9 19  1  0  0  0  0
 10 13  1  0  0  0  0
 11 13  1  0  0  0  0
 12 13  1  0  0  0  0
 13 19  1  0  0  0  0
 14 15  1  0  0  0  0
  1 20  1  0  0  0  0
  2 21  1  0  0  0  0
  3 22  1  0  0  0  0
  4 23  1  0  0  0  0
 10 24  1  0  0  0  0
 10 25  1  0  0  0  0
 10 26  1  0  0  0  0
 11 27  1  0  0  0  0
 11 28  1  0  0  0  0
 11 29  1  0  0  0  0
 12 30  1  0  0  0  0
 12 31  1  0  0  0  0
 12 32  1  0  0  0  0
 18 33  1  0  0  0  0
M  END
> <id>
EN300-12581639

> <smiles>
CC(C)(C)OC(=O)N1N=CC=2C=CC(=CC12)C(=O)O

> <MDLNUMBER>
MFCD11846522

> <IUPAC Name>
1-[(tert-butoxy)carbonyl]-1H-indazole-6-carboxylic acid

> <CAS>
1158767-36-2

> <Purity>
95

> <URL>
https://www.enaminestore.com/catalog/EN300-12581639

> <ROCS_ShapeQuery>
A71EV2A-x0451_0A_A71EV2A-x0310_0A_A71EV2A-x0416_0A_peptide

> <ROCS_TanimotoCombo>
0.506 

> <ROCS_ShapeTanimoto>
0.347 

> <ROCS_ColorTanimoto>
0.159 

> <ROCS_RefTversky>
0.302 

> <ROCS_RefColorTversky>
0.178 

> <ROCS_RefTverskyCombo>
0.481 

> <ROCS_FitTversky>
1.756 

> <ROCS_FitColorTversky>
0.591 

> <ROCS_FitTverskyCombo>
2.347 

> <ROCS_ColorScore>
-5.447

> <ROCS_Overlap>
2097.447

> <ROCS_Rank>
486                 

$$$$
untitled-dbase-142797_41
  -OEChem-11132313473D

 54 54  0     0  0  0  0  0  0999 V2000
    8.5962   12.0889   24.0533 C   0  0  0  0  0  0  0  0  0  0  0  0
    9.7118   10.3242   22.8374 C   0  0  0  0  0  0  0  0  0  0  0  0
    7.7015   11.1588   24.5824 C   0  0  0  0  0  0  0  0  0  0  0  0
    8.8171    9.3941   23.3665 C   0  0  0  0  0  0  0  0  0  0  0  0
    9.6013   11.6717   23.1807 C   0  0  0  0  0  0  0  0  0  0  0  0
    7.8119    9.8114   24.2390 C   0  0  0  0  0  0  0  0  0  0  0  0
   10.9500   13.7908   23.2174 C   0  0  0  0  0  0  0  0  0  0  0  0
    6.7132   13.1650   25.7418 C   0  0  0  0  0  0  0  0  0  0  0  0
    6.7571   10.9342   26.9071 C   0  0  0  0  0  0  0  0  0  0  0  0
    5.1661   11.3487   25.0422 C   0  0  0  0  0  0  0  0  0  0  0  0
   10.3452    7.3918   23.4061 C   0  0  0  0  0  0  0  0  0  0  0  0
    8.8065    7.7608   21.4485 C   0  0  0  0  0  0  0  0  0  0  0  0
    7.9017    6.9927   23.6331 C   0  0  0  0  0  0  0  0  0  0  0  0
   11.3346   16.6234   23.1287 C   0  0  0  0  0  0  0  0  0  0  0  0
   12.5573   16.2041   20.9750 C   0  0  0  0  0  0  0  0  0  0  0  0
   10.1234   15.6144   21.1667 C   0  0  0  0  0  0  0  0  0  0  0  0
    6.6316   11.6243   25.5141 C   0  0  0  0  0  0  0  0  0  0  0  0
    8.9523    7.9557   22.9889 C   0  0  0  0  0  0  0  0  0  0  0  0
   11.4552   15.7101   21.9096 C   0  0  0  0  0  0  0  0  0  0  0  0
   10.5070   12.6148   22.6438 N   0  0  0  0  0  0  0  0  0  0  0  0
   10.6449   14.2537   24.3098 O   0  0  0  0  0  0  0  0  0  0  0  0
    6.9377    8.9010   24.7565 O   0  0  0  0  0  0  0  0  0  0  0  0
   11.8223   14.4038   22.3549 O   0  0  0  0  0  0  0  0  0  0  0  0
    8.5089   13.1394   24.3223 H   0  0  0  0  0  0  0  0  0  0  0  0
   10.4960    9.9971   22.1579 H   0  0  0  0  0  0  0  0  0  0  0  0
    5.9373   13.5332   26.4232 H   0  0  0  0  0  0  0  0  0  0  0  0
    7.6788   13.4575   26.1686 H   0  0  0  0  0  0  0  0  0  0  0  0
    6.6001   13.6961   24.7892 H   0  0  0  0  0  0  0  0  0  0  0  0
    5.9744   11.2722   27.5950 H   0  0  0  0  0  0  0  0  0  0  0  0
    6.6803    9.8423   26.8463 H   0  0  0  0  0  0  0  0  0  0  0  0
    7.7238   11.1756   27.3647 H   0  0  0  0  0  0  0  0  0  0  0  0
    4.4178   11.7082   25.7588 H   0  0  0  0  0  0  0  0  0  0  0  0
    4.9629   11.8479   24.0875 H   0  0  0  0  0  0  0  0  0  0  0  0
    4.9943   10.2742   24.9093 H   0  0  0  0  0  0  0  0  0  0  0  0
   10.4706    6.3358   23.1399 H   0  0  0  0  0  0  0  0  0  0  0  0
   11.1617    7.9419   22.9256 H   0  0  0  0  0  0  0  0  0  0  0  0
   10.4818    7.4811   24.4904 H   0  0  0  0  0  0  0  0  0  0  0  0
    8.9049    6.7070   21.1657 H   0  0  0  0  0  0  0  0  0  0  0  0
    7.8373    8.1049   21.0688 H   0  0  0  0  0  0  0  0  0  0  0  0
    9.5889    8.3178   20.9194 H   0  0  0  0  0  0  0  0  0  0  0  0
    8.0422    5.9493   23.3259 H   0  0  0  0  0  0  0  0  0  0  0  0
    7.9682    7.0175   24.7271 H   0  0  0  0  0  0  0  0  0  0  0  0
    6.8829    7.2782   23.3462 H   0  0  0  0  0  0  0  0  0  0  0  0
   10.5446   16.2721   23.8021 H   0  0  0  0  0  0  0  0  0  0  0  0
   12.2734   16.6729   23.6900 H   0  0  0  0  0  0  0  0  0  0  0  0
   11.0562   17.6403   22.8295 H   0  0  0  0  0  0  0  0  0  0  0  0
   12.6473   15.5518   20.0989 H   0  0  0  0  0  0  0  0  0  0  0  0
   13.5319   16.1844   21.4760 H   0  0  0  0  0  0  0  0  0  0  0  0
   12.3660   17.2250   20.6289 H   0  0  0  0  0  0  0  0  0  0  0  0
   10.2097   14.9594   20.2922 H   0  0  0  0  0  0  0  0  0  0  0  0
    9.3286   15.2265   21.8119 H   0  0  0  0  0  0  0  0  0  0  0  0
    9.8168   16.5964   20.7884 H   0  0  0  0  0  0  0  0  0  0  0  0
   10.8784   12.4011   21.7213 H   0  0  0  0  0  0  0  0  0  0  0  0
    6.3035    9.3431   25.3415 H   0  0  0  0  0  0  0  0  0  0  0  0
  1  3  1  0  0  0  0
  1  5  2  0  0  0  0
  2  4  2  0  0  0  0
  2  5  1  0  0  0  0
  3  6  2  0  0  0  0
  3 17  1  0  0  0  0
  4  6  1  0  0  0  0
  4 18  1  0  0  0  0
  5 20  1  0  0  0  0
  6 22  1  0  0  0  0
  7 20  1  0  0  0  0
  7 21  2  0  0  0  0
  7 23  1  0  0  0  0
  8 17  1  0  0  0  0
  9 17  1  0  0  0  0
 10 17  1  0  0  0  0
 11 18  1  0  0  0  0
 12 18  1  0  0  0  0
 13 18  1  0  0  0  0
 14 19  1  0  0  0  0
 15 19  1  0  0  0  0
 16 19  1  0  0  0  0
 19 23  1  0  0  0  0
  1 24  1  0  0  0  0
  2 25  1  0  0  0  0
  8 26  1  0  0  0  0
  8 27  1  0  0  0  0
  8 28  1  0  0  0  0
  9 29  1  0  0  0  0
  9 30  1  0  0  0  0
  9 31  1  0  0  0  0
 10 32  1  0  0  0  0
 10 33  1  0  0  0  0
 10 34  1  0  0  0  0
 11 35  1  0  0  0  0
 11 36  1  0  0  0  0
 11 37  1  0  0  0  0
 12 38  1  0  0  0  0
 12 39  1  0  0  0  0
 12 40  1  0  0  0  0
 13 41  1  0  0  0  0
 13 42  1  0  0  0  0
 13 43  1  0  0  0  0
 14 44  1  0  0  0  0
 14 45  1  0  0  0  0
 14 46  1  0  0  0  0
 15 47  1  0  0  0  0
 15 48  1  0  0  0  0
 15 49  1  0  0  0  0
 16 50  1  0  0  0  0
 16 51  1  0  0  0  0
 16 52  1  0  0  0  0
 20 53  1  0  0  0  0
 22 54  1  0  0  0  0
M  END
> <id>
EN300-12453371

> <smiles>
CC(C)(C)OC(=O)NC1=CC(=C(O)C(=C1)C(C)(C)C)C(C)(C)C

> <MDLNUMBER>
MFCD24468815

> <IUPAC Name>
tert-butyl N-(3,5-di-tert-butyl-4-hydroxyphenyl)carbamate

> <CAS>
179056-08-7

> <URL>
https://www.enaminestore.com/catalog/EN300-12453371

> <ROCS_ShapeQuery>
A71EV2A-x0451_0A_A71EV2A-x0310_0A_A71EV2A-x0416_0A_peptide

> <ROCS_TanimotoCombo>
0.506 

> <ROCS_ShapeTanimoto>
0.361 

> <ROCS_ColorTanimoto>
0.145 

> <ROCS_RefTversky>
0.315 

> <ROCS_RefColorTversky>
0.165 

> <ROCS_RefTverskyCombo>
0.480 

> <ROCS_FitTversky>
1.672 

> <ROCS_FitColorTversky>
0.549 

> <ROCS_FitTverskyCombo>
2.220 

> <ROCS_ColorScore>
-5.041

> <ROCS_Overlap>
2189.107

> <ROCS_Rank>
487                 

$$$$
untitled-dbase-148677_9
  -OEChem-11132313473D

 34 35  0     0  0  0  0  0  0999 V2000
    6.4593   10.6145   25.3441 C   0  0  0  0  0  0  0  0  0  0  0  0
    5.8263   11.7486   25.8588 C   0  0  0  0  0  0  0  0  0  0  0  0
   10.0149   10.9299   23.2160 C   0  0  0  0  0  0  0  0  0  0  0  0
    7.5754   13.1249   24.9515 C   0  0  0  0  0  0  0  0  0  0  0  0
    9.3910    9.7229   23.4578 C   0  0  0  0  0  0  0  0  0  0  0  0
    8.2119   11.9840   24.4338 C   0  0  0  0  0  0  0  0  0  0  0  0
    9.4111   12.0753   23.7145 C   0  0  0  0  0  0  0  0  0  0  0  0
    7.6506   10.7047   24.6292 C   0  0  0  0  0  0  0  0  0  0  0  0
    6.3848   13.0055   25.6625 C   0  0  0  0  0  0  0  0  0  0  0  0
   10.0790   13.3469   23.4535 C   0  0  0  0  0  0  0  0  0  0  0  0
   12.6009   13.6232   22.1159 C   0  0  0  0  0  0  0  0  0  0  0  0
   11.2595   14.4798   20.1727 C   0  0  0  0  0  0  0  0  0  0  0  0
   11.2454   15.7309   22.3505 C   0  0  0  0  0  0  0  0  0  0  0  0
   11.3273   14.3539   21.6931 C   0  0  0  0  0  0  0  0  0  0  0  0
    8.2343    9.5914   24.1468 N   0  0  0  0  0  0  0  0  0  0  0  0
    5.7492   14.1520   26.1803 N   0  0  0  0  0  0  0  0  0  0  0  0
   10.4852   14.1119   24.3339 O   0  0  0  0  0  0  0  0  0  0  0  0
   10.1978   13.5806   22.1126 O   0  0  0  0  0  0  0  0  0  0  0  0
    6.0015    9.6410   25.5108 H   0  0  0  0  0  0  0  0  0  0  0  0
    4.8968   11.6348   26.4108 H   0  0  0  0  0  0  0  0  0  0  0  0
   10.9424   10.9686   22.6548 H   0  0  0  0  0  0  0  0  0  0  0  0
    8.0001   14.1165   24.8075 H   0  0  0  0  0  0  0  0  0  0  0  0
    9.8166    8.7945   23.0911 H   0  0  0  0  0  0  0  0  0  0  0  0
   12.6533   13.5308   23.2066 H   0  0  0  0  0  0  0  0  0  0  0  0
   12.6547   12.6207   21.6790 H   0  0  0  0  0  0  0  0  0  0  0  0
   13.4924   14.1824   21.8099 H   0  0  0  0  0  0  0  0  0  0  0  0
   10.3472   15.0035   19.8648 H   0  0  0  0  0  0  0  0  0  0  0  0
   11.2223   13.4914   19.7005 H   0  0  0  0  0  0  0  0  0  0  0  0
   12.1223   15.0226   19.7733 H   0  0  0  0  0  0  0  0  0  0  0  0
   10.3319   16.2552   22.0473 H   0  0  0  0  0  0  0  0  0  0  0  0
   11.2555   15.6575   23.4428 H   0  0  0  0  0  0  0  0  0  0  0  0
   12.0836   16.3632   22.0361 H   0  0  0  0  0  0  0  0  0  0  0  0
    6.1872   15.0448   26.0717 H   0  0  0  0  0  0  0  0  0  0  0  0
    4.9195   14.0449   26.7290 H   0  0  0  0  0  0  0  0  0  0  0  0
  1  2  1  0  0  0  0
  1  8  2  0  0  0  0
  2  9  2  0  0  0  0
  3  5  1  0  0  0  0
  3  7  2  0  0  0  0
  4  6  2  0  0  0  0
  4  9  1  0  0  0  0
  5 15  2  0  0  0  0
  6  7  1  0  0  0  0
  6  8  1  0  0  0  0
  7 10  1  0  0  0  0
  8 15  1  0  0  0  0
  9 16  1  0  0  0  0
 10 17  2  0  0  0  0
 10 18  1  0  0  0  0
 11 14  1  0  0  0  0
 12 14  1  0  0  0  0
 13 14  1  0  0  0  0
 14 18  1  0  0  0  0
  1 19  1  0  0  0  0
  2 20  1  0  0  0  0
  3 21  1  0  0  0  0
  4 22  1  0  0  0  0
  5 23  1  0  0  0  0
 11 24  1  0  0  0  0
 11 25  1  0  0  0  0
 11 26  1  0  0  0  0
 12 27  1  0  0  0  0
 12 28  1  0  0  0  0
 12 29  1  0  0  0  0
 13 30  1  0  0  0  0
 13 31  1  0  0  0  0
 13 32  1  0  0  0  0
 16 33  1  0  0  0  0
 16 34  1  0  0  0  0
M  END
> <id>
EN300-27724474

> <smiles>
CC(C)(C)OC(=O)C=1C=CN=C2C=CC(N)=CC12

> <IUPAC Name>
tert-butyl 6-aminoquinoline-4-carboxylate

> <CAS>
2639430-54-7

> <URL>
https://www.enaminestore.com/catalog/EN300-27724474

> <ROCS_ShapeQuery>
A71EV2A-x0451_0A_A71EV2A-x0310_0A_A71EV2A-x0416_0A_peptide

> <ROCS_TanimotoCombo>
0.506 

> <ROCS_ShapeTanimoto>
0.338 

> <ROCS_ColorTanimoto>
0.168 

> <ROCS_RefTversky>
0.294 

> <ROCS_RefColorTversky>
0.183 

> <ROCS_RefTverskyCombo>
0.477 

> <ROCS_FitTversky>
1.791 

> <ROCS_FitColorTversky>
0.676 

> <ROCS_FitTverskyCombo>
2.467 

> <ROCS_ColorScore>
-5.569

> <ROCS_Overlap>
2041.452

> <ROCS_Rank>
488                 

$$$$
untitled-dbase-143154_23
  -OEChem-11132313473D

 44 46  0     1  0  0  0  0  0999 V2000
   11.1395   13.6872   23.2811 C   0  0  0  0  0  0  0  0  0  0  0  0
    7.5222   11.4660   25.5064 C   0  0  0  0  0  0  0  0  0  0  0  0
    6.6323   10.9250   23.2238 C   0  0  0  0  0  0  0  0  0  0  0  0
    8.2339   12.8318   23.5260 C   0  0  0  0  0  0  0  0  0  0  0  0
    9.8696   11.2806   24.6406 C   0  0  0  0  0  0  0  0  0  0  0  0
    8.9755   10.7366   22.3487 C   0  0  0  0  0  0  0  0  0  0  0  0
    7.0635   12.0623   24.1650 C   0  0  0  0  0  0  0  0  0  0  0  0
    8.7042   10.5034   25.2804 C   0  0  2  0  0  0  0  0  0  0  0  0
    7.8099    9.9590   22.9876 C   0  0  1  0  0  0  0  0  0  0  0  0
    8.2849    9.3662   24.3280 C   0  0  0  0  0  0  0  0  0  0  0  0
    9.4271   11.8794   23.2863 C   0  0  0  0  0  0  0  0  0  0  0  0
   11.9782   16.4160   23.2676 C   0  0  0  0  0  0  0  0  0  0  0  0
   13.2009   15.8364   21.1514 C   0  0  0  0  0  0  0  0  0  0  0  0
   10.6982   15.6451   21.2422 C   0  0  0  0  0  0  0  0  0  0  0  0
   11.9979   15.5133   22.0349 C   0  0  0  0  0  0  0  0  0  0  0  0
   10.5233   12.6087   22.6854 N   0  0  0  0  0  0  0  0  0  0  0  0
   10.8519   14.1652   24.3735 O   0  0  0  0  0  0  0  0  0  0  0  0
    7.2518    8.5931   24.9298 O   0  0  0  0  0  0  0  0  0  0  0  0
   12.1326   14.1547   22.4671 O   0  0  0  0  0  0  0  0  0  0  0  0
    7.8225   12.2705   26.1893 H   0  0  0  0  0  0  0  0  0  0  0  0
    6.6886   10.9411   25.9883 H   0  0  0  0  0  0  0  0  0  0  0  0
    5.7785   10.3868   23.6526 H   0  0  0  0  0  0  0  0  0  0  0  0
    6.2936   11.3405   22.2666 H   0  0  0  0  0  0  0  0  0  0  0  0
    7.9053   13.2781   22.5784 H   0  0  0  0  0  0  0  0  0  0  0  0
    8.5315   13.6590   24.1834 H   0  0  0  0  0  0  0  0  0  0  0  0
   10.1964   12.0765   25.3225 H   0  0  0  0  0  0  0  0  0  0  0  0
   10.7258   10.6083   24.4995 H   0  0  0  0  0  0  0  0  0  0  0  0
    9.8103   10.0513   22.1521 H   0  0  0  0  0  0  0  0  0  0  0  0
    8.6576   11.1404   21.3786 H   0  0  0  0  0  0  0  0  0  0  0  0
    6.2217   12.7435   24.3317 H   0  0  0  0  0  0  0  0  0  0  0  0
    9.0104   10.0873   26.2473 H   0  0  0  0  0  0  0  0  0  0  0  0
    7.4792    9.1563   22.3184 H   0  0  0  0  0  0  0  0  0  0  0  0
    9.1348    8.6932   24.1619 H   0  0  0  0  0  0  0  0  0  0  0  0
   11.1162   16.1872   23.9044 H   0  0  0  0  0  0  0  0  0  0  0  0
   12.8900   16.3049   23.8635 H   0  0  0  0  0  0  0  0  0  0  0  0
   11.8791   17.4689   22.9797 H   0  0  0  0  0  0  0  0  0  0  0  0
   13.2190   15.1911   20.2657 H   0  0  0  0  0  0  0  0  0  0  0  0
   14.1392   15.6520   21.6869 H   0  0  0  0  0  0  0  0  0  0  0  0
   13.1901   16.8798   20.8199 H   0  0  0  0  0  0  0  0  0  0  0  0
   10.7121   14.9977   20.3580 H   0  0  0  0  0  0  0  0  0  0  0  0
    9.8267   15.3813   21.8500 H   0  0  0  0  0  0  0  0  0  0  0  0
   10.5687   16.6692   20.8737 H   0  0  0  0  0  0  0  0  0  0  0  0
   10.8563   12.3093   21.7755 H   0  0  0  0  0  0  0  0  0  0  0  0
    7.0231    7.8946   24.2966 H   0  0  0  0  0  0  0  0  0  0  0  0
  1 16  1  0  0  0  0
  1 17  2  0  0  0  0
  1 19  1  0  0  0  0
  2  7  1  0  0  0  0
  2  8  1  0  0  0  0
  3  7  1  0  0  0  0
  3  9  1  0  0  0  0
  4  7  1  0  0  0  0
  4 11  1  0  0  0  0
  5  8  1  0  0  0  0
  5 11  1  0  0  0  0
  6  9  1  0  0  0  0
  6 11  1  0  0  0  0
  8 10  1  0  0  0  0
  9 10  1  0  0  0  0
 10 18  1  0  0  0  0
 11 16  1  0  0  0  0
 12 15  1  0  0  0  0
 13 15  1  0  0  0  0
 14 15  1  0  0  0  0
 15 19  1  0  0  0  0
  2 20  1  0  0  0  0
  2 21  1  0  0  0  0
  3 22  1  0  0  0  0
  3 23  1  0  0  0  0
  4 24  1  0  0  0  0
  4 25  1  0  0  0  0
  5 26  1  0  0  0  0
  5 27  1  0  0  0  0
  6 28  1  0  0  0  0
  6 29  1  0  0  0  0
  7 30  1  0  0  0  0
  8 31  1  0  0  0  0
  9 32  1  0  0  0  0
 10 33  1  0  0  0  0
 12 34  1  0  0  0  0
 12 35  1  0  0  0  0
 12 36  1  0  0  0  0
 13 37  1  0  0  0  0
 13 38  1  0  0  0  0
 13 39  1  0  0  0  0
 14 40  1  0  0  0  0
 14 41  1  0  0  0  0
 14 42  1  0  0  0  0
 16 43  1  0  0  0  0
 18 44  1  0  0  0  0
M  END
> <id>
EN300-27718406

> <smiles>
CC(C)(C)OC(=O)NC1(CC2CC3C1)CC(C2)C3O

> <IUPAC Name>
tert-butyl N-(4-hydroxyadamantan-1-yl)carbamate

> <CAS>
2136254-89-0

> <URL>
https://www.enaminestore.com/catalog/EN300-27718406

> <ROCS_ShapeQuery>
A71EV2A-x0451_0A_A71EV2A-x0310_0A_A71EV2A-x0416_0A_peptide

> <ROCS_TanimotoCombo>
0.506 

> <ROCS_ShapeTanimoto>
0.304 

> <ROCS_ColorTanimoto>
0.202 

> <ROCS_RefTversky>
0.273 

> <ROCS_RefColorTversky>
0.236 

> <ROCS_RefTverskyCombo>
0.509 

> <ROCS_FitTversky>
1.612 

> <ROCS_FitColorTversky>
0.582 

> <ROCS_FitTverskyCombo>
2.194 

> <ROCS_ColorScore>
-7.259

> <ROCS_Overlap>
1891.801

> <ROCS_Rank>
489                 

$$$$
untitled-dbase-153629_6
  -OEChem-11132313473D

 37 38  0     0  0  0  0  0  0999 V2000
    6.8944   10.1740   24.9747 C   0  0  0  0  0  0  0  0  0  0  0  0
    6.1669   11.1257   25.6956 C   0  0  0  0  0  0  0  0  0  0  0  0
    7.7833   12.8552   25.1403 C   0  0  0  0  0  0  0  0  0  0  0  0
    9.0523    9.9347   23.5402 C   0  0  0  0  0  0  0  0  0  0  0  0
    8.0793   10.5708   24.3304 C   0  0  0  0  0  0  0  0  0  0  0  0
    8.5076   11.8944   24.4184 C   0  0  0  0  0  0  0  0  0  0  0  0
    6.6063   12.4449   25.7760 C   0  0  0  0  0  0  0  0  0  0  0  0
    4.6672   13.1662   27.2056 C   0  0  0  0  0  0  0  0  0  0  0  0
   10.5111   13.0635   23.4638 C   0  0  0  0  0  0  0  0  0  0  0  0
    4.1771   14.4322   27.8624 C   0  0  0  0  0  0  0  0  0  0  0  0
   13.1003   14.1192   22.9893 C   0  0  0  0  0  0  0  0  0  0  0  0
   12.6157   13.7168   20.5578 C   0  0  0  0  0  0  0  0  0  0  0  0
   11.1905   15.3160   21.8690 C   0  0  0  0  0  0  0  0  0  0  0  0
   12.0085   14.0266   21.9243 C   0  0  0  0  0  0  0  0  0  0  0  0
   10.0220   10.7581   23.1490 N   0  0  0  0  0  0  0  0  0  0  0  0
    9.6865   11.9579   23.6874 N   0  0  0  0  0  0  0  0  0  0  0  0
    5.8609   13.3750   26.5036 N   0  0  0  0  0  0  0  0  0  0  0  0
    4.0425   12.1166   27.3203 O   0  0  0  0  0  0  0  0  0  0  0  0
   10.6008   13.9620   24.2842 O   0  0  0  0  0  0  0  0  0  0  0  0
   11.1335   12.9462   22.2621 O   0  0  0  0  0  0  0  0  0  0  0  0
    6.5442    9.1475   24.9183 H   0  0  0  0  0  0  0  0  0  0  0  0
    5.2500   10.8193   26.1946 H   0  0  0  0  0  0  0  0  0  0  0  0
    8.1177   13.8851   25.2088 H   0  0  0  0  0  0  0  0  0  0  0  0
    9.0957    8.8996   23.2323 H   0  0  0  0  0  0  0  0  0  0  0  0
    3.5188   14.9738   27.1773 H   0  0  0  0  0  0  0  0  0  0  0  0
    5.0280   15.0711   28.1156 H   0  0  0  0  0  0  0  0  0  0  0  0
    3.6321   14.1901   28.7795 H   0  0  0  0  0  0  0  0  0  0  0  0
   12.6684   14.3414   23.9717 H   0  0  0  0  0  0  0  0  0  0  0  0
   13.6717   13.1882   23.0633 H   0  0  0  0  0  0  0  0  0  0  0  0
   13.7964   14.9357   22.7658 H   0  0  0  0  0  0  0  0  0  0  0  0
   11.8359   13.6494   19.7906 H   0  0  0  0  0  0  0  0  0  0  0  0
   13.1238   12.7457   20.5675 H   0  0  0  0  0  0  0  0  0  0  0  0
   13.3367   14.4822   20.2531 H   0  0  0  0  0  0  0  0  0  0  0  0
   10.4073   15.2498   21.1052 H   0  0  0  0  0  0  0  0  0  0  0  0
   10.7169   15.5347   22.8315 H   0  0  0  0  0  0  0  0  0  0  0  0
   11.8228   16.1669   21.5907 H   0  0  0  0  0  0  0  0  0  0  0  0
    6.2301   14.3319   26.5309 H   0  0  0  0  0  0  0  0  0  0  0  0
  1  2  1  0  0  0  0
  1  5  2  0  0  0  0
  2  7  2  0  0  0  0
  3  6  2  0  0  0  0
  3  7  1  0  0  0  0
  4  5  1  0  0  0  0
  4 15  2  0  0  0  0
  5  6  1  0  0  0  0
  6 16  1  0  0  0  0
  7 17  1  0  0  0  0
  8 10  1  0  0  0  0
  8 17  1  0  0  0  0
  8 18  2  0  0  0  0
  9 16  1  0  0  0  0
  9 19  2  0  0  0  0
  9 20  1  0  0  0  0
 11 14  1  0  0  0  0
 12 14  1  0  0  0  0
 13 14  1  0  0  0  0
 14 20  1  0  0  0  0
 15 16  1  0  0  0  0
  1 21  1  0  0  0  0
  2 22  1  0  0  0  0
  3 23  1  0  0  0  0
  4 24  1  0  0  0  0
 10 25  1  0  0  0  0
 10 26  1  0  0  0  0
 10 27  1  0  0  0  0
 11 28  1  0  0  0  0
 11 29  1  0  0  0  0
 11 30  1  0  0  0  0
 12 31  1  0  0  0  0
 12 32  1  0  0  0  0
 12 33  1  0  0  0  0
 13 34  1  0  0  0  0
 13 35  1  0  0  0  0
 13 36  1  0  0  0  0
 17 37  1  0  0  0  0
M  END
> <id>
EN300-28262848

> <smiles>
CC(=O)NC=1C=CC=2C=NN(C(=O)OC(C)(C)C)C2C1

> <IUPAC Name>
tert-butyl 6-acetamido-1H-indazole-1-carboxylate

> <CAS>
2680711-38-8

> <URL>
https://www.enaminestore.com/catalog/EN300-28262848

> <ROCS_ShapeQuery>
A71EV2A-x0451_0A_A71EV2A-x0310_0A_A71EV2A-x0416_0A_peptide

> <ROCS_TanimotoCombo>
0.506 

> <ROCS_ShapeTanimoto>
0.344 

> <ROCS_ColorTanimoto>
0.162 

> <ROCS_RefTversky>
0.301 

> <ROCS_RefColorTversky>
0.177 

> <ROCS_RefTverskyCombo>
0.479 

> <ROCS_FitTversky>
1.699 

> <ROCS_FitColorTversky>
0.655 

> <ROCS_FitTverskyCombo>
2.354 

> <ROCS_ColorScore>
-5.408

> <ROCS_Overlap>
2091.578

> <ROCS_Rank>
490                 

$$$$
untitled-dbase-7109_4
  -OEChem-11132313473D

 36 39  0     0  0  0  0  0  0999 V2000
    9.4333    9.7150   22.8974 C   0  0  0  0  0  0  0  0  0  0  0  0
    7.0536   12.9150   25.9462 C   0  0  0  0  0  0  0  0  0  0  0  0
    8.1577   13.0336   25.1145 C   0  0  0  0  0  0  0  0  0  0  0  0
   10.1281   10.9126   22.7826 C   0  0  0  0  0  0  0  0  0  0  0  0
    8.3251    9.6283   23.7437 C   0  0  0  0  0  0  0  0  0  0  0  0
   11.9239   16.3433   24.1637 C   0  0  0  0  0  0  0  0  0  0  0  0
   12.5285   15.5338   21.5052 C   0  0  0  0  0  0  0  0  0  0  0  0
    6.4235   11.6883   25.9993 C   0  0  0  0  0  0  0  0  0  0  0  0
    8.5978   11.9336   24.3660 C   0  0  0  0  0  0  0  0  0  0  0  0
    9.7124   12.0210   23.5148 C   0  0  0  0  0  0  0  0  0  0  0  0
   12.7156   17.1402   23.3272 C   0  0  0  0  0  0  0  0  0  0  0  0
   13.0113   16.7407   22.0219 C   0  0  0  0  0  0  0  0  0  0  0  0
    7.8877   10.7208   24.4876 C   0  0  0  0  0  0  0  0  0  0  0  0
   11.4302   15.1276   23.6610 C   0  0  0  0  0  0  0  0  0  0  0  0
   11.7421   14.7564   22.3561 C   0  0  0  0  0  0  0  0  0  0  0  0
   10.4751   13.2425   23.3548 C   0  0  0  0  0  0  0  0  0  0  0  0
   13.2407   18.4329   23.8650 C   0  0  0  0  0  0  0  0  0  0  0  0
   13.8580   17.6011   21.1386 C   0  0  0  0  0  0  0  0  0  0  0  0
    6.8158   10.6027   25.2939 N   0  0  0  0  0  0  0  0  0  0  0  0
   10.6427   14.1749   24.2656 N   0  0  0  0  0  0  0  0  0  0  0  0
   11.1182   13.5470   22.1874 N   0  0  0  0  0  0  0  0  0  0  0  0
    9.7504    8.8450   22.3298 H   0  0  0  0  0  0  0  0  0  0  0  0
    6.6995   13.7551   26.5321 H   0  0  0  0  0  0  0  0  0  0  0  0
    8.6573   13.9980   25.0693 H   0  0  0  0  0  0  0  0  0  0  0  0
   10.9885   10.9642   22.1198 H   0  0  0  0  0  0  0  0  0  0  0  0
    7.7980    8.6787   23.8159 H   0  0  0  0  0  0  0  0  0  0  0  0
   11.6939   16.6534   25.1786 H   0  0  0  0  0  0  0  0  0  0  0  0
   12.7516   15.2138   20.4931 H   0  0  0  0  0  0  0  0  0  0  0  0
    5.5552   11.5362   26.6320 H   0  0  0  0  0  0  0  0  0  0  0  0
   14.2162   18.2769   24.3386 H   0  0  0  0  0  0  0  0  0  0  0  0
   13.3529   19.1758   23.0667 H   0  0  0  0  0  0  0  0  0  0  0  0
   12.5546   18.8595   24.6062 H   0  0  0  0  0  0  0  0  0  0  0  0
   13.2288   18.3003   20.5773 H   0  0  0  0  0  0  0  0  0  0  0  0
   14.5837   18.1752   21.7262 H   0  0  0  0  0  0  0  0  0  0  0  0
   14.4295   16.9935   20.4273 H   0  0  0  0  0  0  0  0  0  0  0  0
   11.1339   12.9843   21.3468 H   0  0  0  0  0  0  0  0  0  0  0  0
  1  4  1  0  0  0  0
  1  5  2  0  0  0  0
  2  3  1  0  0  0  0
  2  8  2  0  0  0  0
  3  9  2  0  0  0  0
  4 10  2  0  0  0  0
  5 13  1  0  0  0  0
  6 11  2  0  0  0  0
  6 14  1  0  0  0  0
  7 12  2  0  0  0  0
  7 15  1  0  0  0  0
  8 19  1  0  0  0  0
  9 10  1  0  0  0  0
  9 13  1  0  0  0  0
 10 16  1  0  0  0  0
 11 12  1  0  0  0  0
 11 17  1  0  0  0  0
 12 18  1  0  0  0  0
 13 19  2  0  0  0  0
 14 15  2  0  0  0  0
 14 20  1  0  0  0  0
 15 21  1  0  0  0  0
 16 20  2  0  0  0  0
 16 21  1  0  0  0  0
  1 22  1  0  0  0  0
  2 23  1  0  0  0  0
  3 24  1  0  0  0  0
  4 25  1  0  0  0  0
  5 26  1  0  0  0  0
  6 27  1  0  0  0  0
  7 28  1  0  0  0  0
  8 29  1  0  0  0  0
 17 30  1  0  0  0  0
 17 31  1  0  0  0  0
 17 32  1  0  0  0  0
 18 33  1  0  0  0  0
 18 34  1  0  0  0  0
 18 35  1  0  0  0  0
 21 36  1  0  0  0  0
M  END
> <id>
EN300-91885

> <smiles>
CC=1C=C2N=C(NC2=CC1C)C=3C=CC=C4N=CC=CC34

> <MDLNUMBER>
MFCD20501973

> <IUPAC Name>
5-(5,6-dimethyl-1H-1,3-benzodiazol-2-yl)quinoline

> <CAS>
1354949-91-9

> <Purity>
85.68

> <URL>
https://www.enaminestore.com/catalog/EN300-91885

> <ROCS_ShapeQuery>
A71EV2A-x0451_0A_A71EV2A-x0310_0A_A71EV2A-x0416_0A_peptide

> <ROCS_TanimotoCombo>
0.506 

> <ROCS_ShapeTanimoto>
0.336 

> <ROCS_ColorTanimoto>
0.170 

> <ROCS_RefTversky>
0.299 

> <ROCS_RefColorTversky>
0.189 

> <ROCS_RefTverskyCombo>
0.488 

> <ROCS_FitTversky>
1.583 

> <ROCS_FitColorTversky>
0.628 

> <ROCS_FitTverskyCombo>
2.211 

> <ROCS_ColorScore>
-5.782

> <ROCS_Overlap>
2076.537

> <ROCS_Rank>
491                 

$$$$
untitled-dbase-139336_53
  -OEChem-11132313473D

 40 41  0     0  0  0  0  0  0999 V2000
    7.2659   12.3133   25.9068 C   0  0  0  0  0  0  0  0  0  0  0  0
    6.1750   10.3238   24.2816 C   0  0  0  0  0  0  0  0  0  0  0  0
    5.8803   12.1842   25.7896 C   0  0  0  0  0  0  0  0  0  0  0  0
    8.1250   11.4532   25.2089 C   0  0  0  0  0  0  0  0  0  0  0  0
    7.5608   10.4707   24.3792 C   0  0  0  0  0  0  0  0  0  0  0  0
    5.3359   11.1875   24.9820 C   0  0  0  0  0  0  0  0  0  0  0  0
    5.0463   13.1277   26.5246 C   0  0  0  0  0  0  0  0  0  0  0  0
   10.6403   13.1171   23.6755 C   0  0  0  0  0  0  0  0  0  0  0  0
    9.6169   11.5719   25.3853 C   0  0  0  0  0  0  0  0  0  0  0  0
   10.4621   10.6840   23.2185 C   0  0  0  0  0  0  0  0  0  0  0  0
    9.1180   10.2167   22.6712 C   0  0  0  0  0  0  0  0  0  0  0  0
   12.6389   15.0285   22.9381 C   0  0  0  0  0  0  0  0  0  0  0  0
   12.3577   14.1460   20.6033 C   0  0  0  0  0  0  0  0  0  0  0  0
   10.4223   15.2463   21.7660 C   0  0  0  0  0  0  0  0  0  0  0  0
   11.6711   14.3845   21.9464 C   0  0  0  0  0  0  0  0  0  0  0  0
   10.2947   11.8318   24.1117 N   0  0  0  0  0  0  0  0  0  0  0  0
    5.0667   14.3531   26.3876 O   0  0  0  0  0  0  0  0  0  0  0  0
   10.4144   14.1480   24.3067 O   0  0  0  0  0  0  0  0  0  0  0  0
    8.3335    9.5743   23.6841 O   0  0  0  0  0  0  0  0  0  0  0  0
    4.2155   12.5067   27.4040 O   0  0  0  0  0  0  0  0  0  0  0  0
   11.2740   13.1082   22.4607 O   0  0  0  0  0  0  0  0  0  0  0  0
    3.4604   10.9655   24.7989 Br  0  0  0  0  0  0  0  0  0  0  0  0
    7.6826   13.0942   26.5401 H   0  0  0  0  0  0  0  0  0  0  0  0
    5.7642    9.5281   23.6645 H   0  0  0  0  0  0  0  0  0  0  0  0
    9.8442   12.3901   26.0795 H   0  0  0  0  0  0  0  0  0  0  0  0
   10.0241   10.6630   25.8407 H   0  0  0  0  0  0  0  0  0  0  0  0
   10.9389    9.8616   23.7608 H   0  0  0  0  0  0  0  0  0  0  0  0
   11.1313   10.9895   22.4063 H   0  0  0  0  0  0  0  0  0  0  0  0
    8.5464   11.0971   22.3560 H   0  0  0  0  0  0  0  0  0  0  0  0
    9.2314    9.5853   21.7790 H   0  0  0  0  0  0  0  0  0  0  0  0
   12.1499   15.2014   23.9035 H   0  0  0  0  0  0  0  0  0  0  0  0
   13.5227   14.4036   23.1029 H   0  0  0  0  0  0  0  0  0  0  0  0
   12.9707   16.0097   22.5796 H   0  0  0  0  0  0  0  0  0  0  0  0
   11.6669   13.6840   19.8887 H   0  0  0  0  0  0  0  0  0  0  0  0
   13.1986   13.4517   20.7127 H   0  0  0  0  0  0  0  0  0  0  0  0
   12.7323   15.0788   20.1698 H   0  0  0  0  0  0  0  0  0  0  0  0
    9.7279   14.7845   21.0547 H   0  0  0  0  0  0  0  0  0  0  0  0
    9.8961   15.3973   22.7141 H   0  0  0  0  0  0  0  0  0  0  0  0
   10.6823   16.2272   21.3519 H   0  0  0  0  0  0  0  0  0  0  0  0
    3.6492   13.1332   27.9031 H   0  0  0  0  0  0  0  0  0  0  0  0
  1  3  1  0  0  0  0
  1  4  2  0  0  0  0
  2  5  2  0  0  0  0
  2  6  1  0  0  0  0
  3  6  2  0  0  0  0
  3  7  1  0  0  0  0
  4  5  1  0  0  0  0
  4  9  1  0  0  0  0
  5 19  1  0  0  0  0
  6 22  1  0  0  0  0
  7 17  2  0  0  0  0
  7 20  1  0  0  0  0
  8 16  1  0  0  0  0
  8 18  2  0  0  0  0
  8 21  1  0  0  0  0
  9 16  1  0  0  0  0
 10 11  1  0  0  0  0
 10 16  1  0  0  0  0
 11 19  1  0  0  0  0
 12 15  1  0  0  0  0
 13 15  1  0  0  0  0
 14 15  1  0  0  0  0
 15 21  1  0  0  0  0
  1 23  1  0  0  0  0
  2 24  1  0  0  0  0
  9 25  1  0  0  0  0
  9 26  1  0  0  0  0
 10 27  1  0  0  0  0
 10 28  1  0  0  0  0
 11 29  1  0  0  0  0
 11 30  1  0  0  0  0
 12 31  1  0  0  0  0
 12 32  1  0  0  0  0
 12 33  1  0  0  0  0
 13 34  1  0  0  0  0
 13 35  1  0  0  0  0
 13 36  1  0  0  0  0
 14 37  1  0  0  0  0
 14 38  1  0  0  0  0
 14 39  1  0  0  0  0
 20 40  1  0  0  0  0
M  END
> <id>
EN300-1653045

> <smiles>
CC(C)(C)OC(=O)N1CCOC=2C=C(Br)C(=CC2C1)C(=O)O

> <MDLNUMBER>
MFCD32660550

> <IUPAC Name>
8-bromo-4-[(tert-butoxy)carbonyl]-2,3,4,5-tetrahydro-1,4-benzoxazepine-7-carboxylic acid

> <CAS>
2172221-82-6

> <URL>
https://www.enaminestore.com/catalog/EN300-1653045

> <ROCS_ShapeQuery>
A71EV2A-x0451_0A_A71EV2A-x0310_0A_A71EV2A-x0416_0A_peptide

> <ROCS_TanimotoCombo>
0.506 

> <ROCS_ShapeTanimoto>
0.329 

> <ROCS_ColorTanimoto>
0.178 

> <ROCS_RefTversky>
0.293 

> <ROCS_RefColorTversky>
0.201 

> <ROCS_RefTverskyCombo>
0.494 

> <ROCS_FitTversky>
1.580 

> <ROCS_FitColorTversky>
0.605 

> <ROCS_FitTverskyCombo>
2.185 

> <ROCS_ColorScore>
-6.141

> <ROCS_Overlap>
2036.724

> <ROCS_Rank>
492                 

$$$$
untitled-dbase-172214_134
  -OEChem-11132313473D

 40 41  0     1  0  0  0  0  0999 V2000
   10.3388   13.3262   23.4491 C   0  0  0  0  0  0  0  0  0  0  0  0
    6.8267   11.2954   23.8597 C   0  0  0  0  0  0  0  0  0  0  0  0
    7.5323   10.4467   22.7835 C   0  0  0  0  0  0  0  0  0  0  0  0
    8.8007   12.2509   25.1273 C   0  0  0  0  0  0  0  0  0  0  0  0
    9.9648   10.8817   23.3732 C   0  0  0  0  0  0  0  0  0  0  0  0
    7.7076   11.1754   25.1166 C   0  0  2  0  0  0  0  0  0  0  0  0
    8.7920    9.8805   23.4764 C   0  0  1  0  0  0  0  0  0  0  0  0
    8.3278    9.8018   24.9272 C   0  0  0  0  0  0  0  0  0  0  0  0
   12.5909   14.4940   22.1258 C   0  0  0  0  0  0  0  0  0  0  0  0
   11.2780   14.1754   20.0082 C   0  0  0  0  0  0  0  0  0  0  0  0
   10.3935   15.6809   21.8136 C   0  0  0  0  0  0  0  0  0  0  0  0
    9.2072    8.5251   22.9140 C   0  0  0  0  0  0  0  0  0  0  0  0
   11.1929   14.4135   21.5143 C   0  0  0  0  0  0  0  0  0  0  0  0
    9.6557   12.2028   23.9323 N   0  0  0  0  0  0  0  0  0  0  0  0
   10.7427   14.2476   24.1563 O   0  0  0  0  0  0  0  0  0  0  0  0
    8.1465    7.6089   23.1154 O   0  0  0  0  0  0  0  0  0  0  0  0
   10.5075   13.2955   22.0898 O   0  0  0  0  0  0  0  0  0  0  0  0
    9.3231    9.5470   25.7924 F   0  0  0  0  0  0  0  0  0  0  0  0
    7.3878    8.8416   25.0891 F   0  0  0  0  0  0  0  0  0  0  0  0
    6.6888   12.3325   23.5369 H   0  0  0  0  0  0  0  0  0  0  0  0
    5.8322   10.8769   24.0551 H   0  0  0  0  0  0  0  0  0  0  0  0
    6.8588    9.6438   22.4598 H   0  0  0  0  0  0  0  0  0  0  0  0
    7.7763   11.0438   21.8981 H   0  0  0  0  0  0  0  0  0  0  0  0
    8.3426   13.2414   25.2174 H   0  0  0  0  0  0  0  0  0  0  0  0
    9.4591   12.1166   25.9937 H   0  0  0  0  0  0  0  0  0  0  0  0
   10.8362   10.5076   23.9256 H   0  0  0  0  0  0  0  0  0  0  0  0
   10.2766   10.9978   22.3283 H   0  0  0  0  0  0  0  0  0  0  0  0
    7.1079   11.2361   26.0299 H   0  0  0  0  0  0  0  0  0  0  0  0
   12.5342   14.6648   23.2068 H   0  0  0  0  0  0  0  0  0  0  0  0
   13.1623   13.5770   21.9481 H   0  0  0  0  0  0  0  0  0  0  0  0
   13.1522   15.3378   21.7085 H   0  0  0  0  0  0  0  0  0  0  0  0
   10.2772   14.1170   19.5653 H   0  0  0  0  0  0  0  0  0  0  0  0
   11.7678   13.2193   19.7913 H   0  0  0  0  0  0  0  0  0  0  0  0
   11.8343   14.9722   19.5040 H   0  0  0  0  0  0  0  0  0  0  0  0
    9.3907   15.6234   21.3752 H   0  0  0  0  0  0  0  0  0  0  0  0
   10.2907   15.8478   22.8908 H   0  0  0  0  0  0  0  0  0  0  0  0
   10.8753   16.5594   21.3695 H   0  0  0  0  0  0  0  0  0  0  0  0
   10.0972    8.1645   23.4302 H   0  0  0  0  0  0  0  0  0  0  0  0
    9.4110    8.6110   21.8465 H   0  0  0  0  0  0  0  0  0  0  0  0
    7.9922    7.5573   24.0741 H   0  0  0  0  0  0  0  0  0  0  0  0
  1 14  1  0  0  0  0
  1 15  2  0  0  0  0
  1 17  1  0  0  0  0
  2  3  1  0  0  0  0
  2  6  1  0  0  0  0
  3  7  1  0  0  0  0
  4  6  1  0  0  0  0
  4 14  1  0  0  0  0
  5  7  1  0  0  0  0
  5 14  1  0  0  0  0
  6  8  1  0  0  0  0
  7  8  1  0  0  0  0
  7 12  1  0  0  0  0
  8 18  1  0  0  0  0
  8 19  1  0  0  0  0
  9 13  1  0  0  0  0
 10 13  1  0  0  0  0
 11 13  1  0  0  0  0
 12 16  1  0  0  0  0
 13 17  1  0  0  0  0
  2 20  1  0  0  0  0
  2 21  1  0  0  0  0
  3 22  1  0  0  0  0
  3 23  1  0  0  0  0
  4 24  1  0  0  0  0
  4 25  1  0  0  0  0
  5 26  1  0  0  0  0
  5 27  1  0  0  0  0
  6 28  1  0  0  0  0
  9 29  1  0  0  0  0
  9 30  1  0  0  0  0
  9 31  1  0  0  0  0
 10 32  1  0  0  0  0
 10 33  1  0  0  0  0
 10 34  1  0  0  0  0
 11 35  1  0  0  0  0
 11 36  1  0  0  0  0
 11 37  1  0  0  0  0
 12 38  1  0  0  0  0
 12 39  1  0  0  0  0
 16 40  1  0  0  0  0
M  END
> <id>
EN300-3379026

> <smiles>
CC(C)(C)OC(=O)N1CC2CCC(CO)(C1)C2(F)F

> <MDLNUMBER>
MFCD22209815

> <IUPAC Name>
tert-butyl 8,8-difluoro-1-(hydroxymethyl)-3-azabicyclo[3.2.1]octane-3-carboxylate

> <CAS>
1373028-95-5

> <Purity>
95

> <URL>
https://www.enaminestore.com/catalog/EN300-3379026

> <ROCS_ShapeQuery>
A71EV2A-x0451_0A_A71EV2A-x0310_0A_A71EV2A-x0416_0A_peptide

> <ROCS_TanimotoCombo>
0.506 

> <ROCS_ShapeTanimoto>
0.322 

> <ROCS_ColorTanimoto>
0.184 

> <ROCS_RefTversky>
0.285 

> <ROCS_RefColorTversky>
0.211 

> <ROCS_RefTverskyCombo>
0.496 

> <ROCS_FitTversky>
1.682 

> <ROCS_FitColorTversky>
0.592 

> <ROCS_FitTverskyCombo>
2.274 

> <ROCS_ColorScore>
-6.461

> <ROCS_Overlap>
1975.465

> <ROCS_Rank>
493                 

$$$$
untitled-dbase-155075_7
  -OEChem-11132313473D

 34 35  0     0  0  0  0  0  0999 V2000
    5.5027   11.6712   26.4517 C   0  0  0  0  0  0  0  0  0  0  0  0
    5.4397   10.2868   26.3530 C   0  0  0  0  0  0  0  0  0  0  0  0
    6.4929   12.3647   25.7619 C   0  0  0  0  0  0  0  0  0  0  0  0
    6.3663    9.5994   25.5652 C   0  0  0  0  0  0  0  0  0  0  0  0
    8.4319   12.3462   24.2647 C   0  0  0  0  0  0  0  0  0  0  0  0
    7.4249   11.6731   24.9696 C   0  0  0  0  0  0  0  0  0  0  0  0
    7.3668   10.2676   24.8646 C   0  0  0  0  0  0  0  0  0  0  0  0
    9.3370   11.6345   23.4907 C   0  0  0  0  0  0  0  0  0  0  0  0
    9.2006   10.2617   23.4496 C   0  0  0  0  0  0  0  0  0  0  0  0
   10.9589   13.5192   23.1326 C   0  0  0  0  0  0  0  0  0  0  0  0
   11.7154   16.2078   22.5175 C   0  0  0  0  0  0  0  0  0  0  0  0
   12.8075   15.2374   20.4743 C   0  0  0  0  0  0  0  0  0  0  0  0
   10.3234   15.0309   20.7820 C   0  0  0  0  0  0  0  0  0  0  0  0
   11.6772   15.0785   21.4889 C   0  0  0  0  0  0  0  0  0  0  0  0
    8.2438    9.5742   24.1143 N   0  0  0  0  0  0  0  0  0  0  0  0
   10.3339   12.3213   22.7961 N   0  0  0  0  0  0  0  0  0  0  0  0
   10.7482   14.2118   24.1208 O   0  0  0  0  0  0  0  0  0  0  0  0
   11.8802   13.8348   22.1698 O   0  0  0  0  0  0  0  0  0  0  0  0
   10.3990    9.2011   22.4107 Br  0  0  0  0  0  0  0  0  0  0  0  0
    4.7847   12.2095   27.0628 H   0  0  0  0  0  0  0  0  0  0  0  0
    4.6700    9.7386   26.8884 H   0  0  0  0  0  0  0  0  0  0  0  0
    6.5321   13.4487   25.8444 H   0  0  0  0  0  0  0  0  0  0  0  0
    6.2964    8.5147   25.5048 H   0  0  0  0  0  0  0  0  0  0  0  0
    8.5063   13.4309   24.3234 H   0  0  0  0  0  0  0  0  0  0  0  0
   10.9056   16.0974   23.2476 H   0  0  0  0  0  0  0  0  0  0  0  0
   12.6684   16.2309   23.0560 H   0  0  0  0  0  0  0  0  0  0  0  0
   11.5666   17.1809   22.0355 H   0  0  0  0  0  0  0  0  0  0  0  0
   12.7840   14.4292   19.7343 H   0  0  0  0  0  0  0  0  0  0  0  0
   13.7850   15.1770   20.9663 H   0  0  0  0  0  0  0  0  0  0  0  0
   12.7441   16.1938   19.9452 H   0  0  0  0  0  0  0  0  0  0  0  0
   10.2958   14.2210   20.0441 H   0  0  0  0  0  0  0  0  0  0  0  0
    9.5031   14.8803   21.4913 H   0  0  0  0  0  0  0  0  0  0  0  0
   10.1396   15.9593   20.2291 H   0  0  0  0  0  0  0  0  0  0  0  0
   10.6476   11.8862   21.9226 H   0  0  0  0  0  0  0  0  0  0  0  0
  1  2  2  0  0  0  0
  1  3  1  0  0  0  0
  2  4  1  0  0  0  0
  3  6  2  0  0  0  0
  4  7  2  0  0  0  0
  5  6  1  0  0  0  0
  5  8  2  0  0  0  0
  6  7  1  0  0  0  0
  7 15  1  0  0  0  0
  8  9  1  0  0  0  0
  8 16  1  0  0  0  0
  9 15  2  0  0  0  0
  9 19  1  0  0  0  0
 10 16  1  0  0  0  0
 10 17  2  0  0  0  0
 10 18  1  0  0  0  0
 11 14  1  0  0  0  0
 12 14  1  0  0  0  0
 13 14  1  0  0  0  0
 14 18  1  0  0  0  0
  1 20  1  0  0  0  0
  2 21  1  0  0  0  0
  3 22  1  0  0  0  0
  4 23  1  0  0  0  0
  5 24  1  0  0  0  0
 11 25  1  0  0  0  0
 11 26  1  0  0  0  0
 11 27  1  0  0  0  0
 12 28  1  0  0  0  0
 12 29  1  0  0  0  0
 12 30  1  0  0  0  0
 13 31  1  0  0  0  0
 13 32  1  0  0  0  0
 13 33  1  0  0  0  0
 16 34  1  0  0  0  0
M  END
> <id>
EN300-28294316

> <smiles>
CC(C)(C)OC(=O)NC=1C=C2C=CC=CC2=NC1Br

> <IUPAC Name>
tert-butyl N-(2-bromoquinolin-3-yl)carbamate

> <CAS>
2680725-68-0

> <URL>
https://www.enaminestore.com/catalog/EN300-28294316

> <ROCS_ShapeQuery>
A71EV2A-x0451_0A_A71EV2A-x0310_0A_A71EV2A-x0416_0A_peptide

> <ROCS_TanimotoCombo>
0.506 

> <ROCS_ShapeTanimoto>
0.344 

> <ROCS_ColorTanimoto>
0.162 

> <ROCS_RefTversky>
0.299 

> <ROCS_RefColorTversky>
0.177 

> <ROCS_RefTverskyCombo>
0.476 

> <ROCS_FitTversky>
1.776 

> <ROCS_FitColorTversky>
0.653 

> <ROCS_FitTverskyCombo>
2.430 

> <ROCS_ColorScore>
-5.386

> <ROCS_Overlap>
2077.077

> <ROCS_Rank>
494                 

$$$$
untitled-dbase-106733_45
  -OEChem-11132313473D

 31 31  0     0  0  0  0  0  0999 V2000
    8.8772   10.4100   23.6317 C   0  0  0  0  0  0  0  0  0  0  0  0
    9.0943   11.7726   23.6569 C   0  0  0  0  0  0  0  0  0  0  0  0
    7.7978    9.9638   24.3664 C   0  0  0  0  0  0  0  0  0  0  0  0
    7.3018   12.0837   25.0197 C   0  0  0  0  0  0  0  0  0  0  0  0
   10.9542   13.3949   23.1881 C   0  0  0  0  0  0  0  0  0  0  0  0
   12.0667   15.9088   22.3995 C   0  0  0  0  0  0  0  0  0  0  0  0
   13.0295   14.6602   20.4442 C   0  0  0  0  0  0  0  0  0  0  0  0
   10.5385   14.8084   20.7297 C   0  0  0  0  0  0  0  0  0  0  0  0
    6.4262   13.0131   25.7894 C   0  0  0  0  0  0  0  0  0  0  0  0
   11.8830   14.7250   21.4510 C   0  0  0  0  0  0  0  0  0  0  0  0
    8.3235   12.6418   24.3429 N   0  0  0  0  0  0  0  0  0  0  0  0
    6.9860   10.7757   25.0750 N   0  0  0  0  0  0  0  0  0  0  0  0
   10.1897   12.2762   22.9191 N   0  0  0  0  0  0  0  0  0  0  0  0
   10.8354   14.1771   24.1232 O   0  0  0  0  0  0  0  0  0  0  0  0
    7.5135    8.6239   24.3905 O   0  0  0  0  0  0  0  0  0  0  0  0
   11.9142   13.5200   22.2168 O   0  0  0  0  0  0  0  0  0  0  0  0
    6.7987   14.3239   25.6918 F   0  0  0  0  0  0  0  0  0  0  0  0
    5.1184   12.9849   25.3957 F   0  0  0  0  0  0  0  0  0  0  0  0
    6.4118   12.7358   27.1259 F   0  0  0  0  0  0  0  0  0  0  0  0
    9.5082    9.7289   23.0734 H   0  0  0  0  0  0  0  0  0  0  0  0
   11.2458   15.9589   23.1238 H   0  0  0  0  0  0  0  0  0  0  0  0
   13.0115   15.8427   22.9488 H   0  0  0  0  0  0  0  0  0  0  0  0
   12.0518   16.8567   21.8494 H   0  0  0  0  0  0  0  0  0  0  0  0
   12.9017   13.8123   19.7616 H   0  0  0  0  0  0  0  0  0  0  0  0
   13.9876   14.5050   20.9532 H   0  0  0  0  0  0  0  0  0  0  0  0
   13.0973   15.5768   19.8495 H   0  0  0  0  0  0  0  0  0  0  0  0
   10.4065   13.9594   20.0492 H   0  0  0  0  0  0  0  0  0  0  0  0
    9.7019   14.8186   21.4358 H   0  0  0  0  0  0  0  0  0  0  0  0
   10.4834   15.7117   20.1114 H   0  0  0  0  0  0  0  0  0  0  0  0
   10.4468   11.7500   22.0875 H   0  0  0  0  0  0  0  0  0  0  0  0
    8.1557    8.1431   23.8498 H   0  0  0  0  0  0  0  0  0  0  0  0
  1  2  2  0  0  0  0
  1  3  1  0  0  0  0
  2 11  1  0  0  0  0
  2 13  1  0  0  0  0
  3 12  2  0  0  0  0
  3 15  1  0  0  0  0
  4  9  1  0  0  0  0
  4 11  2  0  0  0  0
  4 12  1  0  0  0  0
  5 13  1  0  0  0  0
  5 14  2  0  0  0  0
  5 16  1  0  0  0  0
  6 10  1  0  0  0  0
  7 10  1  0  0  0  0
  8 10  1  0  0  0  0
  9 17  1  0  0  0  0
  9 18  1  0  0  0  0
  9 19  1  0  0  0  0
 10 16  1  0  0  0  0
  1 20  1  0  0  0  0
  6 21  1  0  0  0  0
  6 22  1  0  0  0  0
  6 23  1  0  0  0  0
  7 24  1  0  0  0  0
  7 25  1  0  0  0  0
  7 26  1  0  0  0  0
  8 27  1  0  0  0  0
  8 28  1  0  0  0  0
  8 29  1  0  0  0  0
 13 30  1  0  0  0  0
 15 31  1  0  0  0  0
M  END
> <id>
EN300-26665256

> <smiles>
CC(C)(C)OC(=O)NC=1C=C(O)N=C(N1)C(F)(F)F

> <IUPAC Name>
tert-butyl N-[6-hydroxy-2-(trifluoromethyl)pyrimidin-4-yl]carbamate

> <CAS>
2413869-10-8

> <URL>
https://www.enaminestore.com/catalog/EN300-26665256

> <ROCS_ShapeQuery>
A71EV2A-x0451_0A_A71EV2A-x0310_0A_A71EV2A-x0416_0A_peptide

> <ROCS_TanimotoCombo>
0.506 

> <ROCS_ShapeTanimoto>
0.330 

> <ROCS_ColorTanimoto>
0.176 

> <ROCS_RefTversky>
0.291 

> <ROCS_RefColorTversky>
0.194 

> <ROCS_RefTverskyCombo>
0.485 

> <ROCS_FitTversky>
1.710 

> <ROCS_FitColorTversky>
0.645 

> <ROCS_FitTverskyCombo>
2.355 

> <ROCS_ColorScore>
-5.934

> <ROCS_Overlap>
2015.973

> <ROCS_Rank>
495                 

$$$$
untitled-dbase-175318_4
  -OEChem-11132313473D

 36 39  0     1  0  0  0  0  0999 V2000
    8.3666    7.4588   24.9411 C   0  0  0  0  0  0  0  0  0  0  0  0
    7.3419    8.0950   25.6382 C   0  0  0  0  0  0  0  0  0  0  0  0
    6.1273   10.1268   26.2307 C   0  0  0  0  0  0  0  0  0  0  0  0
    9.2217    8.1987   24.1296 C   0  0  0  0  0  0  0  0  0  0  0  0
    5.9483   11.5040   26.1209 C   0  0  0  0  0  0  0  0  0  0  0  0
    7.1590    9.4820   25.5319 C   0  0  0  0  0  0  0  0  0  0  0  0
    8.0272   10.2414   24.7078 C   0  0  0  0  0  0  0  0  0  0  0  0
    9.0529    9.5843   24.0138 C   0  0  0  0  0  0  0  0  0  0  0  0
    7.8321   11.6261   24.6096 C   0  0  0  0  0  0  0  0  0  0  0  0
    6.7968   12.2549   25.3127 C   0  0  0  0  0  0  0  0  0  0  0  0
    9.9715   10.3563   23.1475 C   0  0  0  0  0  0  0  0  0  0  0  0
    8.7266   12.4389   23.7563 C   0  0  0  0  0  0  0  0  0  0  0  0
   11.3885   14.8928   20.7797 C   0  0  0  0  0  0  0  0  0  0  0  0
   10.8565   13.8713   23.0088 C   0  0  0  0  0  0  0  0  0  0  0  0
   11.1869   13.5489   20.1212 C   0  0  0  0  0  0  0  0  0  0  0  0
   10.1991   12.6941   20.8943 C   0  0  0  0  0  0  0  0  0  0  0  0
   10.6875   12.5267   22.3242 C   0  0  2  0  0  0  0  0  0  0  0  0
   11.2131   14.9185   22.1598 N   0  0  0  0  0  0  0  0  0  0  0  0
    9.7630   11.7466   23.1032 N   0  0  0  0  0  0  0  0  0  0  0  0
   10.8442    9.7582   22.5221 O   0  0  0  0  0  0  0  0  0  0  0  0
    8.5466   13.6488   23.6359 O   0  0  0  0  0  0  0  0  0  0  0  0
   11.7363   15.8795   20.1312 O   0  0  0  0  0  0  0  0  0  0  0  0
   10.7631   14.0156   24.2277 O   0  0  0  0  0  0  0  0  0  0  0  0
    6.5662   13.5975   25.2531 O   0  0  0  0  0  0  0  0  0  0  0  0
    8.4979    6.3844   25.0311 H   0  0  0  0  0  0  0  0  0  0  0  0
    6.6856    7.4960   26.2662 H   0  0  0  0  0  0  0  0  0  0  0  0
    5.4516    9.5602   26.8681 H   0  0  0  0  0  0  0  0  0  0  0  0
   10.0130    7.6778   23.5973 H   0  0  0  0  0  0  0  0  0  0  0  0
    5.1429   11.9840   26.6706 H   0  0  0  0  0  0  0  0  0  0  0  0
   10.8144   13.7124   19.1042 H   0  0  0  0  0  0  0  0  0  0  0  0
   12.1621   13.0539   20.0527 H   0  0  0  0  0  0  0  0  0  0  0  0
    9.2125   13.1760   20.8806 H   0  0  0  0  0  0  0  0  0  0  0  0
   10.0978   11.7177   20.4067 H   0  0  0  0  0  0  0  0  0  0  0  0
   11.6579   12.0146   22.3427 H   0  0  0  0  0  0  0  0  0  0  0  0
   11.3647   15.8182   22.6077 H   0  0  0  0  0  0  0  0  0  0  0  0
    7.2107   14.0213   24.6656 H   0  0  0  0  0  0  0  0  0  0  0  0
  1  2  2  0  0  0  0
  1  4  1  0  0  0  0
  2  6  1  0  0  0  0
  3  5  1  0  0  0  0
  3  6  2  0  0  0  0
  4  8  2  0  0  0  0
  5 10  2  0  0  0  0
  6  7  1  0  0  0  0
  7  8  1  0  0  0  0
  7  9  2  0  0  0  0
  8 11  1  0  0  0  0
  9 10  1  0  0  0  0
  9 12  1  0  0  0  0
 10 24  1  0  0  0  0
 11 19  1  0  0  0  0
 11 20  2  0  0  0  0
 12 19  1  0  0  0  0
 12 21  2  0  0  0  0
 13 15  1  0  0  0  0
 13 18  1  0  0  0  0
 13 22  2  0  0  0  0
 14 17  1  0  0  0  0
 14 18  1  0  0  0  0
 14 23  2  0  0  0  0
 15 16  1  0  0  0  0
 16 17  1  0  0  0  0
 17 19  1  0  0  0  0
  1 25  1  0  0  0  0
  2 26  1  0  0  0  0
  3 27  1  0  0  0  0
  4 28  1  0  0  0  0
  5 29  1  0  0  0  0
 15 30  1  0  0  0  0
 15 31  1  0  0  0  0
 16 32  1  0  0  0  0
 16 33  1  0  0  0  0
 17 34  1  0  0  0  0
 18 35  1  0  0  0  0
 24 36  1  0  0  0  0
M  END
> <id>
EN300-39926915

> <smiles>
OC=1C=CC=2C=CC=C3C(=O)N(C4CCC(=O)NC4=O)C(=O)C1C32

> <IUPAC Name>
3-(2,6-dioxopiperidin-3-yl)-6-hydroxy-3-azatricyclo[7.3.1.0,5,13]trideca-1(12),5,7,9(13),10-pentaene-2,4-dione

> <URL>
https://www.enaminestore.com/catalog/EN300-39926915

> <ROCS_ShapeQuery>
A71EV2A-x0451_0A_A71EV2A-x0310_0A_A71EV2A-x0416_0A_peptide

> <ROCS_TanimotoCombo>
0.506 

> <ROCS_ShapeTanimoto>
0.376 

> <ROCS_ColorTanimoto>
0.130 

> <ROCS_RefTversky>
0.330 

> <ROCS_RefColorTversky>
0.160 

> <ROCS_RefTverskyCombo>
0.490 

> <ROCS_FitTversky>
1.584 

> <ROCS_FitColorTversky>
0.407 

> <ROCS_FitTverskyCombo>
1.991 

> <ROCS_ColorScore>
-4.903

> <ROCS_Overlap>
2297.897

> <ROCS_Rank>
496                 

$$$$
untitled-dbase-81959_2
  -OEChem-11132313473D

 35 37  0     1  0  0  0  0  0999 V2000
    5.5515   10.3859   26.3501 C   0  0  0  0  0  0  0  0  0  0  0  0
    6.5287    9.6418   25.6873 C   0  0  0  0  0  0  0  0  0  0  0  0
    5.5260   11.7731   26.2233 C   0  0  0  0  0  0  0  0  0  0  0  0
    7.4542   11.6678   24.7718 C   0  0  0  0  0  0  0  0  0  0  0  0
    7.4896   10.2763   24.8917 C   0  0  0  0  0  0  0  0  0  0  0  0
    6.4767   12.4189   25.4341 C   0  0  0  0  0  0  0  0  0  0  0  0
    8.4714   12.3335   23.9303 C   0  0  0  0  0  0  0  0  0  0  0  0
   11.4826   14.1163   20.7479 C   0  0  0  0  0  0  0  0  0  0  0  0
   10.8170   13.3801   23.0523 C   0  0  0  0  0  0  0  0  0  0  0  0
    9.3395   10.0948   23.5075 C   0  0  0  0  0  0  0  0  0  0  0  0
   11.0606   12.7729   20.2022 C   0  0  0  0  0  0  0  0  0  0  0  0
    9.9565   12.1548   21.0406 C   0  0  0  0  0  0  0  0  0  0  0  0
   10.4268   12.0287   22.4807 C   0  0  2  0  0  0  0  0  0  0  0  0
   10.3723    9.2364   22.8158 C   0  0  0  0  0  0  0  0  0  0  0  0
    8.4545    9.4960   24.2417 N   0  0  0  0  0  0  0  0  0  0  0  0
   11.3283   14.2829   22.1207 N   0  0  0  0  0  0  0  0  0  0  0  0
    9.3973   11.4743   23.3190 N   0  0  0  0  0  0  0  0  0  0  0  0
    6.3933   13.8268   25.3486 N   0  0  0  0  0  0  0  0  0  0  0  0
    8.4785   13.5538   23.7964 O   0  0  0  0  0  0  0  0  0  0  0  0
   11.9776   14.9774   20.0210 O   0  0  0  0  0  0  0  0  0  0  0  0
   10.7610   13.6370   24.2549 O   0  0  0  0  0  0  0  0  0  0  0  0
    4.8113    9.8826   26.9653 H   0  0  0  0  0  0  0  0  0  0  0  0
    6.5352    8.5597   25.7952 H   0  0  0  0  0  0  0  0  0  0  0  0
    4.7591   12.3395   26.7461 H   0  0  0  0  0  0  0  0  0  0  0  0
   10.7084   12.9104   19.1741 H   0  0  0  0  0  0  0  0  0  0  0  0
   11.9427   12.1234   20.1774 H   0  0  0  0  0  0  0  0  0  0  0  0
    9.0601   12.7865   20.9844 H   0  0  0  0  0  0  0  0  0  0  0  0
    9.6944   11.1708   20.6350 H   0  0  0  0  0  0  0  0  0  0  0  0
   11.3033   11.3709   22.5432 H   0  0  0  0  0  0  0  0  0  0  0  0
    9.9960    8.9499   21.8404 H   0  0  0  0  0  0  0  0  0  0  0  0
   10.5578    8.3538   23.4180 H   0  0  0  0  0  0  0  0  0  0  0  0
   11.2893    9.8053   22.7097 H   0  0  0  0  0  0  0  0  0  0  0  0
   11.6274   15.1801   22.4931 H   0  0  0  0  0  0  0  0  0  0  0  0
    7.0873   14.3234   24.8299 H   0  0  0  0  0  0  0  0  0  0  0  0
    5.6992   14.3050   25.8845 H   0  0  0  0  0  0  0  0  0  0  0  0
  1  2  1  0  0  0  0
  1  3  2  0  0  0  0
  2  5  2  0  0  0  0
  3  6  1  0  0  0  0
  4  5  1  0  0  0  0
  4  6  2  0  0  0  0
  4  7  1  0  0  0  0
  5 15  1  0  0  0  0
  6 18  1  0  0  0  0
  7 17  1  0  0  0  0
  7 19  2  0  0  0  0
  8 11  1  0  0  0  0
  8 16  1  0  0  0  0
  8 20  2  0  0  0  0
  9 13  1  0  0  0  0
  9 16  1  0  0  0  0
  9 21  2  0  0  0  0
 10 14  1  0  0  0  0
 10 15  2  0  0  0  0
 10 17  1  0  0  0  0
 11 12  1  0  0  0  0
 12 13  1  0  0  0  0
 13 17  1  0  0  0  0
  1 22  1  0  0  0  0
  2 23  1  0  0  0  0
  3 24  1  0  0  0  0
 11 25  1  0  0  0  0
 11 26  1  0  0  0  0
 12 27  1  0  0  0  0
 12 28  1  0  0  0  0
 13 29  1  0  0  0  0
 14 30  1  0  0  0  0
 14 31  1  0  0  0  0
 14 32  1  0  0  0  0
 16 33  1  0  0  0  0
 18 34  1  0  0  0  0
 18 35  1  0  0  0  0
M  END
> <id>
EN300-3363282

> <smiles>
CC1=NC=2C=CC=C(N)C2C(=O)N1C3CCC(=O)NC3=O

> <MDLNUMBER>
MFCD29919294

> <IUPAC Name>
3-(5-amino-2-methyl-4-oxo-3,4-dihydroquinazolin-3-yl)piperidine-2,6-dione

> <CAS>
1015474-32-4

> <Purity>
95

> <URL>
https://www.enaminestore.com/catalog/EN300-3363282

> <MP>
293-295

> <ROCS_ShapeQuery>
A71EV2A-x0451_0A_A71EV2A-x0310_0A_A71EV2A-x0416_0A_peptide

> <ROCS_TanimotoCombo>
0.506 

> <ROCS_ShapeTanimoto>
0.352 

> <ROCS_ColorTanimoto>
0.154 

> <ROCS_RefTversky>
0.309 

> <ROCS_RefColorTversky>
0.182 

> <ROCS_RefTverskyCombo>
0.491 

> <ROCS_FitTversky>
1.656 

> <ROCS_FitColorTversky>
0.503 

> <ROCS_FitTverskyCombo>
2.159 

> <ROCS_ColorScore>
-5.578

> <ROCS_Overlap>
2143.160

> <ROCS_Rank>
497                 

$$$$
untitled-dbase-100786_553
  -OEChem-11132313473D

 51 52  0     1  0  0  0  0  0999 V2000
    6.3300   11.4970   25.7178 C   0  0  0  0  0  0  0  0  0  0  0  0
   10.8559   13.7080   23.0210 C   0  0  0  0  0  0  0  0  0  0  0  0
    8.8278    9.9348   22.9091 C   0  0  0  0  0  0  0  0  0  0  0  0
    8.4938   10.2046   25.3829 C   0  0  0  0  0  0  0  0  0  0  0  0
    9.5058   10.3777   24.2297 C   0  0  2  0  0  0  0  0  0  0  0  0
    7.9949   11.9772   23.8812 C   0  0  1  0  0  0  0  0  0  0  0  0
    9.5152   11.9104   24.1038 C   0  0  2  0  0  0  0  0  0  0  0  0
    7.7585   11.0287   22.6874 C   0  0  1  0  0  0  0  0  0  0  0  0
    6.7389   14.2028   26.5397 C   0  0  0  0  0  0  0  0  0  0  0  0
    4.6582   14.7208   25.2314 C   0  0  0  0  0  0  0  0  0  0  0  0
    4.5420   13.1692   27.2030 C   0  0  0  0  0  0  0  0  0  0  0  0
   12.2402   16.1379   22.4476 C   0  0  0  0  0  0  0  0  0  0  0  0
   12.4829   15.2327   20.1171 C   0  0  0  0  0  0  0  0  0  0  0  0
   10.1954   15.6777   21.0540 C   0  0  0  0  0  0  0  0  0  0  0  0
    5.4018   13.6589   26.0386 C   0  0  0  0  0  0  0  0  0  0  0  0
   11.6222   15.2377   21.3787 C   0  0  0  0  0  0  0  0  0  0  0  0
    7.5203   11.2518   25.0672 N   0  0  0  0  0  0  0  0  0  0  0  0
   10.3282   12.4269   23.0429 N   0  0  0  0  0  0  0  0  0  0  0  0
    5.9192   10.8484   26.6768 O   0  0  0  0  0  0  0  0  0  0  0  0
   10.6984   14.5550   23.8942 O   0  0  0  0  0  0  0  0  0  0  0  0
    7.9668   11.7121   21.4620 O   0  0  0  0  0  0  0  0  0  0  0  0
    5.6581   12.5537   25.1649 O   0  0  0  0  0  0  0  0  0  0  0  0
   11.5830   13.8966   21.8795 O   0  0  0  0  0  0  0  0  0  0  0  0
    9.5484    9.8988   22.0846 H   0  0  0  0  0  0  0  0  0  0  0  0
    8.3723    8.9443   23.0117 H   0  0  0  0  0  0  0  0  0  0  0  0
    8.0086    9.2245   25.4066 H   0  0  0  0  0  0  0  0  0  0  0  0
    8.9336   10.4251   26.3611 H   0  0  0  0  0  0  0  0  0  0  0  0
   10.4718    9.9058   24.4198 H   0  0  0  0  0  0  0  0  0  0  0  0
    7.5665   12.9770   23.7814 H   0  0  0  0  0  0  0  0  0  0  0  0
    9.8264   12.4102   25.0290 H   0  0  0  0  0  0  0  0  0  0  0  0
    6.7443   10.6143   22.6762 H   0  0  0  0  0  0  0  0  0  0  0  0
    7.2757   13.4435   27.1196 H   0  0  0  0  0  0  0  0  0  0  0  0
    7.3790   14.5250   25.7119 H   0  0  0  0  0  0  0  0  0  0  0  0
    6.5871   15.0551   27.2119 H   0  0  0  0  0  0  0  0  0  0  0  0
    3.6982   14.3348   24.8699 H   0  0  0  0  0  0  0  0  0  0  0  0
    5.2308   15.0066   24.3416 H   0  0  0  0  0  0  0  0  0  0  0  0
    4.4685   15.6206   25.8254 H   0  0  0  0  0  0  0  0  0  0  0  0
    3.5828   12.7790   26.8439 H   0  0  0  0  0  0  0  0  0  0  0  0
    5.0448   12.3804   27.7718 H   0  0  0  0  0  0  0  0  0  0  0  0
    4.3045   13.9933   27.8855 H   0  0  0  0  0  0  0  0  0  0  0  0
   11.6254   16.1442   23.3547 H   0  0  0  0  0  0  0  0  0  0  0  0
   13.2507   15.8119   22.7146 H   0  0  0  0  0  0  0  0  0  0  0  0
   12.2917   17.1767   22.1019 H   0  0  0  0  0  0  0  0  0  0  0  0
   12.0433   14.5880   19.3475 H   0  0  0  0  0  0  0  0  0  0  0  0
   13.4797   14.8280   20.3263 H   0  0  0  0  0  0  0  0  0  0  0  0
   12.5974   16.2393   19.7022 H   0  0  0  0  0  0  0  0  0  0  0  0
    9.7520   15.0321   20.2873 H   0  0  0  0  0  0  0  0  0  0  0  0
    9.5538   15.6521   21.9408 H   0  0  0  0  0  0  0  0  0  0  0  0
   10.1847   16.6948   20.6458 H   0  0  0  0  0  0  0  0  0  0  0  0
   10.5314   11.8123   22.2534 H   0  0  0  0  0  0  0  0  0  0  0  0
    7.2649   12.3799   21.3877 H   0  0  0  0  0  0  0  0  0  0  0  0
  1 17  1  0  0  0  0
  1 19  2  0  0  0  0
  1 22  1  0  0  0  0
  2 18  1  0  0  0  0
  2 20  2  0  0  0  0
  2 23  1  0  0  0  0
  3  5  1  6  0  0  0
  3  8  1  0  0  0  0
  4  5  1  0  0  0  0
  4 17  1  0  0  0  0
  5  7  1  0  0  0  0
  6  7  1  0  0  0  0
  6  8  1  0  0  0  0
  6 17  1  6  0  0  0
  7 18  1  6  0  0  0
  8 21  1  1  0  0  0
  9 15  1  0  0  0  0
 10 15  1  0  0  0  0
 11 15  1  0  0  0  0
 12 16  1  0  0  0  0
 13 16  1  0  0  0  0
 14 16  1  0  0  0  0
 15 22  1  0  0  0  0
 16 23  1  0  0  0  0
  3 24  1  0  0  0  0
  3 25  1  0  0  0  0
  4 26  1  0  0  0  0
  4 27  1  0  0  0  0
  5 28  1  0  0  0  0
  6 29  1  0  0  0  0
  7 30  1  0  0  0  0
  8 31  1  0  0  0  0
  9 32  1  0  0  0  0
  9 33  1  0  0  0  0
  9 34  1  0  0  0  0
 10 35  1  0  0  0  0
 10 36  1  0  0  0  0
 10 37  1  0  0  0  0
 11 38  1  0  0  0  0
 11 39  1  0  0  0  0
 11 40  1  0  0  0  0
 12 41  1  0  0  0  0
 12 42  1  0  0  0  0
 12 43  1  0  0  0  0
 13 44  1  0  0  0  0
 13 45  1  0  0  0  0
 13 46  1  0  0  0  0
 14 47  1  0  0  0  0
 14 48  1  0  0  0  0
 14 49  1  0  0  0  0
 18 50  1  0  0  0  0
 21 51  1  0  0  0  0
M  END
> <id>
EN300-37100463

> <smiles>
CC(C)(C)OC(=O)N[C@@H]1[C@@H]2C[C@H](O)[C@H]1N(C2)C(=O)OC(C)(C)C |&1:8,9,11,13,r|

> <IUPAC Name>
rac-tert-butyl (1R,4S,6R,7S)-7-{[(tert-butoxy)carbonyl]amino}-6-hydroxy-2-azabicyclo[2.2.1]heptane-2-carboxylate

> <URL>
https://www.enaminestore.com/catalog/EN300-37100463

> <ROCS_ShapeQuery>
A71EV2A-x0451_0A_A71EV2A-x0310_0A_A71EV2A-x0416_0A_peptide

> <ROCS_TanimotoCombo>
0.506 

> <ROCS_ShapeTanimoto>
0.332 

> <ROCS_ColorTanimoto>
0.173 

> <ROCS_RefTversky>
0.298 

> <ROCS_RefColorTversky>
0.216 

> <ROCS_RefTverskyCombo>
0.514 

> <ROCS_FitTversky>
1.546 

> <ROCS_FitColorTversky>
0.466 

> <ROCS_FitTverskyCombo>
2.012 

> <ROCS_ColorScore>
-6.661

> <ROCS_Overlap>
2067.173

> <ROCS_Rank>
498                 

$$$$
untitled-dbase-149185_1
  -OEChem-11132313473D

 38 39  0     1  0  0  0  0  0999 V2000
   10.3559   13.3480   23.3916 C   0  0  0  0  0  0  0  0  0  0  0  0
    7.6365   11.8715   24.7827 C   0  0  0  0  0  0  0  0  0  0  0  0
    7.2362   10.7925   23.7537 C   0  0  0  0  0  0  0  0  0  0  0  0
    9.3031   10.1780   24.7674 C   0  0  0  0  0  0  0  0  0  0  0  0
    9.4401   11.1192   22.5901 C   0  0  0  0  0  0  0  0  0  0  0  0
    9.1611   11.6971   24.8766 C   0  0  1  0  0  0  0  0  0  0  0  0
    8.5894   10.1232   23.4068 C   0  0  2  0  0  0  0  0  0  0  0  0
   12.6726   14.8196   22.5964 C   0  0  0  0  0  0  0  0  0  0  0  0
   11.7135   14.7196   20.2771 C   0  0  0  0  0  0  0  0  0  0  0  0
   10.4553   15.9023   22.1008 C   0  0  0  0  0  0  0  0  0  0  0  0
    8.4686    8.7526   22.7826 C   0  0  0  0  0  0  0  0  0  0  0  0
   11.3902   14.7400   21.7694 C   0  0  0  0  0  0  0  0  0  0  0  0
    9.7215   12.1408   23.5969 N   0  0  0  0  0  0  0  0  0  0  0  0
    7.7977    7.8570   23.6725 N   0  0  0  0  0  0  0  0  0  0  0  0
   10.5697   14.1761   24.2735 O   0  0  0  0  0  0  0  0  0  0  0  0
   10.7213   13.5133   22.0828 O   0  0  0  0  0  0  0  0  0  0  0  0
    7.3449   12.8771   24.4625 H   0  0  0  0  0  0  0  0  0  0  0  0
    7.1600   11.6678   25.7483 H   0  0  0  0  0  0  0  0  0  0  0  0
    6.5382   10.0811   24.2100 H   0  0  0  0  0  0  0  0  0  0  0  0
    6.7515   11.2302   22.8748 H   0  0  0  0  0  0  0  0  0  0  0  0
   10.3466    9.8465   24.7256 H   0  0  0  0  0  0  0  0  0  0  0  0
    8.7763    9.6335   25.5585 H   0  0  0  0  0  0  0  0  0  0  0  0
   10.3922   10.6944   22.2544 H   0  0  0  0  0  0  0  0  0  0  0  0
    8.9127   11.5587   21.7378 H   0  0  0  0  0  0  0  0  0  0  0  0
    9.6244   12.1783   25.7398 H   0  0  0  0  0  0  0  0  0  0  0  0
   12.4448   14.8345   23.6683 H   0  0  0  0  0  0  0  0  0  0  0  0
   13.3365   13.9728   22.3937 H   0  0  0  0  0  0  0  0  0  0  0  0
   13.2184   15.7459   22.3835 H   0  0  0  0  0  0  0  0  0  0  0  0
   10.7963   14.6626   19.6799 H   0  0  0  0  0  0  0  0  0  0  0  0
   12.3059   13.8346   20.0181 H   0  0  0  0  0  0  0  0  0  0  0  0
   12.2708   15.6112   19.9721 H   0  0  0  0  0  0  0  0  0  0  0  0
    9.5353   15.8455   21.5078 H   0  0  0  0  0  0  0  0  0  0  0  0
   10.1828   15.9111   23.1612 H   0  0  0  0  0  0  0  0  0  0  0  0
   10.9237   16.8619   21.8536 H   0  0  0  0  0  0  0  0  0  0  0  0
    7.8991    8.8519   21.8542 H   0  0  0  0  0  0  0  0  0  0  0  0
    9.4772    8.3850   22.5739 H   0  0  0  0  0  0  0  0  0  0  0  0
    6.8834    8.2088   23.8856 H   0  0  0  0  0  0  0  0  0  0  0  0
    7.7098    6.9544   23.2451 H   0  0  0  0  0  0  0  0  0  0  0  0
  1 13  1  0  0  0  0
  1 15  2  0  0  0  0
  1 16  1  0  0  0  0
  2  3  1  0  0  0  0
  2  6  1  0  0  0  0
  3  7  1  0  0  0  0
  4  6  1  0  0  0  0
  4  7  1  0  0  0  0
  5  7  1  0  0  0  0
  5 13  1  0  0  0  0
  6 13  1  0  0  0  0
  7 11  1  0  0  0  0
  8 12  1  0  0  0  0
  9 12  1  0  0  0  0
 10 12  1  0  0  0  0
 11 14  1  0  0  0  0
 12 16  1  0  0  0  0
  2 17  1  0  0  0  0
  2 18  1  0  0  0  0
  3 19  1  0  0  0  0
  3 20  1  0  0  0  0
  4 21  1  0  0  0  0
  4 22  1  0  0  0  0
  5 23  1  0  0  0  0
  5 24  1  0  0  0  0
  6 25  1  0  0  0  0
  8 26  1  0  0  0  0
  8 27  1  0  0  0  0
  8 28  1  0  0  0  0
  9 29  1  0  0  0  0
  9 30  1  0  0  0  0
  9 31  1  0  0  0  0
 10 32  1  0  0  0  0
 10 33  1  0  0  0  0
 10 34  1  0  0  0  0
 11 35  1  0  0  0  0
 11 36  1  0  0  0  0
 14 37  1  0  0  0  0
 14 38  1  0  0  0  0
M  END
> <id>
EN300-27745300

> <smiles>
CC(C)(C)OC(=O)N1CC2(CN)CCC1C2

> <MDLNUMBER>
MFCD33550225

> <IUPAC Name>
tert-butyl 4-(aminomethyl)-2-azabicyclo[2.2.1]heptane-2-carboxylate

> <CAS>
2624135-74-4

> <Purity>
95

> <URL>
https://www.enaminestore.com/catalog/EN300-27745300

> <ROCS_ShapeQuery>
A71EV2A-x0451_0A_A71EV2A-x0310_0A_A71EV2A-x0416_0A_peptide

> <ROCS_TanimotoCombo>
0.506 

> <ROCS_ShapeTanimoto>
0.289 

> <ROCS_ColorTanimoto>
0.217 

> <ROCS_RefTversky>
0.258 

> <ROCS_RefColorTversky>
0.245 

> <ROCS_RefTverskyCombo>
0.502 

> <ROCS_FitTversky>
1.722 

> <ROCS_FitColorTversky>
0.656 

> <ROCS_FitTverskyCombo>
2.378 

> <ROCS_ColorScore>
-7.501

> <ROCS_Overlap>
1786.186

> <ROCS_Rank>
499                 

$$$$
untitled-dbase-125676_3
  -OEChem-11132313473D

 30 31  0     0  0  0  0  0  0999 V2000
    6.9089   12.1949   25.9179 C   0  0  0  0  0  0  0  0  0  0  0  0
    8.0089   12.6892   25.2093 C   0  0  0  0  0  0  0  0  0  0  0  0
    6.4855   10.8692   25.7527 C   0  0  0  0  0  0  0  0  0  0  0  0
    8.2467   10.5171   24.1767 C   0  0  0  0  0  0  0  0  0  0  0  0
    8.6723   11.8373   24.3379 C   0  0  0  0  0  0  0  0  0  0  0  0
    7.1573   10.0188   24.8756 C   0  0  0  0  0  0  0  0  0  0  0  0
   10.4831   13.3017   23.4243 C   0  0  0  0  0  0  0  0  0  0  0  0
    9.0986    9.7766   23.1993 C   0  0  0  0  0  0  0  0  0  0  0  0
   10.1063   10.8481   22.7717 C   0  0  0  0  0  0  0  0  0  0  0  0
   12.3192   14.7203   20.4827 C   0  0  0  0  0  0  0  0  0  0  0  0
   11.8142   14.7283   21.8854 C   0  0  0  0  0  0  0  0  0  0  0  0
    9.7934   12.0882   23.5166 N   0  0  0  0  0  0  0  0  0  0  0  0
    6.7301    8.6880   24.7137 N   0  0  0  0  0  0  0  0  0  0  0  0
   11.0606   13.5303   22.1749 N   0  0  0  0  0  0  0  0  0  0  0  0
   10.5912   14.1175   24.3426 O   0  0  0  0  0  0  0  0  0  0  0  0
    6.3762   12.8461   26.6058 H   0  0  0  0  0  0  0  0  0  0  0  0
    8.3064   13.7190   25.3631 H   0  0  0  0  0  0  0  0  0  0  0  0
    5.6276   10.5134   26.3184 H   0  0  0  0  0  0  0  0  0  0  0  0
    9.6027    8.9318   23.6787 H   0  0  0  0  0  0  0  0  0  0  0  0
    8.5090    9.4293   22.3453 H   0  0  0  0  0  0  0  0  0  0  0  0
   11.1342   10.5442   23.0005 H   0  0  0  0  0  0  0  0  0  0  0  0
   10.0404   11.0536   21.6971 H   0  0  0  0  0  0  0  0  0  0  0  0
   11.4695   14.6589   19.7869 H   0  0  0  0  0  0  0  0  0  0  0  0
   12.8838   15.6447   20.2911 H   0  0  0  0  0  0  0  0  0  0  0  0
   12.9774   13.8514   20.3351 H   0  0  0  0  0  0  0  0  0  0  0  0
   12.6693   14.7899   22.5745 H   0  0  0  0  0  0  0  0  0  0  0  0
   11.1645   15.6044   22.0281 H   0  0  0  0  0  0  0  0  0  0  0  0
    7.1920    8.1017   24.0458 H   0  0  0  0  0  0  0  0  0  0  0  0
    5.9121    8.3725   25.1980 H   0  0  0  0  0  0  0  0  0  0  0  0
   10.9478   12.8340   21.4476 H   0  0  0  0  0  0  0  0  0  0  0  0
  1  2  2  0  0  0  0
  1  3  1  0  0  0  0
  2  5  1  0  0  0  0
  3  6  2  0  0  0  0
  4  5  2  0  0  0  0
  4  6  1  0  0  0  0
  4  8  1  0  0  0  0
  5 12  1  0  0  0  0
  6 13  1  0  0  0  0
  7 12  1  0  0  0  0
  7 14  1  0  0  0  0
  7 15  2  0  0  0  0
  8  9  1  0  0  0  0
  9 12  1  0  0  0  0
 10 11  1  0  0  0  0
 11 14  1  0  0  0  0
  1 16  1  0  0  0  0
  2 17  1  0  0  0  0
  3 18  1  0  0  0  0
  8 19  1  0  0  0  0
  8 20  1  0  0  0  0
  9 21  1  0  0  0  0
  9 22  1  0  0  0  0
 10 23  1  0  0  0  0
 10 24  1  0  0  0  0
 10 25  1  0  0  0  0
 11 26  1  0  0  0  0
 11 27  1  0  0  0  0
 13 28  1  0  0  0  0
 13 29  1  0  0  0  0
 14 30  1  0  0  0  0
M  END
> <id>
EN300-692342

> <smiles>
CCNC(=O)N1CCC=2C1=CC=CC2N

> <MDLNUMBER>
MFCD20302696

> <IUPAC Name>
4-amino-N-ethyl-2,3-dihydro-1H-indole-1-carboxamide

> <CAS>
1343665-62-2

> <URL>
https://www.enaminestore.com/catalog/EN300-692342

> <ROCS_ShapeQuery>
A71EV2A-x0451_0A_A71EV2A-x0310_0A_A71EV2A-x0416_0A_peptide

> <ROCS_TanimotoCombo>
0.506 

> <ROCS_ShapeTanimoto>
0.305 

> <ROCS_ColorTanimoto>
0.201 

> <ROCS_RefTversky>
0.267 

> <ROCS_RefColorTversky>
0.208 

> <ROCS_RefTverskyCombo>
0.475 

> <ROCS_FitTversky>
1.852 

> <ROCS_FitColorTversky>
0.865 

> <ROCS_FitTverskyCombo>
2.717 

> <ROCS_ColorScore>
-6.317

> <ROCS_Overlap>
1851.943

> <ROCS_Rank>
500                 

$$$$
