untitled-dbase-40_1
  -OEChem-11132311083D

 18 19  0     0  0  0  0  0  0999 V2000
    7.7750    9.8898   24.3702 C   0  0  0  0  0  0  0  0  0  0  0  0
    9.0314    9.6860   23.7997 C   0  0  0  0  0  0  0  0  0  0  0  0
    7.3194   11.1864   24.6090 C   0  0  0  0  0  0  0  0  0  0  0  0
    9.8323   10.7789   23.4681 C   0  0  0  0  0  0  0  0  0  0  0  0
    8.1203   12.2792   24.2775 C   0  0  0  0  0  0  0  0  0  0  0  0
   10.6565   13.4988   22.1056 C   0  0  0  0  0  0  0  0  0  0  0  0
    9.3767   12.0755   23.7070 C   0  0  0  0  0  0  0  0  0  0  0  0
   10.2012   13.2008   23.3659 C   0  0  0  0  0  0  0  0  0  0  0  0
   11.3492   14.9571   23.5090 C   0  0  0  0  0  0  0  0  0  0  0  0
   10.6485   14.1386   24.2610 N   0  0  0  0  0  0  0  0  0  0  0  0
   11.4019   14.6360   22.1873 O   0  0  0  0  0  0  0  0  0  0  0  0
   12.3165   16.6376   24.2924 I   0  0  0  0  0  0  0  0  0  0  0  0
    7.1507    9.0390   24.6275 H   0  0  0  0  0  0  0  0  0  0  0  0
    9.3858    8.6767   23.6125 H   0  0  0  0  0  0  0  0  0  0  0  0
    6.3405   11.3447   25.0521 H   0  0  0  0  0  0  0  0  0  0  0  0
   10.8094   10.6036   23.0240 H   0  0  0  0  0  0  0  0  0  0  0  0
    7.7506   13.2837   24.4700 H   0  0  0  0  0  0  0  0  0  0  0  0
   10.5596   13.0581   21.1241 H   0  0  0  0  0  0  0  0  0  0  0  0
  1  2  1  0  0  0  0
  1  3  2  0  0  0  0
  2  4  2  0  0  0  0
  3  5  1  0  0  0  0
  4  7  1  0  0  0  0
  5  7  2  0  0  0  0
  6  8  2  0  0  0  0
  6 11  1  0  0  0  0
  7  8  1  0  0  0  0
  8 10  1  0  0  0  0
  9 10  2  0  0  0  0
  9 11  1  0  0  0  0
  9 12  1  0  0  0  0
  1 13  1  0  0  0  0
  2 14  1  0  0  0  0
  3 15  1  0  0  0  0
  4 16  1  0  0  0  0
  5 17  1  0  0  0  0
  6 18  1  0  0  0  0
M  END
> <Catalog ID>
Z1815154514

> <MW>
270.949

> <MW (desalted)>
271.055

> <ClogP>
2.826

> <logS>
-3.77

> <HBD>
0

> <HBA>
1

> <TPSA>
26.03

> <RotBonds>
1

> <ROCS_ShapeQuery>
A71EV2A-x0451_0A_A71EV2A-x0310_0A_A71EV2A-x0416_0A_peptide

> <ROCS_TanimotoCombo>
0.350 

> <ROCS_ShapeTanimoto>
0.246 

> <ROCS_ColorTanimoto>
0.104 

> <ROCS_RefTversky>
0.222 

> <ROCS_RefColorTversky>
0.111 

> <ROCS_RefTverskyCombo>
0.333 

> <ROCS_FitTversky>
1.769 

> <ROCS_FitColorTversky>
0.624 

> <ROCS_FitTverskyCombo>
2.393 

> <ROCS_ColorScore>
-3.360

> <ROCS_Overlap>
1538.564

> <ROCS_Rank>
1                   

$$$$
untitled-dbase-55_0
  -OEChem-11132311083D

 11 11  0     0  0  0  0  0  0999 V2000
    9.9264   13.1015   24.3165 C   0  0  0  0  0  0  0  0  0  0  0  0
    9.3260   10.7608   23.8868 C   0  0  0  0  0  0  0  0  0  0  0  0
    7.7874   12.1158   25.0062 C   0  0  0  0  0  0  0  0  0  0  0  0
    7.3189    9.9359   24.5638 C   0  0  0  0  0  0  0  0  0  0  0  0
    9.0232   12.0045   24.4024 C   0  0  0  0  0  0  0  0  0  0  0  0
   10.6627   13.9959   24.2465 N   0  0  0  0  0  0  0  0  0  0  0  0
    8.4942    9.7004   23.9501 N   0  0  0  0  0  0  0  0  0  0  0  0
    6.9069   11.0983   25.1048 N   0  0  0  0  0  0  0  0  0  0  0  0
   10.2730   10.5636   23.3929 H   0  0  0  0  0  0  0  0  0  0  0  0
    7.4491   13.0504   25.4442 H   0  0  0  0  0  0  0  0  0  0  0  0
    6.6315    9.1015   24.6295 H   0  0  0  0  0  0  0  0  0  0  0  0
  1  5  1  0  0  0  0
  1  6  3  0  0  0  0
  2  5  1  0  0  0  0
  2  7  2  0  0  0  0
  3  5  2  0  0  0  0
  3  8  1  0  0  0  0
  4  7  1  0  0  0  0
  4  8  2  0  0  0  0
  2  9  1  0  0  0  0
  3 10  1  0  0  0  0
  4 11  1  0  0  0  0
M  END
> <Catalog ID>
Z1201619938

> <MW>
105.033

> <MW (desalted)>
105.097

> <ClogP>
-0.79

> <logS>
-0.424

> <HBD>
0

> <HBA>
3

> <TPSA>
49.57

> <RotBonds>
0

> <ROCS_ShapeQuery>
A71EV2A-x0451_0A_A71EV2A-x0310_0A_A71EV2A-x0416_0A_peptide

> <ROCS_TanimotoCombo>
0.335 

> <ROCS_ShapeTanimoto>
0.177 

> <ROCS_ColorTanimoto>
0.158 

> <ROCS_RefTversky>
0.166 

> <ROCS_RefColorTversky>
0.161 

> <ROCS_RefTverskyCombo>
0.326 

> <ROCS_FitTversky>
1.647 

> <ROCS_FitColorTversky>
0.904 

> <ROCS_FitTverskyCombo>
2.551 

> <ROCS_ColorScore>
-4.873

> <ROCS_Overlap>
1145.762

> <ROCS_Rank>
2                   

$$$$
untitled-dbase-49_2
  -OEChem-11132311083D

 18 19  0     0  0  0  0  0  0999 V2000
   12.1821   14.5302   22.3496 C   0  0  0  0  0  0  0  0  0  0  0  0
   12.5909   13.5173   23.2171 C   0  0  0  0  0  0  0  0  0  0  0  0
   10.8593   14.5800   21.9097 C   0  0  0  0  0  0  0  0  0  0  0  0
   11.6769   12.5542   23.6446 C   0  0  0  0  0  0  0  0  0  0  0  0
    9.9454   13.6169   22.3372 C   0  0  0  0  0  0  0  0  0  0  0  0
    9.3072   10.2424   23.5587 C   0  0  0  0  0  0  0  0  0  0  0  0
   10.3542   12.6039   23.2046 C   0  0  0  0  0  0  0  0  0  0  0  0
    9.4091   11.6085   23.6475 C   0  0  0  0  0  0  0  0  0  0  0  0
    7.6268   10.9326   24.6183 C   0  0  0  0  0  0  0  0  0  0  0  0
    8.1632    9.8151   24.1829 N   0  0  0  0  0  0  0  0  0  0  0  0
    8.3244   12.0660   24.3327 O   0  0  0  0  0  0  0  0  0  0  0  0
    5.9833   10.9616   25.5881 Br  0  0  0  0  0  0  0  0  0  0  0  0
   12.8935   15.2805   22.0172 H   0  0  0  0  0  0  0  0  0  0  0  0
   13.6209   13.4786   23.5593 H   0  0  0  0  0  0  0  0  0  0  0  0
   10.5407   15.3694   21.2351 H   0  0  0  0  0  0  0  0  0  0  0  0
   12.0105   11.7725   24.3229 H   0  0  0  0  0  0  0  0  0  0  0  0
    8.9181   13.6689   21.9844 H   0  0  0  0  0  0  0  0  0  0  0  0
    9.9866    9.5478   23.0867 H   0  0  0  0  0  0  0  0  0  0  0  0
  1  2  1  0  0  0  0
  1  3  2  0  0  0  0
  2  4  2  0  0  0  0
  3  5  1  0  0  0  0
  4  7  1  0  0  0  0
  5  7  2  0  0  0  0
  6  8  2  0  0  0  0
  6 10  1  0  0  0  0
  7  8  1  0  0  0  0
  8 11  1  0  0  0  0
  9 10  2  0  0  0  0
  9 11  1  0  0  0  0
  9 12  1  0  0  0  0
  1 13  1  0  0  0  0
  2 14  1  0  0  0  0
  3 15  1  0  0  0  0
  4 16  1  0  0  0  0
  5 17  1  0  0  0  0
  6 18  1  0  0  0  0
M  END
> <Catalog ID>
Z1269186154

> <MW>
222.963

> <MW (desalted)>
224.054

> <ClogP>
2.866

> <logS>
-3.837

> <HBD>
0

> <HBA>
1

> <TPSA>
26.03

> <RotBonds>
1

> <ROCS_ShapeQuery>
A71EV2A-x0451_0A_A71EV2A-x0310_0A_A71EV2A-x0416_0A_peptide

> <ROCS_TanimotoCombo>
0.333 

> <ROCS_ShapeTanimoto>
0.254 

> <ROCS_ColorTanimoto>
0.079 

> <ROCS_RefTversky>
0.228 

> <ROCS_RefColorTversky>
0.086 

> <ROCS_RefTverskyCombo>
0.314 

> <ROCS_FitTversky>
1.808 

> <ROCS_FitColorTversky>
0.484 

> <ROCS_FitTverskyCombo>
2.292 

> <ROCS_ColorScore>
-2.607

> <ROCS_Overlap>
1578.766

> <ROCS_Rank>
3                   

$$$$
untitled-dbase-82_0
  -OEChem-11132311083D

 15 15  0     0  0  0  0  0  0999 V2000
    9.9259   13.1654   24.2897 C   0  0  0  0  0  0  0  0  0  0  0  0
    9.0272   12.0670   24.3363 C   0  0  0  0  0  0  0  0  0  0  0  0
    7.8356   11.9184   25.0669 C   0  0  0  0  0  0  0  0  0  0  0  0
    9.1406   10.8846   23.6542 C   0  0  0  0  0  0  0  0  0  0  0  0
    7.2039   12.8802   25.9871 C   0  0  0  0  0  0  0  0  0  0  0  0
   10.1235   10.3379   22.7082 C   0  0  0  0  0  0  0  0  0  0  0  0
   10.6605   14.0630   24.2517 N   0  0  0  0  0  0  0  0  0  0  0  0
    7.2545   10.7344   24.8543 N   0  0  0  0  0  0  0  0  0  0  0  0
    8.0885   10.0810   23.9550 O   0  0  0  0  0  0  0  0  0  0  0  0
    6.5016   13.5426   25.4530 H   0  0  0  0  0  0  0  0  0  0  0  0
    6.6398   12.3772   26.7924 H   0  0  0  0  0  0  0  0  0  0  0  0
    7.9468   13.5216   26.4936 H   0  0  0  0  0  0  0  0  0  0  0  0
   10.9246    9.7867   23.2321 H   0  0  0  0  0  0  0  0  0  0  0  0
    9.6651    9.6419   21.9814 H   0  0  0  0  0  0  0  0  0  0  0  0
   10.6075   11.1267   22.1027 H   0  0  0  0  0  0  0  0  0  0  0  0
  1  2  1  0  0  0  0
  1  7  3  0  0  0  0
  2  3  1  0  0  0  0
  2  4  2  0  0  0  0
  3  5  1  0  0  0  0
  3  8  2  0  0  0  0
  4  6  1  0  0  0  0
  4  9  1  0  0  0  0
  8  9  1  0  0  0  0
  5 10  1  0  0  0  0
  5 11  1  0  0  0  0
  5 12  1  0  0  0  0
  6 13  1  0  0  0  0
  6 14  1  0  0  0  0
  6 15  1  0  0  0  0
M  END
> <Catalog ID>
Z381355226

> <MW>
122.048

> <MW (desalted)>
122.125

> <ClogP>
0.731

> <logS>
-0.36

> <HBD>
0

> <HBA>
2

> <TPSA>
49.82

> <RotBonds>
0

> <ROCS_ShapeQuery>
A71EV2A-x0451_0A_A71EV2A-x0310_0A_A71EV2A-x0416_0A_peptide

> <ROCS_TanimotoCombo>
0.329 

> <ROCS_ShapeTanimoto>
0.192 

> <ROCS_ColorTanimoto>
0.137 

> <ROCS_RefTversky>
0.178 

> <ROCS_RefColorTversky>
0.138 

> <ROCS_RefTverskyCombo>
0.316 

> <ROCS_FitTversky>
1.674 

> <ROCS_FitColorTversky>
0.944 

> <ROCS_FitTverskyCombo>
2.618 

> <ROCS_ColorScore>
-4.187

> <ROCS_Overlap>
1230.539

> <ROCS_Rank>
4                   

$$$$
untitled-dbase-8_0
  -OEChem-11132311083D

 11 11  0     0  0  0  0  0  0999 V2000
   10.0251   13.2308   24.1810 C   0  0  0  0  0  0  0  0  0  0  0  0
    9.8504   10.9183   23.4021 C   0  0  0  0  0  0  0  0  0  0  0  0
    9.0945    9.7640   23.4275 C   0  0  0  0  0  0  0  0  0  0  0  0
    7.5436   10.7492   24.7659 C   0  0  0  0  0  0  0  0  0  0  0  0
    9.3433   11.9800   24.1231 C   0  0  0  0  0  0  0  0  0  0  0  0
   10.5800   14.2489   24.2281 N   0  0  0  0  0  0  0  0  0  0  0  0
    7.9319    9.6440   24.1015 N   0  0  0  0  0  0  0  0  0  0  0  0
    8.1885   11.9302   24.8190 N   0  0  0  0  0  0  0  0  0  0  0  0
   10.7790   10.9730   22.8477 H   0  0  0  0  0  0  0  0  0  0  0  0
    9.4126    8.8768   22.8905 H   0  0  0  0  0  0  0  0  0  0  0  0
    6.6128   10.6804   25.3155 H   0  0  0  0  0  0  0  0  0  0  0  0
  1  5  1  0  0  0  0
  1  6  3  0  0  0  0
  2  3  2  0  0  0  0
  2  5  1  0  0  0  0
  3  7  1  0  0  0  0
  4  7  2  0  0  0  0
  4  8  1  0  0  0  0
  5  8  2  0  0  0  0
  2  9  1  0  0  0  0
  3 10  1  0  0  0  0
  4 11  1  0  0  0  0
M  END
> <Catalog ID>
Z1116387809

> <MW>
105.033

> <MW (desalted)>
105.097

> <ClogP>
-0.59

> <logS>
-0.68

> <HBD>
0

> <HBA>
3

> <TPSA>
49.57

> <RotBonds>
0

> <ROCS_ShapeQuery>
A71EV2A-x0451_0A_A71EV2A-x0310_0A_A71EV2A-x0416_0A_peptide

> <ROCS_TanimotoCombo>
0.322 

> <ROCS_ShapeTanimoto>
0.183 

> <ROCS_ColorTanimoto>
0.139 

> <ROCS_RefTversky>
0.170 

> <ROCS_RefColorTversky>
0.144 

> <ROCS_RefTverskyCombo>
0.314 

> <ROCS_FitTversky>
1.690 

> <ROCS_FitColorTversky>
0.809 

> <ROCS_FitTverskyCombo>
2.499 

> <ROCS_ColorScore>
-4.364

> <ROCS_Overlap>
1176.995

> <ROCS_Rank>
5                   

$$$$
untitled-dbase-4_0
  -OEChem-11132311083D

 12 12  0     0  0  0  0  0  0999 V2000
   10.0573   13.3355   24.1490 C   0  0  0  0  0  0  0  0  0  0  0  0
    9.8967   10.9901   23.4855 C   0  0  0  0  0  0  0  0  0  0  0  0
    8.1174   11.9828   24.7636 C   0  0  0  0  0  0  0  0  0  0  0  0
    9.1736    9.8082   23.4980 C   0  0  0  0  0  0  0  0  0  0  0  0
    7.4739   10.7565   24.7187 C   0  0  0  0  0  0  0  0  0  0  0  0
    9.3515   12.0935   24.1326 C   0  0  0  0  0  0  0  0  0  0  0  0
   10.6306   14.3444   24.1622 N   0  0  0  0  0  0  0  0  0  0  0  0
    7.9720    9.6625   24.1001 N   0  0  0  0  0  0  0  0  0  0  0  0
   10.8572   11.0381   22.9827 H   0  0  0  0  0  0  0  0  0  0  0  0
    7.6605   12.8215   25.2787 H   0  0  0  0  0  0  0  0  0  0  0  0
    9.5549    8.9187   23.0075 H   0  0  0  0  0  0  0  0  0  0  0  0
    6.5089   10.6182   25.1952 H   0  0  0  0  0  0  0  0  0  0  0  0
  1  6  1  0  0  0  0
  1  7  3  0  0  0  0
  2  4  2  0  0  0  0
  2  6  1  0  0  0  0
  3  5  1  0  0  0  0
  3  6  2  0  0  0  0
  4  8  1  0  0  0  0
  5  8  2  0  0  0  0
  2  9  1  0  0  0  0
  3 10  1  0  0  0  0
  4 11  1  0  0  0  0
  5 12  1  0  0  0  0
M  END
> <Catalog ID>
Z57899720

> <MW>
104.037

> <MW (desalted)>
104.109

> <ClogP>
0.273

> <logS>
-0.52

> <HBD>
0

> <HBA>
2

> <TPSA>
36.68

> <RotBonds>
0

> <ROCS_ShapeQuery>
A71EV2A-x0451_0A_A71EV2A-x0310_0A_A71EV2A-x0416_0A_peptide

> <ROCS_TanimotoCombo>
0.322 

> <ROCS_ShapeTanimoto>
0.183 

> <ROCS_ColorTanimoto>
0.139 

> <ROCS_RefTversky>
0.170 

> <ROCS_RefColorTversky>
0.140 

> <ROCS_RefTverskyCombo>
0.310 

> <ROCS_FitTversky>
1.699 

> <ROCS_FitColorTversky>
0.954 

> <ROCS_FitTverskyCombo>
2.653 

> <ROCS_ColorScore>
-4.229

> <ROCS_Overlap>
1175.335

> <ROCS_Rank>
6                   

$$$$
untitled-dbase-30_0
  -OEChem-11132311083D

 12 12  0     0  0  0  0  0  0999 V2000
   10.0116   13.2604   24.2080 C   0  0  0  0  0  0  0  0  0  0  0  0
    8.7300    9.8715   23.3687 C   0  0  0  0  0  0  0  0  0  0  0  0
    9.5407   11.0011   23.3782 C   0  0  0  0  0  0  0  0  0  0  0  0
    7.5988    9.8784   24.1687 C   0  0  0  0  0  0  0  0  0  0  0  0
    8.0477   11.9955   24.9398 C   0  0  0  0  0  0  0  0  0  0  0  0
    9.2001   12.0877   24.1761 C   0  0  0  0  0  0  0  0  0  0  0  0
   10.6718   14.2145   24.2340 N   0  0  0  0  0  0  0  0  0  0  0  0
    7.2354   10.9149   24.9568 N   0  0  0  0  0  0  0  0  0  0  0  0
    8.9748    9.0127   22.7543 H   0  0  0  0  0  0  0  0  0  0  0  0
   10.4343   11.0202   22.7594 H   0  0  0  0  0  0  0  0  0  0  0  0
    6.9343    9.0214   24.1971 H   0  0  0  0  0  0  0  0  0  0  0  0
    7.7259   12.8094   25.5834 H   0  0  0  0  0  0  0  0  0  0  0  0
  1  6  1  0  0  0  0
  1  7  3  0  0  0  0
  2  3  2  0  0  0  0
  2  4  1  0  0  0  0
  3  6  1  0  0  0  0
  4  8  2  0  0  0  0
  5  6  2  0  0  0  0
  5  8  1  0  0  0  0
  2  9  1  0  0  0  0
  3 10  1  0  0  0  0
  4 11  1  0  0  0  0
  5 12  1  0  0  0  0
M  END
> <Catalog ID>
Z57899719

> <MW>
104.037

> <MW (desalted)>
104.109

> <ClogP>
0.273

> <logS>
-0.52

> <HBD>
0

> <HBA>
2

> <TPSA>
36.68

> <RotBonds>
0

> <ROCS_ShapeQuery>
A71EV2A-x0451_0A_A71EV2A-x0310_0A_A71EV2A-x0416_0A_peptide

> <ROCS_TanimotoCombo>
0.320 

> <ROCS_ShapeTanimoto>
0.179 

> <ROCS_ColorTanimoto>
0.141 

> <ROCS_RefTversky>
0.167 

> <ROCS_RefColorTversky>
0.141 

> <ROCS_RefTverskyCombo>
0.308 

> <ROCS_FitTversky>
1.670 

> <ROCS_FitColorTversky>
0.965 

> <ROCS_FitTverskyCombo>
2.635 

> <ROCS_ColorScore>
-4.282

> <ROCS_Overlap>
1154.905

> <ROCS_Rank>
7                   

$$$$
untitled-dbase-12_0
  -OEChem-11132311083D

 14 15  0     0  0  0  0  0  0999 V2000
    6.3355   11.7854   26.2669 C   0  0  0  0  0  0  0  0  0  0  0  0
    6.9742   12.9928   25.9586 C   0  0  0  0  0  0  0  0  0  0  0  0
    6.7203   10.5824   25.6573 C   0  0  0  0  0  0  0  0  0  0  0  0
    8.0204   13.0491   25.0315 C   0  0  0  0  0  0  0  0  0  0  0  0
    7.7674   10.6216   24.7255 C   0  0  0  0  0  0  0  0  0  0  0  0
    8.3731   11.8383   24.4486 C   0  0  0  0  0  0  0  0  0  0  0  0
    9.2768   10.2748   23.2938 C   0  0  0  0  0  0  0  0  0  0  0  0
    8.3571    9.6308   23.9783 N   0  0  0  0  0  0  0  0  0  0  0  0
    9.3509   11.6159   23.5218 O   0  0  0  0  0  0  0  0  0  0  0  0
   10.3136    9.4619   22.1842 Cl  0  0  0  0  0  0  0  0  0  0  0  0
    5.5259   11.7795   26.9926 H   0  0  0  0  0  0  0  0  0  0  0  0
    6.6501   13.9069   26.4504 H   0  0  0  0  0  0  0  0  0  0  0  0
    6.2185    9.6526   25.9039 H   0  0  0  0  0  0  0  0  0  0  0  0
    8.5208   13.9775   24.7861 H   0  0  0  0  0  0  0  0  0  0  0  0
  1  2  1  0  0  0  0
  1  3  2  0  0  0  0
  2  4  2  0  0  0  0
  3  5  1  0  0  0  0
  4  6  1  0  0  0  0
  5  6  2  0  0  0  0
  5  8  1  0  0  0  0
  6  9  1  0  0  0  0
  7  8  2  0  0  0  0
  7  9  1  0  0  0  0
  7 10  1  0  0  0  0
  1 11  1  0  0  0  0
  2 12  1  0  0  0  0
  3 13  1  0  0  0  0
  4 14  1  0  0  0  0
M  END
> <Catalog ID>
Z235343929

> <MW>
152.998

> <MW (desalted)>
153.566

> <ClogP>
2.212

> <logS>
-2.96

> <HBD>
0

> <HBA>
1

> <TPSA>
26.03

> <RotBonds>
0

> <ROCS_ShapeQuery>
A71EV2A-x0451_0A_A71EV2A-x0310_0A_A71EV2A-x0416_0A_peptide

> <ROCS_TanimotoCombo>
0.313 

> <ROCS_ShapeTanimoto>
0.207 

> <ROCS_ColorTanimoto>
0.106 

> <ROCS_RefTversky>
0.191 

> <ROCS_RefColorTversky>
0.110 

> <ROCS_RefTverskyCombo>
0.301 

> <ROCS_FitTversky>
1.662 

> <ROCS_FitColorTversky>
0.747 

> <ROCS_FitTverskyCombo>
2.410 

> <ROCS_ColorScore>
-3.331

> <ROCS_Overlap>
1324.627

> <ROCS_Rank>
8                   

$$$$
untitled-dbase-72_0
  -OEChem-11132311083D

 14 15  0     0  0  0  0  0  0999 V2000
    6.2611   11.7057   26.3087 C   0  0  0  0  0  0  0  0  0  0  0  0
    6.8383   12.9463   26.0611 C   0  0  0  0  0  0  0  0  0  0  0  0
    6.7224   10.5631   25.6484 C   0  0  0  0  0  0  0  0  0  0  0  0
    7.8890   13.0790   25.1498 C   0  0  0  0  0  0  0  0  0  0  0  0
    7.7829   10.6692   24.7226 C   0  0  0  0  0  0  0  0  0  0  0  0
    8.3472   11.9272   24.4901 C   0  0  0  0  0  0  0  0  0  0  0  0
    9.3057   10.0914   23.2347 C   0  0  0  0  0  0  0  0  0  0  0  0
    8.3423    9.6281   23.9962 N   0  0  0  0  0  0  0  0  0  0  0  0
    9.6098   11.7722   23.3263 S   0  0  0  0  0  0  0  0  0  0  0  0
   10.2355    9.0988   22.1919 Cl  0  0  0  0  0  0  0  0  0  0  0  0
    5.4447   11.6219   27.0208 H   0  0  0  0  0  0  0  0  0  0  0  0
    6.4698   13.8250   26.5837 H   0  0  0  0  0  0  0  0  0  0  0  0
    6.2643    9.5989   25.8501 H   0  0  0  0  0  0  0  0  0  0  0  0
    8.3341   14.0510   24.9614 H   0  0  0  0  0  0  0  0  0  0  0  0
  1  2  1  0  0  0  0
  1  3  2  0  0  0  0
  2  4  2  0  0  0  0
  3  5  1  0  0  0  0
  4  6  1  0  0  0  0
  5  6  2  0  0  0  0
  5  8  1  0  0  0  0
  6  9  1  0  0  0  0
  7  8  2  0  0  0  0
  7  9  1  0  0  0  0
  7 10  1  0  0  0  0
  1 11  1  0  0  0  0
  2 12  1  0  0  0  0
  3 13  1  0  0  0  0
  4 14  1  0  0  0  0
M  END
> <Catalog ID>
Z147647040

> <MW>
168.975

> <MW (desalted)>
169.631

> <ClogP>
2.842

> <logS>
-3.553

> <HBD>
0

> <HBA>
1

> <TPSA>
12.89

> <RotBonds>
0

> <ROCS_ShapeQuery>
A71EV2A-x0451_0A_A71EV2A-x0310_0A_A71EV2A-x0416_0A_peptide

> <ROCS_TanimotoCombo>
0.309 

> <ROCS_ShapeTanimoto>
0.203 

> <ROCS_ColorTanimoto>
0.105 

> <ROCS_RefTversky>
0.188 

> <ROCS_RefColorTversky>
0.109 

> <ROCS_RefTverskyCombo>
0.297 

> <ROCS_FitTversky>
1.683 

> <ROCS_FitColorTversky>
0.744 

> <ROCS_FitTverskyCombo>
2.427 

> <ROCS_ColorScore>
-3.311

> <ROCS_Overlap>
1299.299

> <ROCS_Rank>
9                   

$$$$
untitled-dbase-42_0
  -OEChem-11132311083D

 10 10  0     0  0  0  0  0  0999 V2000
   10.0367   12.9522   24.2329 C   0  0  0  0  0  0  0  0  0  0  0  0
    8.0328   11.3739   24.3049 C   0  0  0  0  0  0  0  0  0  0  0  0
   10.0182   10.4645   24.0481 C   0  0  0  0  0  0  0  0  0  0  0  0
    9.4021   11.6828   24.1984 C   0  0  0  0  0  0  0  0  0  0  0  0
   10.5556   13.9899   24.2611 N   0  0  0  0  0  0  0  0  0  0  0  0
    7.7926   10.0623   24.2287 N   0  0  0  0  0  0  0  0  0  0  0  0
    9.0193    9.5361   24.0725 N   0  0  0  0  0  0  0  0  0  0  0  0
    7.1967   12.0466   24.4363 H   0  0  0  0  0  0  0  0  0  0  0  0
   11.0534   10.1767   23.9268 H   0  0  0  0  0  0  0  0  0  0  0  0
    9.1034    8.5307   23.9908 H   0  0  0  0  0  0  0  0  0  0  0  0
  1  4  1  0  0  0  0
  1  5  3  0  0  0  0
  2  4  1  0  0  0  0
  2  6  2  0  0  0  0
  3  4  2  0  0  0  0
  3  7  1  0  0  0  0
  6  7  1  0  0  0  0
  2  8  1  0  0  0  0
  3  9  1  0  0  0  0
  7 10  1  0  0  0  0
M  END
> <Catalog ID>
Z1082448648

> <MW>
93.033

> <MW (desalted)>
93.087

> <ClogP>
0.194

> <logS>
-0.44

> <HBD>
1

> <HBA>
2

> <TPSA>
52.47

> <RotBonds>
0

> <ROCS_ShapeQuery>
A71EV2A-x0451_0A_A71EV2A-x0310_0A_A71EV2A-x0416_0A_peptide

> <ROCS_TanimotoCombo>
0.305 

> <ROCS_ShapeTanimoto>
0.155 

> <ROCS_ColorTanimoto>
0.150 

> <ROCS_RefTversky>
0.147 

> <ROCS_RefColorTversky>
0.154 

> <ROCS_RefTverskyCombo>
0.301 

> <ROCS_FitTversky>
1.554 

> <ROCS_FitColorTversky>
0.865 

> <ROCS_FitTverskyCombo>
2.419 

> <ROCS_ColorScore>
-4.659

> <ROCS_Overlap>
1016.524

> <ROCS_Rank>
10                  

$$$$
untitled-dbase-29_0
  -OEChem-11132311083D

 11 11  0     0  0  0  0  0  0999 V2000
    9.8341   13.0301   24.3644 C   0  0  0  0  0  0  0  0  0  0  0  0
    7.0980    9.9946   24.5942 C   0  0  0  0  0  0  0  0  0  0  0  0
    6.7889   11.2740   25.0004 C   0  0  0  0  0  0  0  0  0  0  0  0
    9.2052   10.6822   24.0316 C   0  0  0  0  0  0  0  0  0  0  0  0
    8.8960   11.9618   24.4372 C   0  0  0  0  0  0  0  0  0  0  0  0
   10.5988   13.9010   24.3051 N   0  0  0  0  0  0  0  0  0  0  0  0
    8.3117    9.6757   24.1025 N   0  0  0  0  0  0  0  0  0  0  0  0
    7.6824   12.2806   24.9292 N   0  0  0  0  0  0  0  0  0  0  0  0
    6.3794    9.1864   24.6513 H   0  0  0  0  0  0  0  0  0  0  0  0
    5.8135   11.5296   25.3953 H   0  0  0  0  0  0  0  0  0  0  0  0
   10.1778   10.4147   23.6347 H   0  0  0  0  0  0  0  0  0  0  0  0
  1  5  1  0  0  0  0
  1  6  3  0  0  0  0
  2  3  2  0  0  0  0
  2  7  1  0  0  0  0
  3  8  1  0  0  0  0
  4  5  1  0  0  0  0
  4  7  2  0  0  0  0
  5  8  2  0  0  0  0
  2  9  1  0  0  0  0
  3 10  1  0  0  0  0
  4 11  1  0  0  0  0
M  END
> <Catalog ID>
Z448103898

> <MW>
105.033

> <MW (desalted)>
105.097

> <ClogP>
-0.59

> <logS>
0.37

> <HBD>
0

> <HBA>
3

> <TPSA>
49.57

> <RotBonds>
0

> <ROCS_ShapeQuery>
A71EV2A-x0451_0A_A71EV2A-x0310_0A_A71EV2A-x0416_0A_peptide

> <ROCS_TanimotoCombo>
0.305 

> <ROCS_ShapeTanimoto>
0.173 

> <ROCS_ColorTanimoto>
0.132 

> <ROCS_RefTversky>
0.162 

> <ROCS_RefColorTversky>
0.137 

> <ROCS_RefTverskyCombo>
0.299 

> <ROCS_FitTversky>
1.610 

> <ROCS_FitColorTversky>
0.773 

> <ROCS_FitTverskyCombo>
2.383 

> <ROCS_ColorScore>
-4.161

> <ROCS_Overlap>
1121.775

> <ROCS_Rank>
11                  

$$$$
untitled-dbase-19_0
  -OEChem-11132311083D

 14 15  0     0  0  0  0  0  0999 V2000
    6.2625   11.7036   26.3099 C   0  0  0  0  0  0  0  0  0  0  0  0
    6.8380   12.9448   26.0618 C   0  0  0  0  0  0  0  0  0  0  0  0
    6.7242   10.5616   25.6489 C   0  0  0  0  0  0  0  0  0  0  0  0
    7.8875   13.0788   25.1493 C   0  0  0  0  0  0  0  0  0  0  0  0
    7.7834   10.6690   24.7218 C   0  0  0  0  0  0  0  0  0  0  0  0
    8.3461   11.9276   24.4889 C   0  0  0  0  0  0  0  0  0  0  0  0
    9.3052   10.0930   23.2320 C   0  0  0  0  0  0  0  0  0  0  0  0
    8.3431    9.6286   23.9946 N   0  0  0  0  0  0  0  0  0  0  0  0
    9.6076   11.7741   23.3236 S   0  0  0  0  0  0  0  0  0  0  0  0
   10.3124    8.9487   22.0809 Br  0  0  0  0  0  0  0  0  0  0  0  0
    5.4474   11.6182   27.0235 H   0  0  0  0  0  0  0  0  0  0  0  0
    6.4684   13.8235   26.5837 H   0  0  0  0  0  0  0  0  0  0  0  0
    6.2677    9.5965   25.8501 H   0  0  0  0  0  0  0  0  0  0  0  0
    8.3324   14.0510   24.9608 H   0  0  0  0  0  0  0  0  0  0  0  0
  1  2  1  0  0  0  0
  1  3  2  0  0  0  0
  2  4  2  0  0  0  0
  3  5  1  0  0  0  0
  4  6  1  0  0  0  0
  5  6  2  0  0  0  0
  5  8  1  0  0  0  0
  6  9  1  0  0  0  0
  7  8  2  0  0  0  0
  7  9  1  0  0  0  0
  7 10  1  0  0  0  0
  1 11  1  0  0  0  0
  2 12  1  0  0  0  0
  3 13  1  0  0  0  0
  4 14  1  0  0  0  0
M  END
> <Catalog ID>
Z415645026

> <MW>
212.925

> <MW (desalted)>
214.082

> <ClogP>
2.992

> <logS>
-3.82

> <HBD>
0

> <HBA>
1

> <TPSA>
12.89

> <RotBonds>
0

> <ROCS_ShapeQuery>
A71EV2A-x0451_0A_A71EV2A-x0310_0A_A71EV2A-x0416_0A_peptide

> <ROCS_TanimotoCombo>
0.303 

> <ROCS_ShapeTanimoto>
0.201 

> <ROCS_ColorTanimoto>
0.102 

> <ROCS_RefTversky>
0.186 

> <ROCS_RefColorTversky>
0.109 

> <ROCS_RefTverskyCombo>
0.295 

> <ROCS_FitTversky>
1.677 

> <ROCS_FitColorTversky>
0.613 

> <ROCS_FitTverskyCombo>
2.290 

> <ROCS_ColorScore>
-3.311

> <ROCS_Overlap>
1288.028

> <ROCS_Rank>
12                  

$$$$
untitled-dbase-70_0
  -OEChem-11132311083D

 16 16  0     0  0  0  0  0  0999 V2000
   11.2887   13.1648   22.6224 C   0  0  0  0  0  0  0  0  0  0  0  0
   10.4277   12.4633   23.0790 C   0  0  0  0  0  0  0  0  0  0  0  0
    9.4099   11.6336   23.6192 C   0  0  0  0  0  0  0  0  0  0  0  0
    9.2595   10.2383   23.5404 C   0  0  0  0  0  0  0  0  0  0  0  0
    8.3271   12.0368   24.3548 C   0  0  0  0  0  0  0  0  0  0  0  0
   10.1339    9.2633   22.8654 C   0  0  0  0  0  0  0  0  0  0  0  0
    7.8375   13.3394   24.8277 C   0  0  0  0  0  0  0  0  0  0  0  0
    8.1670    9.8089   24.1783 N   0  0  0  0  0  0  0  0  0  0  0  0
    7.5777   10.9569   24.6944 O   0  0  0  0  0  0  0  0  0  0  0  0
   12.0523   13.7871   22.2179 H   0  0  0  0  0  0  0  0  0  0  0  0
   10.9181    8.8908   23.5462 H   0  0  0  0  0  0  0  0  0  0  0  0
    9.5725    8.3878   22.4937 H   0  0  0  0  0  0  0  0  0  0  0  0
   10.6374    9.6964   21.9829 H   0  0  0  0  0  0  0  0  0  0  0  0
    7.1564   13.8054   24.0935 H   0  0  0  0  0  0  0  0  0  0  0  0
    7.2873   13.2597   25.7836 H   0  0  0  0  0  0  0  0  0  0  0  0
    8.6601   14.0546   25.0147 H   0  0  0  0  0  0  0  0  0  0  0  0
  1  2  3  0  0  0  0
  2  3  1  0  0  0  0
  3  4  1  0  0  0  0
  3  5  2  0  0  0  0
  4  6  1  0  0  0  0
  4  8  2  0  0  0  0
  5  7  1  0  0  0  0
  5  9  1  0  0  0  0
  8  9  1  0  0  0  0
  1 10  1  0  0  0  0
  6 11  1  0  0  0  0
  6 12  1  0  0  0  0
  6 13  1  0  0  0  0
  7 14  1  0  0  0  0
  7 15  1  0  0  0  0
  7 16  1  0  0  0  0
M  END
> <Catalog ID>
Z1198181760

> <MW>
121.053

> <MW (desalted)>
121.137

> <ClogP>
0.929

> <logS>
-0.844

> <HBD>
0

> <HBA>
1

> <TPSA>
26.03

> <RotBonds>
0

> <ROCS_ShapeQuery>
A71EV2A-x0451_0A_A71EV2A-x0310_0A_A71EV2A-x0416_0A_peptide

> <ROCS_TanimotoCombo>
0.294 

> <ROCS_ShapeTanimoto>
0.213 

> <ROCS_ColorTanimoto>
0.081 

> <ROCS_RefTversky>
0.194 

> <ROCS_RefColorTversky>
0.086 

> <ROCS_RefTverskyCombo>
0.280 

> <ROCS_FitTversky>
1.828 

> <ROCS_FitColorTversky>
0.588 

> <ROCS_FitTverskyCombo>
2.416 

> <ROCS_ColorScore>
-2.606

> <ROCS_Overlap>
1341.851

> <ROCS_Rank>
13                  

$$$$
untitled-dbase-24_0
  -OEChem-11132311083D

 18 18  0     0  0  0  0  0  0999 V2000
    9.4872   11.5891   23.6582 C   0  0  0  0  0  0  0  0  0  0  0  0
    9.3078   10.1955   23.6232 C   0  0  0  0  0  0  0  0  0  0  0  0
    8.3554   12.0478   24.2785 C   0  0  0  0  0  0  0  0  0  0  0  0
   10.4675   13.6485   22.7562 C   0  0  0  0  0  0  0  0  0  0  0  0
   10.5590   12.3680   23.1817 C   0  0  0  0  0  0  0  0  0  0  0  0
   10.2109    9.1720   23.0685 C   0  0  0  0  0  0  0  0  0  0  0  0
    7.8597   13.3798   24.6538 C   0  0  0  0  0  0  0  0  0  0  0  0
    8.1529    9.8186   24.1792 N   0  0  0  0  0  0  0  0  0  0  0  0
    7.5513   11.0006   24.5943 O   0  0  0  0  0  0  0  0  0  0  0  0
   11.3515   14.1789   22.4155 H   0  0  0  0  0  0  0  0  0  0  0  0
    9.5353   14.2006   22.7467 H   0  0  0  0  0  0  0  0  0  0  0  0
   11.5701   11.9362   23.1670 H   0  0  0  0  0  0  0  0  0  0  0  0
   10.9225    8.8112   23.8306 H   0  0  0  0  0  0  0  0  0  0  0  0
    9.6606    8.2946   22.6850 H   0  0  0  0  0  0  0  0  0  0  0  0
   10.8009    9.5548   22.2168 H   0  0  0  0  0  0  0  0  0  0  0  0
    7.2575   13.8290   23.8442 H   0  0  0  0  0  0  0  0  0  0  0  0
    7.2264   13.3522   25.5598 H   0  0  0  0  0  0  0  0  0  0  0  0
    8.6808   14.0838   24.8839 H   0  0  0  0  0  0  0  0  0  0  0  0
  1  2  1  0  0  0  0
  1  3  2  0  0  0  0
  1  5  1  0  0  0  0
  2  6  1  0  0  0  0
  2  8  2  0  0  0  0
  3  7  1  0  0  0  0
  3  9  1  0  0  0  0
  4  5  2  0  0  0  0
  8  9  1  0  0  0  0
  4 10  1  0  0  0  0
  4 11  1  0  0  0  0
  5 12  1  0  0  0  0
  6 13  1  0  0  0  0
  6 14  1  0  0  0  0
  6 15  1  0  0  0  0
  7 16  1  0  0  0  0
  7 17  1  0  0  0  0
  7 18  1  0  0  0  0
M  END
> <Catalog ID>
Z1198156225

> <MW>
123.068

> <MW (desalted)>
123.152

> <ClogP>
1.383

> <logS>
-0.834

> <HBD>
0

> <HBA>
1

> <TPSA>
26.03

> <RotBonds>
1

> <ROCS_ShapeQuery>
A71EV2A-x0451_0A_A71EV2A-x0310_0A_A71EV2A-x0416_0A_peptide

> <ROCS_TanimotoCombo>
0.293 

> <ROCS_ShapeTanimoto>
0.212 

> <ROCS_ColorTanimoto>
0.081 

> <ROCS_RefTversky>
0.193 

> <ROCS_RefColorTversky>
0.086 

> <ROCS_RefTverskyCombo>
0.280 

> <ROCS_FitTversky>
1.824 

> <ROCS_FitColorTversky>
0.588 

> <ROCS_FitTverskyCombo>
2.411 

> <ROCS_ColorScore>
-2.607

> <ROCS_Overlap>
1337.515

> <ROCS_Rank>
14                  

$$$$
untitled-dbase-41_0
  -OEChem-11132311083D

 14 14  0     0  0  0  0  0  0999 V2000
    8.0725   12.1726   24.6024 C   0  0  0  0  0  0  0  0  0  0  0  0
    9.2495   10.4498   23.5522 C   0  0  0  0  0  0  0  0  0  0  0  0
    7.3699   10.0161   24.7548 C   0  0  0  0  0  0  0  0  0  0  0  0
    9.1476   11.7993   23.8219 C   0  0  0  0  0  0  0  0  0  0  0  0
   10.4472   13.8747   23.9596 C   0  0  0  0  0  0  0  0  0  0  0  0
   10.1066   12.7611   23.3186 C   0  0  0  0  0  0  0  0  0  0  0  0
    7.1610   11.3041   25.0876 N   0  0  0  0  0  0  0  0  0  0  0  0
    8.3754    9.5268   24.0043 N   0  0  0  0  0  0  0  0  0  0  0  0
    7.8978   13.2096   24.8734 H   0  0  0  0  0  0  0  0  0  0  0  0
   10.0585   10.0496   22.9485 H   0  0  0  0  0  0  0  0  0  0  0  0
    6.6532    9.2969   25.1312 H   0  0  0  0  0  0  0  0  0  0  0  0
   11.1854   14.5340   23.5132 H   0  0  0  0  0  0  0  0  0  0  0  0
   10.0452   14.1744   24.9201 H   0  0  0  0  0  0  0  0  0  0  0  0
   10.5870   12.5354   22.3776 H   0  0  0  0  0  0  0  0  0  0  0  0
  1  4  1  0  0  0  0
  1  7  2  0  0  0  0
  2  4  2  0  0  0  0
  2  8  1  0  0  0  0
  3  7  1  0  0  0  0
  3  8  2  0  0  0  0
  4  6  1  0  0  0  0
  5  6  2  0  0  0  0
  1  9  1  0  0  0  0
  2 10  1  0  0  0  0
  3 11  1  0  0  0  0
  5 12  1  0  0  0  0
  5 13  1  0  0  0  0
  6 14  1  0  0  0  0
M  END
> <Catalog ID>
Z1238572129

> <MW>
106.053

> <MW (desalted)>
106.125

> <ClogP>
0.412

> <logS>
-1.093

> <HBD>
0

> <HBA>
2

> <TPSA>
25.78

> <RotBonds>
1

> <ROCS_ShapeQuery>
A71EV2A-x0451_0A_A71EV2A-x0310_0A_A71EV2A-x0416_0A_peptide

> <ROCS_TanimotoCombo>
0.292 

> <ROCS_ShapeTanimoto>
0.191 

> <ROCS_ColorTanimoto>
0.101 

> <ROCS_RefTversky>
0.176 

> <ROCS_RefColorTversky>
0.108 

> <ROCS_RefTverskyCombo>
0.285 

> <ROCS_FitTversky>
1.760 

> <ROCS_FitColorTversky>
0.610 

> <ROCS_FitTverskyCombo>
2.370 

> <ROCS_ColorScore>
-3.289

> <ROCS_Overlap>
1219.620

> <ROCS_Rank>
15                  

$$$$
untitled-dbase-18_0
  -OEChem-11132311083D

 12 12  0     0  0  0  0  0  0999 V2000
    9.9923   13.1745   24.2117 C   0  0  0  0  0  0  0  0  0  0  0  0
    8.8435    9.7860   23.2652 C   0  0  0  0  0  0  0  0  0  0  0  0
    7.6744    9.7334   24.0160 C   0  0  0  0  0  0  0  0  0  0  0  0
    9.6411   10.9241   23.3098 C   0  0  0  0  0  0  0  0  0  0  0  0
    7.3498   10.8365   24.7890 C   0  0  0  0  0  0  0  0  0  0  0  0
    9.2283   11.9740   24.1143 C   0  0  0  0  0  0  0  0  0  0  0  0
   10.6139   14.1513   24.2910 N   0  0  0  0  0  0  0  0  0  0  0  0
    8.0993   11.9594   24.8577 N   0  0  0  0  0  0  0  0  0  0  0  0
    9.1323    8.9419   22.6463 H   0  0  0  0  0  0  0  0  0  0  0  0
    7.0374    8.8565   23.9966 H   0  0  0  0  0  0  0  0  0  0  0  0
   10.5552   10.9745   22.7270 H   0  0  0  0  0  0  0  0  0  0  0  0
    6.4483   10.8455   25.3928 H   0  0  0  0  0  0  0  0  0  0  0  0
  1  6  1  0  0  0  0
  1  7  3  0  0  0  0
  2  3  1  0  0  0  0
  2  4  2  0  0  0  0
  3  5  2  0  0  0  0
  4  6  1  0  0  0  0
  5  8  1  0  0  0  0
  6  8  2  0  0  0  0
  2  9  1  0  0  0  0
  3 10  1  0  0  0  0
  4 11  1  0  0  0  0
  5 12  1  0  0  0  0
M  END
> <Catalog ID>
Z57899718

> <MW>
104.037

> <MW (desalted)>
104.109

> <ClogP>
0.473

> <logS>
-0.656

> <HBD>
0

> <HBA>
2

> <TPSA>
36.68

> <RotBonds>
0

> <ROCS_ShapeQuery>
A71EV2A-x0451_0A_A71EV2A-x0310_0A_A71EV2A-x0416_0A_peptide

> <ROCS_TanimotoCombo>
0.290 

> <ROCS_ShapeTanimoto>
0.180 

> <ROCS_ColorTanimoto>
0.110 

> <ROCS_RefTversky>
0.168 

> <ROCS_RefColorTversky>
0.113 

> <ROCS_RefTverskyCombo>
0.281 

> <ROCS_FitTversky>
1.673 

> <ROCS_FitColorTversky>
0.775 

> <ROCS_FitTverskyCombo>
2.448 

> <ROCS_ColorScore>
-3.436

> <ROCS_Overlap>
1159.031

> <ROCS_Rank>
16                  

$$$$
untitled-dbase-50_0
  -OEChem-11132311083D

 10 10  0     0  0  0  0  0  0999 V2000
    9.9539   12.9171   24.2697 C   0  0  0  0  0  0  0  0  0  0  0  0
    9.8245   10.4360   23.9273 C   0  0  0  0  0  0  0  0  0  0  0  0
    7.6795   10.2827   24.4089 C   0  0  0  0  0  0  0  0  0  0  0  0
    9.2897   11.6641   24.2375 C   0  0  0  0  0  0  0  0  0  0  0  0
   10.4974   13.9422   24.2959 N   0  0  0  0  0  0  0  0  0  0  0  0
    7.9542   11.5619   24.5367 N   0  0  0  0  0  0  0  0  0  0  0  0
    8.7812    9.5611   24.0418 N   0  0  0  0  0  0  0  0  0  0  0  0
   10.8159   10.1103   23.6450 H   0  0  0  0  0  0  0  0  0  0  0  0
    6.7156    9.8205   24.5656 H   0  0  0  0  0  0  0  0  0  0  0  0
    8.8156    8.5629   23.8827 H   0  0  0  0  0  0  0  0  0  0  0  0
  1  4  1  0  0  0  0
  1  5  3  0  0  0  0
  2  4  2  0  0  0  0
  2  7  1  0  0  0  0
  3  6  2  0  0  0  0
  3  7  1  0  0  0  0
  4  6  1  0  0  0  0
  2  8  1  0  0  0  0
  3  9  1  0  0  0  0
  7 10  1  0  0  0  0
M  END
> <Catalog ID>
Z1198152494

> <MW>
93.033

> <MW (desalted)>
93.087

> <ClogP>
-0.155

> <logS>
-0.662

> <HBD>
1

> <HBA>
2

> <TPSA>
52.47

> <RotBonds>
0

> <ROCS_ShapeQuery>
A71EV2A-x0451_0A_A71EV2A-x0310_0A_A71EV2A-x0416_0A_peptide

> <ROCS_TanimotoCombo>
0.286 

> <ROCS_ShapeTanimoto>
0.159 

> <ROCS_ColorTanimoto>
0.128 

> <ROCS_RefTversky>
0.150 

> <ROCS_RefColorTversky>
0.137 

> <ROCS_RefTverskyCombo>
0.287 

> <ROCS_FitTversky>
1.578 

> <ROCS_FitColorTversky>
0.656 

> <ROCS_FitTverskyCombo>
2.234 

> <ROCS_ColorScore>
-4.153

> <ROCS_Overlap>
1035.618

> <ROCS_Rank>
17                  

$$$$
untitled-dbase-54_0
  -OEChem-11132311083D

  9  9  0     0  0  0  0  0  0999 V2000
    9.9249   13.0690   24.2663 C   0  0  0  0  0  0  0  0  0  0  0  0
    9.3761   10.6343   24.2353 C   0  0  0  0  0  0  0  0  0  0  0  0
    7.1973   10.4031   24.1400 C   0  0  0  0  0  0  0  0  0  0  0  0
    9.0264   11.9683   24.2238 C   0  0  0  0  0  0  0  0  0  0  0  0
   10.6584   13.9676   24.3010 N   0  0  0  0  0  0  0  0  0  0  0  0
    8.3286    9.7353   24.1878 N   0  0  0  0  0  0  0  0  0  0  0  0
    7.3193   12.1148   24.1486 S   0  0  0  0  0  0  0  0  0  0  0  0
   10.3880   10.2516   24.2777 H   0  0  0  0  0  0  0  0  0  0  0  0
    6.2378    9.9067   24.0974 H   0  0  0  0  0  0  0  0  0  0  0  0
  1  4  1  0  0  0  0
  1  5  3  0  0  0  0
  2  4  2  0  0  0  0
  2  6  1  0  0  0  0
  3  6  2  0  0  0  0
  3  7  1  0  0  0  0
  4  7  1  0  0  0  0
  2  8  1  0  0  0  0
  3  9  1  0  0  0  0
M  END
> <Catalog ID>
Z1160900223

> <MW>
109.994

> <MW (desalted)>
110.137

> <ClogP>
0.085

> <logS>
-1

> <HBD>
0

> <HBA>
2

> <TPSA>
36.68

> <RotBonds>
0

> <ROCS_ShapeQuery>
A71EV2A-x0451_0A_A71EV2A-x0310_0A_A71EV2A-x0416_0A_peptide

> <ROCS_TanimotoCombo>
0.283 

> <ROCS_ShapeTanimoto>
0.146 

> <ROCS_ColorTanimoto>
0.138 

> <ROCS_RefTversky>
0.139 

> <ROCS_RefColorTversky>
0.139 

> <ROCS_RefTverskyCombo>
0.278 

> <ROCS_FitTversky>
1.518 

> <ROCS_FitColorTversky>
0.946 

> <ROCS_FitTverskyCombo>
2.464 

> <ROCS_ColorScore>
-4.196

> <ROCS_Overlap>
960.806

> <ROCS_Rank>
18                  

$$$$
untitled-dbase-33_0
  -OEChem-11132311083D

  9  9  0     0  0  0  0  0  0999 V2000
    9.8672   13.0017   24.2819 C   0  0  0  0  0  0  0  0  0  0  0  0
    7.5636   10.3770   24.4020 C   0  0  0  0  0  0  0  0  0  0  0  0
    8.4822    9.9135   23.4931 C   0  0  0  0  0  0  0  0  0  0  0  0
    9.0501   11.8510   24.2000 C   0  0  0  0  0  0  0  0  0  0  0  0
   10.5381   13.9463   24.3492 N   0  0  0  0  0  0  0  0  0  0  0  0
    7.9330   11.6188   24.8516 N   0  0  0  0  0  0  0  0  0  0  0  0
    9.4502   10.8618   23.3549 O   0  0  0  0  0  0  0  0  0  0  0  0
    6.6667    9.8883   24.7519 H   0  0  0  0  0  0  0  0  0  0  0  0
    8.5950    9.0170   22.9025 H   0  0  0  0  0  0  0  0  0  0  0  0
  1  4  1  0  0  0  0
  1  5  3  0  0  0  0
  2  3  2  0  0  0  0
  2  6  1  0  0  0  0
  3  7  1  0  0  0  0
  4  6  2  0  0  0  0
  4  7  1  0  0  0  0
  2  8  1  0  0  0  0
  3  9  1  0  0  0  0
M  END
> <Catalog ID>
Z1116403971

> <MW>
94.017

> <MW (desalted)>
94.071

> <ClogP>
-0.351

> <logS>
0.456

> <HBD>
0

> <HBA>
2

> <TPSA>
49.82

> <RotBonds>
0

> <ROCS_ShapeQuery>
A71EV2A-x0451_0A_A71EV2A-x0310_0A_A71EV2A-x0416_0A_peptide

> <ROCS_TanimotoCombo>
0.278 

> <ROCS_ShapeTanimoto>
0.159 

> <ROCS_ColorTanimoto>
0.119 

> <ROCS_RefTversky>
0.150 

> <ROCS_RefColorTversky>
0.122 

> <ROCS_RefTverskyCombo>
0.272 

> <ROCS_FitTversky>
1.581 

> <ROCS_FitColorTversky>
0.830 

> <ROCS_FitTverskyCombo>
2.411 

> <ROCS_ColorScore>
-3.680

> <ROCS_Overlap>
1040.118

> <ROCS_Rank>
19                  

$$$$
untitled-dbase-34_0
  -OEChem-11132311083D

  9  9  0     0  0  0  0  0  0999 V2000
    9.9171   13.0182   24.2426 C   0  0  0  0  0  0  0  0  0  0  0  0
    9.3763   10.7382   23.3409 C   0  0  0  0  0  0  0  0  0  0  0  0
    7.5718   10.4781   24.4600 C   0  0  0  0  0  0  0  0  0  0  0  0
    9.1391   11.8398   24.1249 C   0  0  0  0  0  0  0  0  0  0  0  0
   10.5542   13.9834   24.3390 N   0  0  0  0  0  0  0  0  0  0  0  0
    7.9813   11.6674   24.8395 N   0  0  0  0  0  0  0  0  0  0  0  0
    8.3658    9.8491   23.5507 O   0  0  0  0  0  0  0  0  0  0  0  0
   10.1407   10.4417   22.6379 H   0  0  0  0  0  0  0  0  0  0  0  0
    6.6899    9.9442   24.7812 H   0  0  0  0  0  0  0  0  0  0  0  0
  1  4  1  0  0  0  0
  1  5  3  0  0  0  0
  2  4  2  0  0  0  0
  2  7  1  0  0  0  0
  3  6  2  0  0  0  0
  3  7  1  0  0  0  0
  4  6  1  0  0  0  0
  2  8  1  0  0  0  0
  3  9  1  0  0  0  0
M  END
> <Catalog ID>
Z1143441220

> <MW>
94.017

> <MW (desalted)>
94.071

> <ClogP>
-0.351

> <logS>
-0.37

> <HBD>
0

> <HBA>
2

> <TPSA>
49.82

> <RotBonds>
0

> <ROCS_ShapeQuery>
A71EV2A-x0451_0A_A71EV2A-x0310_0A_A71EV2A-x0416_0A_peptide

> <ROCS_TanimotoCombo>
0.277 

> <ROCS_ShapeTanimoto>
0.160 

> <ROCS_ColorTanimoto>
0.117 

> <ROCS_RefTversky>
0.151 

> <ROCS_RefColorTversky>
0.120 

> <ROCS_RefTverskyCombo>
0.271 

> <ROCS_FitTversky>
1.587 

> <ROCS_FitColorTversky>
0.819 

> <ROCS_FitTverskyCombo>
2.406 

> <ROCS_ColorScore>
-3.631

> <ROCS_Overlap>
1042.182

> <ROCS_Rank>
20                  

$$$$
untitled-dbase-67_0
  -OEChem-11132311083D

 10 10  0     0  0  0  0  0  0999 V2000
    8.0657   12.1710   24.6146 C   0  0  0  0  0  0  0  0  0  0  0  0
    9.2552   10.4586   23.5613 C   0  0  0  0  0  0  0  0  0  0  0  0
    7.3680   10.0116   24.7470 C   0  0  0  0  0  0  0  0  0  0  0  0
    9.1475   11.8059   23.8394 C   0  0  0  0  0  0  0  0  0  0  0  0
    7.1531   11.2968   25.0871 N   0  0  0  0  0  0  0  0  0  0  0  0
    8.3803    9.5302   24.0006 N   0  0  0  0  0  0  0  0  0  0  0  0
   10.5092   13.1790   23.1448 I   0  0  0  0  0  0  0  0  0  0  0  0
    7.8825   13.2038   24.8947 H   0  0  0  0  0  0  0  0  0  0  0  0
   10.0668   10.0594   22.9606 H   0  0  0  0  0  0  0  0  0  0  0  0
    6.6502    9.2878   25.1131 H   0  0  0  0  0  0  0  0  0  0  0  0
  1  4  1  0  0  0  0
  1  5  2  0  0  0  0
  2  4  2  0  0  0  0
  2  6  1  0  0  0  0
  3  5  1  0  0  0  0
  3  6  2  0  0  0  0
  4  7  1  0  0  0  0
  1  8  1  0  0  0  0
  2  9  1  0  0  0  0
  3 10  1  0  0  0  0
M  END
> <Catalog ID>
Z1259106172

> <MW>
205.934

> <MW (desalted)>
205.984

> <ClogP>
0.849

> <logS>
-1.17

> <HBD>
0

> <HBA>
2

> <TPSA>
25.78

> <RotBonds>
0

> <ROCS_ShapeQuery>
A71EV2A-x0451_0A_A71EV2A-x0310_0A_A71EV2A-x0416_0A_peptide

> <ROCS_TanimotoCombo>
0.274 

> <ROCS_ShapeTanimoto>
0.172 

> <ROCS_ColorTanimoto>
0.101 

> <ROCS_RefTversky>
0.160 

> <ROCS_RefColorTversky>
0.108 

> <ROCS_RefTverskyCombo>
0.269 

> <ROCS_FitTversky>
1.739 

> <ROCS_FitColorTversky>
0.610 

> <ROCS_FitTverskyCombo>
2.349 

> <ROCS_ColorScore>
-3.290

> <ROCS_Overlap>
1108.993

> <ROCS_Rank>
21                  

$$$$
untitled-dbase-80_0
  -OEChem-11132311083D

 10 10  0     0  0  0  0  0  0999 V2000
    9.2525   10.4597   23.5595 C   0  0  0  0  0  0  0  0  0  0  0  0
    8.0640   12.1725   24.6132 C   0  0  0  0  0  0  0  0  0  0  0  0
    7.3666   10.0131   24.7474 C   0  0  0  0  0  0  0  0  0  0  0  0
    9.1451   11.8072   23.8373 C   0  0  0  0  0  0  0  0  0  0  0  0
    8.3780    9.5315   24.0000 N   0  0  0  0  0  0  0  0  0  0  0  0
    7.1518   11.2985   25.0869 N   0  0  0  0  0  0  0  0  0  0  0  0
   10.3879   13.0608   23.2014 Br  0  0  0  0  0  0  0  0  0  0  0  0
   10.0652   10.0647   22.9578 H   0  0  0  0  0  0  0  0  0  0  0  0
    7.8849   13.2066   24.8906 H   0  0  0  0  0  0  0  0  0  0  0  0
    6.6493    9.2895   25.1146 H   0  0  0  0  0  0  0  0  0  0  0  0
  1  4  1  0  0  0  0
  1  5  2  0  0  0  0
  2  4  2  0  0  0  0
  2  6  1  0  0  0  0
  3  5  1  0  0  0  0
  3  6  2  0  0  0  0
  4  7  1  0  0  0  0
  1  8  1  0  0  0  0
  2  9  1  0  0  0  0
  3 10  1  0  0  0  0
M  END
> <Catalog ID>
Z285136922

> <MW>
157.948

> <MW (desalted)>
158.984

> <ClogP>
0.589

> <logS>
-1.27

> <HBD>
0

> <HBA>
2

> <TPSA>
25.78

> <RotBonds>
0

> <ROCS_ShapeQuery>
A71EV2A-x0451_0A_A71EV2A-x0310_0A_A71EV2A-x0416_0A_peptide

> <ROCS_TanimotoCombo>
0.273 

> <ROCS_ShapeTanimoto>
0.172 

> <ROCS_ColorTanimoto>
0.101 

> <ROCS_RefTversky>
0.160 

> <ROCS_RefColorTversky>
0.108 

> <ROCS_RefTverskyCombo>
0.269 

> <ROCS_FitTversky>
1.729 

> <ROCS_FitColorTversky>
0.610 

> <ROCS_FitTverskyCombo>
2.339 

> <ROCS_ColorScore>
-3.290

> <ROCS_Overlap>
1107.912

> <ROCS_Rank>
22                  

$$$$
untitled-dbase-47_0
  -OEChem-11132311083D

 15 15  0     0  0  0  0  0  0999 V2000
    7.9591   12.0961   24.5036 C   0  0  0  0  0  0  0  0  0  0  0  0
    9.8673   11.1616   23.3767 C   0  0  0  0  0  0  0  0  0  0  0  0
    7.4768   10.8047   24.6431 C   0  0  0  0  0  0  0  0  0  0  0  0
    9.2996    9.9120   23.5668 C   0  0  0  0  0  0  0  0  0  0  0  0
    9.1778   12.2693   23.8571 C   0  0  0  0  0  0  0  0  0  0  0  0
   10.4760   13.9643   22.6499 C   0  0  0  0  0  0  0  0  0  0  0  0
    9.7286   13.6037   23.6847 C   0  0  0  0  0  0  0  0  0  0  0  0
    8.1179    9.7042   24.1897 N   0  0  0  0  0  0  0  0  0  0  0  0
    7.3928   12.9363   24.8918 H   0  0  0  0  0  0  0  0  0  0  0  0
   10.8208   11.2565   22.8674 H   0  0  0  0  0  0  0  0  0  0  0  0
    6.5312   10.6154   25.1406 H   0  0  0  0  0  0  0  0  0  0  0  0
    9.7970    9.0159   23.2107 H   0  0  0  0  0  0  0  0  0  0  0  0
   10.8357   14.9874   22.5958 H   0  0  0  0  0  0  0  0  0  0  0  0
   10.7502   13.3085   21.8322 H   0  0  0  0  0  0  0  0  0  0  0  0
    9.4829   14.3360   24.4365 H   0  0  0  0  0  0  0  0  0  0  0  0
  1  3  2  0  0  0  0
  1  5  1  0  0  0  0
  2  4  1  0  0  0  0
  2  5  2  0  0  0  0
  3  8  1  0  0  0  0
  4  8  2  0  0  0  0
  5  7  1  0  0  0  0
  6  7  2  0  0  0  0
  1  9  1  0  0  0  0
  2 10  1  0  0  0  0
  3 11  1  0  0  0  0
  4 12  1  0  0  0  0
  6 13  1  0  0  0  0
  6 14  1  0  0  0  0
  7 15  1  0  0  0  0
M  END
> <Catalog ID>
Z104495236

> <MW>
105.058

> <MW (desalted)>
105.137

> <ClogP>
1.369

> <logS>
-1.223

> <HBD>
0

> <HBA>
1

> <TPSA>
12.89

> <RotBonds>
1

> <ROCS_ShapeQuery>
A71EV2A-x0451_0A_A71EV2A-x0310_0A_A71EV2A-x0416_0A_peptide

> <ROCS_TanimotoCombo>
0.273 

> <ROCS_ShapeTanimoto>
0.190 

> <ROCS_ColorTanimoto>
0.084 

> <ROCS_RefTversky>
0.175 

> <ROCS_RefColorTversky>
0.088 

> <ROCS_RefTverskyCombo>
0.264 

> <ROCS_FitTversky>
1.759 

> <ROCS_FitColorTversky>
0.603 

> <ROCS_FitTverskyCombo>
2.362 

> <ROCS_ColorScore>
-2.675

> <ROCS_Overlap>
1211.945

> <ROCS_Rank>
23                  

$$$$
untitled-dbase-68_0
  -OEChem-11132311083D

 14 14  0     0  0  0  0  0  0999 V2000
    9.4343   11.6158   23.6127 C   0  0  0  0  0  0  0  0  0  0  0  0
    9.2715   10.2209   23.5552 C   0  0  0  0  0  0  0  0  0  0  0  0
    8.3426   12.0422   24.3217 C   0  0  0  0  0  0  0  0  0  0  0  0
   10.1463    9.2249   22.9126 C   0  0  0  0  0  0  0  0  0  0  0  0
    7.8596   13.3586   24.7600 C   0  0  0  0  0  0  0  0  0  0  0  0
    8.1636    9.8133   24.1808 N   0  0  0  0  0  0  0  0  0  0  0  0
    7.5767   10.9756   24.6664 O   0  0  0  0  0  0  0  0  0  0  0  0
   10.6927   12.5300   22.9510 Cl  0  0  0  0  0  0  0  0  0  0  0  0
   10.9150    8.8563   23.6129 H   0  0  0  0  0  0  0  0  0  0  0  0
    9.5818    8.3487   22.5469 H   0  0  0  0  0  0  0  0  0  0  0  0
   10.6692    9.6367   22.0311 H   0  0  0  0  0  0  0  0  0  0  0  0
    7.1959   13.8174   24.0053 H   0  0  0  0  0  0  0  0  0  0  0  0
    7.2923   13.3043   25.7079 H   0  0  0  0  0  0  0  0  0  0  0  0
    8.6864   14.0692   24.9471 H   0  0  0  0  0  0  0  0  0  0  0  0
  1  2  1  0  0  0  0
  1  3  2  0  0  0  0
  1  8  1  0  0  0  0
  2  4  1  0  0  0  0
  2  6  2  0  0  0  0
  3  5  1  0  0  0  0
  3  7  1  0  0  0  0
  6  7  1  0  0  0  0
  4  9  1  0  0  0  0
  4 10  1  0  0  0  0
  4 11  1  0  0  0  0
  5 12  1  0  0  0  0
  5 13  1  0  0  0  0
  5 14  1  0  0  0  0
M  END
> <Catalog ID>
Z1201627928

> <MW>
131.014

> <MW (desalted)>
131.56

> <ClogP>
1.527

> <logS>
-0.761

> <HBD>
0

> <HBA>
1

> <TPSA>
26.03

> <RotBonds>
0

> <ROCS_ShapeQuery>
A71EV2A-x0451_0A_A71EV2A-x0310_0A_A71EV2A-x0416_0A_peptide

> <ROCS_TanimotoCombo>
0.272 

> <ROCS_ShapeTanimoto>
0.188 

> <ROCS_ColorTanimoto>
0.084 

> <ROCS_RefTversky>
0.174 

> <ROCS_RefColorTversky>
0.086 

> <ROCS_RefTverskyCombo>
0.260 

> <ROCS_FitTversky>
1.757 

> <ROCS_FitColorTversky>
0.748 

> <ROCS_FitTverskyCombo>
2.505 

> <ROCS_ColorScore>
-2.607

> <ROCS_Overlap>
1202.070

> <ROCS_Rank>
24                  

$$$$
untitled-dbase-10_0
  -OEChem-11132311083D

 10 10  0     0  0  0  0  0  0999 V2000
    9.9610   13.1310   24.2191 C   0  0  0  0  0  0  0  0  0  0  0  0
    7.7437   10.4153   24.3457 C   0  0  0  0  0  0  0  0  0  0  0  0
    8.5380    9.9817   23.3106 C   0  0  0  0  0  0  0  0  0  0  0  0
    9.2055   11.9384   24.0738 C   0  0  0  0  0  0  0  0  0  0  0  0
   10.5787   14.1063   24.3380 N   0  0  0  0  0  0  0  0  0  0  0  0
    8.1643   11.6340   24.8162 N   0  0  0  0  0  0  0  0  0  0  0  0
    9.4696   10.9680   23.1476 N   0  0  0  0  0  0  0  0  0  0  0  0
    6.8902    9.9123   24.7764 H   0  0  0  0  0  0  0  0  0  0  0  0
    8.5269    9.0934   22.6959 H   0  0  0  0  0  0  0  0  0  0  0  0
   10.2167   10.9752   22.4656 H   0  0  0  0  0  0  0  0  0  0  0  0
  1  4  1  0  0  0  0
  1  5  3  0  0  0  0
  2  3  2  0  0  0  0
  2  6  1  0  0  0  0
  3  7  1  0  0  0  0
  4  6  2  0  0  0  0
  4  7  1  0  0  0  0
  2  8  1  0  0  0  0
  3  9  1  0  0  0  0
  7 10  1  0  0  0  0
M  END
> <Catalog ID>
Z1198180312

> <MW>
93.033

> <MW (desalted)>
93.087

> <ClogP>
-0.155

> <logS>
-0.11

> <HBD>
1

> <HBA>
2

> <TPSA>
52.47

> <RotBonds>
0

> <ROCS_ShapeQuery>
A71EV2A-x0451_0A_A71EV2A-x0310_0A_A71EV2A-x0416_0A_peptide

> <ROCS_TanimotoCombo>
0.270 

> <ROCS_ShapeTanimoto>
0.156 

> <ROCS_ColorTanimoto>
0.114 

> <ROCS_RefTversky>
0.148 

> <ROCS_RefColorTversky>
0.123 

> <ROCS_RefTverskyCombo>
0.272 

> <ROCS_FitTversky>
1.560 

> <ROCS_FitColorTversky>
0.592 

> <ROCS_FitTverskyCombo>
2.151 

> <ROCS_ColorScore>
-3.748

> <ROCS_Overlap>
1023.777

> <ROCS_Rank>
25                  

$$$$
untitled-dbase-2_7
  -OEChem-11132311083D

 14 14  0     0  0  0  0  0  0999 V2000
   10.7493   14.7138   23.6416 C   0  0  0  0  0  0  0  0  0  0  0  0
   10.5947   13.5951   23.2341 C   0  0  0  0  0  0  0  0  0  0  0  0
    7.7383   11.0058   24.7832 C   0  0  0  0  0  0  0  0  0  0  0  0
    8.4932   12.0673   24.3430 C   0  0  0  0  0  0  0  0  0  0  0  0
    9.1437   10.1764   23.4167 C   0  0  0  0  0  0  0  0  0  0  0  0
   10.4083   12.2300   22.7340 C   0  0  0  0  0  0  0  0  0  0  0  0
    8.1484    9.8316   24.2030 N   0  0  0  0  0  0  0  0  0  0  0  0
    9.3896   11.5203   23.4686 N   0  0  0  0  0  0  0  0  0  0  0  0
   10.8861   15.7059   24.0033 H   0  0  0  0  0  0  0  0  0  0  0  0
    6.9203   11.0274   25.4884 H   0  0  0  0  0  0  0  0  0  0  0  0
    8.4707   13.1244   24.5682 H   0  0  0  0  0  0  0  0  0  0  0  0
    9.7179    9.5047   22.7933 H   0  0  0  0  0  0  0  0  0  0  0  0
   11.3365   11.6522   22.8091 H   0  0  0  0  0  0  0  0  0  0  0  0
   10.1156   12.2332   21.6780 H   0  0  0  0  0  0  0  0  0  0  0  0
  1  2  3  0  0  0  0
  2  6  1  0  0  0  0
  3  4  2  0  0  0  0
  3  7  1  0  0  0  0
  4  8  1  0  0  0  0
  5  7  2  0  0  0  0
  5  8  1  0  0  0  0
  6  8  1  0  0  0  0
  1  9  1  0  0  0  0
  3 10  1  0  0  0  0
  4 11  1  0  0  0  0
  5 12  1  0  0  0  0
  6 13  1  0  0  0  0
  6 14  1  0  0  0  0
M  END
> <Catalog ID>
Z57842667

> <MW>
106.053

> <MW (desalted)>
106.125

> <ClogP>
0.087

> <logS>
-0.68

> <HBD>
0

> <HBA>
1

> <TPSA>
17.82

> <RotBonds>
1

> <ROCS_ShapeQuery>
A71EV2A-x0451_0A_A71EV2A-x0310_0A_A71EV2A-x0416_0A_peptide

> <ROCS_TanimotoCombo>
0.270 

> <ROCS_ShapeTanimoto>
0.191 

> <ROCS_ColorTanimoto>
0.079 

> <ROCS_RefTversky>
0.177 

> <ROCS_RefColorTversky>
0.086 

> <ROCS_RefTverskyCombo>
0.262 

> <ROCS_FitTversky>
1.762 

> <ROCS_FitColorTversky>
0.483 

> <ROCS_FitTverskyCombo>
2.246 

> <ROCS_ColorScore>
-2.602

> <ROCS_Overlap>
1220.425

> <ROCS_Rank>
26                  

$$$$
untitled-dbase-36_0
  -OEChem-11132311083D

  9  9  0     0  0  0  0  0  0999 V2000
    9.9345   13.0744   24.2431 C   0  0  0  0  0  0  0  0  0  0  0  0
    7.4777   10.5298   24.5530 C   0  0  0  0  0  0  0  0  0  0  0  0
    8.1666    9.7473   23.6501 C   0  0  0  0  0  0  0  0  0  0  0  0
    9.1468   11.8919   24.1423 C   0  0  0  0  0  0  0  0  0  0  0  0
   10.5764   14.0378   24.3252 N   0  0  0  0  0  0  0  0  0  0  0  0
    8.0385   11.7597   24.8368 N   0  0  0  0  0  0  0  0  0  0  0  0
    9.5742   10.5759   23.1272 S   0  0  0  0  0  0  0  0  0  0  0  0
    6.5532   10.2474   25.0382 H   0  0  0  0  0  0  0  0  0  0  0  0
    7.9177    8.7615   23.2843 H   0  0  0  0  0  0  0  0  0  0  0  0
  1  4  1  0  0  0  0
  1  5  3  0  0  0  0
  2  3  2  0  0  0  0
  2  6  1  0  0  0  0
  3  7  1  0  0  0  0
  4  6  2  0  0  0  0
  4  7  1  0  0  0  0
  2  8  1  0  0  0  0
  3  9  1  0  0  0  0
M  END
> <Catalog ID>
Z1198221374

> <MW>
109.994

> <MW (desalted)>
110.137

> <ClogP>
0.285

> <logS>
-0.29

> <HBD>
0

> <HBA>
2

> <TPSA>
36.68

> <RotBonds>
0

> <ROCS_ShapeQuery>
A71EV2A-x0451_0A_A71EV2A-x0310_0A_A71EV2A-x0416_0A_peptide

> <ROCS_TanimotoCombo>
0.270 

> <ROCS_ShapeTanimoto>
0.155 

> <ROCS_ColorTanimoto>
0.114 

> <ROCS_RefTversky>
0.147 

> <ROCS_RefColorTversky>
0.118 

> <ROCS_RefTverskyCombo>
0.264 

> <ROCS_FitTversky>
1.600 

> <ROCS_FitColorTversky>
0.803 

> <ROCS_FitTverskyCombo>
2.403 

> <ROCS_ColorScore>
-3.560

> <ROCS_Overlap>
1014.465

> <ROCS_Rank>
27                  

$$$$
untitled-dbase-6_0
  -OEChem-11132311083D

 14 14  0     0  0  0  0  0  0999 V2000
    9.4323   11.6196   23.6214 C   0  0  0  0  0  0  0  0  0  0  0  0
    9.2749   10.2242   23.5606 C   0  0  0  0  0  0  0  0  0  0  0  0
    8.3358   12.0406   24.3262 C   0  0  0  0  0  0  0  0  0  0  0  0
   10.1531    9.2257   22.9247 C   0  0  0  0  0  0  0  0  0  0  0  0
    7.8380   13.3510   24.7687 C   0  0  0  0  0  0  0  0  0  0  0  0
    8.1656    9.8113   24.1803 N   0  0  0  0  0  0  0  0  0  0  0  0
    7.5722   10.9706   24.6653 O   0  0  0  0  0  0  0  0  0  0  0  0
   10.9304   12.7601   22.8521 I   0  0  0  0  0  0  0  0  0  0  0  0
   10.9163    8.8576   23.6309 H   0  0  0  0  0  0  0  0  0  0  0  0
    9.5895    8.3503   22.5569 H   0  0  0  0  0  0  0  0  0  0  0  0
   10.6818    9.6363   22.0465 H   0  0  0  0  0  0  0  0  0  0  0  0
    7.1743   13.8068   24.0126 H   0  0  0  0  0  0  0  0  0  0  0  0
    7.2666   13.2860   25.7131 H   0  0  0  0  0  0  0  0  0  0  0  0
    8.6575   14.0675   24.9634 H   0  0  0  0  0  0  0  0  0  0  0  0
  1  2  1  0  0  0  0
  1  3  2  0  0  0  0
  1  8  1  0  0  0  0
  2  4  1  0  0  0  0
  2  6  2  0  0  0  0
  3  5  1  0  0  0  0
  3  7  1  0  0  0  0
  6  7  1  0  0  0  0
  4  9  1  0  0  0  0
  4 10  1  0  0  0  0
  4 11  1  0  0  0  0
  5 12  1  0  0  0  0
  5 13  1  0  0  0  0
  5 14  1  0  0  0  0
M  END
> <Catalog ID>
Z56987423

> <MW>
222.949

> <MW (desalted)>
223.012

> <ClogP>
1.337

> <logS>
-1.09

> <HBD>
0

> <HBA>
1

> <TPSA>
26.03

> <RotBonds>
0

> <ROCS_ShapeQuery>
A71EV2A-x0451_0A_A71EV2A-x0310_0A_A71EV2A-x0416_0A_peptide

> <ROCS_TanimotoCombo>
0.269 

> <ROCS_ShapeTanimoto>
0.188 

> <ROCS_ColorTanimoto>
0.081 

> <ROCS_RefTversky>
0.174 

> <ROCS_RefColorTversky>
0.086 

> <ROCS_RefTverskyCombo>
0.260 

> <ROCS_FitTversky>
1.776 

> <ROCS_FitColorTversky>
0.588 

> <ROCS_FitTverskyCombo>
2.363 

> <ROCS_ColorScore>
-2.607

> <ROCS_Overlap>
1202.319

> <ROCS_Rank>
28                  

$$$$
untitled-dbase-5_0
  -OEChem-11132311083D

 14 14  0     0  0  0  0  0  0999 V2000
    9.4282   11.6174   23.6103 C   0  0  0  0  0  0  0  0  0  0  0  0
    9.2635   10.2230   23.5460 C   0  0  0  0  0  0  0  0  0  0  0  0
    8.3446   12.0403   24.3335 C   0  0  0  0  0  0  0  0  0  0  0  0
   10.1286    9.2277   22.8894 C   0  0  0  0  0  0  0  0  0  0  0  0
    7.8667   13.3539   24.7855 C   0  0  0  0  0  0  0  0  0  0  0  0
    8.1620    9.8125   24.1808 N   0  0  0  0  0  0  0  0  0  0  0  0
    7.5814   10.9724   24.6798 O   0  0  0  0  0  0  0  0  0  0  0  0
   10.8123   12.6199   22.8691 Br  0  0  0  0  0  0  0  0  0  0  0  0
   10.9036    8.8534   23.5799 H   0  0  0  0  0  0  0  0  0  0  0  0
    9.5579    8.3549   22.5254 H   0  0  0  0  0  0  0  0  0  0  0  0
   10.6435    9.6423   22.0045 H   0  0  0  0  0  0  0  0  0  0  0  0
    7.1952   13.8179   24.0408 H   0  0  0  0  0  0  0  0  0  0  0  0
    7.3094   13.2937   25.7389 H   0  0  0  0  0  0  0  0  0  0  0  0
    8.6957   14.0631   24.9684 H   0  0  0  0  0  0  0  0  0  0  0  0
  1  2  1  0  0  0  0
  1  3  2  0  0  0  0
  1  8  1  0  0  0  0
  2  4  1  0  0  0  0
  2  6  2  0  0  0  0
  3  5  1  0  0  0  0
  3  7  1  0  0  0  0
  6  7  1  0  0  0  0
  4  9  1  0  0  0  0
  4 10  1  0  0  0  0
  4 11  1  0  0  0  0
  5 12  1  0  0  0  0
  5 13  1  0  0  0  0
  5 14  1  0  0  0  0
M  END
> <Catalog ID>
Z372796498

> <MW>
174.963

> <MW (desalted)>
176.011

> <ClogP>
1.677

> <logS>
-1.2

> <HBD>
0

> <HBA>
1

> <TPSA>
26.03

> <RotBonds>
0

> <ROCS_ShapeQuery>
A71EV2A-x0451_0A_A71EV2A-x0310_0A_A71EV2A-x0416_0A_peptide

> <ROCS_TanimotoCombo>
0.269 

> <ROCS_ShapeTanimoto>
0.188 

> <ROCS_ColorTanimoto>
0.081 

> <ROCS_RefTversky>
0.174 

> <ROCS_RefColorTversky>
0.086 

> <ROCS_RefTverskyCombo>
0.260 

> <ROCS_FitTversky>
1.765 

> <ROCS_FitColorTversky>
0.588 

> <ROCS_FitTverskyCombo>
2.353 

> <ROCS_ColorScore>
-2.607

> <ROCS_Overlap>
1200.693

> <ROCS_Rank>
29                  

$$$$
untitled-dbase-31_0
  -OEChem-11132311083D

 14 14  0     0  0  0  0  0  0999 V2000
    7.4749   10.7685   24.6673 C   0  0  0  0  0  0  0  0  0  0  0  0
    7.9651   12.0506   24.5519 C   0  0  0  0  0  0  0  0  0  0  0  0
    9.3027    9.9690   23.5495 C   0  0  0  0  0  0  0  0  0  0  0  0
    9.7926   11.2512   23.4333 C   0  0  0  0  0  0  0  0  0  0  0  0
   11.5906   12.7236   22.6494 C   0  0  0  0  0  0  0  0  0  0  0  0
   11.0526   11.5150   22.7632 C   0  0  0  0  0  0  0  0  0  0  0  0
    8.1350    9.7046   24.1682 N   0  0  0  0  0  0  0  0  0  0  0  0
    9.1327   12.3150   23.9327 N   0  0  0  0  0  0  0  0  0  0  0  0
    6.5359   10.5562   25.1633 H   0  0  0  0  0  0  0  0  0  0  0  0
    7.4348   12.9048   24.9545 H   0  0  0  0  0  0  0  0  0  0  0  0
    9.8250    9.1052   23.1537 H   0  0  0  0  0  0  0  0  0  0  0  0
   12.5447   12.8273   22.1414 H   0  0  0  0  0  0  0  0  0  0  0  0
   11.1485   13.6308   23.0435 H   0  0  0  0  0  0  0  0  0  0  0  0
   11.5845   10.6659   22.3627 H   0  0  0  0  0  0  0  0  0  0  0  0
  1  2  2  0  0  0  0
  1  7  1  0  0  0  0
  2  8  1  0  0  0  0
  3  4  1  0  0  0  0
  3  7  2  0  0  0  0
  4  6  1  0  0  0  0
  4  8  2  0  0  0  0
  5  6  2  0  0  0  0
  1  9  1  0  0  0  0
  2 10  1  0  0  0  0
  3 11  1  0  0  0  0
  5 12  1  0  0  0  0
  5 13  1  0  0  0  0
  6 14  1  0  0  0  0
M  END
> <Catalog ID>
Z1255395194

> <MW>
106.053

> <MW (desalted)>
106.125

> <ClogP>
0.412

> <logS>
0.175

> <HBD>
0

> <HBA>
2

> <TPSA>
25.78

> <RotBonds>
1

> <ROCS_ShapeQuery>
A71EV2A-x0451_0A_A71EV2A-x0310_0A_A71EV2A-x0416_0A_peptide

> <ROCS_TanimotoCombo>
0.269 

> <ROCS_ShapeTanimoto>
0.187 

> <ROCS_ColorTanimoto>
0.082 

> <ROCS_RefTversky>
0.174 

> <ROCS_RefColorTversky>
0.089 

> <ROCS_RefTverskyCombo>
0.262 

> <ROCS_FitTversky>
1.728 

> <ROCS_FitColorTversky>
0.501 

> <ROCS_FitTverskyCombo>
2.229 

> <ROCS_ColorScore>
-2.697

> <ROCS_Overlap>
1199.912

> <ROCS_Rank>
30                  

$$$$
untitled-dbase-3_0
  -OEChem-11132311083D

 13 13  0     0  0  0  0  0  0999 V2000
   10.2333   14.6516   23.4746 C   0  0  0  0  0  0  0  0  0  0  0  0
    9.7630   13.5585   23.6354 C   0  0  0  0  0  0  0  0  0  0  0  0
    9.8226   11.1440   23.2704 C   0  0  0  0  0  0  0  0  0  0  0  0
    8.0394   12.1005   24.5703 C   0  0  0  0  0  0  0  0  0  0  0  0
    9.2416    9.9045   23.4848 C   0  0  0  0  0  0  0  0  0  0  0  0
    7.5381   10.8183   24.7263 C   0  0  0  0  0  0  0  0  0  0  0  0
    9.2038   12.2579   23.8269 C   0  0  0  0  0  0  0  0  0  0  0  0
    8.1112    9.7123   24.2010 N   0  0  0  0  0  0  0  0  0  0  0  0
   10.6506   15.6210   23.3324 H   0  0  0  0  0  0  0  0  0  0  0  0
   10.7324   11.2273   22.6847 H   0  0  0  0  0  0  0  0  0  0  0  0
    7.5286   12.9458   25.0199 H   0  0  0  0  0  0  0  0  0  0  0  0
    9.6850    9.0044   23.0720 H   0  0  0  0  0  0  0  0  0  0  0  0
    6.6322   10.6421   25.2971 H   0  0  0  0  0  0  0  0  0  0  0  0
  1  2  3  0  0  0  0
  2  7  1  0  0  0  0
  3  5  2  0  0  0  0
  3  7  1  0  0  0  0
  4  6  1  0  0  0  0
  4  7  2  0  0  0  0
  5  8  1  0  0  0  0
  6  8  2  0  0  0  0
  1  9  1  0  0  0  0
  3 10  1  0  0  0  0
  4 11  1  0  0  0  0
  5 12  1  0  0  0  0
  6 13  1  0  0  0  0
M  END
> <Catalog ID>
Z1143360480

> <MW>
103.042

> <MW (desalted)>
103.121

> <ClogP>
0.915

> <logS>
-1.004

> <HBD>
0

> <HBA>
1

> <TPSA>
12.89

> <RotBonds>
0

> <ROCS_ShapeQuery>
A71EV2A-x0451_0A_A71EV2A-x0310_0A_A71EV2A-x0416_0A_peptide

> <ROCS_TanimotoCombo>
0.267 

> <ROCS_ShapeTanimoto>
0.184 

> <ROCS_ColorTanimoto>
0.083 

> <ROCS_RefTversky>
0.171 

> <ROCS_RefColorTversky>
0.088 

> <ROCS_RefTverskyCombo>
0.259 

> <ROCS_FitTversky>
1.710 

> <ROCS_FitColorTversky>
0.603 

> <ROCS_FitTverskyCombo>
2.313 

> <ROCS_ColorScore>
-2.674

> <ROCS_Overlap>
1181.164

> <ROCS_Rank>
31                  

$$$$
untitled-dbase-65_1
  -OEChem-11132311083D

 15 15  0     0  0  0  0  0  0999 V2000
    9.7760   11.2315   23.2966 C   0  0  0  0  0  0  0  0  0  0  0  0
    9.1085   12.2961   23.8917 C   0  0  0  0  0  0  0  0  0  0  0  0
    9.2527    9.9601   23.4688 C   0  0  0  0  0  0  0  0  0  0  0  0
    7.5125   10.7518   24.7428 C   0  0  0  0  0  0  0  0  0  0  0  0
    7.9544   12.0603   24.6305 C   0  0  0  0  0  0  0  0  0  0  0  0
    6.5604   13.0286   26.4009 C   0  0  0  0  0  0  0  0  0  0  0  0
    7.2355   13.1504   25.2642 C   0  0  0  0  0  0  0  0  0  0  0  0
    8.1342    9.6919   24.1791 N   0  0  0  0  0  0  0  0  0  0  0  0
   10.6772   11.3917   22.7161 H   0  0  0  0  0  0  0  0  0  0  0  0
    9.4993   13.3034   23.7714 H   0  0  0  0  0  0  0  0  0  0  0  0
    9.7369    9.0964   23.0253 H   0  0  0  0  0  0  0  0  0  0  0  0
    6.6179   10.5009   25.3056 H   0  0  0  0  0  0  0  0  0  0  0  0
    6.0612   13.9015   26.8105 H   0  0  0  0  0  0  0  0  0  0  0  0
    6.4783   12.1100   26.9696 H   0  0  0  0  0  0  0  0  0  0  0  0
    7.2843   14.1162   24.7856 H   0  0  0  0  0  0  0  0  0  0  0  0
  1  2  2  0  0  0  0
  1  3  1  0  0  0  0
  2  5  1  0  0  0  0
  3  8  2  0  0  0  0
  4  5  2  0  0  0  0
  4  8  1  0  0  0  0
  5  7  1  0  0  0  0
  6  7  2  0  0  0  0
  1  9  1  0  0  0  0
  2 10  1  0  0  0  0
  3 11  1  0  0  0  0
  4 12  1  0  0  0  0
  6 13  1  0  0  0  0
  6 14  1  0  0  0  0
  7 15  1  0  0  0  0
M  END
> <Catalog ID>
Z1192378404

> <MW>
105.058

> <MW (desalted)>
105.137

> <ClogP>
1.369

> <logS>
-0.995

> <HBD>
0

> <HBA>
1

> <TPSA>
12.89

> <RotBonds>
1

> <ROCS_ShapeQuery>
A71EV2A-x0451_0A_A71EV2A-x0310_0A_A71EV2A-x0416_0A_peptide

> <ROCS_TanimotoCombo>
0.262 

> <ROCS_ShapeTanimoto>
0.178 

> <ROCS_ColorTanimoto>
0.084 

> <ROCS_RefTversky>
0.166 

> <ROCS_RefColorTversky>
0.088 

> <ROCS_RefTverskyCombo>
0.255 

> <ROCS_FitTversky>
1.670 

> <ROCS_FitColorTversky>
0.603 

> <ROCS_FitTverskyCombo>
2.274 

> <ROCS_ColorScore>
-2.677

> <ROCS_Overlap>
1150.812

> <ROCS_Rank>
32                  

$$$$
untitled-dbase-79_0
  -OEChem-11132311083D

 14 14  0     0  0  0  0  0  0999 V2000
   10.9775    8.5207   22.5356 C   0  0  0  0  0  0  0  0  0  0  0  0
   10.1991    9.2913   23.0275 C   0  0  0  0  0  0  0  0  0  0  0  0
    7.5707   10.9900   24.6094 C   0  0  0  0  0  0  0  0  0  0  0  0
    8.3415   12.0814   24.2849 C   0  0  0  0  0  0  0  0  0  0  0  0
    9.2777   10.2041   23.6100 C   0  0  0  0  0  0  0  0  0  0  0  0
   10.5343   12.3277   23.1120 C   0  0  0  0  0  0  0  0  0  0  0  0
    8.1592    9.8244   24.1868 N   0  0  0  0  0  0  0  0  0  0  0  0
    9.4318   11.5621   23.6456 N   0  0  0  0  0  0  0  0  0  0  0  0
   11.6680    7.8376   22.0989 H   0  0  0  0  0  0  0  0  0  0  0  0
    6.6220   10.9843   25.1259 H   0  0  0  0  0  0  0  0  0  0  0  0
    8.2124   13.1423   24.4481 H   0  0  0  0  0  0  0  0  0  0  0  0
   11.2877   12.4269   23.8978 H   0  0  0  0  0  0  0  0  0  0  0  0
   10.9523   11.8085   22.2450 H   0  0  0  0  0  0  0  0  0  0  0  0
   10.1735   13.3119   22.8003 H   0  0  0  0  0  0  0  0  0  0  0  0
  1  2  3  0  0  0  0
  2  5  1  0  0  0  0
  3  4  2  0  0  0  0
  3  7  1  0  0  0  0
  4  8  1  0  0  0  0
  5  7  2  0  0  0  0
  5  8  1  0  0  0  0
  6  8  1  0  0  0  0
  1  9  1  0  0  0  0
  3 10  1  0  0  0  0
  4 11  1  0  0  0  0
  6 12  1  0  0  0  0
  6 13  1  0  0  0  0
  6 14  1  0  0  0  0
M  END
> <Catalog ID>
Z1183454927

> <MW>
106.053

> <MW (desalted)>
106.125

> <ClogP>
0.257

> <logS>
0.05

> <HBD>
0

> <HBA>
1

> <TPSA>
17.82

> <RotBonds>
0

> <ROCS_ShapeQuery>
A71EV2A-x0451_0A_A71EV2A-x0310_0A_A71EV2A-x0416_0A_peptide

> <ROCS_TanimotoCombo>
0.258 

> <ROCS_ShapeTanimoto>
0.180 

> <ROCS_ColorTanimoto>
0.079 

> <ROCS_RefTversky>
0.168 

> <ROCS_RefColorTversky>
0.086 

> <ROCS_RefTverskyCombo>
0.254 

> <ROCS_FitTversky>
1.664 

> <ROCS_FitColorTversky>
0.483 

> <ROCS_FitTverskyCombo>
2.147 

> <ROCS_ColorScore>
-2.603

> <ROCS_Overlap>
1159.871

> <ROCS_Rank>
33                  

$$$$
untitled-dbase-75_0
  -OEChem-11132311083D

 13 13  0     0  0  0  0  0  0999 V2000
    6.6766   14.0185   25.8414 C   0  0  0  0  0  0  0  0  0  0  0  0
    7.2629   13.1219   25.2991 C   0  0  0  0  0  0  0  0  0  0  0  0
    9.7575   11.2418   23.2808 C   0  0  0  0  0  0  0  0  0  0  0  0
    9.0995   12.3006   23.8966 C   0  0  0  0  0  0  0  0  0  0  0  0
    9.2395    9.9683   23.4525 C   0  0  0  0  0  0  0  0  0  0  0  0
    7.5219   10.7470   24.7647 C   0  0  0  0  0  0  0  0  0  0  0  0
    7.9596   12.0570   24.6546 C   0  0  0  0  0  0  0  0  0  0  0  0
    8.1347    9.6926   24.1812 N   0  0  0  0  0  0  0  0  0  0  0  0
    6.1570   14.8140   26.3223 H   0  0  0  0  0  0  0  0  0  0  0  0
   10.6474   11.4074   22.6844 H   0  0  0  0  0  0  0  0  0  0  0  0
    9.4865   13.3095   23.7773 H   0  0  0  0  0  0  0  0  0  0  0  0
    9.7162    9.1089   22.9933 H   0  0  0  0  0  0  0  0  0  0  0  0
    6.6379   10.4898   25.3415 H   0  0  0  0  0  0  0  0  0  0  0  0
  1  2  3  0  0  0  0
  2  7  1  0  0  0  0
  3  4  2  0  0  0  0
  3  5  1  0  0  0  0
  4  7  1  0  0  0  0
  5  8  2  0  0  0  0
  6  7  2  0  0  0  0
  6  8  1  0  0  0  0
  1  9  1  0  0  0  0
  3 10  1  0  0  0  0
  4 11  1  0  0  0  0
  5 12  1  0  0  0  0
  6 13  1  0  0  0  0
M  END
> <Catalog ID>
Z1080385472

> <MW>
103.042

> <MW (desalted)>
103.121

> <ClogP>
0.915

> <logS>
-1.004

> <HBD>
0

> <HBA>
1

> <TPSA>
12.89

> <RotBonds>
0

> <ROCS_ShapeQuery>
A71EV2A-x0451_0A_A71EV2A-x0310_0A_A71EV2A-x0416_0A_peptide

> <ROCS_TanimotoCombo>
0.258 

> <ROCS_ShapeTanimoto>
0.175 

> <ROCS_ColorTanimoto>
0.084 

> <ROCS_RefTversky>
0.163 

> <ROCS_RefColorTversky>
0.088 

> <ROCS_RefTverskyCombo>
0.252 

> <ROCS_FitTversky>
1.637 

> <ROCS_FitColorTversky>
0.604 

> <ROCS_FitTverskyCombo>
2.240 

> <ROCS_ColorScore>
-2.677

> <ROCS_Overlap>
1130.256

> <ROCS_Rank>
34                  

$$$$
untitled-dbase-53_0
  -OEChem-11132311083D

 13 13  0     0  0  0  0  0  0999 V2000
    7.6162   10.9952   24.6540 C   0  0  0  0  0  0  0  0  0  0  0  0
    8.3914   12.0765   24.3073 C   0  0  0  0  0  0  0  0  0  0  0  0
    9.2533   10.1927   23.5557 C   0  0  0  0  0  0  0  0  0  0  0  0
   10.6991   13.5701   23.0711 C   0  0  0  0  0  0  0  0  0  0  0  0
   10.4852   12.2488   23.0456 C   0  0  0  0  0  0  0  0  0  0  0  0
    8.1583    9.8254   24.1834 N   0  0  0  0  0  0  0  0  0  0  0  0
    9.4367   11.5467   23.6045 N   0  0  0  0  0  0  0  0  0  0  0  0
    6.6954   11.0001   25.2188 H   0  0  0  0  0  0  0  0  0  0  0  0
    8.2884   13.1366   24.4964 H   0  0  0  0  0  0  0  0  0  0  0  0
    9.9431    9.5260   23.0549 H   0  0  0  0  0  0  0  0  0  0  0  0
   11.5767   13.9819   22.5825 H   0  0  0  0  0  0  0  0  0  0  0  0
   10.0369   14.2737   23.5600 H   0  0  0  0  0  0  0  0  0  0  0  0
   11.2196   11.6387   22.5236 H   0  0  0  0  0  0  0  0  0  0  0  0
  1  2  2  0  0  0  0
  1  6  1  0  0  0  0
  2  7  1  0  0  0  0
  3  6  2  0  0  0  0
  3  7  1  0  0  0  0
  4  5  2  0  0  0  0
  5  7  1  0  0  0  0
  1  8  1  0  0  0  0
  2  9  1  0  0  0  0
  3 10  1  0  0  0  0
  4 11  1  0  0  0  0
  4 12  1  0  0  0  0
  5 13  1  0  0  0  0
M  END
> <Catalog ID>
Z104472712

> <MW>
94.053

> <MW (desalted)>
94.115

> <ClogP>
0.222

> <logS>
-0.424

> <HBD>
0

> <HBA>
1

> <TPSA>
17.82

> <RotBonds>
1

> <ROCS_ShapeQuery>
A71EV2A-x0451_0A_A71EV2A-x0310_0A_A71EV2A-x0416_0A_peptide

> <ROCS_TanimotoCombo>
0.258 

> <ROCS_ShapeTanimoto>
0.177 

> <ROCS_ColorTanimoto>
0.081 

> <ROCS_RefTversky>
0.165 

> <ROCS_RefColorTversky>
0.086 

> <ROCS_RefTverskyCombo>
0.251 

> <ROCS_FitTversky>
1.736 

> <ROCS_FitColorTversky>
0.587 

> <ROCS_FitTverskyCombo>
2.323 

> <ROCS_ColorScore>
-2.603

> <ROCS_Overlap>
1136.982

> <ROCS_Rank>
35                  

$$$$
untitled-dbase-51_0
  -OEChem-11132311083D

 13 13  0     0  0  0  0  0  0999 V2000
    7.7477   11.2044   24.1359 C   0  0  0  0  0  0  0  0  0  0  0  0
    9.8800   10.7603   23.8345 C   0  0  0  0  0  0  0  0  0  0  0  0
    8.9884   11.8049   23.8498 C   0  0  0  0  0  0  0  0  0  0  0  0
   10.5106   13.6539   23.3212 C   0  0  0  0  0  0  0  0  0  0  0  0
    9.2878   13.1616   23.6242 C   0  0  0  0  0  0  0  0  0  0  0  0
    7.8390    9.8809   24.2910 N   0  0  0  0  0  0  0  0  0  0  0  0
    9.1477    9.6412   24.1016 N   0  0  0  0  0  0  0  0  0  0  0  0
    6.7782   11.6716   24.2396 H   0  0  0  0  0  0  0  0  0  0  0  0
   10.9460   10.7083   23.6613 H   0  0  0  0  0  0  0  0  0  0  0  0
   10.6486   14.7173   23.1507 H   0  0  0  0  0  0  0  0  0  0  0  0
   11.3892   13.0276   23.2220 H   0  0  0  0  0  0  0  0  0  0  0  0
    8.4769   13.9035   23.6646 H   0  0  0  0  0  0  0  0  0  0  0  0
    9.4751    8.6857   24.1702 H   0  0  0  0  0  0  0  0  0  0  0  0
  1  3  1  0  0  0  0
  1  6  2  0  0  0  0
  2  3  2  0  0  0  0
  2  7  1  0  0  0  0
  3  5  1  0  0  0  0
  4  5  2  0  0  0  0
  6  7  1  0  0  0  0
  1  8  1  0  0  0  0
  2  9  1  0  0  0  0
  4 10  1  0  0  0  0
  4 11  1  0  0  0  0
  5 12  1  0  0  0  0
  7 13  1  0  0  0  0
M  END
> <Catalog ID>
Z2511836057

> <MW>
94.053

> <MW (desalted)>
94.115

> <ClogP>
0.965

> <logS>
-0.782

> <HBD>
1

> <HBA>
1

> <TPSA>
28.68

> <RotBonds>
1

> <ROCS_ShapeQuery>
A71EV2A-x0451_0A_A71EV2A-x0310_0A_A71EV2A-x0416_0A_peptide

> <ROCS_TanimotoCombo>
0.258 

> <ROCS_ShapeTanimoto>
0.164 

> <ROCS_ColorTanimoto>
0.094 

> <ROCS_RefTversky>
0.154 

> <ROCS_RefColorTversky>
0.101 

> <ROCS_RefTverskyCombo>
0.255 

> <ROCS_FitTversky>
1.633 

> <ROCS_FitColorTversky>
0.569 

> <ROCS_FitTverskyCombo>
2.201 

> <ROCS_ColorScore>
-3.064

> <ROCS_Overlap>
1064.859

> <ROCS_Rank>
36                  

$$$$
untitled-dbase-1_0
  -OEChem-11132311083D

 12 12  0     0  0  0  0  0  0999 V2000
   12.0008   11.7770   22.1062 C   0  0  0  0  0  0  0  0  0  0  0  0
   10.9820   11.5367   22.6944 C   0  0  0  0  0  0  0  0  0  0  0  0
    7.5031   10.7720   24.7109 C   0  0  0  0  0  0  0  0  0  0  0  0
    7.9992   12.0516   24.5916 C   0  0  0  0  0  0  0  0  0  0  0  0
    9.2785    9.9718   23.5122 C   0  0  0  0  0  0  0  0  0  0  0  0
    9.7743   11.2514   23.3921 C   0  0  0  0  0  0  0  0  0  0  0  0
    8.1339    9.7092   24.1734 N   0  0  0  0  0  0  0  0  0  0  0  0
    9.1437   12.3142   23.9300 N   0  0  0  0  0  0  0  0  0  0  0  0
   12.9046   11.9902   21.5849 H   0  0  0  0  0  0  0  0  0  0  0  0
    6.5832   10.5618   25.2423 H   0  0  0  0  0  0  0  0  0  0  0  0
    7.4917   12.9051   25.0237 H   0  0  0  0  0  0  0  0  0  0  0  0
    9.7774    9.1100   23.0838 H   0  0  0  0  0  0  0  0  0  0  0  0
  1  2  3  0  0  0  0
  2  6  1  0  0  0  0
  3  4  2  0  0  0  0
  3  7  1  0  0  0  0
  4  8  1  0  0  0  0
  5  6  1  0  0  0  0
  5  7  2  0  0  0  0
  6  8  2  0  0  0  0
  1  9  1  0  0  0  0
  3 10  1  0  0  0  0
  4 11  1  0  0  0  0
  5 12  1  0  0  0  0
M  END
> <Catalog ID>
Z1183458138

> <MW>
104.037

> <MW (desalted)>
104.109

> <ClogP>
-0.042

> <logS>
-0.063

> <HBD>
0

> <HBA>
2

> <TPSA>
25.78

> <RotBonds>
0

> <ROCS_ShapeQuery>
A71EV2A-x0451_0A_A71EV2A-x0310_0A_A71EV2A-x0416_0A_peptide

> <ROCS_TanimotoCombo>
0.257 

> <ROCS_ShapeTanimoto>
0.175 

> <ROCS_ColorTanimoto>
0.082 

> <ROCS_RefTversky>
0.164 

> <ROCS_RefColorTversky>
0.089 

> <ROCS_RefTverskyCombo>
0.253 

> <ROCS_FitTversky>
1.632 

> <ROCS_FitColorTversky>
0.501 

> <ROCS_FitTverskyCombo>
2.132 

> <ROCS_ColorScore>
-2.697

> <ROCS_Overlap>
1134.889

> <ROCS_Rank>
37                  

$$$$
untitled-dbase-16_0
  -OEChem-11132311083D

 14 14  0     0  0  0  0  0  0999 V2000
    7.9271   12.0669   24.5955 C   0  0  0  0  0  0  0  0  0  0  0  0
    7.4865   10.7649   24.7188 C   0  0  0  0  0  0  0  0  0  0  0  0
    9.0965   12.2365   23.8829 C   0  0  0  0  0  0  0  0  0  0  0  0
    9.2584    9.9986   23.5187 C   0  0  0  0  0  0  0  0  0  0  0  0
   11.1049    9.0056   22.2460 C   0  0  0  0  0  0  0  0  0  0  0  0
    9.9789    8.8793   22.9365 C   0  0  0  0  0  0  0  0  0  0  0  0
    8.1297    9.7028   24.1911 N   0  0  0  0  0  0  0  0  0  0  0  0
    9.7909   11.2209   23.3290 N   0  0  0  0  0  0  0  0  0  0  0  0
    7.3910   12.8999   25.0298 H   0  0  0  0  0  0  0  0  0  0  0  0
    6.5765   10.5331   25.2620 H   0  0  0  0  0  0  0  0  0  0  0  0
    9.5207   13.2237   23.7336 H   0  0  0  0  0  0  0  0  0  0  0  0
   11.5834    8.1120   21.8566 H   0  0  0  0  0  0  0  0  0  0  0  0
   11.6006    9.9484   22.0475 H   0  0  0  0  0  0  0  0  0  0  0  0
    9.5760    7.8938   23.1078 H   0  0  0  0  0  0  0  0  0  0  0  0
  1  2  1  0  0  0  0
  1  3  2  0  0  0  0
  2  7  2  0  0  0  0
  3  8  1  0  0  0  0
  4  6  1  0  0  0  0
  4  7  1  0  0  0  0
  4  8  2  0  0  0  0
  5  6  2  0  0  0  0
  1  9  1  0  0  0  0
  2 10  1  0  0  0  0
  3 11  1  0  0  0  0
  5 12  1  0  0  0  0
  5 13  1  0  0  0  0
  6 14  1  0  0  0  0
M  END
> <Catalog ID>
Z1251352149

> <MW>
106.053

> <MW (desalted)>
106.125

> <ClogP>
0.412

> <logS>
-0.309

> <HBD>
0

> <HBA>
2

> <TPSA>
25.78

> <RotBonds>
1

> <ROCS_ShapeQuery>
A71EV2A-x0451_0A_A71EV2A-x0310_0A_A71EV2A-x0416_0A_peptide

> <ROCS_TanimotoCombo>
0.257 

> <ROCS_ShapeTanimoto>
0.176 

> <ROCS_ColorTanimoto>
0.081 

> <ROCS_RefTversky>
0.164 

> <ROCS_RefColorTversky>
0.088 

> <ROCS_RefTverskyCombo>
0.253 

> <ROCS_FitTversky>
1.636 

> <ROCS_FitColorTversky>
0.497 

> <ROCS_FitTverskyCombo>
2.132 

> <ROCS_ColorScore>
-2.677

> <ROCS_Overlap>
1136.676

> <ROCS_Rank>
38                  

$$$$
untitled-dbase-32_0
  -OEChem-11132311083D

 12 12  0     0  0  0  0  0  0999 V2000
    6.6536   14.0414   25.7594 C   0  0  0  0  0  0  0  0  0  0  0  0
    7.2405   13.1291   25.2446 C   0  0  0  0  0  0  0  0  0  0  0  0
    7.5058   10.7406   24.7453 C   0  0  0  0  0  0  0  0  0  0  0  0
    9.0848   12.2366   23.8937 C   0  0  0  0  0  0  0  0  0  0  0  0
    9.2487   10.0067   23.4840 C   0  0  0  0  0  0  0  0  0  0  0  0
    7.9359   12.0472   24.6343 C   0  0  0  0  0  0  0  0  0  0  0  0
    8.1402    9.6921   24.1810 N   0  0  0  0  0  0  0  0  0  0  0  0
    9.7693   11.2354   23.3026 N   0  0  0  0  0  0  0  0  0  0  0  0
    6.1327   14.8504   26.2158 H   0  0  0  0  0  0  0  0  0  0  0  0
    6.6114   10.4804   25.3040 H   0  0  0  0  0  0  0  0  0  0  0  0
    9.5099   13.2248   23.7439 H   0  0  0  0  0  0  0  0  0  0  0  0
    9.7780    9.1838   23.0194 H   0  0  0  0  0  0  0  0  0  0  0  0
  1  2  3  0  0  0  0
  2  6  1  0  0  0  0
  3  6  1  0  0  0  0
  3  7  2  0  0  0  0
  4  6  2  0  0  0  0
  4  8  1  0  0  0  0
  5  7  1  0  0  0  0
  5  8  2  0  0  0  0
  1  9  1  0  0  0  0
  3 10  1  0  0  0  0
  4 11  1  0  0  0  0
  5 12  1  0  0  0  0
M  END
> <Catalog ID>
Z1080385536

> <MW>
104.037

> <MW (desalted)>
104.109

> <ClogP>
-0.042

> <logS>
-0.93

> <HBD>
0

> <HBA>
2

> <TPSA>
25.78

> <RotBonds>
0

> <ROCS_ShapeQuery>
A71EV2A-x0451_0A_A71EV2A-x0310_0A_A71EV2A-x0416_0A_peptide

> <ROCS_TanimotoCombo>
0.256 

> <ROCS_ShapeTanimoto>
0.175 

> <ROCS_ColorTanimoto>
0.081 

> <ROCS_RefTversky>
0.164 

> <ROCS_RefColorTversky>
0.088 

> <ROCS_RefTverskyCombo>
0.252 

> <ROCS_FitTversky>
1.634 

> <ROCS_FitColorTversky>
0.497 

> <ROCS_FitTverskyCombo>
2.130 

> <ROCS_ColorScore>
-2.677

> <ROCS_Overlap>
1134.619

> <ROCS_Rank>
39                  

$$$$
untitled-dbase-17_1
  -OEChem-11132311083D

 12 12  0     0  0  0  0  0  0999 V2000
    9.3060   10.1841   23.5269 C   0  0  0  0  0  0  0  0  0  0  0  0
    7.5577   10.8555   24.6682 C   0  0  0  0  0  0  0  0  0  0  0  0
    9.5668   11.5383   23.5281 C   0  0  0  0  0  0  0  0  0  0  0  0
   10.8230   13.5888   23.0455 C   0  0  0  0  0  0  0  0  0  0  0  0
   10.6400   12.2518   22.9601 C   0  0  0  0  0  0  0  0  0  0  0  0
    8.1546    9.7906   24.1806 N   0  0  0  0  0  0  0  0  0  0  0  0
    8.3256   12.3625   24.3776 S   0  0  0  0  0  0  0  0  0  0  0  0
    9.9263    9.4283   23.0624 H   0  0  0  0  0  0  0  0  0  0  0  0
    6.6310   10.7928   25.2215 H   0  0  0  0  0  0  0  0  0  0  0  0
   11.6891   14.0553   22.5858 H   0  0  0  0  0  0  0  0  0  0  0  0
   10.1412   14.2440   23.5744 H   0  0  0  0  0  0  0  0  0  0  0  0
   11.4228   11.7008   22.4196 H   0  0  0  0  0  0  0  0  0  0  0  0
  1  3  2  0  0  0  0
  1  6  1  0  0  0  0
  2  6  2  0  0  0  0
  2  7  1  0  0  0  0
  3  5  1  0  0  0  0
  3  7  1  0  0  0  0
  4  5  2  0  0  0  0
  1  8  1  0  0  0  0
  2  9  1  0  0  0  0
  4 10  1  0  0  0  0
  4 11  1  0  0  0  0
  5 12  1  0  0  0  0
M  END
> <Catalog ID>
Z1641893878

> <MW>
111.014

> <MW (desalted)>
111.165

> <ClogP>
1.21

> <logS>
-1.274

> <HBD>
0

> <HBA>
1

> <TPSA>
12.89

> <RotBonds>
1

> <ROCS_ShapeQuery>
A71EV2A-x0451_0A_A71EV2A-x0310_0A_A71EV2A-x0416_0A_peptide

> <ROCS_TanimotoCombo>
0.255 

> <ROCS_ShapeTanimoto>
0.174 

> <ROCS_ColorTanimoto>
0.082 

> <ROCS_RefTversky>
0.161 

> <ROCS_RefColorTversky>
0.087 

> <ROCS_RefTverskyCombo>
0.248 

> <ROCS_FitTversky>
1.768 

> <ROCS_FitColorTversky>
0.592 

> <ROCS_FitTverskyCombo>
2.360 

> <ROCS_ColorScore>
-2.626

> <ROCS_Overlap>
1115.604

> <ROCS_Rank>
40                  

$$$$
untitled-dbase-43_0
  -OEChem-11132311083D

 13 13  0     0  0  0  0  0  0999 V2000
    6.7151   14.1501   25.9067 C   0  0  0  0  0  0  0  0  0  0  0  0
    7.2586   13.2234   25.3703 C   0  0  0  0  0  0  0  0  0  0  0  0
    9.6267   11.1821   23.3898 C   0  0  0  0  0  0  0  0  0  0  0  0
    9.0393    9.9340   23.5642 C   0  0  0  0  0  0  0  0  0  0  0  0
    9.0546   12.3025   23.9820 C   0  0  0  0  0  0  0  0  0  0  0  0
    7.8895    9.8603   24.3339 C   0  0  0  0  0  0  0  0  0  0  0  0
    7.9040   12.1228   24.7328 C   0  0  0  0  0  0  0  0  0  0  0  0
    7.3046   10.9263   24.9248 N   0  0  0  0  0  0  0  0  0  0  0  0
    6.2332   14.9722   26.3821 H   0  0  0  0  0  0  0  0  0  0  0  0
   10.5285   11.2815   22.7932 H   0  0  0  0  0  0  0  0  0  0  0  0
    9.4679    9.0470   23.1120 H   0  0  0  0  0  0  0  0  0  0  0  0
    9.5057   13.2809   23.8511 H   0  0  0  0  0  0  0  0  0  0  0  0
    7.3927    8.9101   24.5003 H   0  0  0  0  0  0  0  0  0  0  0  0
  1  2  3  0  0  0  0
  2  7  1  0  0  0  0
  3  4  1  0  0  0  0
  3  5  2  0  0  0  0
  4  6  2  0  0  0  0
  5  7  1  0  0  0  0
  6  8  1  0  0  0  0
  7  8  2  0  0  0  0
  1  9  1  0  0  0  0
  3 10  1  0  0  0  0
  4 11  1  0  0  0  0
  5 12  1  0  0  0  0
  6 13  1  0  0  0  0
M  END
> <Catalog ID>
Z1143356368

> <MW>
103.042

> <MW (desalted)>
103.121

> <ClogP>
0.915

> <logS>
-1.232

> <HBD>
0

> <HBA>
1

> <TPSA>
12.89

> <RotBonds>
0

> <ROCS_ShapeQuery>
A71EV2A-x0451_0A_A71EV2A-x0310_0A_A71EV2A-x0416_0A_peptide

> <ROCS_TanimotoCombo>
0.254 

> <ROCS_ShapeTanimoto>
0.172 

> <ROCS_ColorTanimoto>
0.082 

> <ROCS_RefTversky>
0.161 

> <ROCS_RefColorTversky>
0.087 

> <ROCS_RefTverskyCombo>
0.248 

> <ROCS_FitTversky>
1.611 

> <ROCS_FitColorTversky>
0.593 

> <ROCS_FitTverskyCombo>
2.204 

> <ROCS_ColorScore>
-2.630

> <ROCS_Overlap>
1113.934

> <ROCS_Rank>
41                  

$$$$
untitled-dbase-63_0
  -OEChem-11132311083D

 11 11  0     0  0  0  0  0  0999 V2000
    8.0368   12.0719   24.6597 C   0  0  0  0  0  0  0  0  0  0  0  0
    9.7417   11.2003   23.2044 C   0  0  0  0  0  0  0  0  0  0  0  0
    7.5699   10.7750   24.8007 C   0  0  0  0  0  0  0  0  0  0  0  0
    9.1986    9.9424   23.4107 C   0  0  0  0  0  0  0  0  0  0  0  0
    9.1438   12.2801   23.8446 C   0  0  0  0  0  0  0  0  0  0  0  0
    8.1243    9.7011   24.1950 N   0  0  0  0  0  0  0  0  0  0  0  0
    9.7716   13.8669   23.6299 Cl  0  0  0  0  0  0  0  0  0  0  0  0
    7.5440   12.8897   25.1753 H   0  0  0  0  0  0  0  0  0  0  0  0
   10.6068   11.3239   22.5613 H   0  0  0  0  0  0  0  0  0  0  0  0
    6.7093   10.5594   25.4254 H   0  0  0  0  0  0  0  0  0  0  0  0
    9.6284    9.0673   22.9345 H   0  0  0  0  0  0  0  0  0  0  0  0
  1  3  2  0  0  0  0
  1  5  1  0  0  0  0
  2  4  1  0  0  0  0
  2  5  2  0  0  0  0
  3  6  1  0  0  0  0
  4  6  2  0  0  0  0
  5  7  1  0  0  0  0
  1  8  1  0  0  0  0
  2  9  1  0  0  0  0
  3 10  1  0  0  0  0
  4 11  1  0  0  0  0
M  END
> <Catalog ID>
Z104478186

> <MW>
148.98

> <MW (desalted)>
113.545

> <ClogP>
1.442

> <logS>
-1.552

> <HBD>
0

> <HBA>
1

> <TPSA>
12.89

> <RotBonds>
0

> <ROCS_ShapeQuery>
A71EV2A-x0451_0A_A71EV2A-x0310_0A_A71EV2A-x0416_0A_peptide

> <ROCS_TanimotoCombo>
0.252 

> <ROCS_ShapeTanimoto>
0.166 

> <ROCS_ColorTanimoto>
0.086 

> <ROCS_RefTversky>
0.156 

> <ROCS_RefColorTversky>
0.089 

> <ROCS_RefTverskyCombo>
0.244 

> <ROCS_FitTversky>
1.680 

> <ROCS_FitColorTversky>
0.768 

> <ROCS_FitTverskyCombo>
2.448 

> <ROCS_ColorScore>
-2.676

> <ROCS_Overlap>
1075.894

> <ROCS_Rank>
42                  

$$$$
untitled-dbase-39_2
  -OEChem-11132311083D

 15 15  0     0  0  0  0  0  0999 V2000
    9.6283   11.1788   23.3818 C   0  0  0  0  0  0  0  0  0  0  0  0
    9.1051    9.9198   23.6548 C   0  0  0  0  0  0  0  0  0  0  0  0
    8.9940   12.3118   23.8791 C   0  0  0  0  0  0  0  0  0  0  0  0
    7.9548    9.8483   24.4238 C   0  0  0  0  0  0  0  0  0  0  0  0
    7.8485   12.1333   24.6379 C   0  0  0  0  0  0  0  0  0  0  0  0
    7.7112   14.1741   25.9911 C   0  0  0  0  0  0  0  0  0  0  0  0
    7.1497   13.2873   25.1806 C   0  0  0  0  0  0  0  0  0  0  0  0
    7.3107   10.9264   24.9242 N   0  0  0  0  0  0  0  0  0  0  0  0
   10.5293   11.2761   22.7835 H   0  0  0  0  0  0  0  0  0  0  0  0
    9.5827    9.0232   23.2769 H   0  0  0  0  0  0  0  0  0  0  0  0
    9.3967   13.2978   23.6701 H   0  0  0  0  0  0  0  0  0  0  0  0
    7.5057    8.8902   24.6640 H   0  0  0  0  0  0  0  0  0  0  0  0
    7.1172   15.0137   26.3395 H   0  0  0  0  0  0  0  0  0  0  0  0
    8.7398   14.1328   26.3292 H   0  0  0  0  0  0  0  0  0  0  0  0
    6.1260   13.4283   24.8744 H   0  0  0  0  0  0  0  0  0  0  0  0
  1  2  1  0  0  0  0
  1  3  2  0  0  0  0
  2  4  2  0  0  0  0
  3  5  1  0  0  0  0
  4  8  1  0  0  0  0
  5  7  1  0  0  0  0
  5  8  2  0  0  0  0
  6  7  2  0  0  0  0
  1  9  1  0  0  0  0
  2 10  1  0  0  0  0
  3 11  1  0  0  0  0
  4 12  1  0  0  0  0
  6 13  1  0  0  0  0
  6 14  1  0  0  0  0
  7 15  1  0  0  0  0
M  END
> <Catalog ID>
Z104495554

> <MW>
105.058

> <MW (desalted)>
105.137

> <ClogP>
1.369

> <logS>
-0.994

> <HBD>
0

> <HBA>
1

> <TPSA>
12.89

> <RotBonds>
1

> <ROCS_ShapeQuery>
A71EV2A-x0451_0A_A71EV2A-x0310_0A_A71EV2A-x0416_0A_peptide

> <ROCS_TanimotoCombo>
0.252 

> <ROCS_ShapeTanimoto>
0.170 

> <ROCS_ColorTanimoto>
0.082 

> <ROCS_RefTversky>
0.160 

> <ROCS_RefColorTversky>
0.087 

> <ROCS_RefTverskyCombo>
0.246 

> <ROCS_FitTversky>
1.598 

> <ROCS_FitColorTversky>
0.593 

> <ROCS_FitTverskyCombo>
2.191 

> <ROCS_ColorScore>
-2.630

> <ROCS_Overlap>
1103.400

> <ROCS_Rank>
43                  

$$$$
untitled-dbase-44_0
  -OEChem-11132311083D

 11 11  0     0  0  0  0  0  0999 V2000
    9.0188   12.3104   23.9138 C   0  0  0  0  0  0  0  0  0  0  0  0
    9.6274   11.1757   23.3890 C   0  0  0  0  0  0  0  0  0  0  0  0
    7.8690   12.1396   24.6678 C   0  0  0  0  0  0  0  0  0  0  0  0
    7.9232    9.8587   24.3977 C   0  0  0  0  0  0  0  0  0  0  0  0
    9.0755    9.9226   23.6308 C   0  0  0  0  0  0  0  0  0  0  0  0
    7.3035   10.9387   24.9242 N   0  0  0  0  0  0  0  0  0  0  0  0
    9.7984    8.5013   22.9999 Cl  0  0  0  0  0  0  0  0  0  0  0  0
    9.4313   13.2973   23.7382 H   0  0  0  0  0  0  0  0  0  0  0  0
   10.5305   11.2822   22.7939 H   0  0  0  0  0  0  0  0  0  0  0  0
    7.3562   12.9928   25.0994 H   0  0  0  0  0  0  0  0  0  0  0  0
    7.4439    8.9106   24.6222 H   0  0  0  0  0  0  0  0  0  0  0  0
  1  2  2  0  0  0  0
  1  3  1  0  0  0  0
  2  5  1  0  0  0  0
  3  6  2  0  0  0  0
  4  5  2  0  0  0  0
  4  6  1  0  0  0  0
  5  7  1  0  0  0  0
  1  8  1  0  0  0  0
  2  9  1  0  0  0  0
  3 10  1  0  0  0  0
  4 11  1  0  0  0  0
M  END
> <Catalog ID>
Z1224459023

> <MW>
113.003

> <MW (desalted)>
113.545

> <ClogP>
1.442

> <logS>
-0.924

> <HBD>
0

> <HBA>
1

> <TPSA>
12.89

> <RotBonds>
0

> <ROCS_ShapeQuery>
A71EV2A-x0451_0A_A71EV2A-x0310_0A_A71EV2A-x0416_0A_peptide

> <ROCS_TanimotoCombo>
0.251 

> <ROCS_ShapeTanimoto>
0.166 

> <ROCS_ColorTanimoto>
0.085 

> <ROCS_RefTversky>
0.156 

> <ROCS_RefColorTversky>
0.087 

> <ROCS_RefTverskyCombo>
0.243 

> <ROCS_FitTversky>
1.681 

> <ROCS_FitColorTversky>
0.755 

> <ROCS_FitTverskyCombo>
2.436 

> <ROCS_ColorScore>
-2.630

> <ROCS_Overlap>
1076.714

> <ROCS_Rank>
44                  

$$$$
untitled-dbase-46_1
  -OEChem-11132311083D

 13 13  0     0  0  0  0  0  0999 V2000
    8.7728   12.1849   24.1303 C   0  0  0  0  0  0  0  0  0  0  0  0
    9.2822   10.2219   23.2680 C   0  0  0  0  0  0  0  0  0  0  0  0
    7.9790   11.1878   24.6461 C   0  0  0  0  0  0  0  0  0  0  0  0
    6.5540   12.4912   26.1580 C   0  0  0  0  0  0  0  0  0  0  0  0
    6.9549   11.3252   25.6020 C   0  0  0  0  0  0  0  0  0  0  0  0
    8.3012    9.9682   24.1055 N   0  0  0  0  0  0  0  0  0  0  0  0
    9.6029   11.5508   23.2493 N   0  0  0  0  0  0  0  0  0  0  0  0
    8.8264   13.2513   24.2991 H   0  0  0  0  0  0  0  0  0  0  0  0
    9.7976    9.4977   22.6535 H   0  0  0  0  0  0  0  0  0  0  0  0
    5.7443   12.5057   26.8814 H   0  0  0  0  0  0  0  0  0  0  0  0
    6.9987   13.4467   25.9067 H   0  0  0  0  0  0  0  0  0  0  0  0
    6.3987   10.4327   25.9238 H   0  0  0  0  0  0  0  0  0  0  0  0
   10.3219   11.9847   22.6859 H   0  0  0  0  0  0  0  0  0  0  0  0
  1  3  2  0  0  0  0
  1  7  1  0  0  0  0
  2  6  2  0  0  0  0
  2  7  1  0  0  0  0
  3  5  1  0  0  0  0
  3  6  1  0  0  0  0
  4  5  2  0  0  0  0
  1  8  1  0  0  0  0
  2  9  1  0  0  0  0
  4 10  1  0  0  0  0
  4 11  1  0  0  0  0
  5 12  1  0  0  0  0
  7 13  1  0  0  0  0
M  END
> <Catalog ID>
Z1198149728

> <MW>
94.053

> <MW (desalted)>
94.115

> <ClogP>
0.695

> <logS>
-0.999

> <HBD>
1

> <HBA>
1

> <TPSA>
28.68

> <RotBonds>
1

> <ROCS_ShapeQuery>
A71EV2A-x0451_0A_A71EV2A-x0310_0A_A71EV2A-x0416_0A_peptide

> <ROCS_TanimotoCombo>
0.249 

> <ROCS_ShapeTanimoto>
0.163 

> <ROCS_ColorTanimoto>
0.087 

> <ROCS_RefTversky>
0.153 

> <ROCS_RefColorTversky>
0.096 

> <ROCS_RefTverskyCombo>
0.250 

> <ROCS_FitTversky>
1.621 

> <ROCS_FitColorTversky>
0.461 

> <ROCS_FitTverskyCombo>
2.082 

> <ROCS_ColorScore>
-2.923

> <ROCS_Overlap>
1060.198

> <ROCS_Rank>
45                  

$$$$
untitled-dbase-57_0
  -OEChem-11132311083D

 11 11  0     0  0  0  0  0  0999 V2000
    8.1376   12.0538   24.7599 C   0  0  0  0  0  0  0  0  0  0  0  0
    9.6611   11.2106   23.1009 C   0  0  0  0  0  0  0  0  0  0  0  0
    7.6574   10.7614   24.8979 C   0  0  0  0  0  0  0  0  0  0  0  0
    9.1129    9.9560   23.3132 C   0  0  0  0  0  0  0  0  0  0  0  0
    9.1586   12.2742   23.8422 C   0  0  0  0  0  0  0  0  0  0  0  0
    8.1204    9.7031   24.1956 N   0  0  0  0  0  0  0  0  0  0  0  0
    9.8609   14.0115   23.6043 Br  0  0  0  0  0  0  0  0  0  0  0  0
    7.7197   12.8577   25.3565 H   0  0  0  0  0  0  0  0  0  0  0  0
   10.4572   11.3427   22.3759 H   0  0  0  0  0  0  0  0  0  0  0  0
    6.8616   10.5367   25.6004 H   0  0  0  0  0  0  0  0  0  0  0  0
    9.4700    9.0932   22.7606 H   0  0  0  0  0  0  0  0  0  0  0  0
  1  3  2  0  0  0  0
  1  5  1  0  0  0  0
  2  4  1  0  0  0  0
  2  5  2  0  0  0  0
  3  6  1  0  0  0  0
  4  6  2  0  0  0  0
  5  7  1  0  0  0  0
  1  8  1  0  0  0  0
  2  9  1  0  0  0  0
  3 10  1  0  0  0  0
  4 11  1  0  0  0  0
M  END
> <Catalog ID>
Z1954801659

> <MW>
156.953

> <MW (desalted)>
157.996

> <ClogP>
1.592

> <logS>
-1.338

> <HBD>
0

> <HBA>
1

> <TPSA>
12.89

> <RotBonds>
0

> <ROCS_ShapeQuery>
A71EV2A-x0451_0A_A71EV2A-x0310_0A_A71EV2A-x0416_0A_peptide

> <ROCS_TanimotoCombo>
0.248 

> <ROCS_ShapeTanimoto>
0.165 

> <ROCS_ColorTanimoto>
0.084 

> <ROCS_RefTversky>
0.155 

> <ROCS_RefColorTversky>
0.088 

> <ROCS_RefTverskyCombo>
0.243 

> <ROCS_FitTversky>
1.677 

> <ROCS_FitColorTversky>
0.603 

> <ROCS_FitTverskyCombo>
2.280 

> <ROCS_ColorScore>
-2.676

> <ROCS_Overlap>
1067.905

> <ROCS_Rank>
46                  

$$$$
untitled-dbase-60_0
  -OEChem-11132311083D

 12 12  0     0  0  0  0  0  0999 V2000
    7.1835   14.0861   26.2886 C   0  0  0  0  0  0  0  0  0  0  0  0
    7.5837   13.1615   25.6354 C   0  0  0  0  0  0  0  0  0  0  0  0
    8.9537    9.9978   23.4031 C   0  0  0  0  0  0  0  0  0  0  0  0
    9.6136   11.2091   23.4438 C   0  0  0  0  0  0  0  0  0  0  0  0
    7.8034    9.9189   24.1614 C   0  0  0  0  0  0  0  0  0  0  0  0
    8.0579   12.0663   24.8622 C   0  0  0  0  0  0  0  0  0  0  0  0
    9.1923   12.2684   24.1653 N   0  0  0  0  0  0  0  0  0  0  0  0
    7.3249   10.9374   24.9058 N   0  0  0  0  0  0  0  0  0  0  0  0
    6.8285   14.9059   26.8683 H   0  0  0  0  0  0  0  0  0  0  0  0
    9.3144    9.1643   22.8158 H   0  0  0  0  0  0  0  0  0  0  0  0
   10.5274   11.3658   22.8805 H   0  0  0  0  0  0  0  0  0  0  0  0
    7.2172    9.0067   24.1924 H   0  0  0  0  0  0  0  0  0  0  0  0
  1  2  3  0  0  0  0
  2  6  1  0  0  0  0
  3  4  1  0  0  0  0
  3  5  2  0  0  0  0
  4  7  2  0  0  0  0
  5  8  1  0  0  0  0
  6  7  1  0  0  0  0
  6  8  2  0  0  0  0
  1  9  1  0  0  0  0
  3 10  1  0  0  0  0
  4 11  1  0  0  0  0
  5 12  1  0  0  0  0
M  END
> <Catalog ID>
Z1198278448

> <MW>
104.037

> <MW (desalted)>
104.109

> <ClogP>
-0.042

> <logS>
-0.547

> <HBD>
0

> <HBA>
2

> <TPSA>
25.78

> <RotBonds>
0

> <ROCS_ShapeQuery>
A71EV2A-x0451_0A_A71EV2A-x0310_0A_A71EV2A-x0416_0A_peptide

> <ROCS_TanimotoCombo>
0.248 

> <ROCS_ShapeTanimoto>
0.168 

> <ROCS_ColorTanimoto>
0.080 

> <ROCS_RefTversky>
0.158 

> <ROCS_RefColorTversky>
0.087 

> <ROCS_RefTverskyCombo>
0.246 

> <ROCS_FitTversky>
1.573 

> <ROCS_FitColorTversky>
0.492 

> <ROCS_FitTverskyCombo>
2.065 

> <ROCS_ColorScore>
-2.652

> <ROCS_Overlap>
1094.874

> <ROCS_Rank>
47                  

$$$$
untitled-dbase-59_0
  -OEChem-11132311083D

 11 11  0     0  0  0  0  0  0999 V2000
    9.0192    9.9062   23.5699 C   0  0  0  0  0  0  0  0  0  0  0  0
    9.6317   11.1400   23.3806 C   0  0  0  0  0  0  0  0  0  0  0  0
    7.8709    9.8641   24.3440 C   0  0  0  0  0  0  0  0  0  0  0  0
    7.9334   12.1298   24.7194 C   0  0  0  0  0  0  0  0  0  0  0  0
    9.0848   12.2780   23.9631 C   0  0  0  0  0  0  0  0  0  0  0  0
    7.3102   10.9479   24.9258 N   0  0  0  0  0  0  0  0  0  0  0  0
    9.8842   13.9667   23.7304 Br  0  0  0  0  0  0  0  0  0  0  0  0
    9.4276    9.0058   23.1253 H   0  0  0  0  0  0  0  0  0  0  0  0
   10.5333   11.1977   22.7769 H   0  0  0  0  0  0  0  0  0  0  0  0
    7.3560    8.9257   24.5223 H   0  0  0  0  0  0  0  0  0  0  0  0
    7.4564   12.9780   25.2014 H   0  0  0  0  0  0  0  0  0  0  0  0
  1  2  2  0  0  0  0
  1  3  1  0  0  0  0
  2  5  1  0  0  0  0
  3  6  2  0  0  0  0
  4  5  2  0  0  0  0
  4  6  1  0  0  0  0
  5  7  1  0  0  0  0
  1  8  1  0  0  0  0
  2  9  1  0  0  0  0
  3 10  1  0  0  0  0
  4 11  1  0  0  0  0
M  END
> <Catalog ID>
Z104472812

> <MW>
156.953

> <MW (desalted)>
157.996

> <ClogP>
1.592

> <logS>
-1.37

> <HBD>
0

> <HBA>
1

> <TPSA>
12.89

> <RotBonds>
0

> <ROCS_ShapeQuery>
A71EV2A-x0451_0A_A71EV2A-x0310_0A_A71EV2A-x0416_0A_peptide

> <ROCS_TanimotoCombo>
0.248 

> <ROCS_ShapeTanimoto>
0.166 

> <ROCS_ColorTanimoto>
0.082 

> <ROCS_RefTversky>
0.155 

> <ROCS_RefColorTversky>
0.087 

> <ROCS_RefTverskyCombo>
0.242 

> <ROCS_FitTversky>
1.684 

> <ROCS_FitColorTversky>
0.593 

> <ROCS_FitTverskyCombo>
2.277 

> <ROCS_ColorScore>
-2.629

> <ROCS_Overlap>
1072.339

> <ROCS_Rank>
48                  

$$$$
untitled-dbase-85_0
  -OEChem-11132311083D

 11 11  0     0  0  0  0  0  0999 V2000
    9.6007   14.3215   23.4525 C   0  0  0  0  0  0  0  0  0  0  0  0
    9.3310   13.1662   23.6380 C   0  0  0  0  0  0  0  0  0  0  0  0
    7.7611   11.2154   24.1298 C   0  0  0  0  0  0  0  0  0  0  0  0
    9.8902   10.7440   23.8471 C   0  0  0  0  0  0  0  0  0  0  0  0
    9.0124   11.8003   23.8578 C   0  0  0  0  0  0  0  0  0  0  0  0
    7.8333    9.8903   24.2809 N   0  0  0  0  0  0  0  0  0  0  0  0
    9.1405    9.6338   24.1032 N   0  0  0  0  0  0  0  0  0  0  0  0
    9.8396   15.3462   23.2884 H   0  0  0  0  0  0  0  0  0  0  0  0
    6.7975   11.6958   24.2264 H   0  0  0  0  0  0  0  0  0  0  0  0
   10.9569   10.6792   23.6830 H   0  0  0  0  0  0  0  0  0  0  0  0
    9.4550    8.6742   24.1728 H   0  0  0  0  0  0  0  0  0  0  0  0
  1  2  3  0  0  0  0
  2  5  1  0  0  0  0
  3  5  1  0  0  0  0
  3  6  2  0  0  0  0
  4  5  2  0  0  0  0
  4  7  1  0  0  0  0
  6  7  1  0  0  0  0
  1  8  1  0  0  0  0
  3  9  1  0  0  0  0
  4 10  1  0  0  0  0
  7 11  1  0  0  0  0
M  END
> <Catalog ID>
Z1255430330

> <MW>
92.037

> <MW (desalted)>
92.099

> <ClogP>
0.511

> <logS>
-0.791

> <HBD>
1

> <HBA>
1

> <TPSA>
28.68

> <RotBonds>
0

> <ROCS_ShapeQuery>
A71EV2A-x0451_0A_A71EV2A-x0310_0A_A71EV2A-x0416_0A_peptide

> <ROCS_TanimotoCombo>
0.247 

> <ROCS_ShapeTanimoto>
0.153 

> <ROCS_ColorTanimoto>
0.094 

> <ROCS_RefTversky>
0.145 

> <ROCS_RefColorTversky>
0.101 

> <ROCS_RefTverskyCombo>
0.246 

> <ROCS_FitTversky>
1.537 

> <ROCS_FitColorTversky>
0.569 

> <ROCS_FitTverskyCombo>
2.106 

> <ROCS_ColorScore>
-3.063

> <ROCS_Overlap>
1004.273

> <ROCS_Rank>
49                  

$$$$
untitled-dbase-11_0
  -OEChem-11132311083D

 10 10  0     0  0  0  0  0  0999 V2000
    9.6152   11.1928   23.4515 C   0  0  0  0  0  0  0  0  0  0  0  0
    7.8038    9.9139   24.1861 C   0  0  0  0  0  0  0  0  0  0  0  0
    8.0577   12.0716   24.8547 C   0  0  0  0  0  0  0  0  0  0  0  0
    8.9551    9.9812   23.4283 C   0  0  0  0  0  0  0  0  0  0  0  0
    9.1931   12.2630   24.1564 N   0  0  0  0  0  0  0  0  0  0  0  0
    7.3244   10.9436   24.9143 N   0  0  0  0  0  0  0  0  0  0  0  0
    9.5259    8.6510   22.5204 Cl  0  0  0  0  0  0  0  0  0  0  0  0
   10.5300   11.3532   22.8891 H   0  0  0  0  0  0  0  0  0  0  0  0
    7.2098    9.0065   24.2365 H   0  0  0  0  0  0  0  0  0  0  0  0
    7.6952   12.9149   25.4300 H   0  0  0  0  0  0  0  0  0  0  0  0
  1  4  1  0  0  0  0
  1  5  2  0  0  0  0
  2  4  2  0  0  0  0
  2  6  1  0  0  0  0
  3  5  1  0  0  0  0
  3  6  2  0  0  0  0
  4  7  1  0  0  0  0
  1  8  1  0  0  0  0
  2  9  1  0  0  0  0
  3 10  1  0  0  0  0
M  END
> <Catalog ID>
Z1198163386

> <MW>
113.998

> <MW (desalted)>
114.533

> <ClogP>
0.439

> <logS>
-1.022

> <HBD>
0

> <HBA>
2

> <TPSA>
25.78

> <RotBonds>
0

> <ROCS_ShapeQuery>
A71EV2A-x0451_0A_A71EV2A-x0310_0A_A71EV2A-x0416_0A_peptide

> <ROCS_TanimotoCombo>
0.247 

> <ROCS_ShapeTanimoto>
0.164 

> <ROCS_ColorTanimoto>
0.083 

> <ROCS_RefTversky>
0.154 

> <ROCS_RefColorTversky>
0.088 

> <ROCS_RefTverskyCombo>
0.241 

> <ROCS_FitTversky>
1.650 

> <ROCS_FitColorTversky>
0.597 

> <ROCS_FitTverskyCombo>
2.247 

> <ROCS_ColorScore>
-2.652

> <ROCS_Overlap>
1063.450

> <ROCS_Rank>
50                  

$$$$
untitled-dbase-64_0
  -OEChem-11132311083D

 11 11  0     0  0  0  0  0  0999 V2000
    8.2240   12.0395   24.8249 C   0  0  0  0  0  0  0  0  0  0  0  0
    9.5950   11.2078   23.0324 C   0  0  0  0  0  0  0  0  0  0  0  0
    7.7300   10.7533   24.9718 C   0  0  0  0  0  0  0  0  0  0  0  0
    9.0398    9.9588   23.2596 C   0  0  0  0  0  0  0  0  0  0  0  0
    9.1740   12.2626   23.8344 C   0  0  0  0  0  0  0  0  0  0  0  0
    8.1148    9.7034   24.2119 N   0  0  0  0  0  0  0  0  0  0  0  0
    9.9613   14.1626   23.5551 I   0  0  0  0  0  0  0  0  0  0  0  0
    7.8680   12.8336   25.4724 H   0  0  0  0  0  0  0  0  0  0  0  0
   10.3339   11.3377   22.2488 H   0  0  0  0  0  0  0  0  0  0  0  0
    6.9875   10.5268   25.7298 H   0  0  0  0  0  0  0  0  0  0  0  0
    9.3348    9.1028   22.6616 H   0  0  0  0  0  0  0  0  0  0  0  0
  1  3  2  0  0  0  0
  1  5  1  0  0  0  0
  2  4  1  0  0  0  0
  2  5  2  0  0  0  0
  3  6  1  0  0  0  0
  4  6  2  0  0  0  0
  5  7  1  0  0  0  0
  1  8  1  0  0  0  0
  2  9  1  0  0  0  0
  3 10  1  0  0  0  0
  4 11  1  0  0  0  0
M  END
> <Catalog ID>
Z1269167639

> <MW>
204.939

> <MW (desalted)>
204.996

> <ClogP>
1.852

> <logS>
-1.321

> <HBD>
0

> <HBA>
1

> <TPSA>
12.89

> <RotBonds>
0

> <ROCS_ShapeQuery>
A71EV2A-x0451_0A_A71EV2A-x0310_0A_A71EV2A-x0416_0A_peptide

> <ROCS_TanimotoCombo>
0.246 

> <ROCS_ShapeTanimoto>
0.163 

> <ROCS_ColorTanimoto>
0.084 

> <ROCS_RefTversky>
0.153 

> <ROCS_RefColorTversky>
0.088 

> <ROCS_RefTverskyCombo>
0.241 

> <ROCS_FitTversky>
1.667 

> <ROCS_FitColorTversky>
0.603 

> <ROCS_FitTverskyCombo>
2.271 

> <ROCS_ColorScore>
-2.675

> <ROCS_Overlap>
1056.468

> <ROCS_Rank>
51                  

$$$$
untitled-dbase-25_0
  -OEChem-11132311083D

 11 11  0     0  0  0  0  0  0999 V2000
   10.0220   13.2204   24.1924 C   0  0  0  0  0  0  0  0  0  0  0  0
    7.7644    9.7969   23.9655 C   0  0  0  0  0  0  0  0  0  0  0  0
    7.5345   10.8844   23.1477 C   0  0  0  0  0  0  0  0  0  0  0  0
    8.8023    9.9347   24.8644 C   0  0  0  0  0  0  0  0  0  0  0  0
    9.2401   12.0352   24.1140 C   0  0  0  0  0  0  0  0  0  0  0  0
   10.6601   14.1876   24.2563 N   0  0  0  0  0  0  0  0  0  0  0  0
    8.2556   12.0237   23.1952 N   0  0  0  0  0  0  0  0  0  0  0  0
    9.5637   11.0439   24.9661 N   0  0  0  0  0  0  0  0  0  0  0  0
    7.1704    8.8950   23.9057 H   0  0  0  0  0  0  0  0  0  0  0  0
    6.7402   10.8690   22.4090 H   0  0  0  0  0  0  0  0  0  0  0  0
    9.0581    9.1325   25.5484 H   0  0  0  0  0  0  0  0  0  0  0  0
  1  5  1  0  0  0  0
  1  6  3  0  0  0  0
  2  3  1  0  0  0  0
  2  4  2  0  0  0  0
  3  7  2  0  0  0  0
  4  8  1  0  0  0  0
  5  7  1  0  0  0  0
  5  8  2  0  0  0  0
  2  9  1  0  0  0  0
  3 10  1  0  0  0  0
  4 11  1  0  0  0  0
M  END
> <Catalog ID>
Z441820390

> <MW>
105.033

> <MW (desalted)>
105.097

> <ClogP>
-0.59

> <logS>
0.03

> <HBD>
0

> <HBA>
3

> <TPSA>
49.57

> <RotBonds>
0

> <ROCS_ShapeQuery>
A71EV2A-x0451_0A_A71EV2A-x0310_0A_A71EV2A-x0416_0A_peptide

> <ROCS_TanimotoCombo>
0.246 

> <ROCS_ShapeTanimoto>
0.143 

> <ROCS_ColorTanimoto>
0.103 

> <ROCS_RefTversky>
0.138 

> <ROCS_RefColorTversky>
0.110 

> <ROCS_RefTverskyCombo>
0.248 

> <ROCS_FitTversky>
1.364 

> <ROCS_FitColorTversky>
0.620 

> <ROCS_FitTverskyCombo>
1.984 

> <ROCS_ColorScore>
-3.340

> <ROCS_Overlap>
951.177

> <ROCS_Rank>
52                  

$$$$
untitled-dbase-7_0
  -OEChem-11132311083D

 10 10  0     0  0  0  0  0  0999 V2000
    9.2129    9.9867   23.4067 C   0  0  0  0  0  0  0  0  0  0  0  0
    9.6854   11.2736   23.2717 C   0  0  0  0  0  0  0  0  0  0  0  0
    7.5651   10.7382   24.8030 C   0  0  0  0  0  0  0  0  0  0  0  0
    8.0380   12.0250   24.6687 C   0  0  0  0  0  0  0  0  0  0  0  0
    8.1442    9.6959   24.1748 N   0  0  0  0  0  0  0  0  0  0  0  0
    9.1064   12.3158   23.9003 N   0  0  0  0  0  0  0  0  0  0  0  0
    7.1718   13.4407   25.5783 Br  0  0  0  0  0  0  0  0  0  0  0  0
    9.6790    9.1498   22.9020 H   0  0  0  0  0  0  0  0  0  0  0  0
   10.5443   11.5073   22.6549 H   0  0  0  0  0  0  0  0  0  0  0  0
    6.7073   10.4895   25.4170 H   0  0  0  0  0  0  0  0  0  0  0  0
  1  2  2  0  0  0  0
  1  5  1  0  0  0  0
  2  6  1  0  0  0  0
  3  4  1  0  0  0  0
  3  5  2  0  0  0  0
  4  6  2  0  0  0  0
  4  7  1  0  0  0  0
  1  8  1  0  0  0  0
  2  9  1  0  0  0  0
  3 10  1  0  0  0  0
M  END
> <Catalog ID>
Z415645016

> <MW>
157.948

> <MW (desalted)>
158.984

> <ClogP>
0.589

> <logS>
-0.722

> <HBD>
0

> <HBA>
2

> <TPSA>
25.78

> <RotBonds>
0

> <ROCS_ShapeQuery>
A71EV2A-x0451_0A_A71EV2A-x0310_0A_A71EV2A-x0416_0A_peptide

> <ROCS_TanimotoCombo>
0.245 

> <ROCS_ShapeTanimoto>
0.163 

> <ROCS_ColorTanimoto>
0.082 

> <ROCS_RefTversky>
0.153 

> <ROCS_RefColorTversky>
0.089 

> <ROCS_RefTverskyCombo>
0.242 

> <ROCS_FitTversky>
1.654 

> <ROCS_FitColorTversky>
0.501 

> <ROCS_FitTverskyCombo>
2.155 

> <ROCS_ColorScore>
-2.696

> <ROCS_Overlap>
1060.253

> <ROCS_Rank>
53                  

$$$$
untitled-dbase-78_0
  -OEChem-11132311083D

 11 11  0     0  0  0  0  0  0999 V2000
    7.8879   12.0656   24.5651 C   0  0  0  0  0  0  0  0  0  0  0  0
    9.0850   12.3068   23.9003 C   0  0  0  0  0  0  0  0  0  0  0  0
    7.4623   10.7520   24.6786 C   0  0  0  0  0  0  0  0  0  0  0  0
    9.2982    9.9651   23.5435 C   0  0  0  0  0  0  0  0  0  0  0  0
    9.8097   11.2419   23.3767 C   0  0  0  0  0  0  0  0  0  0  0  0
    8.1390    9.6917   24.1832 N   0  0  0  0  0  0  0  0  0  0  0  0
   11.5938   11.5543   22.3822 I   0  0  0  0  0  0  0  0  0  0  0  0
    7.3063   12.8802   24.9814 H   0  0  0  0  0  0  0  0  0  0  0  0
    9.4357   13.3307   23.8014 H   0  0  0  0  0  0  0  0  0  0  0  0
    6.5352   10.5107   25.1881 H   0  0  0  0  0  0  0  0  0  0  0  0
    9.8116    9.0880   23.1608 H   0  0  0  0  0  0  0  0  0  0  0  0
  1  2  2  0  0  0  0
  1  3  1  0  0  0  0
  2  5  1  0  0  0  0
  3  6  2  0  0  0  0
  4  5  2  0  0  0  0
  4  6  1  0  0  0  0
  5  7  1  0  0  0  0
  1  8  1  0  0  0  0
  2  9  1  0  0  0  0
  3 10  1  0  0  0  0
  4 11  1  0  0  0  0
M  END
> <Catalog ID>
Z1139186538

> <MW>
204.939

> <MW (desalted)>
204.996

> <ClogP>
1.852

> <logS>
-1.321

> <HBD>
0

> <HBA>
1

> <TPSA>
12.89

> <RotBonds>
0

> <ROCS_ShapeQuery>
A71EV2A-x0451_0A_A71EV2A-x0310_0A_A71EV2A-x0416_0A_peptide

> <ROCS_TanimotoCombo>
0.245 

> <ROCS_ShapeTanimoto>
0.161 

> <ROCS_ColorTanimoto>
0.084 

> <ROCS_RefTversky>
0.151 

> <ROCS_RefColorTversky>
0.088 

> <ROCS_RefTverskyCombo>
0.240 

> <ROCS_FitTversky>
1.652 

> <ROCS_FitColorTversky>
0.603 

> <ROCS_FitTverskyCombo>
2.255 

> <ROCS_ColorScore>
-2.677

> <ROCS_Overlap>
1046.764

> <ROCS_Rank>
54                  

$$$$
untitled-dbase-81_7
  -OEChem-11132311083D

 14 14  0     0  0  0  0  0  0999 V2000
    5.6377   13.0722   26.8531 C   0  0  0  0  0  0  0  0  0  0  0  0
    6.4863   13.1854   26.0113 C   0  0  0  0  0  0  0  0  0  0  0  0
    9.2243   10.4727   23.6214 C   0  0  0  0  0  0  0  0  0  0  0  0
    8.1100    9.9634   24.3149 C   0  0  0  0  0  0  0  0  0  0  0  0
    9.1406   11.8333   23.7893 C   0  0  0  0  0  0  0  0  0  0  0  0
    7.5218   13.3271   24.9837 C   0  0  0  0  0  0  0  0  0  0  0  0
    7.3728   10.9223   24.8813 N   0  0  0  0  0  0  0  0  0  0  0  0
    8.0250   12.0479   24.5440 N   0  0  0  0  0  0  0  0  0  0  0  0
    4.8851   12.9713   27.5996 H   0  0  0  0  0  0  0  0  0  0  0  0
    9.9815    9.9292   23.0762 H   0  0  0  0  0  0  0  0  0  0  0  0
    7.8063    8.9328   24.4306 H   0  0  0  0  0  0  0  0  0  0  0  0
    9.7651   12.6452   23.4429 H   0  0  0  0  0  0  0  0  0  0  0  0
    8.3719   13.9086   25.3579 H   0  0  0  0  0  0  0  0  0  0  0  0
    7.1347   13.8527   24.1034 H   0  0  0  0  0  0  0  0  0  0  0  0
  1  2  3  0  0  0  0
  2  6  1  0  0  0  0
  3  4  1  0  0  0  0
  3  5  2  0  0  0  0
  4  7  2  0  0  0  0
  5  8  1  0  0  0  0
  6  8  1  0  0  0  0
  7  8  1  0  0  0  0
  1  9  1  0  0  0  0
  3 10  1  0  0  0  0
  4 11  1  0  0  0  0
  5 12  1  0  0  0  0
  6 13  1  0  0  0  0
  6 14  1  0  0  0  0
M  END
> <Catalog ID>
Z804946014

> <MW>
106.053

> <MW (desalted)>
106.125

> <ClogP>
0.357

> <logS>
-0.47

> <HBD>
0

> <HBA>
1

> <TPSA>
17.82

> <RotBonds>
1

> <ROCS_ShapeQuery>
A71EV2A-x0451_0A_A71EV2A-x0310_0A_A71EV2A-x0416_0A_peptide

> <ROCS_TanimotoCombo>
0.245 

> <ROCS_ShapeTanimoto>
0.165 

> <ROCS_ColorTanimoto>
0.079 

> <ROCS_RefTversky>
0.156 

> <ROCS_RefColorTversky>
0.084 

> <ROCS_RefTverskyCombo>
0.240 

> <ROCS_FitTversky>
1.557 

> <ROCS_FitColorTversky>
0.576 

> <ROCS_FitTverskyCombo>
2.133 

> <ROCS_ColorScore>
-2.556

> <ROCS_Overlap>
1077.972

> <ROCS_Rank>
55                  

$$$$
untitled-dbase-45_0
  -OEChem-11132311083D

 10 10  0     0  0  0  0  0  0999 V2000
    8.8762   10.0555   23.2984 C   0  0  0  0  0  0  0  0  0  0  0  0
    7.7323    9.9725   24.0658 C   0  0  0  0  0  0  0  0  0  0  0  0
    8.1260   12.0228   24.9649 C   0  0  0  0  0  0  0  0  0  0  0  0
    9.6093   11.2156   23.4432 C   0  0  0  0  0  0  0  0  0  0  0  0
    7.3258   10.9409   24.9127 N   0  0  0  0  0  0  0  0  0  0  0  0
    9.2622   12.2235   24.2703 N   0  0  0  0  0  0  0  0  0  0  0  0
   11.0564   11.4702   22.5587 Cl  0  0  0  0  0  0  0  0  0  0  0  0
    9.1679    9.2556   22.6299 H   0  0  0  0  0  0  0  0  0  0  0  0
    7.0919    9.0980   24.0199 H   0  0  0  0  0  0  0  0  0  0  0  0
    7.8234   12.8162   25.6371 H   0  0  0  0  0  0  0  0  0  0  0  0
  1  2  2  0  0  0  0
  1  4  1  0  0  0  0
  2  5  1  0  0  0  0
  3  5  2  0  0  0  0
  3  6  1  0  0  0  0
  4  6  2  0  0  0  0
  4  7  1  0  0  0  0
  1  8  1  0  0  0  0
  2  9  1  0  0  0  0
  3 10  1  0  0  0  0
M  END
> <Catalog ID>
Z1962223597

> <MW>
149.975

> <MW (desalted)>
114.533

> <ClogP>
0.439

> <logS>
-2.21

> <HBD>
0

> <HBA>
2

> <TPSA>
25.78

> <RotBonds>
0

> <ROCS_ShapeQuery>
A71EV2A-x0451_0A_A71EV2A-x0310_0A_A71EV2A-x0416_0A_peptide

> <ROCS_TanimotoCombo>
0.243 

> <ROCS_ShapeTanimoto>
0.160 

> <ROCS_ColorTanimoto>
0.083 

> <ROCS_RefTversky>
0.151 

> <ROCS_RefColorTversky>
0.088 

> <ROCS_RefTverskyCombo>
0.239 

> <ROCS_FitTversky>
1.620 

> <ROCS_FitColorTversky>
0.598 

> <ROCS_FitTverskyCombo>
2.218 

> <ROCS_ColorScore>
-2.656

> <ROCS_Overlap>
1044.823

> <ROCS_Rank>
56                  

$$$$
untitled-dbase-48_0
  -OEChem-11132311083D

 13 13  0     0  0  0  0  0  0999 V2000
    8.9234   11.8290   23.8709 C   0  0  0  0  0  0  0  0  0  0  0  0
    7.7075   11.1757   24.1475 C   0  0  0  0  0  0  0  0  0  0  0  0
    9.8554   10.8207   23.8388 C   0  0  0  0  0  0  0  0  0  0  0  0
   12.0545   11.8137   23.3994 C   0  0  0  0  0  0  0  0  0  0  0  0
   11.2380   10.7539   23.6227 C   0  0  0  0  0  0  0  0  0  0  0  0
    7.8509    9.8545   24.2814 N   0  0  0  0  0  0  0  0  0  0  0  0
    9.1679    9.6695   24.0881 N   0  0  0  0  0  0  0  0  0  0  0  0
    9.0941   12.8849   23.7175 H   0  0  0  0  0  0  0  0  0  0  0  0
    6.7230   11.6074   24.2572 H   0  0  0  0  0  0  0  0  0  0  0  0
   13.1209   11.6699   23.2535 H   0  0  0  0  0  0  0  0  0  0  0  0
   11.6931   12.8347   23.3700 H   0  0  0  0  0  0  0  0  0  0  0  0
   11.7458    9.7753   23.6558 H   0  0  0  0  0  0  0  0  0  0  0  0
    9.5278    8.7243   24.1430 H   0  0  0  0  0  0  0  0  0  0  0  0
  1  2  1  0  0  0  0
  1  3  2  0  0  0  0
  2  6  2  0  0  0  0
  3  5  1  0  0  0  0
  3  7  1  0  0  0  0
  4  5  2  0  0  0  0
  6  7  1  0  0  0  0
  1  8  1  0  0  0  0
  2  9  1  0  0  0  0
  4 10  1  0  0  0  0
  4 11  1  0  0  0  0
  5 12  1  0  0  0  0
  7 13  1  0  0  0  0
M  END
> <Catalog ID>
Z3271412717

> <MW>
94.053

> <MW (desalted)>
94.115

> <ClogP>
0.965

> <logS>
-0.872

> <HBD>
1

> <HBA>
1

> <TPSA>
28.68

> <RotBonds>
1

> <ROCS_ShapeQuery>
A71EV2A-x0451_0A_A71EV2A-x0310_0A_A71EV2A-x0416_0A_peptide

> <ROCS_TanimotoCombo>
0.242 

> <ROCS_ShapeTanimoto>
0.148 

> <ROCS_ColorTanimoto>
0.094 

> <ROCS_RefTversky>
0.141 

> <ROCS_RefColorTversky>
0.101 

> <ROCS_RefTverskyCombo>
0.242 

> <ROCS_FitTversky>
1.497 

> <ROCS_FitColorTversky>
0.569 

> <ROCS_FitTverskyCombo>
2.066 

> <ROCS_ColorScore>
-3.064

> <ROCS_Overlap>
976.723

> <ROCS_Rank>
57                  

$$$$
untitled-dbase-26_0
  -OEChem-11132311083D

 11 11  0     0  0  0  0  0  0999 V2000
   12.4368   10.9561   23.4184 C   0  0  0  0  0  0  0  0  0  0  0  0
   11.2538   10.8916   23.6142 C   0  0  0  0  0  0  0  0  0  0  0  0
    8.9288   11.8271   23.8734 C   0  0  0  0  0  0  0  0  0  0  0  0
    7.7099   11.1777   24.1460 C   0  0  0  0  0  0  0  0  0  0  0  0
    9.8579   10.8160   23.8453 C   0  0  0  0  0  0  0  0  0  0  0  0
    7.8488    9.8561   24.2813 N   0  0  0  0  0  0  0  0  0  0  0  0
    9.1659    9.6670   24.0929 N   0  0  0  0  0  0  0  0  0  0  0  0
   13.4858   11.0136   23.2445 H   0  0  0  0  0  0  0  0  0  0  0  0
    9.1020   12.8828   23.7201 H   0  0  0  0  0  0  0  0  0  0  0  0
    6.7264   11.6125   24.2518 H   0  0  0  0  0  0  0  0  0  0  0  0
    9.5262    8.7224   24.1487 H   0  0  0  0  0  0  0  0  0  0  0  0
  1  2  3  0  0  0  0
  2  5  1  0  0  0  0
  3  4  1  0  0  0  0
  3  5  2  0  0  0  0
  4  6  2  0  0  0  0
  5  7  1  0  0  0  0
  6  7  1  0  0  0  0
  1  8  1  0  0  0  0
  3  9  1  0  0  0  0
  4 10  1  0  0  0  0
  7 11  1  0  0  0  0
M  END
> <Catalog ID>
Z1255404462

> <MW>
92.037

> <MW (desalted)>
92.099

> <ClogP>
0.511

> <logS>
-1.109

> <HBD>
1

> <HBA>
1

> <TPSA>
28.68

> <RotBonds>
0

> <ROCS_ShapeQuery>
A71EV2A-x0451_0A_A71EV2A-x0310_0A_A71EV2A-x0416_0A_peptide

> <ROCS_TanimotoCombo>
0.237 

> <ROCS_ShapeTanimoto>
0.143 

> <ROCS_ColorTanimoto>
0.094 

> <ROCS_RefTversky>
0.137 

> <ROCS_RefColorTversky>
0.101 

> <ROCS_RefTverskyCombo>
0.238 

> <ROCS_FitTversky>
1.446 

> <ROCS_FitColorTversky>
0.569 

> <ROCS_FitTverskyCombo>
2.015 

> <ROCS_ColorScore>
-3.064

> <ROCS_Overlap>
945.568

> <ROCS_Rank>
58                  

$$$$
untitled-dbase-38_0
  -OEChem-11132311083D

 13 13  0     0  0  0  0  0  0999 V2000
    9.2170   10.4806   23.6147 C   0  0  0  0  0  0  0  0  0  0  0  0
    8.1064    9.9668   24.3106 C   0  0  0  0  0  0  0  0  0  0  0  0
    9.1322   11.8404   23.7887 C   0  0  0  0  0  0  0  0  0  0  0  0
    6.5516   13.6639   25.6677 C   0  0  0  0  0  0  0  0  0  0  0  0
    7.6149   13.3232   24.9291 C   0  0  0  0  0  0  0  0  0  0  0  0
    7.3701   10.9223   24.8841 N   0  0  0  0  0  0  0  0  0  0  0  0
    8.0195   12.0502   24.5490 N   0  0  0  0  0  0  0  0  0  0  0  0
    9.9733    9.9410   23.0641 H   0  0  0  0  0  0  0  0  0  0  0  0
    7.8031    8.9359   24.4238 H   0  0  0  0  0  0  0  0  0  0  0  0
    9.7617   12.6485   23.4393 H   0  0  0  0  0  0  0  0  0  0  0  0
    6.3615   14.7104   25.8851 H   0  0  0  0  0  0  0  0  0  0  0  0
    5.8502   12.9456   26.0732 H   0  0  0  0  0  0  0  0  0  0  0  0
    8.2511   14.1318   24.5749 H   0  0  0  0  0  0  0  0  0  0  0  0
  1  2  1  0  0  0  0
  1  3  2  0  0  0  0
  2  6  2  0  0  0  0
  3  7  1  0  0  0  0
  4  5  2  0  0  0  0
  5  7  1  0  0  0  0
  6  7  1  0  0  0  0
  1  8  1  0  0  0  0
  2  9  1  0  0  0  0
  3 10  1  0  0  0  0
  4 11  1  0  0  0  0
  4 12  1  0  0  0  0
  5 13  1  0  0  0  0
M  END
> <Catalog ID>
Z1255365347

> <MW>
94.053

> <MW (desalted)>
94.115

> <ClogP>
0.892

> <logS>
-0.297

> <HBD>
0

> <HBA>
1

> <TPSA>
17.82

> <RotBonds>
1

> <ROCS_ShapeQuery>
A71EV2A-x0451_0A_A71EV2A-x0310_0A_A71EV2A-x0416_0A_peptide

> <ROCS_TanimotoCombo>
0.235 

> <ROCS_ShapeTanimoto>
0.153 

> <ROCS_ColorTanimoto>
0.082 

> <ROCS_RefTversky>
0.145 

> <ROCS_RefColorTversky>
0.085 

> <ROCS_RefTverskyCombo>
0.230 

> <ROCS_FitTversky>
1.534 

> <ROCS_FitColorTversky>
0.733 

> <ROCS_FitTverskyCombo>
2.268 

> <ROCS_ColorScore>
-2.556

> <ROCS_Overlap>
1004.210

> <ROCS_Rank>
59                  

$$$$
untitled-dbase-37_0
  -OEChem-11132311083D

  9  9  0     0  0  0  0  0  0999 V2000
    7.7365   11.1925   24.1360 C   0  0  0  0  0  0  0  0  0  0  0  0
    9.8771   10.7749   23.8560 C   0  0  0  0  0  0  0  0  0  0  0  0
    8.9739   11.8095   23.8719 C   0  0  0  0  0  0  0  0  0  0  0  0
    7.8403    9.8684   24.2776 N   0  0  0  0  0  0  0  0  0  0  0  0
    9.1538    9.6449   24.1016 N   0  0  0  0  0  0  0  0  0  0  0  0
    9.2509   13.4589   23.6332 Cl  0  0  0  0  0  0  0  0  0  0  0  0
    6.7612   11.6487   24.2322 H   0  0  0  0  0  0  0  0  0  0  0  0
   10.9454   10.7387   23.6959 H   0  0  0  0  0  0  0  0  0  0  0  0
    9.4909    8.6923   24.1630 H   0  0  0  0  0  0  0  0  0  0  0  0
  1  3  1  0  0  0  0
  1  4  2  0  0  0  0
  2  3  2  0  0  0  0
  2  5  1  0  0  0  0
  3  6  1  0  0  0  0
  4  5  1  0  0  0  0
  1  7  1  0  0  0  0
  2  8  1  0  0  0  0
  5  9  1  0  0  0  0
M  END
> <Catalog ID>
Z275169786

> <MW>
101.998

> <MW (desalted)>
102.522

> <ClogP>
1.178

> <logS>
-0.89

> <HBD>
1

> <HBA>
1

> <TPSA>
28.68

> <RotBonds>
0

> <ROCS_ShapeQuery>
A71EV2A-x0451_0A_A71EV2A-x0310_0A_A71EV2A-x0416_0A_peptide

> <ROCS_TanimotoCombo>
0.235 

> <ROCS_ShapeTanimoto>
0.138 

> <ROCS_ColorTanimoto>
0.097 

> <ROCS_RefTversky>
0.132 

> <ROCS_RefColorTversky>
0.101 

> <ROCS_RefTverskyCombo>
0.233 

> <ROCS_FitTversky>
1.510 

> <ROCS_FitColorTversky>
0.691 

> <ROCS_FitTverskyCombo>
2.200 

> <ROCS_ColorScore>
-3.064

> <ROCS_Overlap>
911.526

> <ROCS_Rank>
60                  

$$$$
untitled-dbase-28_1
  -OEChem-11132311083D

 12 12  0     0  0  0  0  0  0999 V2000
    7.6445   10.9356   24.7764 C   0  0  0  0  0  0  0  0  0  0  0  0
    8.2992   12.1101   24.4698 C   0  0  0  0  0  0  0  0  0  0  0  0
    9.1868   10.1167   23.4496 C   0  0  0  0  0  0  0  0  0  0  0  0
   11.2823    9.3759   22.4125 C   0  0  0  0  0  0  0  0  0  0  0  0
    9.9719    9.2177   22.6929 C   0  0  0  0  0  0  0  0  0  0  0  0
    8.1518    9.7915   24.1920 N   0  0  0  0  0  0  0  0  0  0  0  0
    9.6058   11.7803   23.4090 S   0  0  0  0  0  0  0  0  0  0  0  0
    6.7837   10.8581   25.4268 H   0  0  0  0  0  0  0  0  0  0  0  0
    8.0794   13.1127   24.8076 H   0  0  0  0  0  0  0  0  0  0  0  0
   11.8116    8.6262   21.8322 H   0  0  0  0  0  0  0  0  0  0  0  0
   11.8617   10.2261   22.7523 H   0  0  0  0  0  0  0  0  0  0  0  0
    9.5090    8.2978   22.3148 H   0  0  0  0  0  0  0  0  0  0  0  0
  1  2  2  0  0  0  0
  1  6  1  0  0  0  0
  2  7  1  0  0  0  0
  3  5  1  0  0  0  0
  3  6  2  0  0  0  0
  3  7  1  0  0  0  0
  4  5  2  0  0  0  0
  1  8  1  0  0  0  0
  2  9  1  0  0  0  0
  4 10  1  0  0  0  0
  4 11  1  0  0  0  0
  5 12  1  0  0  0  0
M  END
> <Catalog ID>
Z1255458872

> <MW>
111.014

> <MW (desalted)>
111.165

> <ClogP>
1.21

> <logS>
-0.491

> <HBD>
0

> <HBA>
1

> <TPSA>
12.89

> <RotBonds>
1

> <ROCS_ShapeQuery>
A71EV2A-x0451_0A_A71EV2A-x0310_0A_A71EV2A-x0416_0A_peptide

> <ROCS_TanimotoCombo>
0.234 

> <ROCS_ShapeTanimoto>
0.152 

> <ROCS_ColorTanimoto>
0.082 

> <ROCS_RefTversky>
0.144 

> <ROCS_RefColorTversky>
0.087 

> <ROCS_RefTverskyCombo>
0.231 

> <ROCS_FitTversky>
1.574 

> <ROCS_FitColorTversky>
0.592 

> <ROCS_FitTverskyCombo>
2.166 

> <ROCS_ColorScore>
-2.626

> <ROCS_Overlap>
994.936

> <ROCS_Rank>
61                  

$$$$
untitled-dbase-73_0
  -OEChem-11132311083D

  9  9  0     0  0  0  0  0  0999 V2000
    7.7433   11.2013   24.1380 C   0  0  0  0  0  0  0  0  0  0  0  0
    9.8795   10.7718   23.8426 C   0  0  0  0  0  0  0  0  0  0  0  0
    8.9815   11.8110   23.8606 C   0  0  0  0  0  0  0  0  0  0  0  0
    7.8419    9.8774   24.2854 N   0  0  0  0  0  0  0  0  0  0  0  0
    9.1528    9.6467   24.0999 N   0  0  0  0  0  0  0  0  0  0  0  0
    9.2804   13.6277   23.5868 Br  0  0  0  0  0  0  0  0  0  0  0  0
    6.7705   11.6617   24.2398 H   0  0  0  0  0  0  0  0  0  0  0  0
   10.9462   10.7292   23.6736 H   0  0  0  0  0  0  0  0  0  0  0  0
    9.4857    8.6927   24.1631 H   0  0  0  0  0  0  0  0  0  0  0  0
  1  3  1  0  0  0  0
  1  4  2  0  0  0  0
  2  3  2  0  0  0  0
  2  5  1  0  0  0  0
  3  6  1  0  0  0  0
  4  5  1  0  0  0  0
  1  7  1  0  0  0  0
  2  8  1  0  0  0  0
  5  9  1  0  0  0  0
M  END
> <Catalog ID>
Z275169750

> <MW>
145.948

> <MW (desalted)>
146.973

> <ClogP>
1.328

> <logS>
-1.135

> <HBD>
1

> <HBA>
1

> <TPSA>
28.68

> <RotBonds>
0

> <ROCS_ShapeQuery>
A71EV2A-x0451_0A_A71EV2A-x0310_0A_A71EV2A-x0416_0A_peptide

> <ROCS_TanimotoCombo>
0.231 

> <ROCS_ShapeTanimoto>
0.137 

> <ROCS_ColorTanimoto>
0.094 

> <ROCS_RefTversky>
0.131 

> <ROCS_RefColorTversky>
0.101 

> <ROCS_RefTverskyCombo>
0.232 

> <ROCS_FitTversky>
1.508 

> <ROCS_FitColorTversky>
0.569 

> <ROCS_FitTverskyCombo>
2.077 

> <ROCS_ColorScore>
-3.064

> <ROCS_Overlap>
905.107

> <ROCS_Rank>
62                  

$$$$
untitled-dbase-66_0
  -OEChem-11132311083D

  9  9  0     0  0  0  0  0  0999 V2000
    7.7430   11.2003   24.1510 C   0  0  0  0  0  0  0  0  0  0  0  0
    9.8792   10.7716   23.8545 C   0  0  0  0  0  0  0  0  0  0  0  0
    8.9826   11.8117   23.8839 C   0  0  0  0  0  0  0  0  0  0  0  0
    7.8395    9.8746   24.2819 N   0  0  0  0  0  0  0  0  0  0  0  0
    9.1504    9.6443   24.0961 N   0  0  0  0  0  0  0  0  0  0  0  0
    9.3645   13.7862   23.6038 I   0  0  0  0  0  0  0  0  0  0  0  0
    6.7699   11.6595   24.2571 H   0  0  0  0  0  0  0  0  0  0  0  0
   10.9463   10.7268   23.6878 H   0  0  0  0  0  0  0  0  0  0  0  0
    9.4819    8.6892   24.1481 H   0  0  0  0  0  0  0  0  0  0  0  0
  1  3  1  0  0  0  0
  1  4  2  0  0  0  0
  2  3  2  0  0  0  0
  2  5  1  0  0  0  0
  3  6  1  0  0  0  0
  4  5  1  0  0  0  0
  1  7  1  0  0  0  0
  2  8  1  0  0  0  0
  5  9  1  0  0  0  0
M  END
> <Catalog ID>
Z1203162050

> <MW>
193.934

> <MW (desalted)>
193.974

> <ClogP>
1.588

> <logS>
-1.19

> <HBD>
1

> <HBA>
1

> <TPSA>
28.68

> <RotBonds>
0

> <ROCS_ShapeQuery>
A71EV2A-x0451_0A_A71EV2A-x0310_0A_A71EV2A-x0416_0A_peptide

> <ROCS_TanimotoCombo>
0.230 

> <ROCS_ShapeTanimoto>
0.137 

> <ROCS_ColorTanimoto>
0.094 

> <ROCS_RefTversky>
0.131 

> <ROCS_RefColorTversky>
0.101 

> <ROCS_RefTverskyCombo>
0.232 

> <ROCS_FitTversky>
1.510 

> <ROCS_FitColorTversky>
0.569 

> <ROCS_FitTverskyCombo>
2.079 

> <ROCS_ColorScore>
-3.064

> <ROCS_Overlap>
902.065

> <ROCS_Rank>
63                  

$$$$
untitled-dbase-62_0
  -OEChem-11132311083D

  8  8  0     0  0  0  0  0  0999 V2000
    9.2878   10.2063   23.5072 C   0  0  0  0  0  0  0  0  0  0  0  0
    7.5584   10.8374   24.6993 C   0  0  0  0  0  0  0  0  0  0  0  0
    9.5327   11.5635   23.5256 C   0  0  0  0  0  0  0  0  0  0  0  0
    8.1563    9.7881   24.1800 N   0  0  0  0  0  0  0  0  0  0  0  0
    8.3018   12.3581   24.4171 S   0  0  0  0  0  0  0  0  0  0  0  0
   10.9958   12.4320   22.6989 Br  0  0  0  0  0  0  0  0  0  0  0  0
    9.9047    9.4655   23.0154 H   0  0  0  0  0  0  0  0  0  0  0  0
    6.6464   10.7538   25.2743 H   0  0  0  0  0  0  0  0  0  0  0  0
  1  3  2  0  0  0  0
  1  4  1  0  0  0  0
  2  4  2  0  0  0  0
  2  5  1  0  0  0  0
  3  5  1  0  0  0  0
  3  6  1  0  0  0  0
  1  7  1  0  0  0  0
  2  8  1  0  0  0  0
M  END
> <Catalog ID>
Z1255356896

> <MW>
162.909

> <MW (desalted)>
164.024

> <ClogP>
1.398

> <logS>
-2.167

> <HBD>
0

> <HBA>
1

> <TPSA>
12.89

> <RotBonds>
0

> <ROCS_ShapeQuery>
A71EV2A-x0451_0A_A71EV2A-x0310_0A_A71EV2A-x0416_0A_peptide

> <ROCS_TanimotoCombo>
0.229 

> <ROCS_ShapeTanimoto>
0.147 

> <ROCS_ColorTanimoto>
0.082 

> <ROCS_RefTversky>
0.139 

> <ROCS_RefColorTversky>
0.087 

> <ROCS_RefTverskyCombo>
0.226 

> <ROCS_FitTversky>
1.655 

> <ROCS_FitColorTversky>
0.592 

> <ROCS_FitTverskyCombo>
2.247 

> <ROCS_ColorScore>
-2.626

> <ROCS_Overlap>
958.825

> <ROCS_Rank>
64                  

$$$$
untitled-dbase-84_0
  -OEChem-11132311083D

 10 10  0     0  0  0  0  0  0999 V2000
    7.6025   14.5017   25.2854 C   0  0  0  0  0  0  0  0  0  0  0  0
    7.9113   13.4069   24.9008 C   0  0  0  0  0  0  0  0  0  0  0  0
    7.6174   10.9342   24.7309 C   0  0  0  0  0  0  0  0  0  0  0  0
    9.2201   10.1175   23.4762 C   0  0  0  0  0  0  0  0  0  0  0  0
    8.2773   12.1111   24.4454 C   0  0  0  0  0  0  0  0  0  0  0  0
    8.1564    9.7901   24.1757 N   0  0  0  0  0  0  0  0  0  0  0  0
    9.6300   11.7836   23.4433 S   0  0  0  0  0  0  0  0  0  0  0  0
    7.3290   15.4727   25.6268 H   0  0  0  0  0  0  0  0  0  0  0  0
    6.7296   10.8459   25.3442 H   0  0  0  0  0  0  0  0  0  0  0  0
    9.8098    9.3816   22.9475 H   0  0  0  0  0  0  0  0  0  0  0  0
  1  2  3  0  0  0  0
  2  5  1  0  0  0  0
  3  5  2  0  0  0  0
  3  6  1  0  0  0  0
  4  6  2  0  0  0  0
  4  7  1  0  0  0  0
  5  7  1  0  0  0  0
  1  8  1  0  0  0  0
  3  9  1  0  0  0  0
  4 10  1  0  0  0  0
M  END
> <Catalog ID>
Z1255467699

> <MW>
108.999

> <MW (desalted)>
109.149

> <ClogP>
0.756

> <logS>
-1.512

> <HBD>
0

> <HBA>
1

> <TPSA>
12.89

> <RotBonds>
0

> <ROCS_ShapeQuery>
A71EV2A-x0451_0A_A71EV2A-x0310_0A_A71EV2A-x0416_0A_peptide

> <ROCS_TanimotoCombo>
0.228 

> <ROCS_ShapeTanimoto>
0.146 

> <ROCS_ColorTanimoto>
0.082 

> <ROCS_RefTversky>
0.139 

> <ROCS_RefColorTversky>
0.087 

> <ROCS_RefTverskyCombo>
0.226 

> <ROCS_FitTversky>
1.523 

> <ROCS_FitColorTversky>
0.592 

> <ROCS_FitTverskyCombo>
2.115 

> <ROCS_ColorScore>
-2.626

> <ROCS_Overlap>
962.308

> <ROCS_Rank>
65                  

$$$$
untitled-dbase-58_0
  -OEChem-11132311083D

 10 10  0     0  0  0  0  0  0999 V2000
    6.9526   14.3068   25.6141 C   0  0  0  0  0  0  0  0  0  0  0  0
    7.4045   13.2855   25.1731 C   0  0  0  0  0  0  0  0  0  0  0  0
    8.0784    9.9177   24.2725 C   0  0  0  0  0  0  0  0  0  0  0  0
    9.1946   10.3231   23.5711 C   0  0  0  0  0  0  0  0  0  0  0  0
    7.9404   12.0737   24.6504 C   0  0  0  0  0  0  0  0  0  0  0  0
    7.3582   10.9202   24.8924 N   0  0  0  0  0  0  0  0  0  0  0  0
    9.3577   12.0266   23.6839 S   0  0  0  0  0  0  0  0  0  0  0  0
    6.5515   15.2124   26.0053 H   0  0  0  0  0  0  0  0  0  0  0  0
    7.7429    8.8936   24.3643 H   0  0  0  0  0  0  0  0  0  0  0  0
    9.8981    9.7196   23.0156 H   0  0  0  0  0  0  0  0  0  0  0  0
  1  2  3  0  0  0  0
  2  5  1  0  0  0  0
  3  4  2  0  0  0  0
  3  6  1  0  0  0  0
  4  7  1  0  0  0  0
  5  6  2  0  0  0  0
  5  7  1  0  0  0  0
  1  8  1  0  0  0  0
  3  9  1  0  0  0  0
  4 10  1  0  0  0  0
M  END
> <Catalog ID>
Z1255400696

> <MW>
108.999

> <MW (desalted)>
109.149

> <ClogP>
0.756

> <logS>
-0.8

> <HBD>
0

> <HBA>
1

> <TPSA>
12.89

> <RotBonds>
0

> <ROCS_ShapeQuery>
A71EV2A-x0451_0A_A71EV2A-x0310_0A_A71EV2A-x0416_0A_peptide

> <ROCS_TanimotoCombo>
0.227 

> <ROCS_ShapeTanimoto>
0.147 

> <ROCS_ColorTanimoto>
0.080 

> <ROCS_RefTversky>
0.140 

> <ROCS_RefColorTversky>
0.085 

> <ROCS_RefTverskyCombo>
0.225 

> <ROCS_FitTversky>
1.526 

> <ROCS_FitColorTversky>
0.580 

> <ROCS_FitTverskyCombo>
2.105 

> <ROCS_ColorScore>
-2.571

> <ROCS_Overlap>
965.590

> <ROCS_Rank>
66                  

$$$$
untitled-dbase-69_0
  -OEChem-11132311083D

  9  9  0     0  0  0  0  0  0999 V2000
    9.3056   10.9064   23.6759 C   0  0  0  0  0  0  0  0  0  0  0  0
    7.7864    9.8015   24.8282 C   0  0  0  0  0  0  0  0  0  0  0  0
    8.3191   11.7441   24.1402 C   0  0  0  0  0  0  0  0  0  0  0  0
    7.3765   11.0502   24.8570 N   0  0  0  0  0  0  0  0  0  0  0  0
    8.9509    9.6655   24.1249 N   0  0  0  0  0  0  0  0  0  0  0  0
    8.2343   13.6015   23.8538 Br  0  0  0  0  0  0  0  0  0  0  0  0
   10.1979   11.0680   23.0879 H   0  0  0  0  0  0  0  0  0  0  0  0
    7.2930    8.9586   25.2906 H   0  0  0  0  0  0  0  0  0  0  0  0
    9.4564    8.8042   23.9660 H   0  0  0  0  0  0  0  0  0  0  0  0
  1  3  2  0  0  0  0
  1  5  1  0  0  0  0
  2  4  2  0  0  0  0
  2  5  1  0  0  0  0
  3  4  1  0  0  0  0
  3  6  1  0  0  0  0
  1  7  1  0  0  0  0
  2  8  1  0  0  0  0
  5  9  1  0  0  0  0
M  END
> <Catalog ID>
Z1213725191

> <MW>
145.948

> <MW (desalted)>
146.973

> <ClogP>
0.938

> <logS>
-1.57

> <HBD>
1

> <HBA>
1

> <TPSA>
28.68

> <RotBonds>
0

> <ROCS_ShapeQuery>
A71EV2A-x0451_0A_A71EV2A-x0310_0A_A71EV2A-x0416_0A_peptide

> <ROCS_TanimotoCombo>
0.223 

> <ROCS_ShapeTanimoto>
0.135 

> <ROCS_ColorTanimoto>
0.088 

> <ROCS_RefTversky>
0.129 

> <ROCS_RefColorTversky>
0.097 

> <ROCS_RefTverskyCombo>
0.227 

> <ROCS_FitTversky>
1.487 

> <ROCS_FitColorTversky>
0.467 

> <ROCS_FitTverskyCombo>
1.954 

> <ROCS_ColorScore>
-2.960

> <ROCS_Overlap>
893.715

> <ROCS_Rank>
67                  

$$$$
untitled-dbase-77_0
  -OEChem-11132311083D

  9  9  0     0  0  0  0  0  0999 V2000
    9.3074   10.9056   23.6768 C   0  0  0  0  0  0  0  0  0  0  0  0
    7.7852    9.8020   24.8265 C   0  0  0  0  0  0  0  0  0  0  0  0
    8.3213   11.7442   24.1403 C   0  0  0  0  0  0  0  0  0  0  0  0
    7.3770   11.0512   24.8555 N   0  0  0  0  0  0  0  0  0  0  0  0
    8.9505    9.6649   24.1246 N   0  0  0  0  0  0  0  0  0  0  0  0
    8.2506   13.7731   23.8170 I   0  0  0  0  0  0  0  0  0  0  0  0
   10.2015   11.0636   23.0901 H   0  0  0  0  0  0  0  0  0  0  0  0
    7.2902    8.9594   25.2877 H   0  0  0  0  0  0  0  0  0  0  0  0
    9.4551    8.8030   23.9658 H   0  0  0  0  0  0  0  0  0  0  0  0
  1  3  2  0  0  0  0
  1  5  1  0  0  0  0
  2  4  2  0  0  0  0
  2  5  1  0  0  0  0
  3  4  1  0  0  0  0
  3  6  1  0  0  0  0
  1  7  1  0  0  0  0
  2  8  1  0  0  0  0
  5  9  1  0  0  0  0
M  END
> <Catalog ID>
Z1201621250

> <MW>
193.934

> <MW (desalted)>
193.974

> <ClogP>
0.898

> <logS>
-1.897

> <HBD>
1

> <HBA>
1

> <TPSA>
28.68

> <RotBonds>
0

> <ROCS_ShapeQuery>
A71EV2A-x0451_0A_A71EV2A-x0310_0A_A71EV2A-x0416_0A_peptide

> <ROCS_TanimotoCombo>
0.221 

> <ROCS_ShapeTanimoto>
0.134 

> <ROCS_ColorTanimoto>
0.088 

> <ROCS_RefTversky>
0.128 

> <ROCS_RefColorTversky>
0.097 

> <ROCS_RefTverskyCombo>
0.225 

> <ROCS_FitTversky>
1.479 

> <ROCS_FitColorTversky>
0.467 

> <ROCS_FitTverskyCombo>
1.946 

> <ROCS_ColorScore>
-2.960

> <ROCS_Overlap>
884.256

> <ROCS_Rank>
68                  

$$$$
untitled-dbase-76_0
  -OEChem-11132311083D

  9  9  0     0  0  0  0  0  0999 V2000
    9.4213   10.3921   23.5606 C   0  0  0  0  0  0  0  0  0  0  0  0
    8.1586   12.0733   24.2205 C   0  0  0  0  0  0  0  0  0  0  0  0
    8.3644    9.9574   24.3251 C   0  0  0  0  0  0  0  0  0  0  0  0
    7.5819   11.0088   24.7326 N   0  0  0  0  0  0  0  0  0  0  0  0
    9.2758   11.7495   23.5021 N   0  0  0  0  0  0  0  0  0  0  0  0
    8.0222    8.3440   24.7461 Cl  0  0  0  0  0  0  0  0  0  0  0  0
   10.2382    9.8826   23.0696 H   0  0  0  0  0  0  0  0  0  0  0  0
    7.8228   13.0946   24.3304 H   0  0  0  0  0  0  0  0  0  0  0  0
    9.8840   12.3964   23.0181 H   0  0  0  0  0  0  0  0  0  0  0  0
  1  3  2  0  0  0  0
  1  5  1  0  0  0  0
  2  4  2  0  0  0  0
  2  5  1  0  0  0  0
  3  4  1  0  0  0  0
  3  6  1  0  0  0  0
  1  7  1  0  0  0  0
  2  8  1  0  0  0  0
  5  9  1  0  0  0  0
M  END
> <Catalog ID>
Z1198183601

> <MW>
101.998

> <MW (desalted)>
102.522

> <ClogP>
0.788

> <logS>
-1.632

> <HBD>
1

> <HBA>
1

> <TPSA>
28.68

> <RotBonds>
0

> <ROCS_ShapeQuery>
A71EV2A-x0451_0A_A71EV2A-x0310_0A_A71EV2A-x0416_0A_peptide

> <ROCS_TanimotoCombo>
0.221 

> <ROCS_ShapeTanimoto>
0.140 

> <ROCS_ColorTanimoto>
0.082 

> <ROCS_RefTversky>
0.133 

> <ROCS_RefColorTversky>
0.089 

> <ROCS_RefTverskyCombo>
0.222 

> <ROCS_FitTversky>
1.522 

> <ROCS_FitColorTversky>
0.500 

> <ROCS_FitTverskyCombo>
2.022 

> <ROCS_ColorScore>
-2.693

> <ROCS_Overlap>
920.432

> <ROCS_Rank>
69                  

$$$$
untitled-dbase-52_0
  -OEChem-11132311083D

  9  9  0     0  0  0  0  0  0999 V2000
    8.3127   11.7459   24.1287 C   0  0  0  0  0  0  0  0  0  0  0  0
    9.3003   10.9092   23.6649 C   0  0  0  0  0  0  0  0  0  0  0  0
    7.7914    9.8058   24.8323 C   0  0  0  0  0  0  0  0  0  0  0  0
    7.3766   11.0530   24.8549 N   0  0  0  0  0  0  0  0  0  0  0  0
    8.9530    9.6699   24.1240 N   0  0  0  0  0  0  0  0  0  0  0  0
    7.0766    8.4468   25.5439 Cl  0  0  0  0  0  0  0  0  0  0  0  0
    8.2280   12.8120   23.9769 H   0  0  0  0  0  0  0  0  0  0  0  0
   10.1877   11.0749   23.0716 H   0  0  0  0  0  0  0  0  0  0  0  0
    9.4605    8.8092   23.9685 H   0  0  0  0  0  0  0  0  0  0  0  0
  1  2  2  0  0  0  0
  1  4  1  0  0  0  0
  2  5  1  0  0  0  0
  3  4  2  0  0  0  0
  3  5  1  0  0  0  0
  3  6  1  0  0  0  0
  1  7  1  0  0  0  0
  2  8  1  0  0  0  0
  5  9  1  0  0  0  0
M  END
> <Catalog ID>
Z1203730955

> <MW>
101.998

> <MW (desalted)>
102.522

> <ClogP>
0.788

> <logS>
-1.562

> <HBD>
1

> <HBA>
1

> <TPSA>
28.68

> <RotBonds>
0

> <ROCS_ShapeQuery>
A71EV2A-x0451_0A_A71EV2A-x0310_0A_A71EV2A-x0416_0A_peptide

> <ROCS_TanimotoCombo>
0.221 

> <ROCS_ShapeTanimoto>
0.131 

> <ROCS_ColorTanimoto>
0.090 

> <ROCS_RefTversky>
0.126 

> <ROCS_RefColorTversky>
0.098 

> <ROCS_RefTverskyCombo>
0.223 

> <ROCS_FitTversky>
1.434 

> <ROCS_FitColorTversky>
0.550 

> <ROCS_FitTverskyCombo>
1.984 

> <ROCS_ColorScore>
-2.960

> <ROCS_Overlap>
868.185

> <ROCS_Rank>
70                  

$$$$
untitled-dbase-61_0
  -OEChem-11132311083D

  9  9  0     0  0  0  0  0  0999 V2000
    8.3135   11.7463   24.1305 C   0  0  0  0  0  0  0  0  0  0  0  0
    9.3021   10.9102   23.6678 C   0  0  0  0  0  0  0  0  0  0  0  0
    7.7909    9.8055   24.8308 C   0  0  0  0  0  0  0  0  0  0  0  0
    7.3760   11.0526   24.8539 N   0  0  0  0  0  0  0  0  0  0  0  0
    8.9539    9.6704   24.1248 N   0  0  0  0  0  0  0  0  0  0  0  0
    6.8861    8.3681   25.6749 Br  0  0  0  0  0  0  0  0  0  0  0  0
    8.2299   12.8128   23.9795 H   0  0  0  0  0  0  0  0  0  0  0  0
   10.1908   11.0767   23.0765 H   0  0  0  0  0  0  0  0  0  0  0  0
    9.4623    8.8100   23.9706 H   0  0  0  0  0  0  0  0  0  0  0  0
  1  2  2  0  0  0  0
  1  4  1  0  0  0  0
  2  5  1  0  0  0  0
  3  4  2  0  0  0  0
  3  5  1  0  0  0  0
  3  6  1  0  0  0  0
  1  7  1  0  0  0  0
  2  8  1  0  0  0  0
  5  9  1  0  0  0  0
M  END
> <Catalog ID>
Z1203730981

> <MW>
145.948

> <MW (desalted)>
146.973

> <ClogP>
0.938

> <logS>
-1.837

> <HBD>
1

> <HBA>
1

> <TPSA>
28.68

> <RotBonds>
0

> <ROCS_ShapeQuery>
A71EV2A-x0451_0A_A71EV2A-x0310_0A_A71EV2A-x0416_0A_peptide

> <ROCS_TanimotoCombo>
0.217 

> <ROCS_ShapeTanimoto>
0.129 

> <ROCS_ColorTanimoto>
0.088 

> <ROCS_RefTversky>
0.124 

> <ROCS_RefColorTversky>
0.097 

> <ROCS_RefTverskyCombo>
0.222 

> <ROCS_FitTversky>
1.430 

> <ROCS_FitColorTversky>
0.467 

> <ROCS_FitTverskyCombo>
1.897 

> <ROCS_ColorScore>
-2.960

> <ROCS_Overlap>
859.302

> <ROCS_Rank>
71                  

$$$$
untitled-dbase-74_0
  -OEChem-11132311083D

  8  8  0     0  0  0  0  0  0999 V2000
    8.0729   12.0770   24.6251 C   0  0  0  0  0  0  0  0  0  0  0  0
    9.1587   11.7979   23.8328 C   0  0  0  0  0  0  0  0  0  0  0  0
    8.0590   10.0091   24.2418 C   0  0  0  0  0  0  0  0  0  0  0  0
    7.3719   10.9269   24.8836 N   0  0  0  0  0  0  0  0  0  0  0  0
    9.1590   10.4597   23.5785 O   0  0  0  0  0  0  0  0  0  0  0  0
    7.5009    7.9942   24.2410 I   0  0  0  0  0  0  0  0  0  0  0  0
    7.7612   13.0330   25.0182 H   0  0  0  0  0  0  0  0  0  0  0  0
    9.9606   12.3734   23.3959 H   0  0  0  0  0  0  0  0  0  0  0  0
  1  2  2  0  0  0  0
  1  4  1  0  0  0  0
  2  5  1  0  0  0  0
  3  4  2  0  0  0  0
  3  5  1  0  0  0  0
  3  6  1  0  0  0  0
  1  7  1  0  0  0  0
  2  8  1  0  0  0  0
M  END
> <Catalog ID>
Z1255498661

> <MW>
194.918

> <MW (desalted)>
194.959

> <ClogP>
0.728

> <logS>
-1.491

> <HBD>
0

> <HBA>
1

> <TPSA>
26.03

> <RotBonds>
0

> <ROCS_ShapeQuery>
A71EV2A-x0451_0A_A71EV2A-x0310_0A_A71EV2A-x0416_0A_peptide

> <ROCS_TanimotoCombo>
0.217 

> <ROCS_ShapeTanimoto>
0.137 

> <ROCS_ColorTanimoto>
0.079 

> <ROCS_RefTversky>
0.131 

> <ROCS_RefColorTversky>
0.084 

> <ROCS_RefTverskyCombo>
0.216 

> <ROCS_FitTversky>
1.515 

> <ROCS_FitColorTversky>
0.576 

> <ROCS_FitTverskyCombo>
2.091 

> <ROCS_ColorScore>
-2.553

> <ROCS_Overlap>
906.598

> <ROCS_Rank>
72                  

$$$$
untitled-dbase-35_0
  -OEChem-11132311083D

  9  9  0     0  0  0  0  0  0999 V2000
    8.3118   11.7462   24.1281 C   0  0  0  0  0  0  0  0  0  0  0  0
    9.2997   10.9097   23.6646 C   0  0  0  0  0  0  0  0  0  0  0  0
    7.7921    9.8063   24.8334 C   0  0  0  0  0  0  0  0  0  0  0  0
    7.3765   11.0532   24.8552 N   0  0  0  0  0  0  0  0  0  0  0  0
    8.9534    9.6706   24.1247 N   0  0  0  0  0  0  0  0  0  0  0  0
    6.8062    8.2381   25.7603 I   0  0  0  0  0  0  0  0  0  0  0  0
    8.2262   12.8121   23.9751 H   0  0  0  0  0  0  0  0  0  0  0  0
   10.1866   11.0755   23.0706 H   0  0  0  0  0  0  0  0  0  0  0  0
    9.4609    8.8098   23.9697 H   0  0  0  0  0  0  0  0  0  0  0  0
  1  2  2  0  0  0  0
  1  4  1  0  0  0  0
  2  5  1  0  0  0  0
  3  4  2  0  0  0  0
  3  5  1  0  0  0  0
  3  6  1  0  0  0  0
  1  7  1  0  0  0  0
  2  8  1  0  0  0  0
  5  9  1  0  0  0  0
M  END
> <Catalog ID>
Z1255390921

> <MW>
193.934

> <MW (desalted)>
193.974

> <ClogP>
0.898

> <logS>
-1.827

> <HBD>
1

> <HBA>
1

> <TPSA>
28.68

> <RotBonds>
0

> <ROCS_ShapeQuery>
A71EV2A-x0451_0A_A71EV2A-x0310_0A_A71EV2A-x0416_0A_peptide

> <ROCS_TanimotoCombo>
0.216 

> <ROCS_ShapeTanimoto>
0.128 

> <ROCS_ColorTanimoto>
0.088 

> <ROCS_RefTversky>
0.123 

> <ROCS_RefColorTversky>
0.097 

> <ROCS_RefTverskyCombo>
0.221 

> <ROCS_FitTversky>
1.426 

> <ROCS_FitColorTversky>
0.467 

> <ROCS_FitTverskyCombo>
1.893 

> <ROCS_ColorScore>
-2.960

> <ROCS_Overlap>
852.383

> <ROCS_Rank>
73                  

$$$$
untitled-dbase-13_0
  -OEChem-11132311083D

  9  9  0     0  0  0  0  0  0999 V2000
    8.0167   11.6879   24.3743 C   0  0  0  0  0  0  0  0  0  0  0  0
    7.8724   10.3797   24.7669 C   0  0  0  0  0  0  0  0  0  0  0  0
    9.1367   11.6779   23.5214 C   0  0  0  0  0  0  0  0  0  0  0  0
    9.6663   10.4599   23.3802 N   0  0  0  0  0  0  0  0  0  0  0  0
    8.8758    9.6924   24.1496 N   0  0  0  0  0  0  0  0  0  0  0  0
    9.9000   13.3480   22.5806 I   0  0  0  0  0  0  0  0  0  0  0  0
    7.3933   12.5198   24.6696 H   0  0  0  0  0  0  0  0  0  0  0  0
    7.1615    9.8868   25.4144 H   0  0  0  0  0  0  0  0  0  0  0  0
    9.0791    8.7025   24.2092 H   0  0  0  0  0  0  0  0  0  0  0  0
  1  2  2  0  0  0  0
  1  3  1  0  0  0  0
  2  5  1  0  0  0  0
  3  4  2  0  0  0  0
  3  6  1  0  0  0  0
  4  5  1  0  0  0  0
  1  7  1  0  0  0  0
  2  8  1  0  0  0  0
  5  9  1  0  0  0  0
M  END
> <Catalog ID>
Z1198342551

> <MW>
193.934

> <MW (desalted)>
193.974

> <ClogP>
1.588

> <logS>
-1.769

> <HBD>
1

> <HBA>
1

> <TPSA>
28.68

> <RotBonds>
0

> <ROCS_ShapeQuery>
A71EV2A-x0451_0A_A71EV2A-x0310_0A_A71EV2A-x0416_0A_peptide

> <ROCS_TanimotoCombo>
0.212 

> <ROCS_ShapeTanimoto>
0.145 

> <ROCS_ColorTanimoto>
0.067 

> <ROCS_RefTversky>
0.137 

> <ROCS_RefColorTversky>
0.074 

> <ROCS_RefTverskyCombo>
0.211 

> <ROCS_FitTversky>
1.588 

> <ROCS_FitColorTversky>
0.418 

> <ROCS_FitTverskyCombo>
2.005 

> <ROCS_ColorScore>
-2.251

> <ROCS_Overlap>
947.879

> <ROCS_Rank>
74                  

$$$$
untitled-dbase-9_0
  -OEChem-11132311083D

 11 11  0     0  0  0  0  0  0999 V2000
    9.0985   12.3006   23.8843 C   0  0  0  0  0  0  0  0  0  0  0  0
    8.8121   11.5280   22.7643 C   0  0  0  0  0  0  0  0  0  0  0  0
    8.9039   11.7713   25.1553 C   0  0  0  0  0  0  0  0  0  0  0  0
    8.3372   10.2423   22.9674 C   0  0  0  0  0  0  0  0  0  0  0  0
    8.4247   10.4748   25.2514 C   0  0  0  0  0  0  0  0  0  0  0  0
    8.1354    9.6938   24.1864 N   0  0  0  0  0  0  0  0  0  0  0  0
    8.1547    9.7404   26.7781 Cl  0  0  0  0  0  0  0  0  0  0  0  0
    9.4717   13.3135   23.7671 H   0  0  0  0  0  0  0  0  0  0  0  0
    8.9553   11.9205   21.7640 H   0  0  0  0  0  0  0  0  0  0  0  0
    9.1237   12.3663   26.0356 H   0  0  0  0  0  0  0  0  0  0  0  0
    8.0989    9.5994   22.1265 H   0  0  0  0  0  0  0  0  0  0  0  0
  1  2  1  0  0  0  0
  1  3  2  0  0  0  0
  2  4  2  0  0  0  0
  3  5  1  0  0  0  0
  4  6  1  0  0  0  0
  5  6  2  0  0  0  0
  5  7  1  0  0  0  0
  1  8  1  0  0  0  0
  2  9  1  0  0  0  0
  3 10  1  0  0  0  0
  4 11  1  0  0  0  0
M  END
> <Catalog ID>
Z57127892

> <MW>
113.003

> <MW (desalted)>
113.545

> <ClogP>
1.442

> <logS>
-1.625

> <HBD>
0

> <HBA>
1

> <TPSA>
12.89

> <RotBonds>
0

> <ROCS_ShapeQuery>
A71EV2A-x0451_0A_A71EV2A-x0310_0A_A71EV2A-x0416_0A_peptide

> <ROCS_TanimotoCombo>
0.209 

> <ROCS_ShapeTanimoto>
0.123 

> <ROCS_ColorTanimoto>
0.086 

> <ROCS_RefTversky>
0.120 

> <ROCS_RefColorTversky>
0.089 

> <ROCS_RefTverskyCombo>
0.208 

> <ROCS_FitTversky>
1.292 

> <ROCS_FitColorTversky>
0.768 

> <ROCS_FitTverskyCombo>
2.060 

> <ROCS_ColorScore>
-2.677

> <ROCS_Overlap>
828.492

> <ROCS_Rank>
75                  

$$$$
untitled-dbase-27_0
  -OEChem-11132311083D

 11 11  0     0  0  0  0  0  0999 V2000
    7.9539    9.9882   23.8484 C   0  0  0  0  0  0  0  0  0  0  0  0
    9.2280   10.0139   23.2921 C   0  0  0  0  0  0  0  0  0  0  0  0
    7.4829   11.0958   24.5446 C   0  0  0  0  0  0  0  0  0  0  0  0
    9.9855   11.1621   23.4589 C   0  0  0  0  0  0  0  0  0  0  0  0
    8.3186   12.1955   24.6555 C   0  0  0  0  0  0  0  0  0  0  0  0
    9.5621   12.2574   24.1286 N   0  0  0  0  0  0  0  0  0  0  0  0
    7.6929   13.7215   25.5975 Br  0  0  0  0  0  0  0  0  0  0  0  0
    7.3294    9.1068   23.7393 H   0  0  0  0  0  0  0  0  0  0  0  0
    9.6161    9.1621   22.7456 H   0  0  0  0  0  0  0  0  0  0  0  0
    6.4898   11.0801   24.9805 H   0  0  0  0  0  0  0  0  0  0  0  0
   10.9856   11.2331   23.0439 H   0  0  0  0  0  0  0  0  0  0  0  0
  1  2  1  0  0  0  0
  1  3  2  0  0  0  0
  2  4  2  0  0  0  0
  3  5  1  0  0  0  0
  4  6  1  0  0  0  0
  5  6  2  0  0  0  0
  5  7  1  0  0  0  0
  1  8  1  0  0  0  0
  2  9  1  0  0  0  0
  3 10  1  0  0  0  0
  4 11  1  0  0  0  0
M  END
> <Catalog ID>
Z57160165

> <MW>
156.953

> <MW (desalted)>
157.996

> <ClogP>
1.592

> <logS>
-1.892

> <HBD>
0

> <HBA>
1

> <TPSA>
12.89

> <RotBonds>
0

> <ROCS_ShapeQuery>
A71EV2A-x0451_0A_A71EV2A-x0310_0A_A71EV2A-x0416_0A_peptide

> <ROCS_TanimotoCombo>
0.208 

> <ROCS_ShapeTanimoto>
0.156 

> <ROCS_ColorTanimoto>
0.053 

> <ROCS_RefTversky>
0.147 

> <ROCS_RefColorTversky>
0.057 

> <ROCS_RefTverskyCombo>
0.204 

> <ROCS_FitTversky>
1.596 

> <ROCS_FitColorTversky>
0.390 

> <ROCS_FitTverskyCombo>
1.986 

> <ROCS_ColorScore>
-1.732

> <ROCS_Overlap>
1016.260

> <ROCS_Rank>
76                  

$$$$
untitled-dbase-21_0
  -OEChem-11132311083D

 11 11  0     0  0  0  0  0  0999 V2000
    7.8598   10.0623   23.9091 C   0  0  0  0  0  0  0  0  0  0  0  0
    9.2252    9.8324   23.7822 C   0  0  0  0  0  0  0  0  0  0  0  0
    7.3944   11.3567   24.1123 C   0  0  0  0  0  0  0  0  0  0  0  0
   10.0769   10.9222   23.8653 C   0  0  0  0  0  0  0  0  0  0  0  0
    8.3280   12.3782   24.1808 C   0  0  0  0  0  0  0  0  0  0  0  0
    9.6619   12.1937   24.0620 N   0  0  0  0  0  0  0  0  0  0  0  0
    7.6600   14.3389   24.4777 I   0  0  0  0  0  0  0  0  0  0  0  0
    7.1603    9.2341   23.8479 H   0  0  0  0  0  0  0  0  0  0  0  0
    9.6104    8.8322   23.6207 H   0  0  0  0  0  0  0  0  0  0  0  0
    6.3285   11.5359   24.2087 H   0  0  0  0  0  0  0  0  0  0  0  0
   11.1505   10.7962   23.7722 H   0  0  0  0  0  0  0  0  0  0  0  0
  1  2  1  0  0  0  0
  1  3  2  0  0  0  0
  2  4  2  0  0  0  0
  3  5  1  0  0  0  0
  4  6  1  0  0  0  0
  5  6  2  0  0  0  0
  5  7  1  0  0  0  0
  1  8  1  0  0  0  0
  2  9  1  0  0  0  0
  3 10  1  0  0  0  0
  4 11  1  0  0  0  0
M  END
> <Catalog ID>
Z1259155803

> <MW>
204.939

> <MW (desalted)>
204.996

> <ClogP>
1.552

> <logS>
-1.874

> <HBD>
0

> <HBA>
1

> <TPSA>
12.89

> <RotBonds>
0

> <ROCS_ShapeQuery>
A71EV2A-x0451_0A_A71EV2A-x0310_0A_A71EV2A-x0416_0A_peptide

> <ROCS_TanimotoCombo>
0.197 

> <ROCS_ShapeTanimoto>
0.145 

> <ROCS_ColorTanimoto>
0.052 

> <ROCS_RefTversky>
0.138 

> <ROCS_RefColorTversky>
0.057 

> <ROCS_RefTverskyCombo>
0.195 

> <ROCS_FitTversky>
1.505 

> <ROCS_FitColorTversky>
0.390 

> <ROCS_FitTverskyCombo>
1.895 

> <ROCS_ColorScore>
-1.731

> <ROCS_Overlap>
953.563

> <ROCS_Rank>
77                  

$$$$
untitled-dbase-14_0
  -OEChem-11132311083D

  9  9  0     0  0  0  0  0  0999 V2000
    8.4165   10.4679   23.8389 C   0  0  0  0  0  0  0  0  0  0  0  0
    9.1953   10.6950   22.7305 C   0  0  0  0  0  0  0  0  0  0  0  0
    8.7384   11.5203   24.7168 C   0  0  0  0  0  0  0  0  0  0  0  0
    9.6507   12.3539   24.2099 N   0  0  0  0  0  0  0  0  0  0  0  0
    9.9087   11.8254   23.0015 N   0  0  0  0  0  0  0  0  0  0  0  0
    7.9666   11.7285   26.4164 Br  0  0  0  0  0  0  0  0  0  0  0  0
    7.7189    9.6549   23.9808 H   0  0  0  0  0  0  0  0  0  0  0  0
    9.3032   10.1662   21.7945 H   0  0  0  0  0  0  0  0  0  0  0  0
   10.5861   12.2897   22.4094 H   0  0  0  0  0  0  0  0  0  0  0  0
  1  2  2  0  0  0  0
  1  3  1  0  0  0  0
  2  5  1  0  0  0  0
  3  4  2  0  0  0  0
  3  6  1  0  0  0  0
  4  5  1  0  0  0  0
  1  7  1  0  0  0  0
  2  8  1  0  0  0  0
  5  9  1  0  0  0  0
M  END
> <Catalog ID>
Z1198157234

> <MW>
145.948

> <MW (desalted)>
146.973

> <ClogP>
1.328

> <logS>
-1.779

> <HBD>
1

> <HBA>
1

> <TPSA>
28.68

> <RotBonds>
0

> <ROCS_ShapeQuery>
A71EV2A-x0451_0A_A71EV2A-x0310_0A_A71EV2A-x0416_0A_peptide

> <ROCS_TanimotoCombo>
0.190 

> <ROCS_ShapeTanimoto>
0.123 

> <ROCS_ColorTanimoto>
0.067 

> <ROCS_RefTversky>
0.119 

> <ROCS_RefColorTversky>
0.074 

> <ROCS_RefTverskyCombo>
0.193 

> <ROCS_FitTversky>
1.366 

> <ROCS_FitColorTversky>
0.419 

> <ROCS_FitTverskyCombo>
1.785 

> <ROCS_ColorScore>
-2.256

> <ROCS_Overlap>
820.025

> <ROCS_Rank>
78                  

$$$$
untitled-dbase-20_0
  -OEChem-11132311083D

 10 10  0     0  0  0  0  0  0999 V2000
   11.0511   12.9284   23.4573 C   0  0  0  0  0  0  0  0  0  0  0  0
   10.3897   11.7416   23.2304 C   0  0  0  0  0  0  0  0  0  0  0  0
    9.4063   13.5671   24.9120 C   0  0  0  0  0  0  0  0  0  0  0  0
    8.7443   12.3807   24.6845 C   0  0  0  0  0  0  0  0  0  0  0  0
   10.5714   13.8624   24.3023 N   0  0  0  0  0  0  0  0  0  0  0  0
    9.2243   11.4465   23.8399 N   0  0  0  0  0  0  0  0  0  0  0  0
    7.2651   12.0003   25.4535 Cl  0  0  0  0  0  0  0  0  0  0  0  0
   11.9877   13.1649   22.9676 H   0  0  0  0  0  0  0  0  0  0  0  0
   10.7760   10.9917   22.5512 H   0  0  0  0  0  0  0  0  0  0  0  0
    9.0284   14.3241   25.5896 H   0  0  0  0  0  0  0  0  0  0  0  0
  1  2  2  0  0  0  0
  1  5  1  0  0  0  0
  2  6  1  0  0  0  0
  3  4  1  0  0  0  0
  3  5  2  0  0  0  0
  4  6  2  0  0  0  0
  4  7  1  0  0  0  0
  1  8  1  0  0  0  0
  2  9  1  0  0  0  0
  3 10  1  0  0  0  0
M  END
> <Catalog ID>
Z104490192

> <MW>
113.998

> <MW (desalted)>
114.533

> <ClogP>
0.439

> <logS>
-0.51

> <HBD>
0

> <HBA>
2

> <TPSA>
25.78

> <RotBonds>
0

> <ROCS_ShapeQuery>
A71EV2A-x0451_0A_A71EV2A-x0310_0A_A71EV2A-x0416_0A_peptide

> <ROCS_TanimotoCombo>
0.188 

> <ROCS_ShapeTanimoto>
0.134 

> <ROCS_ColorTanimoto>
0.054 

> <ROCS_RefTversky>
0.129 

> <ROCS_RefColorTversky>
0.059 

> <ROCS_RefTverskyCombo>
0.188 

> <ROCS_FitTversky>
1.384 

> <ROCS_FitColorTversky>
0.402 

> <ROCS_FitTverskyCombo>
1.786 

> <ROCS_ColorScore>
-1.783

> <ROCS_Overlap>
892.893

> <ROCS_Rank>
79                  

$$$$
untitled-dbase-22_0
  -OEChem-11132311083D

 10 10  0     0  0  0  0  0  0999 V2000
   11.0830   12.9465   23.4623 C   0  0  0  0  0  0  0  0  0  0  0  0
   10.4430   11.7505   23.2225 C   0  0  0  0  0  0  0  0  0  0  0  0
    9.4019   13.5606   24.8858 C   0  0  0  0  0  0  0  0  0  0  0  0
    8.7615   12.3650   24.6455 C   0  0  0  0  0  0  0  0  0  0  0  0
   10.5740   13.8730   24.2984 N   0  0  0  0  0  0  0  0  0  0  0  0
    9.2707   11.4383   23.8097 N   0  0  0  0  0  0  0  0  0  0  0  0
    6.9576   11.9467   25.5922 I   0  0  0  0  0  0  0  0  0  0  0  0
   12.0259   13.1958   22.9916 H   0  0  0  0  0  0  0  0  0  0  0  0
   10.8540   11.0058   22.5522 H   0  0  0  0  0  0  0  0  0  0  0  0
    9.0084   14.3167   25.5557 H   0  0  0  0  0  0  0  0  0  0  0  0
  1  2  2  0  0  0  0
  1  5  1  0  0  0  0
  2  6  1  0  0  0  0
  3  4  1  0  0  0  0
  3  5  2  0  0  0  0
  4  6  2  0  0  0  0
  4  7  1  0  0  0  0
  1  8  1  0  0  0  0
  2  9  1  0  0  0  0
  3 10  1  0  0  0  0
M  END
> <Catalog ID>
Z1235940810

> <MW>
205.934

> <MW (desalted)>
205.984

> <ClogP>
0.549

> <logS>
-0.67

> <HBD>
0

> <HBA>
2

> <TPSA>
25.78

> <RotBonds>
0

> <ROCS_ShapeQuery>
A71EV2A-x0451_0A_A71EV2A-x0310_0A_A71EV2A-x0416_0A_peptide

> <ROCS_TanimotoCombo>
0.185 

> <ROCS_ShapeTanimoto>
0.133 

> <ROCS_ColorTanimoto>
0.053 

> <ROCS_RefTversky>
0.128 

> <ROCS_RefColorTversky>
0.059 

> <ROCS_RefTverskyCombo>
0.187 

> <ROCS_FitTversky>
1.386 

> <ROCS_FitColorTversky>
0.331 

> <ROCS_FitTverskyCombo>
1.717 

> <ROCS_ColorScore>
-1.782

> <ROCS_Overlap>
883.943

> <ROCS_Rank>
80                  

$$$$
untitled-dbase-56_0
  -OEChem-11132311083D

 10 10  0     0  0  0  0  0  0999 V2000
    8.8198   12.3558   24.8038 C   0  0  0  0  0  0  0  0  0  0  0  0
    9.5184   13.5234   25.0343 C   0  0  0  0  0  0  0  0  0  0  0  0
    9.2787   11.5824   23.7571 C   0  0  0  0  0  0  0  0  0  0  0  0
   10.9341   13.0755   23.3132 C   0  0  0  0  0  0  0  0  0  0  0  0
   10.5842   13.9156   24.3058 N   0  0  0  0  0  0  0  0  0  0  0  0
   10.3368   11.9132   22.9881 N   0  0  0  0  0  0  0  0  0  0  0  0
   12.2796   13.5335   22.3646 Cl  0  0  0  0  0  0  0  0  0  0  0  0
    7.9682   12.0659   25.4043 H   0  0  0  0  0  0  0  0  0  0  0  0
    9.2317   14.1962   25.8355 H   0  0  0  0  0  0  0  0  0  0  0  0
    8.7933   10.6469   23.5002 H   0  0  0  0  0  0  0  0  0  0  0  0
  1  2  1  0  0  0  0
  1  3  2  0  0  0  0
  2  5  2  0  0  0  0
  3  6  1  0  0  0  0
  4  5  1  0  0  0  0
  4  6  2  0  0  0  0
  4  7  1  0  0  0  0
  1  8  1  0  0  0  0
  2  9  1  0  0  0  0
  3 10  1  0  0  0  0
M  END
> <Catalog ID>
Z104477694

> <MW>
113.998

> <MW (desalted)>
114.533

> <ClogP>
0.439

> <logS>
-1.56

> <HBD>
0

> <HBA>
2

> <TPSA>
25.78

> <RotBonds>
0

> <ROCS_ShapeQuery>
A71EV2A-x0451_0A_A71EV2A-x0310_0A_A71EV2A-x0416_0A_peptide

> <ROCS_TanimotoCombo>
0.180 

> <ROCS_ShapeTanimoto>
0.126 

> <ROCS_ColorTanimoto>
0.054 

> <ROCS_RefTversky>
0.122 

> <ROCS_RefColorTversky>
0.059 

> <ROCS_RefTverskyCombo>
0.181 

> <ROCS_FitTversky>
1.309 

> <ROCS_FitColorTversky>
0.401 

> <ROCS_FitTverskyCombo>
1.710 

> <ROCS_ColorScore>
-1.781

> <ROCS_Overlap>
844.852

> <ROCS_Rank>
81                  

$$$$
untitled-dbase-83_0
  -OEChem-11132311083D

 10 10  0     0  0  0  0  0  0999 V2000
    8.8150   12.3590   24.8034 C   0  0  0  0  0  0  0  0  0  0  0  0
    9.2774   11.5788   23.7632 C   0  0  0  0  0  0  0  0  0  0  0  0
    9.5134   13.5275   25.0294 C   0  0  0  0  0  0  0  0  0  0  0  0
   10.9351   13.0685   23.3162 C   0  0  0  0  0  0  0  0  0  0  0  0
   10.3385   11.9044   22.9963 N   0  0  0  0  0  0  0  0  0  0  0  0
   10.5821   13.9147   24.3026 N   0  0  0  0  0  0  0  0  0  0  0  0
   12.4404   13.5713   22.2606 Br  0  0  0  0  0  0  0  0  0  0  0  0
    7.9604   12.0739   25.4019 H   0  0  0  0  0  0  0  0  0  0  0  0
    8.7917   10.6423   23.5100 H   0  0  0  0  0  0  0  0  0  0  0  0
    9.2243   14.2054   25.8252 H   0  0  0  0  0  0  0  0  0  0  0  0
  1  2  1  0  0  0  0
  1  3  2  0  0  0  0
  2  5  2  0  0  0  0
  3  6  1  0  0  0  0
  4  5  1  0  0  0  0
  4  6  2  0  0  0  0
  4  7  1  0  0  0  0
  1  8  1  0  0  0  0
  2  9  1  0  0  0  0
  3 10  1  0  0  0  0
M  END
> <Catalog ID>
Z415645012

> <MW>
157.948

> <MW (desalted)>
158.984

> <ClogP>
0.589

> <logS>
-1.83

> <HBD>
0

> <HBA>
2

> <TPSA>
25.78

> <RotBonds>
0

> <ROCS_ShapeQuery>
A71EV2A-x0451_0A_A71EV2A-x0310_0A_A71EV2A-x0416_0A_peptide

> <ROCS_TanimotoCombo>
0.177 

> <ROCS_ShapeTanimoto>
0.124 

> <ROCS_ColorTanimoto>
0.052 

> <ROCS_RefTversky>
0.121 

> <ROCS_RefColorTversky>
0.059 

> <ROCS_RefTverskyCombo>
0.180 

> <ROCS_FitTversky>
1.303 

> <ROCS_FitColorTversky>
0.330 

> <ROCS_FitTverskyCombo>
1.633 

> <ROCS_ColorScore>
-1.781

> <ROCS_Overlap>
835.106

> <ROCS_Rank>
82                  

$$$$
untitled-dbase-15_0
  -OEChem-11132311083D

 10 10  0     0  0  0  0  0  0999 V2000
    8.7848   12.3974   24.8226 C   0  0  0  0  0  0  0  0  0  0  0  0
    9.2725   11.5655   23.8355 C   0  0  0  0  0  0  0  0  0  0  0  0
    9.4873   13.5692   25.0167 C   0  0  0  0  0  0  0  0  0  0  0  0
   10.9587   13.0183   23.3739 C   0  0  0  0  0  0  0  0  0  0  0  0
   10.3610   11.8457   23.0891 N   0  0  0  0  0  0  0  0  0  0  0  0
   10.5827   13.9127   24.3079 N   0  0  0  0  0  0  0  0  0  0  0  0
   12.6616   13.5032   22.2415 I   0  0  0  0  0  0  0  0  0  0  0  0
    7.9090   12.1467   25.4062 H   0  0  0  0  0  0  0  0  0  0  0  0
    8.7867   10.6219   23.6105 H   0  0  0  0  0  0  0  0  0  0  0  0
    9.1787   14.2867   25.7695 H   0  0  0  0  0  0  0  0  0  0  0  0
  1  2  1  0  0  0  0
  1  3  2  0  0  0  0
  2  5  2  0  0  0  0
  3  6  1  0  0  0  0
  4  5  1  0  0  0  0
  4  6  2  0  0  0  0
  4  7  1  0  0  0  0
  1  8  1  0  0  0  0
  2  9  1  0  0  0  0
  3 10  1  0  0  0  0
M  END
> <Catalog ID>
Z1069972546

> <MW>
205.934

> <MW (desalted)>
205.984

> <ClogP>
0.249

> <logS>
-1.901

> <HBD>
0

> <HBA>
2

> <TPSA>
25.78

> <RotBonds>
0

> <ROCS_ShapeQuery>
A71EV2A-x0451_0A_A71EV2A-x0310_0A_A71EV2A-x0416_0A_peptide

> <ROCS_TanimotoCombo>
0.175 

> <ROCS_ShapeTanimoto>
0.122 

> <ROCS_ColorTanimoto>
0.052 

> <ROCS_RefTversky>
0.119 

> <ROCS_RefColorTversky>
0.059 

> <ROCS_RefTverskyCombo>
0.178 

> <ROCS_FitTversky>
1.287 

> <ROCS_FitColorTversky>
0.330 

> <ROCS_FitTverskyCombo>
1.618 

> <ROCS_ColorScore>
-1.781

> <ROCS_Overlap>
820.779

> <ROCS_Rank>
83                  

$$$$
untitled-dbase-23_0
  -OEChem-11132311083D

  8  8  0     0  0  0  0  0  0999 V2000
    9.6809   13.2141   25.0512 C   0  0  0  0  0  0  0  0  0  0  0  0
    9.0971   12.1403   24.4123 C   0  0  0  0  0  0  0  0  0  0  0  0
   10.6974   13.3897   23.1157 C   0  0  0  0  0  0  0  0  0  0  0  0
   10.5991   13.9315   24.3094 N   0  0  0  0  0  0  0  0  0  0  0  0
    9.7140   12.0154   22.8169 S   0  0  0  0  0  0  0  0  0  0  0  0
   11.8738   14.0945   21.7860 Br  0  0  0  0  0  0  0  0  0  0  0  0
    9.4707   13.5188   26.0675 H   0  0  0  0  0  0  0  0  0  0  0  0
    8.3611   11.4471   24.7933 H   0  0  0  0  0  0  0  0  0  0  0  0
  1  2  2  0  0  0  0
  1  4  1  0  0  0  0
  2  5  1  0  0  0  0
  3  4  2  0  0  0  0
  3  5  1  0  0  0  0
  3  6  1  0  0  0  0
  1  7  1  0  0  0  0
  2  8  1  0  0  0  0
M  END
> <Catalog ID>
Z104495356

> <MW>
162.909

> <MW (desalted)>
164.024

> <ClogP>
1.398

> <logS>
-2.097

> <HBD>
0

> <HBA>
1

> <TPSA>
12.89

> <RotBonds>
0

> <ROCS_ShapeQuery>
A71EV2A-x0451_0A_A71EV2A-x0310_0A_A71EV2A-x0416_0A_peptide

> <ROCS_TanimotoCombo>
0.155 

> <ROCS_ShapeTanimoto>
0.102 

> <ROCS_ColorTanimoto>
0.053 

> <ROCS_RefTversky>
0.101 

> <ROCS_RefColorTversky>
0.058 

> <ROCS_RefTverskyCombo>
0.158 

> <ROCS_FitTversky>
1.199 

> <ROCS_FitColorTversky>
0.394 

> <ROCS_FitTverskyCombo>
1.593 

> <ROCS_ColorScore>
-1.748

> <ROCS_Overlap>
694.342

> <ROCS_Rank>
84                  

$$$$
untitled-dbase-71_0
  -OEChem-11132311083D

  8  8  0     0  0  0  0  0  0999 V2000
    9.7499   13.1777   25.0871 C   0  0  0  0  0  0  0  0  0  0  0  0
    9.2167   12.0527   24.4936 C   0  0  0  0  0  0  0  0  0  0  0  0
   10.6995   13.3616   23.1187 C   0  0  0  0  0  0  0  0  0  0  0  0
   10.6008   13.9292   24.3003 N   0  0  0  0  0  0  0  0  0  0  0  0
    9.7957   11.9217   22.8846 S   0  0  0  0  0  0  0  0  0  0  0  0
   11.8945   14.1733   21.6025 I   0  0  0  0  0  0  0  0  0  0  0  0
    9.5489   13.4977   26.1002 H   0  0  0  0  0  0  0  0  0  0  0  0
    8.5357   11.3268   24.9146 H   0  0  0  0  0  0  0  0  0  0  0  0
  1  2  2  0  0  0  0
  1  4  1  0  0  0  0
  2  5  1  0  0  0  0
  3  4  2  0  0  0  0
  3  5  1  0  0  0  0
  3  6  1  0  0  0  0
  1  7  1  0  0  0  0
  2  8  1  0  0  0  0
M  END
> <Catalog ID>
Z1238548129

> <MW>
210.895

> <MW (desalted)>
211.024

> <ClogP>
1.358

> <logS>
-2.075

> <HBD>
0

> <HBA>
1

> <TPSA>
12.89

> <RotBonds>
0

> <ROCS_ShapeQuery>
A71EV2A-x0451_0A_A71EV2A-x0310_0A_A71EV2A-x0416_0A_peptide

> <ROCS_TanimotoCombo>
0.154 

> <ROCS_ShapeTanimoto>
0.101 

> <ROCS_ColorTanimoto>
0.053 

> <ROCS_RefTversky>
0.099 

> <ROCS_RefColorTversky>
0.058 

> <ROCS_RefTverskyCombo>
0.157 

> <ROCS_FitTversky>
1.191 

> <ROCS_FitColorTversky>
0.394 

> <ROCS_FitTverskyCombo>
1.585 

> <ROCS_ColorScore>
-1.749

> <ROCS_Overlap>
686.291

> <ROCS_Rank>
85                  

$$$$
