untitled-dbase-85_94
  -OEChem-11112309163D

 36 38  0     0  0  0  0  0  0999 V2000
   10.6148   13.0139   23.8173 C   0  0  0  0  0  0  0  0  0  0  0  0
   11.6483   15.5794   22.7020 C   0  0  0  0  0  0  0  0  0  0  0  0
    8.5171    9.4138   24.9379 C   0  0  0  0  0  0  0  0  0  0  0  0
    6.8061   11.2460   24.8521 C   0  0  0  0  0  0  0  0  0  0  0  0
    7.5687   10.1426   22.7330 C   0  0  0  0  0  0  0  0  0  0  0  0
    9.1864   11.7795   25.4332 C   0  0  0  0  0  0  0  0  0  0  0  0
    9.9502   10.6741   23.3105 C   0  0  0  0  0  0  0  0  0  0  0  0
    8.2377   12.5096   23.2252 C   0  0  0  0  0  0  0  0  0  0  0  0
    8.0638   10.7373   25.5780 C   0  0  0  0  0  0  0  0  0  0  0  0
    8.8306    9.6275   23.4469 C   0  0  0  0  0  0  0  0  0  0  0  0
    7.1105   11.4707   23.3606 C   0  0  0  0  0  0  0  0  0  0  0  0
    9.5065   12.0085   23.9426 C   0  0  0  0  0  0  0  0  0  0  0  0
   12.0200   14.2309   22.1658 C   0  0  0  0  0  0  0  0  0  0  0  0
   10.9775   13.2920   22.5132 N   0  0  0  0  0  0  0  0  0  0  0  0
   11.1042   13.5029   24.8287 O   0  0  0  0  0  0  0  0  0  0  0  0
   12.2900   16.6119   22.5791 O   0  0  0  0  0  0  0  0  0  0  0  0
   10.4651   15.5041   23.3647 O   0  0  0  0  0  0  0  0  0  0  0  0
    9.4053    9.0322   25.4562 H   0  0  0  0  0  0  0  0  0  0  0  0
    7.7320    8.6562   25.0500 H   0  0  0  0  0  0  0  0  0  0  0  0
    5.9911   10.5202   24.9625 H   0  0  0  0  0  0  0  0  0  0  0  0
    6.4629   12.1822   25.3092 H   0  0  0  0  0  0  0  0  0  0  0  0
    7.7741   10.2845   21.6648 H   0  0  0  0  0  0  0  0  0  0  0  0
    6.7669    9.3977   22.8063 H   0  0  0  0  0  0  0  0  0  0  0  0
    8.8855   12.7226   25.9082 H   0  0  0  0  0  0  0  0  0  0  0  0
   10.0821   11.4386   25.9692 H   0  0  0  0  0  0  0  0  0  0  0  0
   10.8648   10.3064   23.7941 H   0  0  0  0  0  0  0  0  0  0  0  0
   10.2007   10.8185   22.2513 H   0  0  0  0  0  0  0  0  0  0  0  0
    8.4470   12.6970   22.1638 H   0  0  0  0  0  0  0  0  0  0  0  0
    7.9131   13.4694   23.6482 H   0  0  0  0  0  0  0  0  0  0  0  0
    7.8404   10.5784   26.6386 H   0  0  0  0  0  0  0  0  0  0  0  0
    9.1509    8.6816   22.9964 H   0  0  0  0  0  0  0  0  0  0  0  0
    6.2113   11.8314   22.8492 H   0  0  0  0  0  0  0  0  0  0  0  0
   12.1059   14.2793   21.0771 H   0  0  0  0  0  0  0  0  0  0  0  0
   12.9618   13.9003   22.6113 H   0  0  0  0  0  0  0  0  0  0  0  0
   10.4880   12.8136   21.7628 H   0  0  0  0  0  0  0  0  0  0  0  0
   10.1936   16.3738   23.7282 H   0  0  0  0  0  0  0  0  0  0  0  0
  1 12  1  0  0  0  0
  1 14  1  0  0  0  0
  1 15  2  0  0  0  0
  2 13  1  0  0  0  0
  2 16  2  0  0  0  0
  2 17  1  0  0  0  0
  3  9  1  0  0  0  0
  3 10  1  0  0  0  0
  4  9  1  0  0  0  0
  4 11  1  0  0  0  0
  5 10  1  0  0  0  0
  5 11  1  0  0  0  0
  6  9  1  0  0  0  0
  6 12  1  0  0  0  0
  7 10  1  0  0  0  0
  7 12  1  0  0  0  0
  8 11  1  0  0  0  0
  8 12  1  0  0  0  0
 13 14  1  0  0  0  0
  3 18  1  0  0  0  0
  3 19  1  0  0  0  0
  4 20  1  0  0  0  0
  4 21  1  0  0  0  0
  5 22  1  0  0  0  0
  5 23  1  0  0  0  0
  6 24  1  0  0  0  0
  6 25  1  0  0  0  0
  7 26  1  0  0  0  0
  7 27  1  0  0  0  0
  8 28  1  0  0  0  0
  8 29  1  0  0  0  0
  9 30  1  0  0  0  0
 10 31  1  0  0  0  0
 11 32  1  0  0  0  0
 13 33  1  0  0  0  0
 13 34  1  0  0  0  0
 14 35  1  0  0  0  0
 17 36  1  0  0  0  0
M  END
> <Catalog ID>
Z56852746

> <PlateID>
1337959-R-02

> <Well>
A06

> <MW (desalted)>
237.295

> <CLogP>
1.752

> <HBD>
2

> <TPSA>
66.400

> <RotBonds>
3

> <ROCS_ShapeQuery>
A71EV2A-x0451_0A_A71EV2A-x0310_0A_A71EV2A-x0416_0A_peptide

> <ROCS_TanimotoCombo>
0.510 

> <ROCS_ShapeTanimoto>
0.289 

> <ROCS_ColorTanimoto>
0.221 

> <ROCS_RefTversky>
0.260 

> <ROCS_RefColorTversky>
0.254 

> <ROCS_RefTverskyCombo>
0.514 

> <ROCS_FitTversky>
1.651 

> <ROCS_FitColorTversky>
0.625 

> <ROCS_FitTverskyCombo>
2.276 

> <ROCS_ColorScore>
-7.804

> <ROCS_Overlap>
1801.292

> <ROCS_Rank>
1                   

$$$$
untitled-dbase-587_143
  -OEChem-11112309163D

 40 42  0     1  0  0  0  0  0999 V2000
   11.9031   14.7875   23.9305 C   0  0  0  0  0  0  0  0  0  0  0  0
   12.1457   14.5767   22.5959 C   0  0  0  0  0  0  0  0  0  0  0  0
   10.1944   13.8711   23.1159 C   0  0  0  0  0  0  0  0  0  0  0  0
    7.0513   11.0188   25.1279 C   0  0  0  0  0  0  0  0  0  0  0  0
    8.3891   11.2104   25.8542 C   0  0  0  0  0  0  0  0  0  0  0  0
    7.8244   10.4011   22.7709 C   0  0  0  0  0  0  0  0  0  0  0  0
   10.0632   10.7170   23.9850 C   0  0  0  0  0  0  0  0  0  0  0  0
    7.3114   11.5213   23.7029 C   0  0  2  0  0  0  0  0  0  0  0  0
    9.3215   11.8057   24.7927 C   0  0  1  0  0  0  0  0  0  0  0  0
    9.1218    9.7237   23.2683 C   0  0  0  0  0  0  0  0  0  0  0  0
   12.7778   15.3932   24.9444 C   0  0  0  0  0  0  0  0  0  0  0  0
   13.2702   14.8407   21.6921 C   0  0  0  0  0  0  0  0  0  0  0  0
    9.8511    9.0307   22.1140 C   0  0  0  0  0  0  0  0  0  0  0  0
    8.8633   13.2388   22.8284 C   0  0  0  0  0  0  0  0  0  0  0  0
   10.6510   14.3335   24.2578 N   0  0  0  0  0  0  0  0  0  0  0  0
    8.3389   12.5296   23.9803 N   0  0  0  0  0  0  0  0  0  0  0  0
   11.0439   13.9829   22.0583 O   0  0  0  0  0  0  0  0  0  0  0  0
    8.7784    8.6962   24.2068 O   0  0  0  0  0  0  0  0  0  0  0  0
    6.7077    9.9814   25.1606 H   0  0  0  0  0  0  0  0  0  0  0  0
    6.2849   11.6307   25.6169 H   0  0  0  0  0  0  0  0  0  0  0  0
    8.2518   11.9133   26.6837 H   0  0  0  0  0  0  0  0  0  0  0  0
    8.7657   10.2759   26.2787 H   0  0  0  0  0  0  0  0  0  0  0  0
    7.0328    9.6496   22.6516 H   0  0  0  0  0  0  0  0  0  0  0  0
    7.9983   10.8429   21.7794 H   0  0  0  0  0  0  0  0  0  0  0  0
   10.6942   11.2232   23.2409 H   0  0  0  0  0  0  0  0  0  0  0  0
   10.7396   10.1763   24.6600 H   0  0  0  0  0  0  0  0  0  0  0  0
    6.3890   11.9552   23.2852 H   0  0  0  0  0  0  0  0  0  0  0  0
   10.0545   12.4739   25.2714 H   0  0  0  0  0  0  0  0  0  0  0  0
   12.6282   16.4860   25.0057 H   0  0  0  0  0  0  0  0  0  0  0  0
   12.6002   14.9790   25.9542 H   0  0  0  0  0  0  0  0  0  0  0  0
   13.8492   15.2183   24.7335 H   0  0  0  0  0  0  0  0  0  0  0  0
   13.9741   13.9885   21.6589 H   0  0  0  0  0  0  0  0  0  0  0  0
   12.9416   15.0341   20.6529 H   0  0  0  0  0  0  0  0  0  0  0  0
   13.8520   15.7341   21.9903 H   0  0  0  0  0  0  0  0  0  0  0  0
   10.7594    8.5614   22.4850 H   0  0  0  0  0  0  0  0  0  0  0  0
   10.1099    9.7632   21.3531 H   0  0  0  0  0  0  0  0  0  0  0  0
    9.2063    8.2713   21.6778 H   0  0  0  0  0  0  0  0  0  0  0  0
    8.1298   13.9985   22.5373 H   0  0  0  0  0  0  0  0  0  0  0  0
    8.9379   12.5250   22.0012 H   0  0  0  0  0  0  0  0  0  0  0  0
    8.2158    8.0715   23.7277 H   0  0  0  0  0  0  0  0  0  0  0  0
  1  2  2  0  0  0  0
  1 11  1  0  0  0  0
  1 15  1  0  0  0  0
  2 12  1  0  0  0  0
  2 17  1  0  0  0  0
  3 14  1  0  0  0  0
  3 15  2  0  0  0  0
  3 17  1  0  0  0  0
  4  5  1  0  0  0  0
  4  8  1  0  0  0  0
  5  9  1  0  0  0  0
  6  8  1  0  0  0  0
  6 10  1  0  0  0  0
  7  9  1  0  0  0  0
  7 10  1  0  0  0  0
  8 16  1  0  0  0  0
  9 16  1  0  0  0  0
 10 13  1  0  0  0  0
 10 18  1  0  0  0  0
 14 16  1  0  0  0  0
  4 19  1  0  0  0  0
  4 20  1  0  0  0  0
  5 21  1  0  0  0  0
  5 22  1  0  0  0  0
  6 23  1  0  0  0  0
  6 24  1  0  0  0  0
  7 25  1  0  0  0  0
  7 26  1  0  0  0  0
  8 27  1  0  0  0  0
  9 28  1  0  0  0  0
 11 29  1  0  0  0  0
 11 30  1  0  0  0  0
 11 31  1  0  0  0  0
 12 32  1  0  0  0  0
 12 33  1  0  0  0  0
 12 34  1  0  0  0  0
 13 35  1  0  0  0  0
 13 36  1  0  0  0  0
 13 37  1  0  0  0  0
 14 38  1  0  0  0  0
 14 39  1  0  0  0  0
 18 40  1  0  0  0  0
M  END
> <Catalog ID>
Z1337895016

> <PlateID>
1337959-R-08

> <Well>
C09

> <MW (desalted)>
250.337

> <CLogP>
0.082

> <HBD>
1

> <TPSA>
49.500

> <RotBonds>
2

> <ROCS_ShapeQuery>
A71EV2A-x0451_0A_A71EV2A-x0310_0A_A71EV2A-x0416_0A_peptide

> <ROCS_TanimotoCombo>
0.492 

> <ROCS_ShapeTanimoto>
0.292 

> <ROCS_ColorTanimoto>
0.200 

> <ROCS_RefTversky>
0.263 

> <ROCS_RefColorTversky>
0.231 

> <ROCS_RefTverskyCombo>
0.494 

> <ROCS_FitTversky>
1.606 

> <ROCS_FitColorTversky>
0.598 

> <ROCS_FitTverskyCombo>
2.204 

> <ROCS_ColorScore>
-7.080

> <ROCS_Overlap>
1823.465

> <ROCS_Rank>
2                   

$$$$
untitled-dbase-614_128
  -OEChem-11112309163D

 40 41  0     1  0  0  0  0  0999 V2000
    8.0545    9.8240   24.2162 C   0  0  0  0  0  0  0  0  0  0  0  0
    7.8465   10.9627   24.9944 C   0  0  0  0  0  0  0  0  0  0  0  0
    9.7292   11.0046   22.9362 C   0  0  0  0  0  0  0  0  0  0  0  0
    9.5212   12.1434   23.7144 C   0  0  0  0  0  0  0  0  0  0  0  0
    8.9959    9.8449   23.1871 C   0  0  0  0  0  0  0  0  0  0  0  0
    8.5798   12.1224   24.7435 C   0  0  0  0  0  0  0  0  0  0  0  0
   10.3159   13.3649   23.4253 C   0  0  0  0  0  0  0  0  0  0  0  0
   10.5684   14.8074   19.3062 C   0  0  0  0  0  0  0  0  0  0  0  0
    9.4505   15.5505   20.0440 C   0  0  0  0  0  0  0  0  0  0  0  0
   10.8038   15.9964   22.0121 C   0  0  0  0  0  0  0  0  0  0  0  0
   11.8225   14.5531   20.1682 C   0  0  2  0  0  0  0  0  0  0  0  0
   11.5018   14.6652   21.6696 C   0  0  2  0  0  0  0  0  0  0  0  0
    9.2179    8.6271   22.3554 C   0  0  0  0  0  0  0  0  0  0  0  0
    8.3369   13.3277   25.5921 C   0  0  0  0  0  0  0  0  0  0  0  0
   12.9559   15.5110   19.7759 C   0  0  0  0  0  0  0  0  0  0  0  0
    9.9913   16.5659   20.9339 N   0  0  0  0  0  0  0  0  0  0  0  0
   10.7022   13.5367   22.1052 N   0  0  0  0  0  0  0  0  0  0  0  0
   10.6000   14.1275   24.3452 O   0  0  0  0  0  0  0  0  0  0  0  0
    7.4785    8.9249   24.4189 H   0  0  0  0  0  0  0  0  0  0  0  0
    7.1107   10.9362   25.7939 H   0  0  0  0  0  0  0  0  0  0  0  0
   10.4626   11.0178   22.1329 H   0  0  0  0  0  0  0  0  0  0  0  0
   10.1742   13.8437   18.9337 H   0  0  0  0  0  0  0  0  0  0  0  0
   10.8498   15.3813   18.4020 H   0  0  0  0  0  0  0  0  0  0  0  0
    8.7907   16.0284   19.3119 H   0  0  0  0  0  0  0  0  0  0  0  0
    8.8328   14.8417   20.6082 H   0  0  0  0  0  0  0  0  0  0  0  0
   10.1710   15.8775   22.9194 H   0  0  0  0  0  0  0  0  0  0  0  0
   11.5685   16.7495   22.2984 H   0  0  0  0  0  0  0  0  0  0  0  0
   12.1751   13.5264   19.9592 H   0  0  0  0  0  0  0  0  0  0  0  0
   12.4419   14.5960   22.2423 H   0  0  0  0  0  0  0  0  0  0  0  0
    8.5497    8.6316   21.4855 H   0  0  0  0  0  0  0  0  0  0  0  0
   10.2542    8.5722   21.9977 H   0  0  0  0  0  0  0  0  0  0  0  0
    9.0322    7.7115   22.9321 H   0  0  0  0  0  0  0  0  0  0  0  0
    9.0003   13.3174   26.4645 H   0  0  0  0  0  0  0  0  0  0  0  0
    8.5147   14.2514   25.0281 H   0  0  0  0  0  0  0  0  0  0  0  0
    7.2981   13.3622   25.9427 H   0  0  0  0  0  0  0  0  0  0  0  0
   12.6505   16.5378   19.9660 H   0  0  0  0  0  0  0  0  0  0  0  0
   13.1847   15.3949   18.7187 H   0  0  0  0  0  0  0  0  0  0  0  0
   13.8448   15.2869   20.3620 H   0  0  0  0  0  0  0  0  0  0  0  0
   10.5747   17.2115   20.3898 H   0  0  0  0  0  0  0  0  0  0  0  0
   10.4827   12.8301   21.4103 H   0  0  0  0  0  0  0  0  0  0  0  0
  1  2  1  0  0  0  0
  1  5  2  0  0  0  0
  2  6  2  0  0  0  0
  3  4  2  0  0  0  0
  3  5  1  0  0  0  0
  4  6  1  0  0  0  0
  4  7  1  0  0  0  0
  5 13  1  0  0  0  0
  6 14  1  0  0  0  0
  7 17  1  0  0  0  0
  7 18  2  0  0  0  0
  8  9  1  0  0  0  0
  8 11  1  0  0  0  0
  9 16  1  0  0  0  0
 10 12  1  0  0  0  0
 10 16  1  0  0  0  0
 11 12  1  0  0  0  0
 11 15  1  0  0  0  0
 12 17  1  0  0  0  0
  1 19  1  0  0  0  0
  2 20  1  0  0  0  0
  3 21  1  0  0  0  0
  8 22  1  0  0  0  0
  8 23  1  0  0  0  0
  9 24  1  0  0  0  0
  9 25  1  0  0  0  0
 10 26  1  0  0  0  0
 10 27  1  0  0  0  0
 11 28  1  0  0  0  0
 12 29  1  0  0  0  0
 13 30  1  0  0  0  0
 13 31  1  0  0  0  0
 13 32  1  0  0  0  0
 14 33  1  0  0  0  0
 14 34  1  0  0  0  0
 14 35  1  0  0  0  0
 15 36  1  0  0  0  0
 15 37  1  0  0  0  0
 15 38  1  0  0  0  0
 16 39  1  0  0  0  0
 17 40  1  0  0  0  0
M  END
> <Catalog ID>
Z1747190971

> <PlateID>
1337959-R-08

> <Well>
F07

> <MW (desalted)>
246.348

> <CLogP>
2.473

> <HBD>
2

> <TPSA>
41.130

> <RotBonds>
2

> <ROCS_ShapeQuery>
A71EV2A-x0451_0A_A71EV2A-x0310_0A_A71EV2A-x0416_0A_peptide

> <ROCS_TanimotoCombo>
0.492 

> <ROCS_ShapeTanimoto>
0.293 

> <ROCS_ColorTanimoto>
0.198 

> <ROCS_RefTversky>
0.263 

> <ROCS_RefColorTversky>
0.205 

> <ROCS_RefTverskyCombo>
0.468 

> <ROCS_FitTversky>
1.650 

> <ROCS_FitColorTversky>
0.857 

> <ROCS_FitTverskyCombo>
2.507 

> <ROCS_ColorScore>
-6.244

> <ROCS_Overlap>
1822.332

> <ROCS_Rank>
3                   

$$$$
untitled-dbase-801_2
  -OEChem-11112309163D

 40 43  0     1  0  0  0  0  0999 V2000
   11.0034   13.7347   23.0967 C   0  0  0  0  0  0  0  0  0  0  0  0
   12.7771   15.5240   22.6055 C   0  0  0  0  0  0  0  0  0  0  0  0
    6.7464   10.6356   23.5856 C   0  0  0  0  0  0  0  0  0  0  0  0
    7.6360   11.5753   25.7339 C   0  0  0  0  0  0  0  0  0  0  0  0
    8.5270    9.4037   24.8513 C   0  0  0  0  0  0  0  0  0  0  0  0
    8.1865   12.6882   23.5553 C   0  0  0  0  0  0  0  0  0  0  0  0
    9.0783   10.5142   22.6719 C   0  0  0  0  0  0  0  0  0  0  0  0
    9.9696   11.4548   24.8235 C   0  0  0  0  0  0  0  0  0  0  0  0
   12.0426   14.2922   22.1815 C   0  0  2  0  0  0  0  0  0  0  0  0
    7.0993   11.9305   24.3368 C   0  0  0  0  0  0  0  0  0  0  0  0
    7.9948    9.7476   23.4497 C   0  0  0  0  0  0  0  0  0  0  0  0
    8.8891   10.6921   25.6095 C   0  0  0  0  0  0  0  0  0  0  0  0
   11.7632   15.5941   21.4989 C   0  0  2  0  0  0  0  0  0  0  0  0
    9.4539   11.8162   23.4137 C   0  0  0  0  0  0  0  0  0  0  0  0
   12.2050   15.7937   20.0904 C   0  0  0  0  0  0  0  0  0  0  0  0
   10.4722   12.5310   22.6763 N   0  0  0  0  0  0  0  0  0  0  0  0
   10.7023   14.3482   24.1139 O   0  0  0  0  0  0  0  0  0  0  0  0
   12.5249   15.9964   23.5476 H   0  0  0  0  0  0  0  0  0  0  0  0
   13.8284   15.5805   22.3497 H   0  0  0  0  0  0  0  0  0  0  0  0
    5.9584   10.0939   24.1230 H   0  0  0  0  0  0  0  0  0  0  0  0
    6.3470   10.8753   22.5925 H   0  0  0  0  0  0  0  0  0  0  0  0
    7.8767   12.4917   26.2869 H   0  0  0  0  0  0  0  0  0  0  0  0
    6.8638   11.0499   26.3091 H   0  0  0  0  0  0  0  0  0  0  0  0
    7.7702    8.8404   25.4111 H   0  0  0  0  0  0  0  0  0  0  0  0
    9.4088    8.7566   24.7687 H   0  0  0  0  0  0  0  0  0  0  0  0
    7.7997   12.9628   22.5652 H   0  0  0  0  0  0  0  0  0  0  0  0
    8.4256   13.6248   24.0758 H   0  0  0  0  0  0  0  0  0  0  0  0
    9.9632    9.8756   22.5517 H   0  0  0  0  0  0  0  0  0  0  0  0
    8.7112   10.7431   21.6629 H   0  0  0  0  0  0  0  0  0  0  0  0
   10.2476   12.3642   25.3718 H   0  0  0  0  0  0  0  0  0  0  0  0
   10.8739   10.8362   24.7521 H   0  0  0  0  0  0  0  0  0  0  0  0
   12.5908   13.5331   21.6537 H   0  0  0  0  0  0  0  0  0  0  0  0
    6.2060   12.5578   24.4318 H   0  0  0  0  0  0  0  0  0  0  0  0
    7.7374    8.8265   22.9151 H   0  0  0  0  0  0  0  0  0  0  0  0
    9.2653   10.4407   26.6073 H   0  0  0  0  0  0  0  0  0  0  0  0
   10.8335   16.1114   21.7057 H   0  0  0  0  0  0  0  0  0  0  0  0
   13.1504   15.2671   19.8821 H   0  0  0  0  0  0  0  0  0  0  0  0
   12.3688   16.8595   19.8627 H   0  0  0  0  0  0  0  0  0  0  0  0
   11.4577   15.4181   19.3726 H   0  0  0  0  0  0  0  0  0  0  0  0
   10.8128   12.1289   21.8086 H   0  0  0  0  0  0  0  0  0  0  0  0
  1  9  1  0  0  0  0
  1 16  1  0  0  0  0
  1 17  2  0  0  0  0
  2  9  1  0  0  0  0
  2 13  1  0  0  0  0
  3 10  1  0  0  0  0
  3 11  1  0  0  0  0
  4 10  1  0  0  0  0
  4 12  1  0  0  0  0
  5 11  1  0  0  0  0
  5 12  1  0  0  0  0
  6 10  1  0  0  0  0
  6 14  1  0  0  0  0
  7 11  1  0  0  0  0
  7 14  1  0  0  0  0
  8 12  1  0  0  0  0
  8 14  1  0  0  0  0
  9 13  1  0  0  0  0
 13 15  1  0  0  0  0
 14 16  1  0  0  0  0
  2 18  1  0  0  0  0
  2 19  1  0  0  0  0
  3 20  1  0  0  0  0
  3 21  1  0  0  0  0
  4 22  1  0  0  0  0
  4 23  1  0  0  0  0
  5 24  1  0  0  0  0
  5 25  1  0  0  0  0
  6 26  1  0  0  0  0
  6 27  1  0  0  0  0
  7 28  1  0  0  0  0
  7 29  1  0  0  0  0
  8 30  1  0  0  0  0
  8 31  1  0  0  0  0
  9 32  1  0  0  0  0
 10 33  1  0  0  0  0
 11 34  1  0  0  0  0
 12 35  1  0  0  0  0
 13 36  1  0  0  0  0
 15 37  1  0  0  0  0
 15 38  1  0  0  0  0
 15 39  1  0  0  0  0
 16 40  1  0  0  0  0
M  END
> <Catalog ID>
Z27687231

> <PlateID>
1337959-R-11

> <Well>
A04

> <MW (desalted)>
233.349

> <CLogP>
2.684

> <HBD>
1

> <TPSA>
29.100

> <RotBonds>
2

> <ROCS_ShapeQuery>
A71EV2A-x0451_0A_A71EV2A-x0310_0A_A71EV2A-x0416_0A_peptide

> <ROCS_TanimotoCombo>
0.490 

> <ROCS_ShapeTanimoto>
0.292 

> <ROCS_ColorTanimoto>
0.198 

> <ROCS_RefTversky>
0.261 

> <ROCS_RefColorTversky>
0.218 

> <ROCS_RefTverskyCombo>
0.479 

> <ROCS_FitTversky>
1.664 

> <ROCS_FitColorTversky>
0.691 

> <ROCS_FitTverskyCombo>
2.355 

> <ROCS_ColorScore>
-6.654

> <ROCS_Overlap>
1810.854

> <ROCS_Rank>
4                   

$$$$
untitled-dbase-982_40
  -OEChem-11112309163D

 37 39  0     1  0  0  0  0  0999 V2000
    7.1107   12.9712   25.9951 C   0  0  0  0  0  0  0  0  0  0  0  0
    6.2008   11.9222   25.9473 C   0  0  0  0  0  0  0  0  0  0  0  0
    8.3540   12.8427   25.3736 C   0  0  0  0  0  0  0  0  0  0  0  0
    6.5300   10.7536   25.2660 C   0  0  0  0  0  0  0  0  0  0  0  0
    8.7155   11.6667   24.6845 C   0  0  0  0  0  0  0  0  0  0  0  0
    7.7668   10.6312   24.6170 C   0  0  0  0  0  0  0  0  0  0  0  0
   10.4731   13.8013   22.9856 C   0  0  0  0  0  0  0  0  0  0  0  0
   11.7456   15.6110   20.2423 C   0  0  0  0  0  0  0  0  0  0  0  0
   10.0199    9.4304   22.7078 C   0  0  0  0  0  0  0  0  0  0  0  0
   10.6782   10.2026   23.8505 C   0  0  0  0  0  0  0  0  0  0  0  0
   11.0439   15.9529   21.5698 C   0  0  0  0  0  0  0  0  0  0  0  0
   11.7725   14.1458   20.7161 C   0  0  0  0  0  0  0  0  0  0  0  0
    8.5069    9.5660   22.6729 C   0  0  0  0  0  0  0  0  0  0  0  0
   10.1142   11.6080   24.0978 C   0  0  1  0  0  0  0  0  0  0  0  0
   10.5546   14.4815   21.6166 C   0  0  0  0  0  0  0  0  0  0  0  0
   10.2276   12.4438   22.9238 N   0  0  0  0  0  0  0  0  0  0  0  0
   10.6245   14.4690   24.0019 O   0  0  0  0  0  0  0  0  0  0  0  0
    7.9597    9.4300   23.9821 O   0  0  0  0  0  0  0  0  0  0  0  0
    6.8525   13.8936   26.5056 H   0  0  0  0  0  0  0  0  0  0  0  0
    5.2358   12.0139   26.4357 H   0  0  0  0  0  0  0  0  0  0  0  0
    9.0497   13.6813   25.4216 H   0  0  0  0  0  0  0  0  0  0  0  0
    5.8198    9.9259   25.2468 H   0  0  0  0  0  0  0  0  0  0  0  0
   11.1203   15.7769   19.3576 H   0  0  0  0  0  0  0  0  0  0  0  0
   12.7204   16.0787   20.0844 H   0  0  0  0  0  0  0  0  0  0  0  0
   10.4426    9.7668   21.7512 H   0  0  0  0  0  0  0  0  0  0  0  0
   10.2784    8.3681   22.8143 H   0  0  0  0  0  0  0  0  0  0  0  0
   10.5921    9.6147   24.7694 H   0  0  0  0  0  0  0  0  0  0  0  0
   11.7475   10.2853   23.6335 H   0  0  0  0  0  0  0  0  0  0  0  0
   11.7363   16.2121   22.3778 H   0  0  0  0  0  0  0  0  0  0  0  0
   10.2693   16.7199   21.5033 H   0  0  0  0  0  0  0  0  0  0  0  0
   11.6077   13.4005   19.9350 H   0  0  0  0  0  0  0  0  0  0  0  0
   12.6755   13.8828   21.2773 H   0  0  0  0  0  0  0  0  0  0  0  0
    8.2539   10.5764   22.3351 H   0  0  0  0  0  0  0  0  0  0  0  0
    8.0504    8.8721   21.9556 H   0  0  0  0  0  0  0  0  0  0  0  0
   10.8069   12.0885   24.8269 H   0  0  0  0  0  0  0  0  0  0  0  0
    9.6077   14.3615   21.0623 H   0  0  0  0  0  0  0  0  0  0  0  0
   10.1218   12.0125   22.0112 H   0  0  0  0  0  0  0  0  0  0  0  0
  1  2  2  0  0  0  0
  1  3  1  0  0  0  0
  2  4  1  0  0  0  0
  3  5  2  0  0  0  0
  4  6  2  0  0  0  0
  5  6  1  0  0  0  0
  5 14  1  0  0  0  0
  6 18  1  0  0  0  0
  7 15  1  0  0  0  0
  7 16  1  0  0  0  0
  7 17  2  0  0  0  0
  8 11  1  0  0  0  0
  8 12  1  0  0  0  0
  9 10  1  0  0  0  0
  9 13  1  0  0  0  0
 10 14  1  0  0  0  0
 11 15  1  0  0  0  0
 12 15  1  0  0  0  0
 13 18  1  0  0  0  0
 14 16  1  0  0  0  0
  1 19  1  0  0  0  0
  2 20  1  0  0  0  0
  3 21  1  0  0  0  0
  4 22  1  0  0  0  0
  8 23  1  0  0  0  0
  8 24  1  0  0  0  0
  9 25  1  0  0  0  0
  9 26  1  0  0  0  0
 10 27  1  0  0  0  0
 10 28  1  0  0  0  0
 11 29  1  0  0  0  0
 11 30  1  0  0  0  0
 12 31  1  0  0  0  0
 12 32  1  0  0  0  0
 13 33  1  0  0  0  0
 13 34  1  0  0  0  0
 14 35  1  0  0  0  0
 15 36  1  0  0  0  0
 16 37  1  0  0  0  0
M  END
> <Catalog ID>
Z982668486

> <PlateID>
1337959-R-13

> <Well>
C07

> <MW (desalted)>
245.317

> <CLogP>
2.286

> <HBD>
1

> <TPSA>
38.330

> <RotBonds>
2

> <ROCS_ShapeQuery>
A71EV2A-x0451_0A_A71EV2A-x0310_0A_A71EV2A-x0416_0A_peptide

> <ROCS_TanimotoCombo>
0.485 

> <ROCS_ShapeTanimoto>
0.325 

> <ROCS_ColorTanimoto>
0.160 

> <ROCS_RefTversky>
0.285 

> <ROCS_RefColorTversky>
0.171 

> <ROCS_RefTverskyCombo>
0.456 

> <ROCS_FitTversky>
1.764 

> <ROCS_FitColorTversky>
0.713 

> <ROCS_FitTverskyCombo>
2.478 

> <ROCS_ColorScore>
-5.197

> <ROCS_Overlap>
1978.536

> <ROCS_Rank>
5                   

$$$$
untitled-dbase-1070_380
  -OEChem-11112309163D

 30 31  0     1  0  0  0  0  0999 V2000
   12.8288   13.8516   22.9971 C   0  0  0  0  0  0  0  0  0  0  0  0
   12.2514   15.8564   20.6570 C   0  0  0  0  0  0  0  0  0  0  0  0
    7.9048   12.1273   24.2721 C   0  0  0  0  0  0  0  0  0  0  0  0
   11.5400   16.9279   20.1637 C   0  0  0  0  0  0  0  0  0  0  0  0
   10.0753   15.2437   21.1970 C   0  0  0  0  0  0  0  0  0  0  0  0
   11.4030   14.8806   21.2555 C   0  0  0  0  0  0  0  0  0  0  0  0
    9.2022   11.8747   23.8990 C   0  0  0  0  0  0  0  0  0  0  0  0
    7.3309   10.8522   24.4351 C   0  0  0  0  0  0  0  0  0  0  0  0
   10.2849   12.8438   23.5895 C   0  0  0  0  0  0  0  0  0  0  0  0
    5.9487   10.5350   24.8319 C   0  0  0  0  0  0  0  0  0  0  0  0
   10.5035    9.7587   23.5216 C   0  0  0  0  0  0  0  0  0  0  0  0
   11.8932   13.6244   21.8690 C   0  0  2  0  0  0  0  0  0  0  0  0
   13.5614   14.0505   23.8750 N   0  0  0  0  0  0  0  0  0  0  0  0
    8.1931    9.8630   24.1859 N   0  0  0  0  0  0  0  0  0  0  0  0
    9.3219   10.5166   23.8623 N   0  0  0  0  0  0  0  0  0  0  0  0
   10.8101   12.7605   22.3158 N   0  0  0  0  0  0  0  0  0  0  0  0
   10.6565   13.6265   24.4600 O   0  0  0  0  0  0  0  0  0  0  0  0
    9.8562   16.7552   20.4227 S   0  0  0  0  0  0  0  0  0  0  0  0
   13.3294   15.7805   20.5900 H   0  0  0  0  0  0  0  0  0  0  0  0
    7.4408   13.0941   24.4069 H   0  0  0  0  0  0  0  0  0  0  0  0
   11.9285   17.8042   19.6642 H   0  0  0  0  0  0  0  0  0  0  0  0
    9.2208   14.6973   21.5715 H   0  0  0  0  0  0  0  0  0  0  0  0
    5.2885   10.4501   23.9516 H   0  0  0  0  0  0  0  0  0  0  0  0
    5.8825    9.5837   25.3897 H   0  0  0  0  0  0  0  0  0  0  0  0
    5.5183   11.3051   25.4969 H   0  0  0  0  0  0  0  0  0  0  0  0
   11.0665    9.5801   24.4415 H   0  0  0  0  0  0  0  0  0  0  0  0
   10.2085    8.8105   23.0637 H   0  0  0  0  0  0  0  0  0  0  0  0
   11.1053   10.3289   22.8084 H   0  0  0  0  0  0  0  0  0  0  0  0
   12.4316   13.0055   21.1249 H   0  0  0  0  0  0  0  0  0  0  0  0
   10.5022   12.0507   21.6665 H   0  0  0  0  0  0  0  0  0  0  0  0
  1 12  1  0  0  0  0
  1 13  3  0  0  0  0
  2  4  2  0  0  0  0
  2  6  1  0  0  0  0
  3  7  2  0  0  0  0
  3  8  1  0  0  0  0
  4 18  1  0  0  0  0
  5  6  2  0  0  0  0
  5 18  1  0  0  0  0
  6 12  1  0  0  0  0
  7  9  1  0  0  0  0
  7 15  1  0  0  0  0
  8 10  1  0  0  0  0
  8 14  2  0  0  0  0
  9 16  1  0  0  0  0
  9 17  2  0  0  0  0
 11 15  1  0  0  0  0
 12 16  1  0  0  0  0
 14 15  1  0  0  0  0
  2 19  1  0  0  0  0
  3 20  1  0  0  0  0
  4 21  1  0  0  0  0
  5 22  1  0  0  0  0
 10 23  1  0  0  0  0
 10 24  1  0  0  0  0
 10 25  1  0  0  0  0
 11 26  1  0  0  0  0
 11 27  1  0  0  0  0
 11 28  1  0  0  0  0
 12 29  1  0  0  0  0
 16 30  1  0  0  0  0
M  END
> <Catalog ID>
Z1129532686

> <PlateID>
1337959-R-14

> <Well>
D06

> <MW (desalted)>
260.315

> <CLogP>
0.799

> <HBD>
1

> <TPSA>
70.710

> <RotBonds>
3

> <ROCS_ShapeQuery>
A71EV2A-x0451_0A_A71EV2A-x0310_0A_A71EV2A-x0416_0A_peptide

> <ROCS_TanimotoCombo>
0.484 

> <ROCS_ShapeTanimoto>
0.297 

> <ROCS_ColorTanimoto>
0.187 

> <ROCS_RefTversky>
0.266 

> <ROCS_RefColorTversky>
0.196 

> <ROCS_RefTverskyCombo>
0.461 

> <ROCS_FitTversky>
1.650 

> <ROCS_FitColorTversky>
0.817 

> <ROCS_FitTverskyCombo>
2.467 

> <ROCS_ColorScore>
-5.953

> <ROCS_Overlap>
1842.321

> <ROCS_Rank>
6                   

$$$$
untitled-dbase-723_3
  -OEChem-11112309163D

 33 35  0     0  0  0  0  0  0999 V2000
    9.9209   10.9570   22.9581 C   0  0  0  0  0  0  0  0  0  0  0  0
    8.3822   11.9424   24.4917 C   0  0  0  0  0  0  0  0  0  0  0  0
    9.4619   12.0981   23.6148 C   0  0  0  0  0  0  0  0  0  0  0  0
    9.2920    9.7419   23.2046 C   0  0  0  0  0  0  0  0  0  0  0  0
    7.6016   12.7463   25.3411 C   0  0  0  0  0  0  0  0  0  0  0  0
    7.8446   10.6740   24.6482 C   0  0  0  0  0  0  0  0  0  0  0  0
   10.0921   13.3950   23.3875 C   0  0  0  0  0  0  0  0  0  0  0  0
    9.3899   14.3586   19.8793 C   0  0  0  0  0  0  0  0  0  0  0  0
   10.5466   15.2798   20.2444 C   0  0  0  0  0  0  0  0  0  0  0  0
    9.5223   13.2326   20.8954 C   0  0  0  0  0  0  0  0  0  0  0  0
   10.5597   15.2178   21.7639 C   0  0  0  0  0  0  0  0  0  0  0  0
    9.7947    8.5265   22.4934 C   0  0  0  0  0  0  0  0  0  0  0  0
    7.7154   14.1937   25.5866 C   0  0  0  0  0  0  0  0  0  0  0  0
    8.2467    9.5418   24.0420 N   0  0  0  0  0  0  0  0  0  0  0  0
    6.6570   12.0456   25.9750 N   0  0  0  0  0  0  0  0  0  0  0  0
   10.0777   13.8808   22.0831 N   0  0  0  0  0  0  0  0  0  0  0  0
   10.5851   14.0144   24.3298 O   0  0  0  0  0  0  0  0  0  0  0  0
    6.8125   10.7372   25.5359 O   0  0  0  0  0  0  0  0  0  0  0  0
   10.7556   11.0178   22.2654 H   0  0  0  0  0  0  0  0  0  0  0  0
    8.4344   14.8798   20.0109 H   0  0  0  0  0  0  0  0  0  0  0  0
    9.4529   14.0015   18.8477 H   0  0  0  0  0  0  0  0  0  0  0  0
   11.4862   14.8862   19.8392 H   0  0  0  0  0  0  0  0  0  0  0  0
   10.4034   16.2962   19.8672 H   0  0  0  0  0  0  0  0  0  0  0  0
    8.5661   12.7512   21.1193 H   0  0  0  0  0  0  0  0  0  0  0  0
   10.2383   12.4731   20.5627 H   0  0  0  0  0  0  0  0  0  0  0  0
   11.5515   15.3860   22.1939 H   0  0  0  0  0  0  0  0  0  0  0  0
    9.8589   15.9369   22.2022 H   0  0  0  0  0  0  0  0  0  0  0  0
   10.5756    8.0375   23.0861 H   0  0  0  0  0  0  0  0  0  0  0  0
    8.9850    7.8083   22.3187 H   0  0  0  0  0  0  0  0  0  0  0  0
   10.2097    8.7868   21.5124 H   0  0  0  0  0  0  0  0  0  0  0  0
    7.0932   14.7702   24.8806 H   0  0  0  0  0  0  0  0  0  0  0  0
    7.4002   14.4697   26.6088 H   0  0  0  0  0  0  0  0  0  0  0  0
    8.7548   14.5540   25.4840 H   0  0  0  0  0  0  0  0  0  0  0  0
  1  3  1  0  0  0  0
  1  4  2  0  0  0  0
  2  3  2  0  0  0  0
  2  5  1  0  0  0  0
  2  6  1  0  0  0  0
  3  7  1  0  0  0  0
  4 12  1  0  0  0  0
  4 14  1  0  0  0  0
  5 13  1  0  0  0  0
  5 15  2  0  0  0  0
  6 14  2  0  0  0  0
  6 18  1  0  0  0  0
  7 16  1  0  0  0  0
  7 17  2  0  0  0  0
  8  9  1  0  0  0  0
  8 10  1  0  0  0  0
  9 11  1  0  0  0  0
 10 16  1  0  0  0  0
 11 16  1  0  0  0  0
 15 18  1  0  0  0  0
  1 19  1  0  0  0  0
  8 20  1  0  0  0  0
  8 21  1  0  0  0  0
  9 22  1  0  0  0  0
  9 23  1  0  0  0  0
 10 24  1  0  0  0  0
 10 25  1  0  0  0  0
 11 26  1  0  0  0  0
 11 27  1  0  0  0  0
 12 28  1  0  0  0  0
 12 29  1  0  0  0  0
 12 30  1  0  0  0  0
 13 31  1  0  0  0  0
 13 32  1  0  0  0  0
 13 33  1  0  0  0  0
M  END
> <Catalog ID>
Z219699312

> <PlateID>
1337959-R-10

> <Well>
A06

> <MW (desalted)>
245.277

> <CLogP>
0.838

> <HBD>
0

> <TPSA>
59.230

> <RotBonds>
1

> <ROCS_ShapeQuery>
A71EV2A-x0451_0A_A71EV2A-x0310_0A_A71EV2A-x0416_0A_peptide

> <ROCS_TanimotoCombo>
0.481 

> <ROCS_ShapeTanimoto>
0.314 

> <ROCS_ColorTanimoto>
0.167 

> <ROCS_RefTversky>
0.279 

> <ROCS_RefColorTversky>
0.177 

> <ROCS_RefTverskyCombo>
0.456 

> <ROCS_FitTversky>
1.676 

> <ROCS_FitColorTversky>
0.738 

> <ROCS_FitTverskyCombo>
2.414 

> <ROCS_ColorScore>
-5.392

> <ROCS_Overlap>
1934.808

> <ROCS_Rank>
7                   

$$$$
untitled-dbase-750_119
  -OEChem-11112309163D

 32 33  0     0  0  0  0  0  0999 V2000
    8.0104    9.8234   24.2556 C   0  0  0  0  0  0  0  0  0  0  0  0
    7.5031   11.0676   24.6299 C   0  0  0  0  0  0  0  0  0  0  0  0
    9.9798   10.8967   23.3574 C   0  0  0  0  0  0  0  0  0  0  0  0
    9.4724   12.1409   23.7317 C   0  0  0  0  0  0  0  0  0  0  0  0
    9.2488    9.7379   23.6194 C   0  0  0  0  0  0  0  0  0  0  0  0
    8.2340   12.2264   24.3679 C   0  0  0  0  0  0  0  0  0  0  0  0
   10.2530   13.3732   23.4503 C   0  0  0  0  0  0  0  0  0  0  0  0
   12.9200   14.7805   23.0532 C   0  0  0  0  0  0  0  0  0  0  0  0
   11.2638   15.0225   19.9594 C   0  0  0  0  0  0  0  0  0  0  0  0
   11.0865   15.6321   21.3610 C   0  0  0  0  0  0  0  0  0  0  0  0
   12.4893   14.2674   20.5033 C   0  0  0  0  0  0  0  0  0  0  0  0
   11.9072   14.4393   21.9393 C   0  0  0  0  0  0  0  0  0  0  0  0
    9.7912    8.4076   23.2192 C   0  0  0  0  0  0  0  0  0  0  0  0
   11.0539   13.3106   22.3371 N   0  0  0  0  0  0  0  0  0  0  0  0
   10.1562   14.3318   24.2120 O   0  0  0  0  0  0  0  0  0  0  0  0
   13.6430   13.9719   23.6161 O   0  0  0  0  0  0  0  0  0  0  0  0
   12.8995   16.1074   23.3289 O   0  0  0  0  0  0  0  0  0  0  0  0
    7.7369   13.4170   24.7316 F   0  0  0  0  0  0  0  0  0  0  0  0
    7.4333    8.9261   24.4626 H   0  0  0  0  0  0  0  0  0  0  0  0
    6.5385   11.1341   25.1245 H   0  0  0  0  0  0  0  0  0  0  0  0
   10.9454   10.8276   22.8609 H   0  0  0  0  0  0  0  0  0  0  0  0
   10.4400   14.3660   19.6568 H   0  0  0  0  0  0  0  0  0  0  0  0
   11.4639   15.7342   19.1544 H   0  0  0  0  0  0  0  0  0  0  0  0
   11.5749   16.6073   21.4789 H   0  0  0  0  0  0  0  0  0  0  0  0
   10.0503   15.7230   21.7002 H   0  0  0  0  0  0  0  0  0  0  0  0
   12.6010   13.2413   20.1406 H   0  0  0  0  0  0  0  0  0  0  0  0
   13.4365   14.7960   20.3406 H   0  0  0  0  0  0  0  0  0  0  0  0
    9.4666    8.1528   22.2028 H   0  0  0  0  0  0  0  0  0  0  0  0
   10.8886    8.4002   23.2460 H   0  0  0  0  0  0  0  0  0  0  0  0
    9.4516    7.6172   23.9013 H   0  0  0  0  0  0  0  0  0  0  0  0
   11.1439   12.4783   21.7831 H   0  0  0  0  0  0  0  0  0  0  0  0
   13.5360   16.3445   24.0367 H   0  0  0  0  0  0  0  0  0  0  0  0
  1  2  1  0  0  0  0
  1  5  2  0  0  0  0
  2  6  2  0  0  0  0
  3  4  2  0  0  0  0
  3  5  1  0  0  0  0
  4  6  1  0  0  0  0
  4  7  1  0  0  0  0
  5 13  1  0  0  0  0
  6 18  1  0  0  0  0
  7 14  1  0  0  0  0
  7 15  2  0  0  0  0
  8 12  1  0  0  0  0
  8 16  2  0  0  0  0
  8 17  1  0  0  0  0
  9 10  1  0  0  0  0
  9 11  1  0  0  0  0
 10 12  1  0  0  0  0
 11 12  1  0  0  0  0
 12 14  1  0  0  0  0
  1 19  1  0  0  0  0
  2 20  1  0  0  0  0
  3 21  1  0  0  0  0
  9 22  1  0  0  0  0
  9 23  1  0  0  0  0
 10 24  1  0  0  0  0
 10 25  1  0  0  0  0
 11 26  1  0  0  0  0
 11 27  1  0  0  0  0
 13 28  1  0  0  0  0
 13 29  1  0  0  0  0
 13 30  1  0  0  0  0
 14 31  1  0  0  0  0
 17 32  1  0  0  0  0
M  END
> <Catalog ID>
Z1436302305

> <PlateID>
1337959-R-10

> <Well>
D03

> <MW (desalted)>
251.254

> <CLogP>
1.900

> <HBD>
2

> <TPSA>
66.400

> <RotBonds>
3

> <ROCS_ShapeQuery>
A71EV2A-x0451_0A_A71EV2A-x0310_0A_A71EV2A-x0416_0A_peptide

> <ROCS_TanimotoCombo>
0.480 

> <ROCS_ShapeTanimoto>
0.315 

> <ROCS_ColorTanimoto>
0.165 

> <ROCS_RefTversky>
0.279 

> <ROCS_RefColorTversky>
0.180 

> <ROCS_RefTverskyCombo>
0.459 

> <ROCS_FitTversky>
1.715 

> <ROCS_FitColorTversky>
0.665 

> <ROCS_FitTverskyCombo>
2.380 

> <ROCS_ColorScore>
-5.484

> <ROCS_Overlap>
1932.838

> <ROCS_Rank>
8                   

$$$$
untitled-dbase-1061_25
  -OEChem-11112309163D

 36 38  0     1  0  0  0  0  0999 V2000
    7.0415   13.2007   25.6861 C   0  0  0  0  0  0  0  0  0  0  0  0
    6.2728   12.0573   25.9554 C   0  0  0  0  0  0  0  0  0  0  0  0
    8.1883   13.1166   24.8918 C   0  0  0  0  0  0  0  0  0  0  0  0
    6.6411   10.8164   25.4336 C   0  0  0  0  0  0  0  0  0  0  0  0
    8.5372   11.8830   24.3660 C   0  0  0  0  0  0  0  0  0  0  0  0
    7.7724   10.7590   24.6414 C   0  0  0  0  0  0  0  0  0  0  0  0
    9.9750   12.3612   22.3690 C   0  0  0  0  0  0  0  0  0  0  0  0
   13.0467   14.2862   22.8680 C   0  0  0  0  0  0  0  0  0  0  0  0
   12.1601   15.3627   22.2608 C   0  0  0  0  0  0  0  0  0  0  0  0
   12.0367   13.3276   23.4766 C   0  0  0  0  0  0  0  0  0  0  0  0
    9.2887   10.0657   23.1680 C   0  0  0  0  0  0  0  0  0  0  0  0
    9.7181   11.4928   23.5514 C   0  0  2  0  0  0  0  0  0  0  0  0
   10.9617   14.5745   21.7155 C   0  0  2  0  0  0  0  0  0  0  0  0
    9.6906   15.4152   21.7565 C   0  0  0  0  0  0  0  0  0  0  0  0
   10.9030   13.3740   22.5573 N   0  0  0  0  0  0  0  0  0  0  0  0
    9.8635   16.5886   20.9684 N   0  0  0  0  0  0  0  0  0  0  0  0
    9.3810   12.1509   21.3102 O   0  0  0  0  0  0  0  0  0  0  0  0
    8.2591    9.6089   24.0777 O   0  0  0  0  0  0  0  0  0  0  0  0
    6.7383   14.1605   26.0954 H   0  0  0  0  0  0  0  0  0  0  0  0
    5.3837   12.1409   26.5742 H   0  0  0  0  0  0  0  0  0  0  0  0
    8.7834   14.0010   24.6884 H   0  0  0  0  0  0  0  0  0  0  0  0
    6.0573    9.9284   25.6502 H   0  0  0  0  0  0  0  0  0  0  0  0
   13.6827   13.8029   22.1223 H   0  0  0  0  0  0  0  0  0  0  0  0
   13.6875   14.7116   23.6477 H   0  0  0  0  0  0  0  0  0  0  0  0
   11.8801   16.1292   22.9901 H   0  0  0  0  0  0  0  0  0  0  0  0
   12.6873   15.8546   21.4336 H   0  0  0  0  0  0  0  0  0  0  0  0
   12.4169   12.3032   23.4898 H   0  0  0  0  0  0  0  0  0  0  0  0
   11.7362   13.6171   24.4841 H   0  0  0  0  0  0  0  0  0  0  0  0
    8.9094    9.9937   22.1420 H   0  0  0  0  0  0  0  0  0  0  0  0
   10.1385    9.3757   23.2621 H   0  0  0  0  0  0  0  0  0  0  0  0
   10.6560   11.4566   24.1647 H   0  0  0  0  0  0  0  0  0  0  0  0
   11.1521   14.2743   20.6681 H   0  0  0  0  0  0  0  0  0  0  0  0
    8.8848   14.8009   21.3587 H   0  0  0  0  0  0  0  0  0  0  0  0
    9.5097   15.6755   22.7979 H   0  0  0  0  0  0  0  0  0  0  0  0
   10.0890   16.3405   20.0215 H   0  0  0  0  0  0  0  0  0  0  0  0
    9.0191   17.1326   20.9671 H   0  0  0  0  0  0  0  0  0  0  0  0
  1  2  2  0  0  0  0
  1  3  1  0  0  0  0
  2  4  1  0  0  0  0
  3  5  2  0  0  0  0
  4  6  2  0  0  0  0
  5  6  1  0  0  0  0
  5 12  1  0  0  0  0
  6 18  1  0  0  0  0
  7 12  1  0  0  0  0
  7 15  1  0  0  0  0
  7 17  2  0  0  0  0
  8  9  1  0  0  0  0
  8 10  1  0  0  0  0
  9 13  1  0  0  0  0
 10 15  1  0  0  0  0
 11 12  1  0  0  0  0
 11 18  1  0  0  0  0
 13 14  1  0  0  0  0
 13 15  1  0  0  0  0
 14 16  1  0  0  0  0
  1 19  1  0  0  0  0
  2 20  1  0  0  0  0
  3 21  1  0  0  0  0
  4 22  1  0  0  0  0
  8 23  1  0  0  0  0
  8 24  1  0  0  0  0
  9 25  1  0  0  0  0
  9 26  1  0  0  0  0
 10 27  1  0  0  0  0
 10 28  1  0  0  0  0
 11 29  1  0  0  0  0
 11 30  1  0  0  0  0
 12 31  1  0  0  0  0
 13 32  1  0  0  0  0
 14 33  1  0  0  0  0
 14 34  1  0  0  0  0
 16 35  1  0  0  0  0
 16 36  1  0  0  0  0
M  END
> <Catalog ID>
Z1197879784

> <PlateID>
1337959-R-14

> <Well>
C07

> <MW (desalted)>
246.305

> <CLogP>
1.456

> <HBD>
1

> <TPSA>
55.560

> <RotBonds>
2

> <ROCS_ShapeQuery>
A71EV2A-x0451_0A_A71EV2A-x0310_0A_A71EV2A-x0416_0A_peptide

> <ROCS_TanimotoCombo>
0.480 

> <ROCS_ShapeTanimoto>
0.321 

> <ROCS_ColorTanimoto>
0.159 

> <ROCS_RefTversky>
0.283 

> <ROCS_RefColorTversky>
0.174 

> <ROCS_RefTverskyCombo>
0.457 

> <ROCS_FitTversky>
1.724 

> <ROCS_FitColorTversky>
0.642 

> <ROCS_FitTverskyCombo>
2.366 

> <ROCS_ColorScore>
-5.300

> <ROCS_Overlap>
1963.430

> <ROCS_Rank>
9                   

$$$$
untitled-dbase-673_71
  -OEChem-11112309163D

 33 34  0     0  0  0  0  0  0999 V2000
    7.1512   13.0101   26.0652 C   0  0  0  0  0  0  0  0  0  0  0  0
    6.1631   12.0206   26.0286 C   0  0  0  0  0  0  0  0  0  0  0  0
    8.3554   12.8583   25.3634 C   0  0  0  0  0  0  0  0  0  0  0  0
    6.3391   10.8446   25.2921 C   0  0  0  0  0  0  0  0  0  0  0  0
    8.5455   11.6837   24.6207 C   0  0  0  0  0  0  0  0  0  0  0  0
    7.5455   10.7271   24.6083 C   0  0  0  0  0  0  0  0  0  0  0  0
    9.5465   11.1262   23.8017 C   0  0  0  0  0  0  0  0  0  0  0  0
   10.8700   13.2317   23.3633 C   0  0  0  0  0  0  0  0  0  0  0  0
   11.5953   15.2275   20.2624 C   0  0  0  0  0  0  0  0  0  0  0  0
    9.8551   15.7089   22.0026 C   0  0  0  0  0  0  0  0  0  0  0  0
   12.2880   15.7755   22.6065 C   0  0  0  0  0  0  0  0  0  0  0  0
   10.8836   11.7172   23.4408 C   0  0  0  0  0  0  0  0  0  0  0  0
   11.2284   15.0806   21.7436 C   0  0  0  0  0  0  0  0  0  0  0  0
    9.2020    9.9277   23.3211 N   0  0  0  0  0  0  0  0  0  0  0  0
   11.1780   13.6714   22.0880 N   0  0  0  0  0  0  0  0  0  0  0  0
   10.6121   13.9574   24.3203 O   0  0  0  0  0  0  0  0  0  0  0  0
    7.9349    9.6778   23.8336 O   0  0  0  0  0  0  0  0  0  0  0  0
    6.9825   13.9125   26.6477 H   0  0  0  0  0  0  0  0  0  0  0  0
    5.2399   12.1683   26.5836 H   0  0  0  0  0  0  0  0  0  0  0  0
    9.1136   13.6340   25.4010 H   0  0  0  0  0  0  0  0  0  0  0  0
    5.5803   10.0723   25.2584 H   0  0  0  0  0  0  0  0  0  0  0  0
   12.5757   14.7848   20.0513 H   0  0  0  0  0  0  0  0  0  0  0  0
   10.8583   14.7354   19.6182 H   0  0  0  0  0  0  0  0  0  0  0  0
   11.6471   16.2831   19.9711 H   0  0  0  0  0  0  0  0  0  0  0  0
    9.5704   15.6161   23.0572 H   0  0  0  0  0  0  0  0  0  0  0  0
    9.0758   15.2131   21.4122 H   0  0  0  0  0  0  0  0  0  0  0  0
    9.8481   16.7736   21.7440 H   0  0  0  0  0  0  0  0  0  0  0  0
   12.0501   15.6858   23.6728 H   0  0  0  0  0  0  0  0  0  0  0  0
   13.2812   15.3421   22.4446 H   0  0  0  0  0  0  0  0  0  0  0  0
   12.3463   16.8458   22.3766 H   0  0  0  0  0  0  0  0  0  0  0  0
   11.6337   11.4076   24.1796 H   0  0  0  0  0  0  0  0  0  0  0  0
   11.2155   11.3197   22.4733 H   0  0  0  0  0  0  0  0  0  0  0  0
   11.3751   12.9859   21.3696 H   0  0  0  0  0  0  0  0  0  0  0  0
  1  2  2  0  0  0  0
  1  3  1  0  0  0  0
  2  4  1  0  0  0  0
  3  5  2  0  0  0  0
  4  6  2  0  0  0  0
  5  6  1  0  0  0  0
  5  7  1  0  0  0  0
  6 17  1  0  0  0  0
  7 12  1  0  0  0  0
  7 14  2  0  0  0  0
  8 12  1  0  0  0  0
  8 15  1  0  0  0  0
  8 16  2  0  0  0  0
  9 13  1  0  0  0  0
 10 13  1  0  0  0  0
 11 13  1  0  0  0  0
 13 15  1  0  0  0  0
 14 17  1  0  0  0  0
  1 18  1  0  0  0  0
  2 19  1  0  0  0  0
  3 20  1  0  0  0  0
  4 21  1  0  0  0  0
  9 22  1  0  0  0  0
  9 23  1  0  0  0  0
  9 24  1  0  0  0  0
 10 25  1  0  0  0  0
 10 26  1  0  0  0  0
 10 27  1  0  0  0  0
 11 28  1  0  0  0  0
 11 29  1  0  0  0  0
 11 30  1  0  0  0  0
 12 31  1  0  0  0  0
 12 32  1  0  0  0  0
 15 33  1  0  0  0  0
M  END
> <Catalog ID>
Z99095183

> <PlateID>
1337959-R-09

> <Well>
D06

> <MW (desalted)>
232.278

> <CLogP>
1.290

> <HBD>
1

> <TPSA>
55.130

> <RotBonds>
3

> <ROCS_ShapeQuery>
A71EV2A-x0451_0A_A71EV2A-x0310_0A_A71EV2A-x0416_0A_peptide

> <ROCS_TanimotoCombo>
0.479 

> <ROCS_ShapeTanimoto>
0.325 

> <ROCS_ColorTanimoto>
0.154 

> <ROCS_RefTversky>
0.284 

> <ROCS_RefColorTversky>
0.166 

> <ROCS_RefTverskyCombo>
0.450 

> <ROCS_FitTversky>
1.812 

> <ROCS_FitColorTversky>
0.691 

> <ROCS_FitTverskyCombo>
2.503 

> <ROCS_ColorScore>
-5.047

> <ROCS_Overlap>
1967.214

> <ROCS_Rank>
10                  

$$$$
untitled-dbase-1175_226
  -OEChem-11112309163D

 27 28  0     0  0  0  0  0  0999 V2000
   11.8639   15.4679   21.2617 C   0  0  0  0  0  0  0  0  0  0  0  0
    6.9265   13.2167   25.3146 C   0  0  0  0  0  0  0  0  0  0  0  0
    5.9736   12.1206   25.2924 C   0  0  0  0  0  0  0  0  0  0  0  0
    8.2025   13.0442   24.9353 C   0  0  0  0  0  0  0  0  0  0  0  0
    6.2953   10.8779   24.8971 C   0  0  0  0  0  0  0  0  0  0  0  0
    8.6181   11.7478   24.5019 C   0  0  0  0  0  0  0  0  0  0  0  0
    9.7594   11.2150   24.0682 C   0  0  0  0  0  0  0  0  0  0  0  0
    7.6863   10.6075   24.4626 C   0  0  0  0  0  0  0  0  0  0  0  0
   10.8713   13.3237   23.5061 C   0  0  0  0  0  0  0  0  0  0  0  0
    9.5749    9.7617   23.7534 C   0  0  0  0  0  0  0  0  0  0  0  0
   10.5843   14.8170   21.5366 C   0  0  0  0  0  0  0  0  0  0  0  0
   11.0811   11.8698   23.8840 C   0  0  0  0  0  0  0  0  0  0  0  0
   12.8780   15.9873   21.0418 N   0  0  0  0  0  0  0  0  0  0  0  0
    8.1519    9.4652   24.0543 N   0  0  0  0  0  0  0  0  0  0  0  0
   10.7859   13.5177   22.1371 N   0  0  0  0  0  0  0  0  0  0  0  0
   10.7881   14.2108   24.3539 O   0  0  0  0  0  0  0  0  0  0  0  0
    6.5733   14.1860   25.6494 H   0  0  0  0  0  0  0  0  0  0  0  0
    4.9613   12.3429   25.6145 H   0  0  0  0  0  0  0  0  0  0  0  0
    8.9088   13.8653   24.9541 H   0  0  0  0  0  0  0  0  0  0  0  0
    5.5746   10.0700   24.8851 H   0  0  0  0  0  0  0  0  0  0  0  0
    9.7768    9.5559   22.6973 H   0  0  0  0  0  0  0  0  0  0  0  0
   10.2202    9.1353   24.3777 H   0  0  0  0  0  0  0  0  0  0  0  0
    9.9804   15.4110   22.2285 H   0  0  0  0  0  0  0  0  0  0  0  0
   10.0110   14.6707   20.6168 H   0  0  0  0  0  0  0  0  0  0  0  0
   11.6359   11.3887   23.0716 H   0  0  0  0  0  0  0  0  0  0  0  0
   11.6709   11.7693   24.8001 H   0  0  0  0  0  0  0  0  0  0  0  0
   10.8686   12.7101   21.5274 H   0  0  0  0  0  0  0  0  0  0  0  0
  1 11  1  0  0  0  0
  1 13  3  0  0  0  0
  2  3  1  0  0  0  0
  2  4  2  0  0  0  0
  3  5  2  0  0  0  0
  4  6  1  0  0  0  0
  5  8  1  0  0  0  0
  6  7  2  0  0  0  0
  6  8  1  0  0  0  0
  7 10  1  0  0  0  0
  7 12  1  0  0  0  0
  8 14  2  0  0  0  0
  9 12  1  0  0  0  0
  9 15  1  0  0  0  0
  9 16  2  0  0  0  0
 10 14  1  0  0  0  0
 11 15  1  0  0  0  0
  2 17  1  0  0  0  0
  3 18  1  0  0  0  0
  4 19  1  0  0  0  0
  5 20  1  0  0  0  0
 10 21  1  0  0  0  0
 10 22  1  0  0  0  0
 11 23  1  0  0  0  0
 11 24  1  0  0  0  0
 12 25  1  0  0  0  0
 12 26  1  0  0  0  0
 15 27  1  0  0  0  0
M  END
> <Catalog ID>
Z800018726

> <PlateID>
1337959-R-15

> <Well>
F11

> <MW (desalted)>
213.235

> <CLogP>
0.273

> <HBD>
2

> <TPSA>
68.680

> <RotBonds>
3

> <ROCS_ShapeQuery>
A71EV2A-x0451_0A_A71EV2A-x0310_0A_A71EV2A-x0416_0A_peptide

> <ROCS_TanimotoCombo>
0.479 

> <ROCS_ShapeTanimoto>
0.305 

> <ROCS_ColorTanimoto>
0.175 

> <ROCS_RefTversky>
0.269 

> <ROCS_RefColorTversky>
0.184 

> <ROCS_RefTverskyCombo>
0.453 

> <ROCS_FitTversky>
1.797 

> <ROCS_FitColorTversky>
0.768 

> <ROCS_FitTverskyCombo>
2.565 

> <ROCS_ColorScore>
-5.606

> <ROCS_Overlap>
1861.586

> <ROCS_Rank>
11                  

$$$$
untitled-dbase-1052_116
  -OEChem-11112309163D

 36 38  0     1  0  0  0  0  0999 V2000
    6.3667   12.6385   25.4280 C   0  0  0  0  0  0  0  0  0  0  0  0
    6.2318   11.3343   25.9177 C   0  0  0  0  0  0  0  0  0  0  0  0
    7.3950   12.9581   24.5383 C   0  0  0  0  0  0  0  0  0  0  0  0
    7.1217   10.3358   25.5213 C   0  0  0  0  0  0  0  0  0  0  0  0
    8.2961   11.9680   24.1553 C   0  0  0  0  0  0  0  0  0  0  0  0
    8.1447   10.6652   24.6420 C   0  0  0  0  0  0  0  0  0  0  0  0
   10.1670   13.4121   23.3380 C   0  0  0  0  0  0  0  0  0  0  0  0
    8.7461   15.6634   20.7877 C   0  0  0  0  0  0  0  0  0  0  0  0
    9.1083   14.2612   21.2783 C   0  0  0  0  0  0  0  0  0  0  0  0
   11.4049   15.0347   21.8545 C   0  0  0  0  0  0  0  0  0  0  0  0
   10.3661   10.9384   23.3523 C   0  0  0  0  0  0  0  0  0  0  0  0
    9.4162   12.1310   23.1602 C   0  0  1  0  0  0  0  0  0  0  0  0
   11.1586   16.0948   20.7703 C   0  0  1  0  0  0  0  0  0  0  0  0
   11.4607   15.5917   19.3565 C   0  0  0  0  0  0  0  0  0  0  0  0
    9.8149   16.6527   20.8970 N   0  0  0  0  0  0  0  0  0  0  0  0
   10.2164   14.2576   22.2259 N   0  0  0  0  0  0  0  0  0  0  0  0
   10.7013   13.6575   24.4221 O   0  0  0  0  0  0  0  0  0  0  0  0
    9.3703    9.5628   23.9992 S   0  0  0  0  0  0  0  0  0  0  0  0
    5.6691   13.4086   25.7462 H   0  0  0  0  0  0  0  0  0  0  0  0
    5.4296   11.0994   26.6115 H   0  0  0  0  0  0  0  0  0  0  0  0
    7.4877   13.9710   24.1563 H   0  0  0  0  0  0  0  0  0  0  0  0
    7.0052    9.3238   25.8970 H   0  0  0  0  0  0  0  0  0  0  0  0
    8.4283   15.6040   19.7257 H   0  0  0  0  0  0  0  0  0  0  0  0
    7.8464   16.0299   21.3289 H   0  0  0  0  0  0  0  0  0  0  0  0
    8.2084   13.7916   21.7013 H   0  0  0  0  0  0  0  0  0  0  0  0
    9.4142   13.6290   20.4266 H   0  0  0  0  0  0  0  0  0  0  0  0
   12.1653   14.2999   21.5194 H   0  0  0  0  0  0  0  0  0  0  0  0
   11.8368   15.5168   22.7535 H   0  0  0  0  0  0  0  0  0  0  0  0
   10.7652   10.6284   22.3807 H   0  0  0  0  0  0  0  0  0  0  0  0
   11.2066   11.1563   24.0171 H   0  0  0  0  0  0  0  0  0  0  0  0
    9.0270   12.1185   22.1316 H   0  0  0  0  0  0  0  0  0  0  0  0
   11.8908   16.9445   20.9690 H   0  0  0  0  0  0  0  0  0  0  0  0
   10.7890   14.7726   19.1049 H   0  0  0  0  0  0  0  0  0  0  0  0
   12.4893   15.2390   19.3024 H   0  0  0  0  0  0  0  0  0  0  0  0
   11.3223   16.3996   18.6399 H   0  0  0  0  0  0  0  0  0  0  0  0
    9.6771   17.3698   20.1653 H   0  0  0  0  0  0  0  0  0  0  0  0
  1  2  2  0  0  0  0
  1  3  1  0  0  0  0
  2  4  1  0  0  0  0
  3  5  2  0  0  0  0
  4  6  2  0  0  0  0
  5  6  1  0  0  0  0
  5 12  1  0  0  0  0
  6 18  1  0  0  0  0
  7 12  1  0  0  0  0
  7 16  1  0  0  0  0
  7 17  2  0  0  0  0
  8  9  1  0  0  0  0
  8 15  1  0  0  0  0
  9 16  1  0  0  0  0
 10 13  1  0  0  0  0
 10 16  1  0  0  0  0
 11 12  1  0  0  0  0
 11 18  1  0  0  0  0
 13 14  1  0  0  0  0
 13 15  1  0  0  0  0
  1 19  1  0  0  0  0
  2 20  1  0  0  0  0
  3 21  1  0  0  0  0
  4 22  1  0  0  0  0
  8 23  1  0  0  0  0
  8 24  1  0  0  0  0
  9 25  1  0  0  0  0
  9 26  1  0  0  0  0
 10 27  1  0  0  0  0
 10 28  1  0  0  0  0
 11 29  1  0  0  0  0
 11 30  1  0  0  0  0
 12 31  1  0  0  0  0
 13 32  1  0  0  0  0
 14 33  1  0  0  0  0
 14 34  1  0  0  0  0
 14 35  1  0  0  0  0
 15 36  1  0  0  0  0
M  END
> <Catalog ID>
Z1316761678

> <PlateID>
1337959-R-14

> <Well>
B08

> <MW (desalted)>
262.371

> <CLogP>
2.355

> <HBD>
1

> <TPSA>
32.340

> <RotBonds>
1

> <ROCS_ShapeQuery>
A71EV2A-x0451_0A_A71EV2A-x0310_0A_A71EV2A-x0416_0A_peptide

> <ROCS_TanimotoCombo>
0.479 

> <ROCS_ShapeTanimoto>
0.288 

> <ROCS_ColorTanimoto>
0.191 

> <ROCS_RefTversky>
0.259 

> <ROCS_RefColorTversky>
0.199 

> <ROCS_RefTverskyCombo>
0.459 

> <ROCS_FitTversky>
1.616 

> <ROCS_FitColorTversky>
0.831 

> <ROCS_FitTverskyCombo>
2.447 

> <ROCS_ColorScore>
-6.060

> <ROCS_Overlap>
1798.899

> <ROCS_Rank>
12                  

$$$$
untitled-dbase-925_52
  -OEChem-11112309163D

 30 31  0     0  0  0  0  0  0999 V2000
   13.0938   14.1876   22.9409 C   0  0  0  0  0  0  0  0  0  0  0  0
   10.0163   10.7303   23.7115 C   0  0  0  0  0  0  0  0  0  0  0  0
    9.1564    9.6656   23.9276 C   0  0  0  0  0  0  0  0  0  0  0  0
    7.3568   11.0629   24.2230 C   0  0  0  0  0  0  0  0  0  0  0  0
    9.4867   12.0150   23.7608 C   0  0  0  0  0  0  0  0  0  0  0  0
    8.1324   12.1932   24.0209 C   0  0  0  0  0  0  0  0  0  0  0  0
   10.4014   13.1626   23.5298 C   0  0  0  0  0  0  0  0  0  0  0  0
   12.5583   13.8881   20.5443 C   0  0  0  0  0  0  0  0  0  0  0  0
   11.3042   15.5909   22.0127 C   0  0  0  0  0  0  0  0  0  0  0  0
   13.0952   15.1118   19.8098 C   0  0  0  0  0  0  0  0  0  0  0  0
   10.5957   15.9783   20.7217 C   0  0  0  0  0  0  0  0  0  0  0  0
   11.9979   14.2108   21.9473 C   0  0  0  0  0  0  0  0  0  0  0  0
   13.9533   14.1694   23.7202 N   0  0  0  0  0  0  0  0  0  0  0  0
    7.8356    9.7993   24.1830 N   0  0  0  0  0  0  0  0  0  0  0  0
   11.0521   13.1688   22.3119 N   0  0  0  0  0  0  0  0  0  0  0  0
   10.5415   14.0052   24.4123 O   0  0  0  0  0  0  0  0  0  0  0  0
   11.7714   16.2819   19.3635 S   0  0  0  0  0  0  0  0  0  0  0  0
    7.4033   13.7499   24.0973 Cl  0  0  0  0  0  0  0  0  0  0  0  0
   11.0679   10.5535   23.5111 H   0  0  0  0  0  0  0  0  0  0  0  0
    9.5199    8.6436   23.8999 H   0  0  0  0  0  0  0  0  0  0  0  0
    6.2930   11.1330   24.4301 H   0  0  0  0  0  0  0  0  0  0  0  0
   11.7773   13.4243   19.9360 H   0  0  0  0  0  0  0  0  0  0  0  0
   13.3701   13.1613   20.6282 H   0  0  0  0  0  0  0  0  0  0  0  0
   12.0432   16.3648   22.2392 H   0  0  0  0  0  0  0  0  0  0  0  0
   10.5786   15.5961   22.8313 H   0  0  0  0  0  0  0  0  0  0  0  0
   13.8455   15.6407   20.4070 H   0  0  0  0  0  0  0  0  0  0  0  0
   13.5872   14.7983   18.8829 H   0  0  0  0  0  0  0  0  0  0  0  0
    9.9303   15.1671   20.4086 H   0  0  0  0  0  0  0  0  0  0  0  0
    9.9744   16.8698   20.8552 H   0  0  0  0  0  0  0  0  0  0  0  0
   10.9394   12.4100   21.6541 H   0  0  0  0  0  0  0  0  0  0  0  0
  1 12  1  0  0  0  0
  1 13  3  0  0  0  0
  2  3  1  0  0  0  0
  2  5  2  0  0  0  0
  3 14  2  0  0  0  0
  4  6  2  0  0  0  0
  4 14  1  0  0  0  0
  5  6  1  0  0  0  0
  5  7  1  0  0  0  0
  6 18  1  0  0  0  0
  7 15  1  0  0  0  0
  7 16  2  0  0  0  0
  8 10  1  0  0  0  0
  8 12  1  0  0  0  0
  9 11  1  0  0  0  0
  9 12  1  0  0  0  0
 10 17  1  0  0  0  0
 11 17  1  0  0  0  0
 12 15  1  0  0  0  0
  2 19  1  0  0  0  0
  3 20  1  0  0  0  0
  4 21  1  0  0  0  0
  8 22  1  0  0  0  0
  8 23  1  0  0  0  0
  9 24  1  0  0  0  0
  9 25  1  0  0  0  0
 10 26  1  0  0  0  0
 10 27  1  0  0  0  0
 11 28  1  0  0  0  0
 11 29  1  0  0  0  0
 15 30  1  0  0  0  0
M  END
> <Catalog ID>
Z1517962270

> <PlateID>
1337959-R-12

> <Well>
E09

> <MW (desalted)>
281.761

> <CLogP>
0.021

> <HBD>
1

> <TPSA>
65.780

> <RotBonds>
2

> <ROCS_ShapeQuery>
A71EV2A-x0451_0A_A71EV2A-x0310_0A_A71EV2A-x0416_0A_peptide

> <ROCS_TanimotoCombo>
0.479 

> <ROCS_ShapeTanimoto>
0.290 

> <ROCS_ColorTanimoto>
0.189 

> <ROCS_RefTversky>
0.260 

> <ROCS_RefColorTversky>
0.197 

> <ROCS_RefTverskyCombo>
0.457 

> <ROCS_FitTversky>
1.645 

> <ROCS_FitColorTversky>
0.824 

> <ROCS_FitTverskyCombo>
2.469 

> <ROCS_ColorScore>
-6.004

> <ROCS_Overlap>
1803.196

> <ROCS_Rank>
13                  

$$$$
untitled-dbase-596_117
  -OEChem-11112309163D

 39 40  0     1  0  0  0  0  0999 V2000
    9.2274   11.3957   23.6937 C   0  0  0  0  0  0  0  0  0  0  0  0
    8.0898   11.9986   24.2576 C   0  0  0  0  0  0  0  0  0  0  0  0
    9.0511   10.0621   23.9520 C   0  0  0  0  0  0  0  0  0  0  0  0
   10.5357   13.4870   23.4240 C   0  0  0  0  0  0  0  0  0  0  0  0
    8.8379   15.6576   20.8821 C   0  0  0  0  0  0  0  0  0  0  0  0
    9.4979   14.3384   21.2741 C   0  0  0  0  0  0  0  0  0  0  0  0
   10.5244   16.9184   22.0288 C   0  0  0  0  0  0  0  0  0  0  0  0
   11.2673   15.6468   22.4606 C   0  0  2  0  0  0  0  0  0  0  0  0
    7.7383   13.4284   24.2830 C   0  0  0  0  0  0  0  0  0  0  0  0
    9.8339    8.8545   23.6588 C   0  0  0  0  0  0  0  0  0  0  0  0
   12.5057   15.3823   21.5972 C   0  0  0  0  0  0  0  0  0  0  0  0
   11.6954   11.3143   23.1495 C   0  0  0  0  0  0  0  0  0  0  0  0
   10.3770   12.0570   22.9717 C   0  0  1  0  0  0  0  0  0  0  0  0
    7.2706   11.1071   24.8225 N   0  0  0  0  0  0  0  0  0  0  0  0
    9.8142   16.7381   20.7639 N   0  0  0  0  0  0  0  0  0  0  0  0
   10.3717   14.4752   22.4479 N   0  0  0  0  0  0  0  0  0  0  0  0
   10.7937   13.7206   24.6077 O   0  0  0  0  0  0  0  0  0  0  0  0
    7.8868    9.8772   24.6252 O   0  0  0  0  0  0  0  0  0  0  0  0
    8.3248   15.5366   19.9217 H   0  0  0  0  0  0  0  0  0  0  0  0
    8.0681   15.9283   21.6151 H   0  0  0  0  0  0  0  0  0  0  0  0
    8.7186   13.5923   21.4452 H   0  0  0  0  0  0  0  0  0  0  0  0
   10.1238   13.9657   20.4540 H   0  0  0  0  0  0  0  0  0  0  0  0
    9.8137   17.2193   22.8089 H   0  0  0  0  0  0  0  0  0  0  0  0
   11.2314   17.7494   21.9235 H   0  0  0  0  0  0  0  0  0  0  0  0
   11.6192   15.8039   23.4833 H   0  0  0  0  0  0  0  0  0  0  0  0
    7.1435   13.7106   23.3973 H   0  0  0  0  0  0  0  0  0  0  0  0
    7.1494   13.6975   25.1780 H   0  0  0  0  0  0  0  0  0  0  0  0
    8.6321   14.0774   24.3035 H   0  0  0  0  0  0  0  0  0  0  0  0
   10.5488    8.6287   24.4705 H   0  0  0  0  0  0  0  0  0  0  0  0
    9.1956    7.9611   23.5247 H   0  0  0  0  0  0  0  0  0  0  0  0
   10.4171    8.9475   22.7233 H   0  0  0  0  0  0  0  0  0  0  0  0
   12.2024   15.2194   20.5661 H   0  0  0  0  0  0  0  0  0  0  0  0
   13.0236   14.5000   21.9644 H   0  0  0  0  0  0  0  0  0  0  0  0
   13.1730   16.2390   21.6460 H   0  0  0  0  0  0  0  0  0  0  0  0
   11.9573   11.2371   24.2107 H   0  0  0  0  0  0  0  0  0  0  0  0
   11.6536   10.2934   22.7536 H   0  0  0  0  0  0  0  0  0  0  0  0
   12.5082   11.8404   22.6368 H   0  0  0  0  0  0  0  0  0  0  0  0
   10.1555   12.1104   21.9005 H   0  0  0  0  0  0  0  0  0  0  0  0
   10.4824   16.5085   20.0290 H   0  0  0  0  0  0  0  0  0  0  0  0
  1  2  1  0  0  0  0
  1  3  2  0  0  0  0
  1 13  1  0  0  0  0
  2  9  1  0  0  0  0
  2 14  2  0  0  0  0
  3 10  1  0  0  0  0
  3 18  1  0  0  0  0
  4 13  1  0  0  0  0
  4 16  1  0  0  0  0
  4 17  2  0  0  0  0
  5  6  1  0  0  0  0
  5 15  1  0  0  0  0
  6 16  1  0  0  0  0
  7  8  1  0  0  0  0
  7 15  1  0  0  0  0
  8 11  1  0  0  0  0
  8 16  1  0  0  0  0
 12 13  1  0  0  0  0
 14 18  1  0  0  0  0
  5 19  1  0  0  0  0
  5 20  1  0  0  0  0
  6 21  1  0  0  0  0
  6 22  1  0  0  0  0
  7 23  1  0  0  0  0
  7 24  1  0  0  0  0
  8 25  1  0  0  0  0
  9 26  1  0  0  0  0
  9 27  1  0  0  0  0
  9 28  1  0  0  0  0
 10 29  1  0  0  0  0
 10 30  1  0  0  0  0
 10 31  1  0  0  0  0
 11 32  1  0  0  0  0
 11 33  1  0  0  0  0
 11 34  1  0  0  0  0
 12 35  1  0  0  0  0
 12 36  1  0  0  0  0
 12 37  1  0  0  0  0
 13 38  1  0  0  0  0
 15 39  1  0  0  0  0
M  END
> <Catalog ID>
Z1456516329

> <PlateID>
1337959-R-08

> <Well>
D08

> <MW (desalted)>
251.325

> <CLogP>
0.476

> <HBD>
1

> <TPSA>
58.370

> <RotBonds>
2

> <ROCS_ShapeQuery>
A71EV2A-x0451_0A_A71EV2A-x0310_0A_A71EV2A-x0416_0A_peptide

> <ROCS_TanimotoCombo>
0.479 

> <ROCS_ShapeTanimoto>
0.300 

> <ROCS_ColorTanimoto>
0.179 

> <ROCS_RefTversky>
0.268 

> <ROCS_RefColorTversky>
0.193 

> <ROCS_RefTverskyCombo>
0.460 

> <ROCS_FitTversky>
1.664 

> <ROCS_FitColorTversky>
0.714 

> <ROCS_FitTverskyCombo>
2.377 

> <ROCS_ColorScore>
-5.877

> <ROCS_Overlap>
1855.671

> <ROCS_Rank>
14                  

$$$$
untitled-dbase-861_345
  -OEChem-11112309163D

 28 29  0     0  0  0  0  0  0999 V2000
    7.3079   11.8671   24.9067 C   0  0  0  0  0  0  0  0  0  0  0  0
    8.3757   12.4199   24.1997 C   0  0  0  0  0  0  0  0  0  0  0  0
    7.1567   10.4819   24.9711 C   0  0  0  0  0  0  0  0  0  0  0  0
    9.2922   11.5876   23.5571 C   0  0  0  0  0  0  0  0  0  0  0  0
    9.1409   10.2024   23.6214 C   0  0  0  0  0  0  0  0  0  0  0  0
    8.0731    9.6496   24.3284 C   0  0  0  0  0  0  0  0  0  0  0  0
   11.8082   16.0332   22.0345 C   0  0  0  0  0  0  0  0  0  0  0  0
   11.0280   13.3541   23.0982 C   0  0  0  0  0  0  0  0  0  0  0  0
   11.5590   17.1857   21.0948 C   0  0  0  0  0  0  0  0  0  0  0  0
   11.7426   14.8251   19.9300 C   0  0  0  0  0  0  0  0  0  0  0  0
   12.1345   13.5836   22.0869 C   0  0  0  0  0  0  0  0  0  0  0  0
   11.8959   14.8196   21.3653 N   0  0  0  0  0  0  0  0  0  0  0  0
   10.3743   12.1520   22.8406 N   0  0  0  0  0  0  0  0  0  0  0  0
   11.9144   16.2002   23.2467 O   0  0  0  0  0  0  0  0  0  0  0  0
   10.7947   14.1485   24.0037 O   0  0  0  0  0  0  0  0  0  0  0  0
   10.0248    9.4053   23.0019 F   0  0  0  0  0  0  0  0  0  0  0  0
   11.4660   16.5246   19.4233 S   0  0  0  0  0  0  0  0  0  0  0  0
    7.8805    7.9411   24.4119 Cl  0  0  0  0  0  0  0  0  0  0  0  0
    6.5944   12.5151   25.4072 H   0  0  0  0  0  0  0  0  0  0  0  0
    8.4834   13.5008   24.1565 H   0  0  0  0  0  0  0  0  0  0  0  0
    6.3195   10.0657   25.5258 H   0  0  0  0  0  0  0  0  0  0  0  0
   10.6168   17.6733   21.3579 H   0  0  0  0  0  0  0  0  0  0  0  0
   12.3819   17.9012   21.1697 H   0  0  0  0  0  0  0  0  0  0  0  0
   12.6524   14.4305   19.4688 H   0  0  0  0  0  0  0  0  0  0  0  0
   10.8881   14.1997   19.6564 H   0  0  0  0  0  0  0  0  0  0  0  0
   12.1688   12.7484   21.3803 H   0  0  0  0  0  0  0  0  0  0  0  0
   13.0922   13.6399   22.6138 H   0  0  0  0  0  0  0  0  0  0  0  0
   10.7028   11.6049   22.0477 H   0  0  0  0  0  0  0  0  0  0  0  0
  1  2  1  0  0  0  0
  1  3  2  0  0  0  0
  2  4  2  0  0  0  0
  3  6  1  0  0  0  0
  4  5  1  0  0  0  0
  4 13  1  0  0  0  0
  5  6  2  0  0  0  0
  5 16  1  0  0  0  0
  6 18  1  0  0  0  0
  7  9  1  0  0  0  0
  7 12  1  0  0  0  0
  7 14  2  0  0  0  0
  8 11  1  0  0  0  0
  8 13  1  0  0  0  0
  8 15  2  0  0  0  0
  9 17  1  0  0  0  0
 10 12  1  0  0  0  0
 10 17  1  0  0  0  0
 11 12  1  0  0  0  0
  1 19  1  0  0  0  0
  2 20  1  0  0  0  0
  3 21  1  0  0  0  0
  9 22  1  0  0  0  0
  9 23  1  0  0  0  0
 10 24  1  0  0  0  0
 10 25  1  0  0  0  0
 11 26  1  0  0  0  0
 11 27  1  0  0  0  0
 13 28  1  0  0  0  0
M  END
> <Catalog ID>
Z27196692

> <PlateID>
1337959-R-11

> <Well>
G05

> <MW (desalted)>
288.726

> <CLogP>
1.933

> <HBD>
1

> <TPSA>
49.410

> <RotBonds>
3

> <ROCS_ShapeQuery>
A71EV2A-x0451_0A_A71EV2A-x0310_0A_A71EV2A-x0416_0A_peptide

> <ROCS_TanimotoCombo>
0.477 

> <ROCS_ShapeTanimoto>
0.317 

> <ROCS_ColorTanimoto>
0.161 

> <ROCS_RefTversky>
0.279 

> <ROCS_RefColorTversky>
0.167 

> <ROCS_RefTverskyCombo>
0.446 

> <ROCS_FitTversky>
1.750 

> <ROCS_FitColorTversky>
0.802 

> <ROCS_FitTverskyCombo>
2.552 

> <ROCS_ColorScore>
-5.081

> <ROCS_Overlap>
1933.311

> <ROCS_Rank>
15                  

$$$$
untitled-dbase-997_349
  -OEChem-11112309163D

 31 32  0     0  0  0  0  0  0999 V2000
    7.3075   11.8674   24.9058 C   0  0  0  0  0  0  0  0  0  0  0  0
    8.3756   12.4203   24.1994 C   0  0  0  0  0  0  0  0  0  0  0  0
    8.0739    9.6499   24.3292 C   0  0  0  0  0  0  0  0  0  0  0  0
    7.1567   10.4822   24.9707 C   0  0  0  0  0  0  0  0  0  0  0  0
    9.2929   11.5880   23.5579 C   0  0  0  0  0  0  0  0  0  0  0  0
    9.1421   10.2028   23.6227 C   0  0  0  0  0  0  0  0  0  0  0  0
   11.8096   16.0321   22.0320 C   0  0  0  0  0  0  0  0  0  0  0  0
   11.0289   13.3541   23.0981 C   0  0  0  0  0  0  0  0  0  0  0  0
   11.5610   17.1836   21.0910 C   0  0  0  0  0  0  0  0  0  0  0  0
   11.7452   14.8218   19.9287 C   0  0  0  0  0  0  0  0  0  0  0  0
    6.0141    9.8908   25.7250 C   0  0  0  0  0  0  0  0  0  0  0  0
   12.1360   13.5826   22.0871 C   0  0  0  0  0  0  0  0  0  0  0  0
   11.8978   14.8178   21.3641 N   0  0  0  0  0  0  0  0  0  0  0  0
   10.3754   12.1518   22.8414 N   0  0  0  0  0  0  0  0  0  0  0  0
   11.9152   16.2003   23.2440 O   0  0  0  0  0  0  0  0  0  0  0  0
   10.7952   14.1494   24.0026 O   0  0  0  0  0  0  0  0  0  0  0  0
   10.0168    9.3934   23.0087 F   0  0  0  0  0  0  0  0  0  0  0  0
   11.4689   16.5207   19.4201 S   0  0  0  0  0  0  0  0  0  0  0  0
    6.5982   12.5237   25.4030 H   0  0  0  0  0  0  0  0  0  0  0  0
    8.4834   13.5011   24.1553 H   0  0  0  0  0  0  0  0  0  0  0  0
    7.9641    8.5697   24.3731 H   0  0  0  0  0  0  0  0  0  0  0  0
   10.6186   17.6714   21.3530 H   0  0  0  0  0  0  0  0  0  0  0  0
   12.3838   17.8992   21.1655 H   0  0  0  0  0  0  0  0  0  0  0  0
   12.6552   14.4267   19.4684 H   0  0  0  0  0  0  0  0  0  0  0  0
   10.8908   14.1960   19.6553 H   0  0  0  0  0  0  0  0  0  0  0  0
    5.1470    9.7619   25.0657 H   0  0  0  0  0  0  0  0  0  0  0  0
    6.2788    8.9126   26.1469 H   0  0  0  0  0  0  0  0  0  0  0  0
    5.7189   10.5304   26.5671 H   0  0  0  0  0  0  0  0  0  0  0  0
   12.1706   12.7466   21.3814 H   0  0  0  0  0  0  0  0  0  0  0  0
   13.0934   13.6394   22.6145 H   0  0  0  0  0  0  0  0  0  0  0  0
   10.7043   11.6038   22.0492 H   0  0  0  0  0  0  0  0  0  0  0  0
  1  2  1  0  0  0  0
  1  4  2  0  0  0  0
  2  5  2  0  0  0  0
  3  4  1  0  0  0  0
  3  6  2  0  0  0  0
  4 11  1  0  0  0  0
  5  6  1  0  0  0  0
  5 14  1  0  0  0  0
  6 17  1  0  0  0  0
  7  9  1  0  0  0  0
  7 13  1  0  0  0  0
  7 15  2  0  0  0  0
  8 12  1  0  0  0  0
  8 14  1  0  0  0  0
  8 16  2  0  0  0  0
  9 18  1  0  0  0  0
 10 13  1  0  0  0  0
 10 18  1  0  0  0  0
 12 13  1  0  0  0  0
  1 19  1  0  0  0  0
  2 20  1  0  0  0  0
  3 21  1  0  0  0  0
  9 22  1  0  0  0  0
  9 23  1  0  0  0  0
 10 24  1  0  0  0  0
 10 25  1  0  0  0  0
 11 26  1  0  0  0  0
 11 27  1  0  0  0  0
 11 28  1  0  0  0  0
 12 29  1  0  0  0  0
 12 30  1  0  0  0  0
 14 31  1  0  0  0  0
M  END
> <Catalog ID>
Z26509549

> <PlateID>
1337959-R-13

> <Well>
E02

> <MW (desalted)>
268.307

> <CLogP>
1.629

> <HBD>
1

> <TPSA>
49.410

> <RotBonds>
3

> <ROCS_ShapeQuery>
A71EV2A-x0451_0A_A71EV2A-x0310_0A_A71EV2A-x0416_0A_peptide

> <ROCS_TanimotoCombo>
0.476 

> <ROCS_ShapeTanimoto>
0.315 

> <ROCS_ColorTanimoto>
0.161 

> <ROCS_RefTversky>
0.278 

> <ROCS_RefColorTversky>
0.167 

> <ROCS_RefTverskyCombo>
0.445 

> <ROCS_FitTversky>
1.736 

> <ROCS_FitColorTversky>
0.802 

> <ROCS_FitTverskyCombo>
2.538 

> <ROCS_ColorScore>
-5.081

> <ROCS_Overlap>
1927.253

> <ROCS_Rank>
16                  

$$$$
untitled-dbase-580_2
  -OEChem-11112309163D

 33 35  0     0  0  0  0  0  0999 V2000
   10.4863   13.2247   23.2511 C   0  0  0  0  0  0  0  0  0  0  0  0
    7.5517   10.2198   25.3625 C   0  0  0  0  0  0  0  0  0  0  0  0
    9.8696   11.1701   25.4633 C   0  0  0  0  0  0  0  0  0  0  0  0
    7.9320   12.6493   24.8742 C   0  0  0  0  0  0  0  0  0  0  0  0
    9.2404    9.6027   23.6151 C   0  0  0  0  0  0  0  0  0  0  0  0
    7.2964   11.0868   23.0240 C   0  0  0  0  0  0  0  0  0  0  0  0
    9.6123   12.0137   23.0904 C   0  0  0  0  0  0  0  0  0  0  0  0
    8.3838   11.4586   25.7363 C   0  0  0  0  0  0  0  0  0  0  0  0
    7.7481    9.8842   23.8741 C   0  0  0  0  0  0  0  0  0  0  0  0
   10.0835   10.8438   23.9714 C   0  0  0  0  0  0  0  0  0  0  0  0
    8.1348   12.3315   23.3788 C   0  0  0  0  0  0  0  0  0  0  0  0
   12.0174   14.7508   22.0225 C   0  0  0  0  0  0  0  0  0  0  0  0
   11.1308   13.6113   22.0916 N   0  0  0  0  0  0  0  0  0  0  0  0
   10.5687   13.7693   24.3458 O   0  0  0  0  0  0  0  0  0  0  0  0
    7.8510    9.3658   25.9824 H   0  0  0  0  0  0  0  0  0  0  0  0
    6.4904   10.4058   25.5677 H   0  0  0  0  0  0  0  0  0  0  0  0
   10.4785   12.0337   25.7566 H   0  0  0  0  0  0  0  0  0  0  0  0
   10.2047   10.3270   26.0799 H   0  0  0  0  0  0  0  0  0  0  0  0
    6.8746   12.8690   25.0673 H   0  0  0  0  0  0  0  0  0  0  0  0
    8.4946   13.5480   25.1533 H   0  0  0  0  0  0  0  0  0  0  0  0
    9.5681    8.7436   24.2133 H   0  0  0  0  0  0  0  0  0  0  0  0
    9.3933    9.3344   22.5627 H   0  0  0  0  0  0  0  0  0  0  0  0
    7.4051   10.8528   21.9578 H   0  0  0  0  0  0  0  0  0  0  0  0
    6.2325   11.2898   23.1977 H   0  0  0  0  0  0  0  0  0  0  0  0
    9.7170   11.7301   22.0342 H   0  0  0  0  0  0  0  0  0  0  0  0
    8.2405   11.6933   26.7970 H   0  0  0  0  0  0  0  0  0  0  0  0
    7.1539    9.0016   23.6122 H   0  0  0  0  0  0  0  0  0  0  0  0
   11.1447   10.6324   23.7947 H   0  0  0  0  0  0  0  0  0  0  0  0
    7.8005   13.1853   22.7778 H   0  0  0  0  0  0  0  0  0  0  0  0
   11.4399   15.6500   21.7621 H   0  0  0  0  0  0  0  0  0  0  0  0
   12.5031   14.8970   22.9986 H   0  0  0  0  0  0  0  0  0  0  0  0
   12.7843   14.5724   21.2544 H   0  0  0  0  0  0  0  0  0  0  0  0
   10.9741   13.0688   21.2475 H   0  0  0  0  0  0  0  0  0  0  0  0
  1  7  1  0  0  0  0
  1 13  1  0  0  0  0
  1 14  2  0  0  0  0
  2  8  1  0  0  0  0
  2  9  1  0  0  0  0
  3  8  1  0  0  0  0
  3 10  1  0  0  0  0
  4  8  1  0  0  0  0
  4 11  1  0  0  0  0
  5  9  1  0  0  0  0
  5 10  1  0  0  0  0
  6  9  1  0  0  0  0
  6 11  1  0  0  0  0
  7 10  1  0  0  0  0
  7 11  1  0  0  0  0
 12 13  1  0  0  0  0
  2 15  1  0  0  0  0
  2 16  1  0  0  0  0
  3 17  1  0  0  0  0
  3 18  1  0  0  0  0
  4 19  1  0  0  0  0
  4 20  1  0  0  0  0
  5 21  1  0  0  0  0
  5 22  1  0  0  0  0
  6 23  1  0  0  0  0
  6 24  1  0  0  0  0
  7 25  1  0  0  0  0
  8 26  1  0  0  0  0
  9 27  1  0  0  0  0
 10 28  1  0  0  0  0
 11 29  1  0  0  0  0
 12 30  1  0  0  0  0
 12 31  1  0  0  0  0
 12 32  1  0  0  0  0
 13 33  1  0  0  0  0
M  END
> <Catalog ID>
Z135505014

> <PlateID>
1337959-R-08

> <Well>
C02

> <MW (desalted)>
193.285

> <CLogP>
2.621

> <HBD>
1

> <TPSA>
29.100

> <RotBonds>
1

> <ROCS_ShapeQuery>
A71EV2A-x0451_0A_A71EV2A-x0310_0A_A71EV2A-x0416_0A_peptide

> <ROCS_TanimotoCombo>
0.475 

> <ROCS_ShapeTanimoto>
0.266 

> <ROCS_ColorTanimoto>
0.209 

> <ROCS_RefTversky>
0.239 

> <ROCS_RefColorTversky>
0.227 

> <ROCS_RefTverskyCombo>
0.467 

> <ROCS_FitTversky>
1.729 

> <ROCS_FitColorTversky>
0.721 

> <ROCS_FitTverskyCombo>
2.450 

> <ROCS_ColorScore>
-6.949

> <ROCS_Overlap>
1656.027

> <ROCS_Rank>
17                  

$$$$
untitled-dbase-781_398
  -OEChem-11112309163D

 36 37  0     1  0  0  0  0  0999 V2000
    7.0760   11.8770   24.8858 C   0  0  0  0  0  0  0  0  0  0  0  0
    6.9234   10.4942   24.9870 C   0  0  0  0  0  0  0  0  0  0  0  0
    8.1646   12.4098   24.1952 C   0  0  0  0  0  0  0  0  0  0  0  0
    7.8593    9.6442   24.3978 C   0  0  0  0  0  0  0  0  0  0  0  0
    9.1005   11.5598   23.6060 C   0  0  0  0  0  0  0  0  0  0  0  0
    8.9479   10.1771   23.7073 C   0  0  0  0  0  0  0  0  0  0  0  0
   10.8300   13.3235   23.1583 C   0  0  0  0  0  0  0  0  0  0  0  0
   11.9225   14.8175   19.9235 C   0  0  0  0  0  0  0  0  0  0  0  0
   12.1966   15.9146   20.9438 C   0  0  0  0  0  0  0  0  0  0  0  0
   11.0096   13.8640   20.6760 C   0  0  0  0  0  0  0  0  0  0  0  0
   12.2592   15.1661   22.2768 C   0  0  2  0  0  0  0  0  0  0  0  0
   10.9590    8.9298   23.9430 C   0  0  0  0  0  0  0  0  0  0  0  0
   13.6826   14.7511   22.6405 C   0  0  0  0  0  0  0  0  0  0  0  0
   11.4097   13.9871   22.0791 N   0  0  0  0  0  0  0  0  0  0  0  0
   10.2010   12.1161   22.9087 N   0  0  0  0  0  0  0  0  0  0  0  0
   10.7981   13.8113   24.2942 O   0  0  0  0  0  0  0  0  0  0  0  0
   13.6494   14.0787   23.8852 O   0  0  0  0  0  0  0  0  0  0  0  0
    9.8511    9.3289   23.1391 O   0  0  0  0  0  0  0  0  0  0  0  0
    6.3468   12.5385   25.3442 H   0  0  0  0  0  0  0  0  0  0  0  0
    6.0754   10.0794   25.5240 H   0  0  0  0  0  0  0  0  0  0  0  0
    8.2727   13.4891   24.1231 H   0  0  0  0  0  0  0  0  0  0  0  0
    7.7341    8.5679   24.4804 H   0  0  0  0  0  0  0  0  0  0  0  0
   11.4610   15.2052   19.0120 H   0  0  0  0  0  0  0  0  0  0  0  0
   12.8555   14.3130   19.6506 H   0  0  0  0  0  0  0  0  0  0  0  0
   13.1091   16.4742   20.7138 H   0  0  0  0  0  0  0  0  0  0  0  0
   11.3578   16.6223   20.9560 H   0  0  0  0  0  0  0  0  0  0  0  0
    9.9613   14.1672   20.5980 H   0  0  0  0  0  0  0  0  0  0  0  0
   11.1140   12.8315   20.3351 H   0  0  0  0  0  0  0  0  0  0  0  0
   11.8492   15.7750   23.0923 H   0  0  0  0  0  0  0  0  0  0  0  0
   11.6009    8.2552   23.3712 H   0  0  0  0  0  0  0  0  0  0  0  0
   10.5951    8.4279   24.8432 H   0  0  0  0  0  0  0  0  0  0  0  0
   11.5292    9.8171   24.2282 H   0  0  0  0  0  0  0  0  0  0  0  0
   14.3154   15.6338   22.7228 H   0  0  0  0  0  0  0  0  0  0  0  0
   14.0791   14.0818   21.8780 H   0  0  0  0  0  0  0  0  0  0  0  0
   10.5786   11.5367   22.1081 H   0  0  0  0  0  0  0  0  0  0  0  0
   13.2890   14.7029   24.5383 H   0  0  0  0  0  0  0  0  0  0  0  0
  1  2  2  0  0  0  0
  1  3  1  0  0  0  0
  2  4  1  0  0  0  0
  3  5  2  0  0  0  0
  4  6  2  0  0  0  0
  5  6  1  0  0  0  0
  5 15  1  0  0  0  0
  6 18  1  0  0  0  0
  7 14  1  0  0  0  0
  7 15  1  0  0  0  0
  7 16  2  0  0  0  0
  8  9  1  0  0  0  0
  8 10  1  0  0  0  0
  9 11  1  0  0  0  0
 10 14  1  0  0  0  0
 11 13  1  6  0  0  0
 11 14  1  0  0  0  0
 12 18  1  0  0  0  0
 13 17  1  0  0  0  0
  1 19  1  0  0  0  0
  2 20  1  0  0  0  0
  3 21  1  0  0  0  0
  4 22  1  0  0  0  0
  8 23  1  0  0  0  0
  8 24  1  0  0  0  0
  9 25  1  0  0  0  0
  9 26  1  0  0  0  0
 10 27  1  0  0  0  0
 10 28  1  0  0  0  0
 11 29  1  0  0  0  0
 12 30  1  0  0  0  0
 12 31  1  0  0  0  0
 12 32  1  0  0  0  0
 13 33  1  0  0  0  0
 13 34  1  0  0  0  0
 15 35  1  0  0  0  0
 17 36  1  0  0  0  0
M  END
> <Catalog ID>
Z926912024

> <PlateID>
1337959-R-10

> <Well>
G04

> <MW (desalted)>
250.294

> <CLogP>
0.940

> <HBD>
2

> <TPSA>
61.800

> <RotBonds>
3

> <ROCS_ShapeQuery>
A71EV2A-x0451_0A_A71EV2A-x0310_0A_A71EV2A-x0416_0A_peptide

> <ROCS_TanimotoCombo>
0.473 

> <ROCS_ShapeTanimoto>
0.325 

> <ROCS_ColorTanimoto>
0.148 

> <ROCS_RefTversky>
0.285 

> <ROCS_RefColorTversky>
0.164 

> <ROCS_RefTverskyCombo>
0.448 

> <ROCS_FitTversky>
1.764 

> <ROCS_FitColorTversky>
0.605 

> <ROCS_FitTverskyCombo>
2.369 

> <ROCS_ColorScore>
-4.986

> <ROCS_Overlap>
1974.890

> <ROCS_Rank>
18                  

$$$$
untitled-dbase-947_541
  -OEChem-11112309163D

 35 37  0     0  0  0  0  0  0999 V2000
    5.9285   10.9613   25.7638 C   0  0  0  0  0  0  0  0  0  0  0  0
    6.1483    9.6277   25.4113 C   0  0  0  0  0  0  0  0  0  0  0  0
    6.8167   11.9684   25.3658 C   0  0  0  0  0  0  0  0  0  0  0  0
    7.2602    9.2518   24.6504 C   0  0  0  0  0  0  0  0  0  0  0  0
    7.9392   11.6087   24.6010 C   0  0  0  0  0  0  0  0  0  0  0  0
    8.1312   10.2715   24.2653 C   0  0  0  0  0  0  0  0  0  0  0  0
    9.7413   11.5555   23.4568 C   0  0  0  0  0  0  0  0  0  0  0  0
   10.8352   14.3868   22.9456 C   0  0  0  0  0  0  0  0  0  0  0  0
   11.9055   15.5639   20.2909 C   0  0  0  0  0  0  0  0  0  0  0  0
   12.1693   16.2540   21.6416 C   0  0  0  0  0  0  0  0  0  0  0  0
   10.4061   15.5937   20.6388 C   0  0  0  0  0  0  0  0  0  0  0  0
   10.8113   15.6890   22.1325 C   0  0  0  0  0  0  0  0  0  0  0  0
    9.9203    9.1042   22.9490 C   0  0  0  0  0  0  0  0  0  0  0  0
   10.9809   11.9133   22.7371 C   0  0  0  0  0  0  0  0  0  0  0  0
    8.9491   12.3913   24.0900 N   0  0  0  0  0  0  0  0  0  0  0  0
    9.2911   10.2669   23.5337 N   0  0  0  0  0  0  0  0  0  0  0  0
   10.9395   13.2452   22.1748 N   0  0  0  0  0  0  0  0  0  0  0  0
   10.7653   14.4363   24.1680 O   0  0  0  0  0  0  0  0  0  0  0  0
    5.0545   11.2226   26.3548 H   0  0  0  0  0  0  0  0  0  0  0  0
    5.4423    8.8665   25.7346 H   0  0  0  0  0  0  0  0  0  0  0  0
    6.6363   13.0016   25.6443 H   0  0  0  0  0  0  0  0  0  0  0  0
    7.4296    8.2165   24.3765 H   0  0  0  0  0  0  0  0  0  0  0  0
   12.1692   16.1797   19.4218 H   0  0  0  0  0  0  0  0  0  0  0  0
   12.3472   14.5704   20.1688 H   0  0  0  0  0  0  0  0  0  0  0  0
   13.0350   15.8495   22.1794 H   0  0  0  0  0  0  0  0  0  0  0  0
   12.2556   17.3432   21.5995 H   0  0  0  0  0  0  0  0  0  0  0  0
    9.8498   16.4423   20.2313 H   0  0  0  0  0  0  0  0  0  0  0  0
    9.8778   14.6672   20.3839 H   0  0  0  0  0  0  0  0  0  0  0  0
   10.2239   16.4628   22.6555 H   0  0  0  0  0  0  0  0  0  0  0  0
    9.5179    8.9740   21.9410 H   0  0  0  0  0  0  0  0  0  0  0  0
   11.0027    9.2559   22.9119 H   0  0  0  0  0  0  0  0  0  0  0  0
    9.7025    8.2273   23.5651 H   0  0  0  0  0  0  0  0  0  0  0  0
   11.8648   11.8727   23.3975 H   0  0  0  0  0  0  0  0  0  0  0  0
   11.1920   11.2232   21.9017 H   0  0  0  0  0  0  0  0  0  0  0  0
   10.9895   13.3459   21.1659 H   0  0  0  0  0  0  0  0  0  0  0  0
  1  2  2  0  0  0  0
  1  3  1  0  0  0  0
  2  4  1  0  0  0  0
  3  5  2  0  0  0  0
  4  6  2  0  0  0  0
  5  6  1  0  0  0  0
  5 15  1  0  0  0  0
  6 16  1  0  0  0  0
  7 14  1  0  0  0  0
  7 15  2  0  0  0  0
  7 16  1  0  0  0  0
  8 12  1  0  0  0  0
  8 17  1  0  0  0  0
  8 18  2  0  0  0  0
  9 10  1  0  0  0  0
  9 11  1  0  0  0  0
 10 12  1  0  0  0  0
 11 12  1  0  0  0  0
 13 16  1  0  0  0  0
 14 17  1  0  0  0  0
  1 19  1  0  0  0  0
  2 20  1  0  0  0  0
  3 21  1  0  0  0  0
  4 22  1  0  0  0  0
  9 23  1  0  0  0  0
  9 24  1  0  0  0  0
 10 25  1  0  0  0  0
 10 26  1  0  0  0  0
 11 27  1  0  0  0  0
 11 28  1  0  0  0  0
 12 29  1  0  0  0  0
 13 30  1  0  0  0  0
 13 31  1  0  0  0  0
 13 32  1  0  0  0  0
 14 33  1  0  0  0  0
 14 34  1  0  0  0  0
 17 35  1  0  0  0  0
M  END
> <Catalog ID>
Z102329546

> <PlateID>
1337959-R-12

> <Well>
G11

> <MW (desalted)>
243.304

> <CLogP>
1.302

> <HBD>
1

> <TPSA>
46.920

> <RotBonds>
3

> <ROCS_ShapeQuery>
A71EV2A-x0451_0A_A71EV2A-x0310_0A_A71EV2A-x0416_0A_peptide

> <ROCS_TanimotoCombo>
0.472 

> <ROCS_ShapeTanimoto>
0.336 

> <ROCS_ColorTanimoto>
0.137 

> <ROCS_RefTversky>
0.293 

> <ROCS_RefColorTversky>
0.153 

> <ROCS_RefTverskyCombo>
0.445 

> <ROCS_FitTversky>
1.782 

> <ROCS_FitColorTversky>
0.564 

> <ROCS_FitTverskyCombo>
2.347 

> <ROCS_ColorScore>
-4.657

> <ROCS_Overlap>
2029.770

> <ROCS_Rank>
19                  

$$$$
untitled-dbase-737_273
  -OEChem-11112309163D

 38 40  0     1  0  0  0  0  0999 V2000
   13.2779   16.3378   20.6437 C   0  0  0  0  0  0  0  0  0  0  0  0
   13.8508   16.3782   19.3917 C   0  0  0  0  0  0  0  0  0  0  0  0
   12.1493   14.6114   19.5724 C   0  0  0  0  0  0  0  0  0  0  0  0
   12.2923   15.3142   20.7486 C   0  0  0  0  0  0  0  0  0  0  0  0
   10.4194   13.3013   23.4883 C   0  0  0  0  0  0  0  0  0  0  0  0
    8.6588   12.1942   25.8405 C   0  0  0  0  0  0  0  0  0  0  0  0
    9.7758   11.0027   22.6777 C   0  0  0  0  0  0  0  0  0  0  0  0
    7.3884   12.7446   26.4619 C   0  0  0  0  0  0  0  0  0  0  0  0
    9.5267    9.7469   23.5018 C   0  0  0  0  0  0  0  0  0  0  0  0
    7.4205   13.3929   24.2138 C   0  0  0  0  0  0  0  0  0  0  0  0
    7.4940   10.9038   24.0086 C   0  0  0  0  0  0  0  0  0  0  0  0
    8.3309   12.1671   24.3482 C   0  0  2  0  0  0  0  0  0  0  0  0
   11.4985   15.0352   22.0017 C   0  0  0  0  0  0  0  0  0  0  0  0
   11.1805   13.5586   22.2098 C   0  0  0  0  0  0  0  0  0  0  0  0
    9.5442   12.2049   23.4896 N   0  0  0  0  0  0  0  0  0  0  0  0
   10.6045   14.0579   24.4447 O   0  0  0  0  0  0  0  0  0  0  0  0
    6.7227   13.5290   25.4637 O   0  0  0  0  0  0  0  0  0  0  0  0
    8.2517    9.7048   24.1359 O   0  0  0  0  0  0  0  0  0  0  0  0
   13.2008   15.1856   18.3489 S   0  0  0  0  0  0  0  0  0  0  0  0
   13.5554   17.0128   21.4435 H   0  0  0  0  0  0  0  0  0  0  0  0
   14.6195   17.0514   19.0391 H   0  0  0  0  0  0  0  0  0  0  0  0
   11.4782   13.7885   19.3685 H   0  0  0  0  0  0  0  0  0  0  0  0
    9.5408   12.7757   26.1119 H   0  0  0  0  0  0  0  0  0  0  0  0
    8.8185   11.1772   26.2143 H   0  0  0  0  0  0  0  0  0  0  0  0
   10.8149   11.0370   22.3616 H   0  0  0  0  0  0  0  0  0  0  0  0
    9.1455   10.9645   21.8005 H   0  0  0  0  0  0  0  0  0  0  0  0
    6.7188   11.9495   26.8072 H   0  0  0  0  0  0  0  0  0  0  0  0
    7.6103   13.3941   27.3163 H   0  0  0  0  0  0  0  0  0  0  0  0
    9.6611    8.8313   22.8822 H   0  0  0  0  0  0  0  0  0  0  0  0
   10.2939    9.6717   24.3010 H   0  0  0  0  0  0  0  0  0  0  0  0
    7.9427   14.3146   23.9602 H   0  0  0  0  0  0  0  0  0  0  0  0
    6.6528   13.2399   23.4513 H   0  0  0  0  0  0  0  0  0  0  0  0
    6.6378   10.8152   24.6892 H   0  0  0  0  0  0  0  0  0  0  0  0
    7.0783   10.9716   22.9932 H   0  0  0  0  0  0  0  0  0  0  0  0
   10.5767   15.6314   22.0031 H   0  0  0  0  0  0  0  0  0  0  0  0
   12.0804   15.3897   22.8626 H   0  0  0  0  0  0  0  0  0  0  0  0
   10.5949   13.1586   21.3818 H   0  0  0  0  0  0  0  0  0  0  0  0
   12.1077   12.9877   22.2691 H   0  0  0  0  0  0  0  0  0  0  0  0
  1  2  2  0  0  0  0
  1  4  1  0  0  0  0
  2 19  1  0  0  0  0
  3  4  2  0  0  0  0
  3 19  1  0  0  0  0
  4 13  1  0  0  0  0
  5 14  1  0  0  0  0
  5 15  1  0  0  0  0
  5 16  2  0  0  0  0
  6  8  1  0  0  0  0
  6 12  1  0  0  0  0
  7  9  1  0  0  0  0
  7 15  1  0  0  0  0
  8 17  1  0  0  0  0
  9 18  1  0  0  0  0
 10 12  1  0  0  0  0
 10 17  1  0  0  0  0
 11 12  1  0  0  0  0
 11 18  1  0  0  0  0
 12 15  1  0  0  0  0
 13 14  1  0  0  0  0
  1 20  1  0  0  0  0
  2 21  1  0  0  0  0
  3 22  1  0  0  0  0
  6 23  1  0  0  0  0
  6 24  1  0  0  0  0
  7 25  1  0  0  0  0
  7 26  1  0  0  0  0
  8 27  1  0  0  0  0
  8 28  1  0  0  0  0
  9 29  1  0  0  0  0
  9 30  1  0  0  0  0
 10 31  1  0  0  0  0
 10 32  1  0  0  0  0
 11 33  1  0  0  0  0
 11 34  1  0  0  0  0
 13 35  1  0  0  0  0
 13 36  1  0  0  0  0
 14 37  1  0  0  0  0
 14 38  1  0  0  0  0
M  END
> <Catalog ID>
Z1995557489

> <PlateID>
1337959-R-10

> <Well>
B10

> <MW (desalted)>
281.371

> <CLogP>
0.895

> <HBD>
0

> <TPSA>
38.770

> <RotBonds>
3

> <ROCS_ShapeQuery>
A71EV2A-x0451_0A_A71EV2A-x0310_0A_A71EV2A-x0416_0A_peptide

> <ROCS_TanimotoCombo>
0.472 

> <ROCS_ShapeTanimoto>
0.313 

> <ROCS_ColorTanimoto>
0.159 

> <ROCS_RefTversky>
0.278 

> <ROCS_RefColorTversky>
0.170 

> <ROCS_RefTverskyCombo>
0.448 

> <ROCS_FitTversky>
1.672 

> <ROCS_FitColorTversky>
0.710 

> <ROCS_FitTverskyCombo>
2.383 

> <ROCS_ColorScore>
-5.177

> <ROCS_Overlap>
1929.743

> <ROCS_Rank>
20                  

$$$$
untitled-dbase-984_303
  -OEChem-11112309163D

 35 36  0     1  0  0  0  0  0999 V2000
    7.3938   11.2501   24.4684 C   0  0  0  0  0  0  0  0  0  0  0  0
    8.4094   12.1872   24.2788 C   0  0  0  0  0  0  0  0  0  0  0  0
    7.6566    9.8915   24.2925 C   0  0  0  0  0  0  0  0  0  0  0  0
    9.9507   10.4072   23.7373 C   0  0  0  0  0  0  0  0  0  0  0  0
    9.6878   11.7657   23.9132 C   0  0  0  0  0  0  0  0  0  0  0  0
    8.9350    9.4701   23.9269 C   0  0  0  0  0  0  0  0  0  0  0  0
   11.6833   16.8356   22.5117 C   0  0  0  0  0  0  0  0  0  0  0  0
   12.0068   15.7686   21.4764 C   0  0  0  0  0  0  0  0  0  0  0  0
   10.3256   17.3916   22.1064 C   0  0  0  0  0  0  0  0  0  0  0  0
   10.6723   15.4539   20.8173 C   0  0  1  0  0  0  0  0  0  0  0  0
   11.3253    9.9619   23.3452 C   0  0  0  0  0  0  0  0  0  0  0  0
    9.8817   14.3765   21.5580 C   0  0  0  0  0  0  0  0  0  0  0  0
    9.9937   16.7516   20.8344 N   0  0  0  0  0  0  0  0  0  0  0  0
   10.7603   13.3454   22.0052 N   0  0  0  0  0  0  0  0  0  0  0  0
   10.5758   14.1604   24.4491 O   0  0  0  0  0  0  0  0  0  0  0  0
   12.2185   12.3305   23.9224 O   0  0  0  0  0  0  0  0  0  0  0  0
   10.9466   12.9854   23.6838 S   0  0  0  0  0  0  0  0  0  0  0  0
    9.2170    7.7793   23.7189 Cl  0  0  0  0  0  0  0  0  0  0  0  0
    6.3983   11.5778   24.7534 H   0  0  0  0  0  0  0  0  0  0  0  0
    8.1917   13.2427   24.4191 H   0  0  0  0  0  0  0  0  0  0  0  0
    6.8538    9.1744   24.4441 H   0  0  0  0  0  0  0  0  0  0  0  0
   11.6546   16.3963   23.5153 H   0  0  0  0  0  0  0  0  0  0  0  0
   12.4406   17.6277   22.5124 H   0  0  0  0  0  0  0  0  0  0  0  0
   12.7526   16.1171   20.7515 H   0  0  0  0  0  0  0  0  0  0  0  0
   12.4245   14.8847   21.9798 H   0  0  0  0  0  0  0  0  0  0  0  0
    9.5571   17.1976   22.8663 H   0  0  0  0  0  0  0  0  0  0  0  0
   10.3805   18.4813   21.9703 H   0  0  0  0  0  0  0  0  0  0  0  0
   10.8258   15.1349   19.7774 H   0  0  0  0  0  0  0  0  0  0  0  0
   11.9282    9.7714   24.2390 H   0  0  0  0  0  0  0  0  0  0  0  0
   11.2852    9.0461   22.7450 H   0  0  0  0  0  0  0  0  0  0  0  0
   11.8263   10.7238   22.7375 H   0  0  0  0  0  0  0  0  0  0  0  0
    9.3923   14.8527   22.4086 H   0  0  0  0  0  0  0  0  0  0  0  0
    9.1450   13.9715   20.8630 H   0  0  0  0  0  0  0  0  0  0  0  0
    8.9788   16.5973   20.8001 H   0  0  0  0  0  0  0  0  0  0  0  0
   10.9776   12.5613   21.3462 H   0  0  0  0  0  0  0  0  0  0  0  0
  1  2  1  0  0  0  0
  1  3  2  0  0  0  0
  2  5  2  0  0  0  0
  3  6  1  0  0  0  0
  4  5  1  0  0  0  0
  4  6  2  0  0  0  0
  4 11  1  0  0  0  0
  5 17  1  0  0  0  0
  6 18  1  0  0  0  0
  7  8  1  0  0  0  0
  7  9  1  0  0  0  0
  8 10  1  0  0  0  0
  9 13  1  0  0  0  0
 10 12  1  0  0  0  0
 10 13  1  0  0  0  0
 12 14  1  0  0  0  0
 14 17  1  0  0  0  0
 15 17  2  0  0  0  0
 16 17  2  0  0  0  0
  1 19  1  0  0  0  0
  2 20  1  0  0  0  0
  3 21  1  0  0  0  0
  7 22  1  0  0  0  0
  7 23  1  0  0  0  0
  8 24  1  0  0  0  0
  8 25  1  0  0  0  0
  9 26  1  0  0  0  0
  9 27  1  0  0  0  0
 10 28  1  0  0  0  0
 11 29  1  0  0  0  0
 11 30  1  0  0  0  0
 11 31  1  0  0  0  0
 12 32  1  0  0  0  0
 12 33  1  0  0  0  0
 13 34  1  0  0  0  0
 14 35  1  0  0  0  0
M  END
> <Catalog ID>
Z1491284393

> <PlateID>
1337959-R-13

> <Well>
C09

> <MW (desalted)>
288.794

> <CLogP>
2.917

> <HBD>
2

> <TPSA>
58.200

> <RotBonds>
3

> <ROCS_ShapeQuery>
A71EV2A-x0451_0A_A71EV2A-x0310_0A_A71EV2A-x0416_0A_peptide

> <ROCS_TanimotoCombo>
0.471 

> <ROCS_ShapeTanimoto>
0.284 

> <ROCS_ColorTanimoto>
0.187 

> <ROCS_RefTversky>
0.255 

> <ROCS_RefColorTversky>
0.200 

> <ROCS_RefTverskyCombo>
0.456 

> <ROCS_FitTversky>
1.639 

> <ROCS_FitColorTversky>
0.741 

> <ROCS_FitTverskyCombo>
2.380 

> <ROCS_ColorScore>
-6.108

> <ROCS_Overlap>
1770.188

> <ROCS_Rank>
21                  

$$$$
untitled-dbase-770_185
  -OEChem-11112309163D

 33 35  0     1  0  0  0  0  0999 V2000
    6.3316   11.1264   26.0069 C   0  0  0  0  0  0  0  0  0  0  0  0
    6.8586   12.4200   26.1209 C   0  0  0  0  0  0  0  0  0  0  0  0
    6.8982   10.2089   25.1225 C   0  0  0  0  0  0  0  0  0  0  0  0
    7.9573   12.8153   25.3516 C   0  0  0  0  0  0  0  0  0  0  0  0
    7.9914   10.6062   24.3647 C   0  0  0  0  0  0  0  0  0  0  0  0
    8.5143   11.8970   24.4733 C   0  0  0  0  0  0  0  0  0  0  0  0
   10.3785   13.1982   23.4524 C   0  0  0  0  0  0  0  0  0  0  0  0
    9.3973    8.5962   23.9885 C   0  0  0  0  0  0  0  0  0  0  0  0
   11.2747   15.4841   21.5682 C   0  0  0  0  0  0  0  0  0  0  0  0
   10.2761   14.4065   21.1080 C   0  0  0  0  0  0  0  0  0  0  0  0
   12.2301   14.3427   21.9612 C   0  0  0  0  0  0  0  0  0  0  0  0
    9.7924   10.7892   22.8489 C   0  0  0  0  0  0  0  0  0  0  0  0
    8.7474    9.7870   23.3631 C   0  0  2  0  0  0  0  0  0  0  0  0
   10.9917   13.4150   22.0615 C   0  0  0  0  0  0  0  0  0  0  0  0
    9.6065   12.0523   23.5957 N   0  0  0  0  0  0  0  0  0  0  0  0
   10.6187   14.0304   24.3198 O   0  0  0  0  0  0  0  0  0  0  0  0
   10.6024    8.3995   24.0381 O   0  0  0  0  0  0  0  0  0  0  0  0
    8.4649    7.7534   24.4962 O   0  0  0  0  0  0  0  0  0  0  0  0
    5.4763   10.8378   26.6116 H   0  0  0  0  0  0  0  0  0  0  0  0
    6.4060   13.1239   26.8144 H   0  0  0  0  0  0  0  0  0  0  0  0
    6.4893    9.2079   25.0340 H   0  0  0  0  0  0  0  0  0  0  0  0
    8.3347   13.8240   25.4640 H   0  0  0  0  0  0  0  0  0  0  0  0
   11.6515   16.1138   20.7524 H   0  0  0  0  0  0  0  0  0  0  0  0
   10.9382   16.1276   22.3866 H   0  0  0  0  0  0  0  0  0  0  0  0
    9.2342   14.6241   21.3772 H   0  0  0  0  0  0  0  0  0  0  0  0
   10.3178   14.1507   20.0443 H   0  0  0  0  0  0  0  0  0  0  0  0
   12.9675   14.0642   21.2013 H   0  0  0  0  0  0  0  0  0  0  0  0
   12.7515   14.5092   22.9130 H   0  0  0  0  0  0  0  0  0  0  0  0
   10.8254   10.4454   22.9734 H   0  0  0  0  0  0  0  0  0  0  0  0
    9.6353   11.0025   21.7849 H   0  0  0  0  0  0  0  0  0  0  0  0
    8.0859    9.4607   22.5543 H   0  0  0  0  0  0  0  0  0  0  0  0
   11.1629   12.4391   21.5967 H   0  0  0  0  0  0  0  0  0  0  0  0
    8.8723    6.9629   24.9103 H   0  0  0  0  0  0  0  0  0  0  0  0
  1  2  2  0  0  0  0
  1  3  1  0  0  0  0
  2  4  1  0  0  0  0
  3  5  2  0  0  0  0
  4  6  2  0  0  0  0
  5  6  1  0  0  0  0
  5 13  1  0  0  0  0
  6 15  1  0  0  0  0
  7 14  1  0  0  0  0
  7 15  1  0  0  0  0
  7 16  2  0  0  0  0
  8 13  1  0  0  0  0
  8 17  2  0  0  0  0
  8 18  1  0  0  0  0
  9 10  1  0  0  0  0
  9 11  1  0  0  0  0
 10 14  1  0  0  0  0
 11 14  1  0  0  0  0
 12 13  1  0  0  0  0
 12 15  1  0  0  0  0
  1 19  1  0  0  0  0
  2 20  1  0  0  0  0
  3 21  1  0  0  0  0
  4 22  1  0  0  0  0
  9 23  1  0  0  0  0
  9 24  1  0  0  0  0
 10 25  1  0  0  0  0
 10 26  1  0  0  0  0
 11 27  1  0  0  0  0
 11 28  1  0  0  0  0
 12 29  1  0  0  0  0
 12 30  1  0  0  0  0
 13 31  1  0  0  0  0
 14 32  1  0  0  0  0
 18 33  1  0  0  0  0
M  END
> <Catalog ID>
Z1413700704

> <PlateID>
1337959-R-10

> <Well>
F03

> <MW (desalted)>
245.274

> <CLogP>
1.568

> <HBD>
1

> <TPSA>
57.610

> <RotBonds>
2

> <ROCS_ShapeQuery>
A71EV2A-x0451_0A_A71EV2A-x0310_0A_A71EV2A-x0416_0A_peptide

> <ROCS_TanimotoCombo>
0.470 

> <ROCS_ShapeTanimoto>
0.343 

> <ROCS_ColorTanimoto>
0.128 

> <ROCS_RefTversky>
0.297 

> <ROCS_RefColorTversky>
0.144 

> <ROCS_RefTverskyCombo>
0.441 

> <ROCS_FitTversky>
1.809 

> <ROCS_FitColorTversky>
0.531 

> <ROCS_FitTverskyCombo>
2.339 

> <ROCS_ColorScore>
-4.383

> <ROCS_Overlap>
2060.901

> <ROCS_Rank>
22                  

$$$$
untitled-dbase-711_14
  -OEChem-11112309163D

 30 31  0     0  0  0  0  0  0999 V2000
   12.1178   15.3973   22.6339 C   0  0  0  0  0  0  0  0  0  0  0  0
    9.1178   10.0890   23.4091 C   0  0  0  0  0  0  0  0  0  0  0  0
    8.3182   11.8819   24.3995 C   0  0  0  0  0  0  0  0  0  0  0  0
    9.2531   11.4887   23.4733 C   0  0  0  0  0  0  0  0  0  0  0  0
   10.6788   13.5394   23.1796 C   0  0  0  0  0  0  0  0  0  0  0  0
   11.2678   13.2320   19.8820 C   0  0  0  0  0  0  0  0  0  0  0  0
   12.7257   13.0530   20.2594 C   0  0  0  0  0  0  0  0  0  0  0  0
   10.8005   14.3441   20.8138 C   0  0  0  0  0  0  0  0  0  0  0  0
   12.7080   13.1351   21.7818 C   0  0  0  0  0  0  0  0  0  0  0  0
   11.5783   14.1258   22.1270 C   0  0  0  0  0  0  0  0  0  0  0  0
    6.6434   10.6431   25.7921 C   0  0  0  0  0  0  0  0  0  0  0  0
   12.5433   16.4000   23.0337 N   0  0  0  0  0  0  0  0  0  0  0  0
    8.1715    9.6242   24.2293 N   0  0  0  0  0  0  0  0  0  0  0  0
    7.7039   10.7383   24.8177 N   0  0  0  0  0  0  0  0  0  0  0  0
   10.1392   12.3302   22.7598 N   0  0  0  0  0  0  0  0  0  0  0  0
   10.5008   14.1176   24.2468 O   0  0  0  0  0  0  0  0  0  0  0  0
    9.6674    9.3860   22.7993 H   0  0  0  0  0  0  0  0  0  0  0  0
    8.0440   12.8537   24.7879 H   0  0  0  0  0  0  0  0  0  0  0  0
   11.1382   13.4929   18.8278 H   0  0  0  0  0  0  0  0  0  0  0  0
   10.7065   12.3111   20.0798 H   0  0  0  0  0  0  0  0  0  0  0  0
   13.1365   12.1050   19.9004 H   0  0  0  0  0  0  0  0  0  0  0  0
   13.3298   13.8680   19.8434 H   0  0  0  0  0  0  0  0  0  0  0  0
   11.0470   15.3137   20.3610 H   0  0  0  0  0  0  0  0  0  0  0  0
    9.7123   14.3137   20.9362 H   0  0  0  0  0  0  0  0  0  0  0  0
   12.4989   12.1362   22.1860 H   0  0  0  0  0  0  0  0  0  0  0  0
   13.6890   13.4378   22.1655 H   0  0  0  0  0  0  0  0  0  0  0  0
    5.6905   10.7225   25.2623 H   0  0  0  0  0  0  0  0  0  0  0  0
    6.7125    9.6839   26.3128 H   0  0  0  0  0  0  0  0  0  0  0  0
    6.7467   11.4535   26.5190 H   0  0  0  0  0  0  0  0  0  0  0  0
   10.4043   11.9994   21.8344 H   0  0  0  0  0  0  0  0  0  0  0  0
  1 10  1  0  0  0  0
  1 12  3  0  0  0  0
  2  4  1  0  0  0  0
  2 13  2  0  0  0  0
  3  4  2  0  0  0  0
  3 14  1  0  0  0  0
  4 15  1  0  0  0  0
  5 10  1  0  0  0  0
  5 15  1  0  0  0  0
  5 16  2  0  0  0  0
  6  7  1  0  0  0  0
  6  8  1  0  0  0  0
  7  9  1  0  0  0  0
  8 10  1  0  0  0  0
  9 10  1  0  0  0  0
 11 14  1  0  0  0  0
 13 14  1  0  0  0  0
  2 17  1  0  0  0  0
  3 18  1  0  0  0  0
  6 19  1  0  0  0  0
  6 20  1  0  0  0  0
  7 21  1  0  0  0  0
  7 22  1  0  0  0  0
  8 23  1  0  0  0  0
  8 24  1  0  0  0  0
  9 25  1  0  0  0  0
  9 26  1  0  0  0  0
 11 27  1  0  0  0  0
 11 28  1  0  0  0  0
 11 29  1  0  0  0  0
 15 30  1  0  0  0  0
M  END
> <Catalog ID>
Z396116038

> <PlateID>
1337959-R-09

> <Well>
H04

> <MW (desalted)>
218.255

> <CLogP>
0.327

> <HBD>
1

> <TPSA>
70.710

> <RotBonds>
2

> <ROCS_ShapeQuery>
A71EV2A-x0451_0A_A71EV2A-x0310_0A_A71EV2A-x0416_0A_peptide

> <ROCS_TanimotoCombo>
0.467 

> <ROCS_ShapeTanimoto>
0.275 

> <ROCS_ColorTanimoto>
0.193 

> <ROCS_RefTversky>
0.248 

> <ROCS_RefColorTversky>
0.200 

> <ROCS_RefTverskyCombo>
0.448 

> <ROCS_FitTversky>
1.649 

> <ROCS_FitColorTversky>
0.836 

> <ROCS_FitTverskyCombo>
2.484 

> <ROCS_ColorScore>
-6.087

> <ROCS_Overlap>
1719.316

> <ROCS_Rank>
23                  

$$$$
untitled-dbase-948_89
  -OEChem-11112309163D

 32 32  0     1  0  0  0  0  0999 V2000
    7.6699   10.7447   24.9204 C   0  0  0  0  0  0  0  0  0  0  0  0
    9.1068   11.4585   23.5852 C   0  0  0  0  0  0  0  0  0  0  0  0
   10.6820   13.3870   23.1607 C   0  0  0  0  0  0  0  0  0  0  0  0
   12.1954   15.8628   19.7451 C   0  0  0  0  0  0  0  0  0  0  0  0
   14.3077   16.1210   21.0699 C   0  0  0  0  0  0  0  0  0  0  0  0
   13.2395   14.9060   23.3843 C   0  0  0  0  0  0  0  0  0  0  0  0
    9.6648    9.2254   22.5463 C   0  0  0  0  0  0  0  0  0  0  0  0
   13.0624   15.2538   20.8517 C   0  0  0  0  0  0  0  0  0  0  0  0
   12.3074   15.0132   22.1796 C   0  0  1  0  0  0  0  0  0  0  0  0
    8.2906   11.8923   24.5174 N   0  0  0  0  0  0  0  0  0  0  0  0
    8.0507    9.6281   24.2961 N   0  0  0  0  0  0  0  0  0  0  0  0
    8.9702   10.1123   23.4474 N   0  0  0  0  0  0  0  0  0  0  0  0
   10.0145   12.2118   22.8046 N   0  0  0  0  0  0  0  0  0  0  0  0
   11.4908   13.8183   22.1074 N   0  0  0  0  0  0  0  0  0  0  0  0
   10.5962   13.9823   24.2321 O   0  0  0  0  0  0  0  0  0  0  0  0
    6.9163   10.7215   25.6933 H   0  0  0  0  0  0  0  0  0  0  0  0
   11.8161   16.8438   20.0520 H   0  0  0  0  0  0  0  0  0  0  0  0
   12.7681   16.0122   18.8251 H   0  0  0  0  0  0  0  0  0  0  0  0
   11.3315   15.2317   19.5132 H   0  0  0  0  0  0  0  0  0  0  0  0
   14.0309   17.1164   21.4330 H   0  0  0  0  0  0  0  0  0  0  0  0
   14.9670   15.6671   21.8176 H   0  0  0  0  0  0  0  0  0  0  0  0
   14.8841   16.2419   20.1467 H   0  0  0  0  0  0  0  0  0  0  0  0
   13.9307   14.0650   23.2587 H   0  0  0  0  0  0  0  0  0  0  0  0
   13.8511   15.8052   23.5130 H   0  0  0  0  0  0  0  0  0  0  0  0
   12.6716   14.7391   24.3050 H   0  0  0  0  0  0  0  0  0  0  0  0
   10.5666    8.8697   23.0516 H   0  0  0  0  0  0  0  0  0  0  0  0
    9.0141    8.3850   22.2890 H   0  0  0  0  0  0  0  0  0  0  0  0
    9.9256    9.7688   21.6339 H   0  0  0  0  0  0  0  0  0  0  0  0
   13.4128   14.2773   20.4904 H   0  0  0  0  0  0  0  0  0  0  0  0
   11.6401   15.8659   22.3553 H   0  0  0  0  0  0  0  0  0  0  0  0
   10.2013   11.8501   21.8727 H   0  0  0  0  0  0  0  0  0  0  0  0
   11.5074   13.2714   21.2547 H   0  0  0  0  0  0  0  0  0  0  0  0
  1 10  1  0  0  0  0
  1 11  2  0  0  0  0
  2 10  2  0  0  0  0
  2 12  1  0  0  0  0
  2 13  1  0  0  0  0
  3 13  1  0  0  0  0
  3 14  1  0  0  0  0
  3 15  2  0  0  0  0
  4  8  1  0  0  0  0
  5  8  1  0  0  0  0
  6  9  1  0  0  0  0
  7 12  1  0  0  0  0
  8  9  1  0  0  0  0
  9 14  1  0  0  0  0
 11 12  1  0  0  0  0
  1 16  1  0  0  0  0
  4 17  1  0  0  0  0
  4 18  1  0  0  0  0
  4 19  1  0  0  0  0
  5 20  1  0  0  0  0
  5 21  1  0  0  0  0
  5 22  1  0  0  0  0
  6 23  1  0  0  0  0
  6 24  1  0  0  0  0
  6 25  1  0  0  0  0
  7 26  1  0  0  0  0
  7 27  1  0  0  0  0
  7 28  1  0  0  0  0
  8 29  1  0  0  0  0
  9 30  1  0  0  0  0
 13 31  1  0  0  0  0
 14 32  1  0  0  0  0
M  END
> <Catalog ID>
Z1539644484

> <PlateID>
1337959-R-12

> <Well>
H02

> <MW (desalted)>
211.264

> <CLogP>
1.001

> <HBD>
2

> <TPSA>
71.840

> <RotBonds>
3

> <ROCS_ShapeQuery>
A71EV2A-x0451_0A_A71EV2A-x0310_0A_A71EV2A-x0416_0A_peptide

> <ROCS_TanimotoCombo>
0.467 

> <ROCS_ShapeTanimoto>
0.281 

> <ROCS_ColorTanimoto>
0.186 

> <ROCS_RefTversky>
0.250 

> <ROCS_RefColorTversky>
0.199 

> <ROCS_RefTverskyCombo>
0.450 

> <ROCS_FitTversky>
1.767 

> <ROCS_FitColorTversky>
0.736 

> <ROCS_FitTverskyCombo>
2.502 

> <ROCS_ColorScore>
-6.072

> <ROCS_Overlap>
1734.446

> <ROCS_Rank>
24                  

$$$$
untitled-dbase-739_0
  -OEChem-11112309163D

 33 35  0     0  0  0  0  0  0999 V2000
   10.4359   13.3758   23.4704 C   0  0  0  0  0  0  0  0  0  0  0  0
    8.8307    9.8787   25.4225 C   0  0  0  0  0  0  0  0  0  0  0  0
    6.8685   11.2111   24.6063 C   0  0  0  0  0  0  0  0  0  0  0  0
    8.1353    9.7426   23.0163 C   0  0  0  0  0  0  0  0  0  0  0  0
    8.9998   12.3738   25.2337 C   0  0  0  0  0  0  0  0  0  0  0  0
   10.2687   10.9027   23.6410 C   0  0  0  0  0  0  0  0  0  0  0  0
    8.3045   12.2379   22.8240 C   0  0  0  0  0  0  0  0  0  0  0  0
    8.0626   11.2028   25.5767 C   0  0  0  0  0  0  0  0  0  0  0  0
    9.3365    9.7258   23.9777 C   0  0  0  0  0  0  0  0  0  0  0  0
    7.3637   11.0664   23.1566 C   0  0  0  0  0  0  0  0  0  0  0  0
    9.5094   12.2367   23.7851 C   0  0  0  0  0  0  0  0  0  0  0  0
   11.8580   14.3465   21.6766 C   0  0  0  0  0  0  0  0  0  0  0  0
   10.9489   13.3459   22.1877 N   0  0  0  0  0  0  0  0  0  0  0  0
   10.6675   14.2206   24.3273 O   0  0  0  0  0  0  0  0  0  0  0  0
    9.6769    9.8535   26.1201 H   0  0  0  0  0  0  0  0  0  0  0  0
    8.1785    9.0358   25.6815 H   0  0  0  0  0  0  0  0  0  0  0  0
    6.1820   10.3913   24.8509 H   0  0  0  0  0  0  0  0  0  0  0  0
    6.3026   12.1442   24.7171 H   0  0  0  0  0  0  0  0  0  0  0  0
    8.4810    9.6185   21.9826 H   0  0  0  0  0  0  0  0  0  0  0  0
    7.4708    8.8972   23.2329 H   0  0  0  0  0  0  0  0  0  0  0  0
    8.4710   13.3272   25.3636 H   0  0  0  0  0  0  0  0  0  0  0  0
    9.8436   12.3932   25.9363 H   0  0  0  0  0  0  0  0  0  0  0  0
   11.1438   10.8862   24.3041 H   0  0  0  0  0  0  0  0  0  0  0  0
   10.6564   10.7929   22.6197 H   0  0  0  0  0  0  0  0  0  0  0  0
    8.6450   12.1592   21.7832 H   0  0  0  0  0  0  0  0  0  0  0  0
    7.7580   13.1875   22.8972 H   0  0  0  0  0  0  0  0  0  0  0  0
    7.7036   11.3050   26.6066 H   0  0  0  0  0  0  0  0  0  0  0  0
    9.8808    8.7806   23.8738 H   0  0  0  0  0  0  0  0  0  0  0  0
    6.5092   11.0717   22.4710 H   0  0  0  0  0  0  0  0  0  0  0  0
   11.2837   15.1613   21.2117 H   0  0  0  0  0  0  0  0  0  0  0  0
   12.4622   14.7491   22.5030 H   0  0  0  0  0  0  0  0  0  0  0  0
   12.5206   13.8906   20.9262 H   0  0  0  0  0  0  0  0  0  0  0  0
   10.6738   12.5844   21.5746 H   0  0  0  0  0  0  0  0  0  0  0  0
  1 11  1  0  0  0  0
  1 13  1  0  0  0  0
  1 14  2  0  0  0  0
  2  8  1  0  0  0  0
  2  9  1  0  0  0  0
  3  8  1  0  0  0  0
  3 10  1  0  0  0  0
  4  9  1  0  0  0  0
  4 10  1  0  0  0  0
  5  8  1  0  0  0  0
  5 11  1  0  0  0  0
  6  9  1  0  0  0  0
  6 11  1  0  0  0  0
  7 10  1  0  0  0  0
  7 11  1  0  0  0  0
 12 13  1  0  0  0  0
  2 15  1  0  0  0  0
  2 16  1  0  0  0  0
  3 17  1  0  0  0  0
  3 18  1  0  0  0  0
  4 19  1  0  0  0  0
  4 20  1  0  0  0  0
  5 21  1  0  0  0  0
  5 22  1  0  0  0  0
  6 23  1  0  0  0  0
  6 24  1  0  0  0  0
  7 25  1  0  0  0  0
  7 26  1  0  0  0  0
  8 27  1  0  0  0  0
  9 28  1  0  0  0  0
 10 29  1  0  0  0  0
 12 30  1  0  0  0  0
 12 31  1  0  0  0  0
 12 32  1  0  0  0  0
 13 33  1  0  0  0  0
M  END
> <Catalog ID>
Z56853704

> <PlateID>
1337959-R-10

> <Well>
C02

> <MW (desalted)>
193.285

> <CLogP>
1.581

> <HBD>
1

> <TPSA>
29.100

> <RotBonds>
1

> <ROCS_ShapeQuery>
A71EV2A-x0451_0A_A71EV2A-x0310_0A_A71EV2A-x0416_0A_peptide

> <ROCS_TanimotoCombo>
0.466 

> <ROCS_ShapeTanimoto>
0.259 

> <ROCS_ColorTanimoto>
0.207 

> <ROCS_RefTversky>
0.234 

> <ROCS_RefColorTversky>
0.226 

> <ROCS_RefTverskyCombo>
0.460 

> <ROCS_FitTversky>
1.690 

> <ROCS_FitColorTversky>
0.716 

> <ROCS_FitTverskyCombo>
2.405 

> <ROCS_ColorScore>
-6.897

> <ROCS_Overlap>
1622.331

> <ROCS_Rank>
25                  

$$$$
untitled-dbase-758_109
  -OEChem-11112309163D

 37 38  0     1  0  0  0  0  0999 V2000
    9.1124   12.0614   23.9646 C   0  0  0  0  0  0  0  0  0  0  0  0
    7.7776   12.0920   24.4110 C   0  0  0  0  0  0  0  0  0  0  0  0
    9.4739   10.7393   24.0533 C   0  0  0  0  0  0  0  0  0  0  0  0
    9.9683   13.1638   23.4983 C   0  0  0  0  0  0  0  0  0  0  0  0
   10.9680   15.6696   22.7013 C   0  0  0  0  0  0  0  0  0  0  0  0
   10.8775   16.9555   21.9036 C   0  0  0  0  0  0  0  0  0  0  0  0
   10.1740   15.2803   20.4419 C   0  0  0  0  0  0  0  0  0  0  0  0
   10.7902   14.5770   21.6508 C   0  0  2  0  0  0  0  0  0  0  0  0
    6.8895   13.2622   24.5253 C   0  0  0  0  0  0  0  0  0  0  0  0
   10.7399   10.0500   23.7356 C   0  0  0  0  0  0  0  0  0  0  0  0
    8.2557    8.6686   24.7916 C   0  0  0  0  0  0  0  0  0  0  0  0
    9.1841   12.7752   21.1174 C   0  0  0  0  0  0  0  0  0  0  0  0
    7.3220   10.8852   24.7575 N   0  0  0  0  0  0  0  0  0  0  0  0
    8.3763   10.0839   24.5287 N   0  0  0  0  0  0  0  0  0  0  0  0
    9.8668   16.6367   20.9000 N   0  0  0  0  0  0  0  0  0  0  0  0
    9.9763   13.4914   22.1280 N   0  0  0  0  0  0  0  0  0  0  0  0
   10.6229   13.7474   24.3615 O   0  0  0  0  0  0  0  0  0  0  0  0
   11.9456   15.5697   23.1782 H   0  0  0  0  0  0  0  0  0  0  0  0
   10.2034   15.6418   23.4797 H   0  0  0  0  0  0  0  0  0  0  0  0
   10.5367   17.7760   22.5360 H   0  0  0  0  0  0  0  0  0  0  0  0
   11.8270   17.2255   21.4476 H   0  0  0  0  0  0  0  0  0  0  0  0
   10.8628   15.2950   19.5819 H   0  0  0  0  0  0  0  0  0  0  0  0
    9.2460   14.7797   20.1127 H   0  0  0  0  0  0  0  0  0  0  0  0
   11.7605   14.1540   21.3926 H   0  0  0  0  0  0  0  0  0  0  0  0
    6.3228   13.4266   23.5931 H   0  0  0  0  0  0  0  0  0  0  0  0
    6.1575   13.1509   25.3447 H   0  0  0  0  0  0  0  0  0  0  0  0
    7.4486   14.1895   24.7431 H   0  0  0  0  0  0  0  0  0  0  0  0
   11.4060   10.0182   24.6133 H   0  0  0  0  0  0  0  0  0  0  0  0
   10.5734    9.0111   23.4034 H   0  0  0  0  0  0  0  0  0  0  0  0
   11.2877   10.5476   22.9170 H   0  0  0  0  0  0  0  0  0  0  0  0
    8.5581    8.4909   25.8270 H   0  0  0  0  0  0  0  0  0  0  0  0
    7.2190    8.3567   24.6372 H   0  0  0  0  0  0  0  0  0  0  0  0
    8.9020    8.1168   24.1033 H   0  0  0  0  0  0  0  0  0  0  0  0
    8.1983   13.2528   21.0174 H   0  0  0  0  0  0  0  0  0  0  0  0
    9.7074   12.8085   20.1504 H   0  0  0  0  0  0  0  0  0  0  0  0
    9.0542   11.7280   21.4281 H   0  0  0  0  0  0  0  0  0  0  0  0
    8.9294   16.6761   21.3049 H   0  0  0  0  0  0  0  0  0  0  0  0
  1  2  1  0  0  0  0
  1  3  2  0  0  0  0
  1  4  1  0  0  0  0
  2  9  1  0  0  0  0
  2 13  2  0  0  0  0
  3 10  1  0  0  0  0
  3 14  1  0  0  0  0
  4 16  1  0  0  0  0
  4 17  2  0  0  0  0
  5  6  1  0  0  0  0
  5  8  1  0  0  0  0
  6 15  1  0  0  0  0
  7  8  1  0  0  0  0
  7 15  1  0  0  0  0
  8 16  1  0  0  0  0
 11 14  1  0  0  0  0
 12 16  1  0  0  0  0
 13 14  1  0  0  0  0
  5 18  1  0  0  0  0
  5 19  1  0  0  0  0
  6 20  1  0  0  0  0
  6 21  1  0  0  0  0
  7 22  1  0  0  0  0
  7 23  1  0  0  0  0
  8 24  1  0  0  0  0
  9 25  1  0  0  0  0
  9 26  1  0  0  0  0
  9 27  1  0  0  0  0
 10 28  1  0  0  0  0
 10 29  1  0  0  0  0
 10 30  1  0  0  0  0
 11 31  1  0  0  0  0
 11 32  1  0  0  0  0
 11 33  1  0  0  0  0
 12 34  1  0  0  0  0
 12 35  1  0  0  0  0
 12 36  1  0  0  0  0
 15 37  1  0  0  0  0
M  END
> <Catalog ID>
Z513890184

> <PlateID>
1337959-R-10

> <Well>
D11

> <MW (desalted)>
236.313

> <CLogP>
-0.343

> <HBD>
1

> <TPSA>
50.160

> <RotBonds>
2

> <ROCS_ShapeQuery>
A71EV2A-x0451_0A_A71EV2A-x0310_0A_A71EV2A-x0416_0A_peptide

> <ROCS_TanimotoCombo>
0.466 

> <ROCS_ShapeTanimoto>
0.271 

> <ROCS_ColorTanimoto>
0.195 

> <ROCS_RefTversky>
0.246 

> <ROCS_RefColorTversky>
0.202 

> <ROCS_RefTverskyCombo>
0.449 

> <ROCS_FitTversky>
1.576 

> <ROCS_FitColorTversky>
0.845 

> <ROCS_FitTverskyCombo>
2.421 

> <ROCS_ColorScore>
-6.156

> <ROCS_Overlap>
1707.149

> <ROCS_Rank>
26                  

$$$$
untitled-dbase-351_10
  -OEChem-11112309163D

 36 38  0     0  0  0  0  0  0999 V2000
    8.7495    9.9484   23.2940 C   0  0  0  0  0  0  0  0  0  0  0  0
    9.6924   10.9268   22.9713 C   0  0  0  0  0  0  0  0  0  0  0  0
    8.7419   12.4500   24.6141 C   0  0  0  0  0  0  0  0  0  0  0  0
    7.8227   10.2314   24.2831 C   0  0  0  0  0  0  0  0  0  0  0  0
    7.8188   11.4696   24.9362 C   0  0  0  0  0  0  0  0  0  0  0  0
    9.6887   12.1685   23.6267 C   0  0  0  0  0  0  0  0  0  0  0  0
    6.7032    9.3677   24.7717 C   0  0  0  0  0  0  0  0  0  0  0  0
    6.6954   11.5491   25.9210 C   0  0  0  0  0  0  0  0  0  0  0  0
    6.3466   10.0632   26.0943 C   0  0  0  0  0  0  0  0  0  0  0  0
    8.9677   15.8710   21.8100 C   0  0  0  0  0  0  0  0  0  0  0  0
   11.2589   16.0419   21.0680 C   0  0  0  0  0  0  0  0  0  0  0  0
    8.9597   14.3732   21.5220 C   0  0  0  0  0  0  0  0  0  0  0  0
   11.2984   14.5476   20.7644 C   0  0  0  0  0  0  0  0  0  0  0  0
    9.9020   16.5746   20.9290 N   0  0  0  0  0  0  0  0  0  0  0  0
   10.3363   13.8161   21.6348 N   0  0  0  0  0  0  0  0  0  0  0  0
   10.7134   14.5162   24.0864 O   0  0  0  0  0  0  0  0  0  0  0  0
   12.1724   12.7277   23.0764 O   0  0  0  0  0  0  0  0  0  0  0  0
   10.8745   13.3767   23.1948 S   0  0  0  0  0  0  0  0  0  0  0  0
    8.7470    8.9940   22.7786 H   0  0  0  0  0  0  0  0  0  0  0  0
   10.4290   10.7185   22.1994 H   0  0  0  0  0  0  0  0  0  0  0  0
    8.7240   13.4114   25.1174 H   0  0  0  0  0  0  0  0  0  0  0  0
    5.8654    9.4025   24.0678 H   0  0  0  0  0  0  0  0  0  0  0  0
    7.0132    8.3321   24.9365 H   0  0  0  0  0  0  0  0  0  0  0  0
    6.9995   12.0005   26.8697 H   0  0  0  0  0  0  0  0  0  0  0  0
    5.8561   12.1053   25.4912 H   0  0  0  0  0  0  0  0  0  0  0  0
    5.3008    9.9097   26.3786 H   0  0  0  0  0  0  0  0  0  0  0  0
    6.9652    9.6416   26.8991 H   0  0  0  0  0  0  0  0  0  0  0  0
    7.9621   16.2795   21.6631 H   0  0  0  0  0  0  0  0  0  0  0  0
    9.2374   16.0591   22.8564 H   0  0  0  0  0  0  0  0  0  0  0  0
   11.6278   16.2373   22.0822 H   0  0  0  0  0  0  0  0  0  0  0  0
   11.9238   16.5750   20.3801 H   0  0  0  0  0  0  0  0  0  0  0  0
    8.3053   13.8732   22.2504 H   0  0  0  0  0  0  0  0  0  0  0  0
    8.5611   14.1717   20.5159 H   0  0  0  0  0  0  0  0  0  0  0  0
   11.0578   14.3580   19.7072 H   0  0  0  0  0  0  0  0  0  0  0  0
   12.3147   14.1722   20.9516 H   0  0  0  0  0  0  0  0  0  0  0  0
    9.5977   16.4539   19.9614 H   0  0  0  0  0  0  0  0  0  0  0  0
  1  2  1  0  0  0  0
  1  4  2  0  0  0  0
  2  6  2  0  0  0  0
  3  5  2  0  0  0  0
  3  6  1  0  0  0  0
  4  5  1  0  0  0  0
  4  7  1  0  0  0  0
  5  8  1  0  0  0  0
  6 18  1  0  0  0  0
  7  9  1  0  0  0  0
  8  9  1  0  0  0  0
 10 12  1  0  0  0  0
 10 14  1  0  0  0  0
 11 13  1  0  0  0  0
 11 14  1  0  0  0  0
 12 15  1  0  0  0  0
 13 15  1  0  0  0  0
 15 18  1  0  0  0  0
 16 18  2  0  0  0  0
 17 18  2  0  0  0  0
  1 19  1  0  0  0  0
  2 20  1  0  0  0  0
  3 21  1  0  0  0  0
  7 22  1  0  0  0  0
  7 23  1  0  0  0  0
  8 24  1  0  0  0  0
  8 25  1  0  0  0  0
  9 26  1  0  0  0  0
  9 27  1  0  0  0  0
 10 28  1  0  0  0  0
 10 29  1  0  0  0  0
 11 30  1  0  0  0  0
 11 31  1  0  0  0  0
 12 32  1  0  0  0  0
 12 33  1  0  0  0  0
 13 34  1  0  0  0  0
 13 35  1  0  0  0  0
 14 36  1  0  0  0  0
M  END
> <Catalog ID>
Z1491220456

> <PlateID>
1337959-R-05

> <Well>
D03

> <MW (desalted)>
266.359

> <CLogP>
2.282

> <HBD>
1

> <TPSA>
49.410

> <RotBonds>
1

> <ROCS_ShapeQuery>
A71EV2A-x0451_0A_A71EV2A-x0310_0A_A71EV2A-x0416_0A_peptide

> <ROCS_TanimotoCombo>
0.465 

> <ROCS_ShapeTanimoto>
0.296 

> <ROCS_ColorTanimoto>
0.169 

> <ROCS_RefTversky>
0.265 

> <ROCS_RefColorTversky>
0.184 

> <ROCS_RefTverskyCombo>
0.449 

> <ROCS_FitTversky>
1.660 

> <ROCS_FitColorTversky>
0.679 

> <ROCS_FitTverskyCombo>
2.339 

> <ROCS_ColorScore>
-5.608

> <ROCS_Overlap>
1837.295

> <ROCS_Rank>
27                  

$$$$
untitled-dbase-712_212
  -OEChem-11112309163D

 39 41  0     1  0  0  0  0  0999 V2000
   15.5053   12.3808   24.7096 C   0  0  0  0  0  0  0  0  0  0  0  0
   15.0324   13.6573   24.4057 C   0  0  0  0  0  0  0  0  0  0  0  0
   14.7687   11.2568   24.3358 C   0  0  0  0  0  0  0  0  0  0  0  0
   13.8228   13.8099   23.7281 C   0  0  0  0  0  0  0  0  0  0  0  0
   13.5591   11.4093   23.6581 C   0  0  0  0  0  0  0  0  0  0  0  0
   13.0861   12.6859   23.3542 C   0  0  0  0  0  0  0  0  0  0  0  0
   10.5789   12.9551   23.5337 C   0  0  0  0  0  0  0  0  0  0  0  0
    6.7155   12.0740   26.3194 C   0  0  0  0  0  0  0  0  0  0  0  0
    6.2516   11.2440   25.1102 C   0  0  0  0  0  0  0  0  0  0  0  0
    8.1043   11.4333   26.1605 C   0  0  0  0  0  0  0  0  0  0  0  0
    9.9756   10.6264   22.9574 C   0  0  0  0  0  0  0  0  0  0  0  0
    8.1638   12.1641   23.6390 C   0  0  0  0  0  0  0  0  0  0  0  0
    9.4990    9.5979   23.9693 C   0  0  0  0  0  0  0  0  0  0  0  0
    7.7422   11.1180   24.6757 C   0  0  0  0  0  0  0  0  0  0  0  0
   11.7733   12.8507   22.6191 C   0  0  1  0  0  0  0  0  0  0  0  0
    9.5995   11.9718   23.3973 N   0  0  0  0  0  0  0  0  0  0  0  0
   11.7355   13.9836   21.7151 N   0  0  0  0  0  0  0  0  0  0  0  0
   10.5193   13.8833   24.3442 O   0  0  0  0  0  0  0  0  0  0  0  0
    8.1075    9.7894   24.2183 O   0  0  0  0  0  0  0  0  0  0  0  0
   16.4479   12.2622   25.2361 H   0  0  0  0  0  0  0  0  0  0  0  0
   15.6063   14.5326   24.6957 H   0  0  0  0  0  0  0  0  0  0  0  0
   15.1372   10.2628   24.5712 H   0  0  0  0  0  0  0  0  0  0  0  0
   13.4619   14.8084   23.4957 H   0  0  0  0  0  0  0  0  0  0  0  0
   12.9919   10.5279   23.3709 H   0  0  0  0  0  0  0  0  0  0  0  0
    6.7057   13.1554   26.1429 H   0  0  0  0  0  0  0  0  0  0  0  0
    6.2028   11.8656   27.2619 H   0  0  0  0  0  0  0  0  0  0  0  0
    5.7894   10.2883   25.3847 H   0  0  0  0  0  0  0  0  0  0  0  0
    5.5848   11.7659   24.4178 H   0  0  0  0  0  0  0  0  0  0  0  0
    8.9482   12.1088   26.3243 H   0  0  0  0  0  0  0  0  0  0  0  0
    8.2480   10.5398   26.7797 H   0  0  0  0  0  0  0  0  0  0  0  0
   11.0555   10.5404   22.8061 H   0  0  0  0  0  0  0  0  0  0  0  0
    9.4840   10.4647   21.9910 H   0  0  0  0  0  0  0  0  0  0  0  0
    7.6446   11.9993   22.6875 H   0  0  0  0  0  0  0  0  0  0  0  0
    7.9314   13.1772   23.9711 H   0  0  0  0  0  0  0  0  0  0  0  0
    9.6375    8.5856   23.5777 H   0  0  0  0  0  0  0  0  0  0  0  0
   10.0513    9.6756   24.9121 H   0  0  0  0  0  0  0  0  0  0  0  0
   11.5993   11.9617   22.0030 H   0  0  0  0  0  0  0  0  0  0  0  0
   11.0052   14.5978   22.0001 H   0  0  0  0  0  0  0  0  0  0  0  0
   12.6128   14.4533   21.7529 H   0  0  0  0  0  0  0  0  0  0  0  0
  1  2  2  0  0  0  0
  1  3  1  0  0  0  0
  2  4  1  0  0  0  0
  3  5  2  0  0  0  0
  4  6  2  0  0  0  0
  5  6  1  0  0  0  0
  6 15  1  0  0  0  0
  7 15  1  0  0  0  0
  7 16  1  0  0  0  0
  7 18  2  0  0  0  0
  8  9  1  0  0  0  0
  8 10  1  0  0  0  0
  9 14  1  0  0  0  0
 10 14  1  0  0  0  0
 11 13  1  0  0  0  0
 11 16  1  0  0  0  0
 12 14  1  0  0  0  0
 12 16  1  0  0  0  0
 13 19  1  0  0  0  0
 14 19  1  0  0  0  0
 15 17  1  0  0  0  0
  1 20  1  0  0  0  0
  2 21  1  0  0  0  0
  3 22  1  0  0  0  0
  4 23  1  0  0  0  0
  5 24  1  0  0  0  0
  8 25  1  0  0  0  0
  8 26  1  0  0  0  0
  9 27  1  0  0  0  0
  9 28  1  0  0  0  0
 10 29  1  0  0  0  0
 10 30  1  0  0  0  0
 11 31  1  0  0  0  0
 11 32  1  0  0  0  0
 12 33  1  0  0  0  0
 12 34  1  0  0  0  0
 13 35  1  0  0  0  0
 13 36  1  0  0  0  0
 15 37  1  0  0  0  0
 17 38  1  0  0  0  0
 17 39  1  0  0  0  0
M  END
> <Catalog ID>
Z1622894379

> <PlateID>
1337959-R-09

> <Well>
H05

> <MW (desalted)>
260.332

> <CLogP>
1.561

> <HBD>
1

> <TPSA>
55.560

> <RotBonds>
2

> <ROCS_ShapeQuery>
A71EV2A-x0451_0A_A71EV2A-x0310_0A_A71EV2A-x0416_0A_peptide

> <ROCS_TanimotoCombo>
0.464 

> <ROCS_ShapeTanimoto>
0.301 

> <ROCS_ColorTanimoto>
0.164 

> <ROCS_RefTversky>
0.270 

> <ROCS_RefColorTversky>
0.179 

> <ROCS_RefTverskyCombo>
0.449 

> <ROCS_FitTversky>
1.604 

> <ROCS_FitColorTversky>
0.661 

> <ROCS_FitTverskyCombo>
2.264 

> <ROCS_ColorScore>
-5.444

> <ROCS_Overlap>
1873.494

> <ROCS_Rank>
28                  

$$$$
untitled-dbase-589_350
  -OEChem-11112309163D

 41 43  0     1  0  0  0  0  0999 V2000
    4.6161   12.4238   27.3746 C   0  0  0  0  0  0  0  0  0  0  0  0
    5.7065   12.5156   28.2535 C   0  0  0  0  0  0  0  0  0  0  0  0
    4.7832   11.9166   26.0842 C   0  0  0  0  0  0  0  0  0  0  0  0
    6.9788   12.1015   27.8540 C   0  0  0  0  0  0  0  0  0  0  0  0
    6.0510   11.5196   25.6929 C   0  0  0  0  0  0  0  0  0  0  0  0
    7.1367   11.6108   26.5685 C   0  0  0  0  0  0  0  0  0  0  0  0
    6.4617   10.9175   24.3857 C   0  0  0  0  0  0  0  0  0  0  0  0
    8.3860   11.0824   25.9344 C   0  0  0  0  0  0  0  0  0  0  0  0
    8.7384   10.0070   23.6330 C   0  0  0  0  0  0  0  0  0  0  0  0
   10.1182   10.6142   23.4297 C   0  0  0  0  0  0  0  0  0  0  0  0
    8.4761   12.3737   23.7292 C   0  0  0  0  0  0  0  0  0  0  0  0
    7.9987   11.0819   24.4274 C   0  0  0  0  0  0  0  0  0  0  0  0
   11.1228   16.9069   22.3421 C   0  0  0  0  0  0  0  0  0  0  0  0
   12.3916   14.9603   21.9902 C   0  0  0  0  0  0  0  0  0  0  0  0
   11.3034   13.9045   21.9801 C   0  0  0  0  0  0  0  0  0  0  0  0
    9.8488   12.0627   23.2222 N   0  0  1  0  0  0  0  0  0  0  0  0
   12.3104   12.4182   23.8785 O   0  0  0  0  0  0  0  0  0  0  0  0
   10.5987   14.1766   24.4815 O   0  0  0  0  0  0  0  0  0  0  0  0
   12.0648   16.0019   22.9013 O   0  0  0  0  0  0  0  0  0  0  0  0
   11.0985   13.1570   23.5785 S   0  0  0  0  0  0  0  0  0  0  0  0
    3.6320   12.7454   27.7046 H   0  0  0  0  0  0  0  0  0  0  0  0
    5.5566   12.9075   29.2558 H   0  0  0  0  0  0  0  0  0  0  0  0
    3.9370   11.8365   25.4103 H   0  0  0  0  0  0  0  0  0  0  0  0
    7.8184   12.1639   28.5380 H   0  0  0  0  0  0  0  0  0  0  0  0
    6.1715    9.8609   24.3672 H   0  0  0  0  0  0  0  0  0  0  0  0
    6.0046   11.4362   23.5377 H   0  0  0  0  0  0  0  0  0  0  0  0
    9.2487   11.7201   26.1507 H   0  0  0  0  0  0  0  0  0  0  0  0
    8.5767   10.0690   26.3046 H   0  0  0  0  0  0  0  0  0  0  0  0
    8.2544    9.8503   22.6604 H   0  0  0  0  0  0  0  0  0  0  0  0
    8.7862    9.0403   24.1435 H   0  0  0  0  0  0  0  0  0  0  0  0
   10.7415   10.4663   24.3182 H   0  0  0  0  0  0  0  0  0  0  0  0
   10.6218   10.1878   22.5580 H   0  0  0  0  0  0  0  0  0  0  0  0
    7.8580   12.6187   22.8579 H   0  0  0  0  0  0  0  0  0  0  0  0
    8.4779   13.2388   24.4000 H   0  0  0  0  0  0  0  0  0  0  0  0
   10.8955   17.6918   23.0676 H   0  0  0  0  0  0  0  0  0  0  0  0
   10.2108   16.3667   22.0759 H   0  0  0  0  0  0  0  0  0  0  0  0
   11.5524   17.3572   21.4441 H   0  0  0  0  0  0  0  0  0  0  0  0
   13.3443   14.5243   22.3066 H   0  0  0  0  0  0  0  0  0  0  0  0
   12.5300   15.4045   20.9998 H   0  0  0  0  0  0  0  0  0  0  0  0
   11.5339   13.0919   21.2850 H   0  0  0  0  0  0  0  0  0  0  0  0
   10.3375   14.3451   21.7179 H   0  0  0  0  0  0  0  0  0  0  0  0
  1  2  2  0  0  0  0
  1  3  1  0  0  0  0
  2  4  1  0  0  0  0
  3  5  2  0  0  0  0
  4  6  2  0  0  0  0
  5  6  1  0  0  0  0
  5  7  1  0  0  0  0
  6  8  1  0  0  0  0
  7 12  1  0  0  0  0
  8 12  1  0  0  0  0
  9 10  1  0  0  0  0
  9 12  1  0  0  0  0
 10 16  1  0  0  0  0
 11 12  1  0  0  0  0
 11 16  1  0  0  0  0
 13 19  1  0  0  0  0
 14 15  1  0  0  0  0
 14 19  1  0  0  0  0
 15 20  1  0  0  0  0
 16 20  1  0  0  0  0
 17 20  2  0  0  0  0
 18 20  2  0  0  0  0
  1 21  1  0  0  0  0
  2 22  1  0  0  0  0
  3 23  1  0  0  0  0
  4 24  1  0  0  0  0
  7 25  1  0  0  0  0
  7 26  1  0  0  0  0
  8 27  1  0  0  0  0
  8 28  1  0  0  0  0
  9 29  1  0  0  0  0
  9 30  1  0  0  0  0
 10 31  1  0  0  0  0
 10 32  1  0  0  0  0
 11 33  1  0  0  0  0
 11 34  1  0  0  0  0
 13 35  1  0  0  0  0
 13 36  1  0  0  0  0
 13 37  1  0  0  0  0
 14 38  1  0  0  0  0
 14 39  1  0  0  0  0
 15 40  1  0  0  0  0
 15 41  1  0  0  0  0
M  END
> <Catalog ID>
Z1541929387

> <PlateID>
1337959-R-08

> <Well>
C11

> <MW (desalted)>
295.397

> <CLogP>
2.325

> <HBD>
0

> <TPSA>
46.610

> <RotBonds>
3

> <ROCS_ShapeQuery>
A71EV2A-x0451_0A_A71EV2A-x0310_0A_A71EV2A-x0416_0A_peptide

> <ROCS_TanimotoCombo>
0.464 

> <ROCS_ShapeTanimoto>
0.307 

> <ROCS_ColorTanimoto>
0.156 

> <ROCS_RefTversky>
0.275 

> <ROCS_RefColorTversky>
0.168 

> <ROCS_RefTverskyCombo>
0.443 

> <ROCS_FitTversky>
1.611 

> <ROCS_FitColorTversky>
0.698 

> <ROCS_FitTverskyCombo>
2.310 

> <ROCS_ColorScore>
-5.103

> <ROCS_Overlap>
1909.808

> <ROCS_Rank>
29                  

$$$$
untitled-dbase-1099_76
  -OEChem-11112309163D

 35 37  0     1  0  0  0  0  0999 V2000
    8.5896    9.5017   23.6407 C   0  0  0  0  0  0  0  0  0  0  0  0
    9.4365   10.3858   22.9814 C   0  0  0  0  0  0  0  0  0  0  0  0
    7.8041   11.3189   24.9589 C   0  0  0  0  0  0  0  0  0  0  0  0
    7.7547    9.9692   24.6495 C   0  0  0  0  0  0  0  0  0  0  0  0
    9.4105   11.7168   23.3653 C   0  0  0  0  0  0  0  0  0  0  0  0
   10.8605   13.7577   23.1945 C   0  0  0  0  0  0  0  0  0  0  0  0
   12.9899   16.3701   21.7000 C   0  0  0  0  0  0  0  0  0  0  0  0
   12.2836   16.5391   19.2576 C   0  0  0  0  0  0  0  0  0  0  0  0
   12.6934   15.3879   22.8270 C   0  0  0  0  0  0  0  0  0  0  0  0
   11.3113   14.8585   20.9339 C   0  0  0  0  0  0  0  0  0  0  0  0
   13.6771   16.7322   18.6949 C   0  0  0  0  0  0  0  0  0  0  0  0
   13.6339   14.7224   19.8775 C   0  0  0  0  0  0  0  0  0  0  0  0
   12.5330   15.6219   20.4358 C   0  0  2  0  0  0  0  0  0  0  0  0
    8.6134   12.2079   24.3406 N   0  0  0  0  0  0  0  0  0  0  0  0
   11.6219   14.5347   22.3281 N   0  0  0  0  0  0  0  0  0  0  0  0
   10.2779   12.6092   22.6879 N   0  0  0  0  0  0  0  0  0  0  0  0
   10.6387   14.0976   24.3628 O   0  0  0  0  0  0  0  0  0  0  0  0
   14.4175   15.5397   18.9919 O   0  0  0  0  0  0  0  0  0  0  0  0
    6.9294    9.1417   25.3000 F   0  0  0  0  0  0  0  0  0  0  0  0
    8.5820    8.4503   23.3694 H   0  0  0  0  0  0  0  0  0  0  0  0
   10.0925   10.0289   22.1941 H   0  0  0  0  0  0  0  0  0  0  0  0
    7.1733   11.7330   25.7385 H   0  0  0  0  0  0  0  0  0  0  0  0
   12.3925   17.2792   21.8347 H   0  0  0  0  0  0  0  0  0  0  0  0
   14.0445   16.6564   21.6711 H   0  0  0  0  0  0  0  0  0  0  0  0
   11.8935   17.5036   19.6069 H   0  0  0  0  0  0  0  0  0  0  0  0
   11.5838   16.1454   18.5143 H   0  0  0  0  0  0  0  0  0  0  0  0
   13.5603   14.7503   23.0445 H   0  0  0  0  0  0  0  0  0  0  0  0
   12.3898   15.8966   23.7501 H   0  0  0  0  0  0  0  0  0  0  0  0
   10.4082   15.4815   20.9494 H   0  0  0  0  0  0  0  0  0  0  0  0
   11.0874   13.9414   20.3771 H   0  0  0  0  0  0  0  0  0  0  0  0
   13.6557   16.8510   17.6063 H   0  0  0  0  0  0  0  0  0  0  0  0
   14.1861   17.5979   19.1283 H   0  0  0  0  0  0  0  0  0  0  0  0
   14.3056   14.3647   20.6662 H   0  0  0  0  0  0  0  0  0  0  0  0
   13.2606   13.8542   19.3258 H   0  0  0  0  0  0  0  0  0  0  0  0
   10.4994   12.3629   21.6840 H   0  0  0  0  0  0  0  0  0  0  0  0
  1  2  1  0  0  0  0
  1  4  2  0  0  0  0
  2  5  2  0  0  0  0
  3  4  1  0  0  0  0
  3 14  2  0  0  0  0
  4 19  1  0  0  0  0
  5 14  1  0  0  0  0
  5 16  1  0  0  0  0
  6 15  1  0  0  0  0
  6 16  1  0  0  0  0
  6 17  2  0  0  0  0
  7  9  1  0  0  0  0
  7 13  1  0  0  0  0
  8 11  1  0  0  0  0
  8 13  1  0  0  0  0
  9 15  1  0  0  0  0
 10 13  1  0  0  0  0
 10 15  1  0  0  0  0
 11 18  1  0  0  0  0
 12 13  1  0  0  0  0
 12 18  1  0  0  0  0
  1 20  1  0  0  0  0
  2 21  1  0  0  0  0
  3 22  1  0  0  0  0
  7 23  1  0  0  0  0
  7 24  1  0  0  0  0
  8 25  1  0  0  0  0
  8 26  1  0  0  0  0
  9 27  1  0  0  0  0
  9 28  1  0  0  0  0
 10 29  1  0  0  0  0
 10 30  1  0  0  0  0
 11 31  1  0  0  0  0
 11 32  1  0  0  0  0
 12 33  1  0  0  0  0
 12 34  1  0  0  0  0
 16 35  1  0  0  0  0
M  END
> <Catalog ID>
Z1732181340

> <PlateID>
1337959-R-14

> <Well>
G05

> <MW (desalted)>
265.283

> <CLogP>
0.655

> <HBD>
1

> <TPSA>
54.460

> <RotBonds>
1

> <ROCS_ShapeQuery>
A71EV2A-x0451_0A_A71EV2A-x0310_0A_A71EV2A-x0416_0A_peptide

> <ROCS_TanimotoCombo>
0.464 

> <ROCS_ShapeTanimoto>
0.308 

> <ROCS_ColorTanimoto>
0.156 

> <ROCS_RefTversky>
0.276 

> <ROCS_RefColorTversky>
0.171 

> <ROCS_RefTverskyCombo>
0.447 

> <ROCS_FitTversky>
1.614 

> <ROCS_FitColorTversky>
0.632 

> <ROCS_FitTverskyCombo>
2.247 

> <ROCS_ColorScore>
-5.211

> <ROCS_Overlap>
1913.732

> <ROCS_Rank>
30                  

$$$$
untitled-dbase-939_28
  -OEChem-11112309163D

 34 35  0     1  0  0  0  0  0999 V2000
    5.8429   11.0078   25.6050 C   0  0  0  0  0  0  0  0  0  0  0  0
    6.3153    9.6984   25.7195 C   0  0  0  0  0  0  0  0  0  0  0  0
    6.5880   11.9878   24.9370 C   0  0  0  0  0  0  0  0  0  0  0  0
    7.5459    9.3203   25.1725 C   0  0  0  0  0  0  0  0  0  0  0  0
    7.8268   11.6255   24.3816 C   0  0  0  0  0  0  0  0  0  0  0  0
    8.2708   10.3127   24.5119 C   0  0  0  0  0  0  0  0  0  0  0  0
    9.7202   11.5579   23.3968 C   0  0  0  0  0  0  0  0  0  0  0  0
   10.8505   14.3597   22.9984 C   0  0  0  0  0  0  0  0  0  0  0  0
   10.8667   15.6682   22.2802 C   0  0  0  0  0  0  0  0  0  0  0  0
    9.6662    7.9930   23.0289 C   0  0  0  0  0  0  0  0  0  0  0  0
   12.2461   11.6539   23.4518 C   0  0  0  0  0  0  0  0  0  0  0  0
   10.3536    9.1523   23.7298 C   0  0  0  0  0  0  0  0  0  0  0  0
   10.9504   11.8993   22.6535 C   0  0  2  0  0  0  0  0  0  0  0  0
    8.7401   12.3841   23.6860 N   0  0  0  0  0  0  0  0  0  0  0  0
    9.4841   10.2982   23.8729 N   0  0  0  0  0  0  0  0  0  0  0  0
   10.9457   13.2727   22.1624 N   0  0  0  0  0  0  0  0  0  0  0  0
   10.7597   14.3423   24.2204 O   0  0  0  0  0  0  0  0  0  0  0  0
    4.8819   11.2710   26.0394 H   0  0  0  0  0  0  0  0  0  0  0  0
    5.7157    8.9582   26.2440 H   0  0  0  0  0  0  0  0  0  0  0  0
    6.2116   13.0021   24.8531 H   0  0  0  0  0  0  0  0  0  0  0  0
    7.9115    8.3034   25.2611 H   0  0  0  0  0  0  0  0  0  0  0  0
    9.8561   16.0072   22.0009 H   0  0  0  0  0  0  0  0  0  0  0  0
   11.2864   16.4803   22.8954 H   0  0  0  0  0  0  0  0  0  0  0  0
   11.4470   15.6847   21.3438 H   0  0  0  0  0  0  0  0  0  0  0  0
    8.7773    7.6684   23.5801 H   0  0  0  0  0  0  0  0  0  0  0  0
   10.3479    7.1407   22.9481 H   0  0  0  0  0  0  0  0  0  0  0  0
    9.3488    8.2736   22.0191 H   0  0  0  0  0  0  0  0  0  0  0  0
   12.2345   12.2280   24.3847 H   0  0  0  0  0  0  0  0  0  0  0  0
   12.3718   10.5954   23.7062 H   0  0  0  0  0  0  0  0  0  0  0  0
   13.1316   11.9549   22.8808 H   0  0  0  0  0  0  0  0  0  0  0  0
   11.2413    9.4699   23.1712 H   0  0  0  0  0  0  0  0  0  0  0  0
   10.6879    8.8554   24.7303 H   0  0  0  0  0  0  0  0  0  0  0  0
   11.0377   11.2890   21.7312 H   0  0  0  0  0  0  0  0  0  0  0  0
   11.0152   13.4314   21.1678 H   0  0  0  0  0  0  0  0  0  0  0  0
  1  2  2  0  0  0  0
  1  3  1  0  0  0  0
  2  4  1  0  0  0  0
  3  5  2  0  0  0  0
  4  6  2  0  0  0  0
  5  6  1  0  0  0  0
  5 14  1  0  0  0  0
  6 15  1  0  0  0  0
  7 13  1  0  0  0  0
  7 14  2  0  0  0  0
  7 15  1  0  0  0  0
  8  9  1  0  0  0  0
  8 16  1  0  0  0  0
  8 17  2  0  0  0  0
 10 12  1  0  0  0  0
 11 13  1  0  0  0  0
 12 15  1  0  0  0  0
 13 16  1  0  0  0  0
  1 18  1  0  0  0  0
  2 19  1  0  0  0  0
  3 20  1  0  0  0  0
  4 21  1  0  0  0  0
  9 22  1  0  0  0  0
  9 23  1  0  0  0  0
  9 24  1  0  0  0  0
 10 25  1  0  0  0  0
 10 26  1  0  0  0  0
 10 27  1  0  0  0  0
 11 28  1  0  0  0  0
 11 29  1  0  0  0  0
 11 30  1  0  0  0  0
 12 31  1  0  0  0  0
 12 32  1  0  0  0  0
 13 33  1  0  0  0  0
 16 34  1  0  0  0  0
M  END
> <Catalog ID>
Z57841819

> <PlateID>
1337959-R-12

> <Well>
G03

> <MW (desalted)>
231.294

> <CLogP>
1.227

> <HBD>
1

> <TPSA>
46.920

> <RotBonds>
3

> <ROCS_ShapeQuery>
A71EV2A-x0451_0A_A71EV2A-x0310_0A_A71EV2A-x0416_0A_peptide

> <ROCS_TanimotoCombo>
0.464 

> <ROCS_ShapeTanimoto>
0.320 

> <ROCS_ColorTanimoto>
0.144 

> <ROCS_RefTversky>
0.280 

> <ROCS_RefColorTversky>
0.156 

> <ROCS_RefTverskyCombo>
0.436 

> <ROCS_FitTversky>
1.789 

> <ROCS_FitColorTversky>
0.649 

> <ROCS_FitTverskyCombo>
2.437 

> <ROCS_ColorScore>
-4.738

> <ROCS_Overlap>
1944.391

> <ROCS_Rank>
31                  

$$$$
untitled-dbase-932_197
  -OEChem-11112309163D

 45 47  0     1  0  0  0  0  0999 V2000
   10.5522   13.0585   23.6081 C   0  0  0  0  0  0  0  0  0  0  0  0
    6.3191   12.5247   26.8661 C   0  0  0  0  0  0  0  0  0  0  0  0
    7.8413   12.5436   26.8007 C   0  0  0  0  0  0  0  0  0  0  0  0
    5.6961   12.3098   25.4924 C   0  0  0  0  0  0  0  0  0  0  0  0
    9.7127    9.5555   23.8467 C   0  0  0  0  0  0  0  0  0  0  0  0
    8.3967   11.2945   26.1153 C   0  0  0  0  0  0  0  0  0  0  0  0
    6.2463   11.0553   24.8156 C   0  0  0  0  0  0  0  0  0  0  0  0
    8.2252    9.6334   24.1959 C   0  0  0  0  0  0  0  0  0  0  0  0
   12.8945   13.9236   23.3641 C   0  0  0  0  0  0  0  0  0  0  0  0
   10.1116   10.6639   22.8788 C   0  0  0  0  0  0  0  0  0  0  0  0
   12.4817   14.7500   21.1557 C   0  0  0  0  0  0  0  0  0  0  0  0
    8.2702   12.0979   23.6856 C   0  0  0  0  0  0  0  0  0  0  0  0
   11.7426   13.1602   22.7136 C   0  0  2  0  0  0  0  0  0  0  0  0
   13.0903   15.1516   22.4862 C   0  0  1  0  0  0  0  0  0  0  0  0
    7.7924   11.0348   24.7093 C   0  0  0  0  0  0  0  0  0  0  0  0
   11.3272   13.9448   21.5528 N   0  0  0  0  0  0  0  0  0  0  0  0
    9.7026   11.9728   23.3968 N   0  0  0  0  0  0  0  0  0  0  0  0
   10.3770   13.9161   24.4775 O   0  0  0  0  0  0  0  0  0  0  0  0
   12.3795   16.2514   23.0440 O   0  0  0  0  0  0  0  0  0  0  0  0
    5.9948   11.7232   27.5414 H   0  0  0  0  0  0  0  0  0  0  0  0
    5.9560   13.4661   27.2935 H   0  0  0  0  0  0  0  0  0  0  0  0
    8.1773   13.4436   26.2736 H   0  0  0  0  0  0  0  0  0  0  0  0
    8.2475   12.6104   27.8168 H   0  0  0  0  0  0  0  0  0  0  0  0
    4.6086   12.2192   25.5966 H   0  0  0  0  0  0  0  0  0  0  0  0
    5.8760   13.1883   24.8623 H   0  0  0  0  0  0  0  0  0  0  0  0
   10.3199    9.6194   24.7570 H   0  0  0  0  0  0  0  0  0  0  0  0
    9.9274    8.5807   23.3939 H   0  0  0  0  0  0  0  0  0  0  0  0
    9.4882   11.3802   26.0669 H   0  0  0  0  0  0  0  0  0  0  0  0
    8.1876   10.4307   26.7608 H   0  0  0  0  0  0  0  0  0  0  0  0
    5.9110   10.1803   25.3889 H   0  0  0  0  0  0  0  0  0  0  0  0
    5.7965   10.9598   23.8193 H   0  0  0  0  0  0  0  0  0  0  0  0
    7.6469    9.3822   23.2964 H   0  0  0  0  0  0  0  0  0  0  0  0
    7.9881    8.8626   24.9396 H   0  0  0  0  0  0  0  0  0  0  0  0
   12.7114   14.1878   24.4113 H   0  0  0  0  0  0  0  0  0  0  0  0
   13.7937   13.2971   23.3163 H   0  0  0  0  0  0  0  0  0  0  0  0
   11.1853   10.6120   22.6908 H   0  0  0  0  0  0  0  0  0  0  0  0
    9.6088   10.5268   21.9140 H   0  0  0  0  0  0  0  0  0  0  0  0
   12.1700   15.6050   20.5486 H   0  0  0  0  0  0  0  0  0  0  0  0
   13.1757   14.1325   20.5744 H   0  0  0  0  0  0  0  0  0  0  0  0
    7.7471   11.9654   22.7296 H   0  0  0  0  0  0  0  0  0  0  0  0
    8.0413   13.1124   24.0231 H   0  0  0  0  0  0  0  0  0  0  0  0
   12.0365   12.1587   22.4206 H   0  0  0  0  0  0  0  0  0  0  0  0
   14.1446   15.4321   22.4030 H   0  0  0  0  0  0  0  0  0  0  0  0
   10.5792   14.5884   21.8207 H   0  0  0  0  0  0  0  0  0  0  0  0
   11.4448   15.9927   23.0729 H   0  0  0  0  0  0  0  0  0  0  0  0
  1 13  1  0  0  0  0
  1 17  1  0  0  0  0
  1 18  2  0  0  0  0
  2  3  1  0  0  0  0
  2  4  1  0  0  0  0
  3  6  1  0  0  0  0
  4  7  1  0  0  0  0
  5  8  1  0  0  0  0
  5 10  1  0  0  0  0
  6 15  1  0  0  0  0
  7 15  1  0  0  0  0
  8 15  1  0  0  0  0
  9 13  1  0  0  0  0
  9 14  1  0  0  0  0
 10 17  1  0  0  0  0
 11 14  1  0  0  0  0
 11 16  1  0  0  0  0
 12 15  1  0  0  0  0
 12 17  1  0  0  0  0
 13 16  1  0  0  0  0
 14 19  1  0  0  0  0
  2 20  1  0  0  0  0
  2 21  1  0  0  0  0
  3 22  1  0  0  0  0
  3 23  1  0  0  0  0
  4 24  1  0  0  0  0
  4 25  1  0  0  0  0
  5 26  1  0  0  0  0
  5 27  1  0  0  0  0
  6 28  1  0  0  0  0
  6 29  1  0  0  0  0
  7 30  1  0  0  0  0
  7 31  1  0  0  0  0
  8 32  1  0  0  0  0
  8 33  1  0  0  0  0
  9 34  1  0  0  0  0
  9 35  1  0  0  0  0
 10 36  1  0  0  0  0
 10 37  1  0  0  0  0
 11 38  1  0  0  0  0
 11 39  1  0  0  0  0
 12 40  1  0  0  0  0
 12 41  1  0  0  0  0
 13 42  1  0  0  0  0
 14 43  1  0  0  0  0
 16 44  1  0  0  0  0
 19 45  1  0  0  0  0
M  END
> <Catalog ID>
Z2242893821

> <PlateID>
1337959-R-12

> <Well>
F06

> <MW (desalted)>
266.379

> <CLogP>
1.441

> <HBD>
2

> <TPSA>
52.570

> <RotBonds>
1

> <ROCS_ShapeQuery>
A71EV2A-x0451_0A_A71EV2A-x0310_0A_A71EV2A-x0416_0A_peptide

> <ROCS_TanimotoCombo>
0.463 

> <ROCS_ShapeTanimoto>
0.318 

> <ROCS_ColorTanimoto>
0.145 

> <ROCS_RefTversky>
0.282 

> <ROCS_RefColorTversky>
0.164 

> <ROCS_RefTverskyCombo>
0.446 

> <ROCS_FitTversky>
1.697 

> <ROCS_FitColorTversky>
0.546 

> <ROCS_FitTverskyCombo>
2.243 

> <ROCS_ColorScore>
-5.019

> <ROCS_Overlap>
1953.022

> <ROCS_Rank>
32                  

$$$$
untitled-dbase-931_350
  -OEChem-11112309163D

 41 42  0     0  0  0  0  0  0999 V2000
   11.5347   15.8279   22.2094 C   0  0  0  0  0  0  0  0  0  0  0  0
   10.6221   13.1768   23.8047 C   0  0  0  0  0  0  0  0  0  0  0  0
   11.0357   16.9266   21.2935 C   0  0  0  0  0  0  0  0  0  0  0  0
    7.8499   11.2005   24.9078 C   0  0  0  0  0  0  0  0  0  0  0  0
    7.9031    9.9828   23.9839 C   0  0  0  0  0  0  0  0  0  0  0  0
    8.2838   12.4715   24.1857 C   0  0  0  0  0  0  0  0  0  0  0  0
    9.7730   15.3732   20.0002 C   0  0  0  0  0  0  0  0  0  0  0  0
   10.0666   14.2324   20.9559 C   0  0  0  0  0  0  0  0  0  0  0  0
    9.6456   11.1664   22.5878 C   0  0  0  0  0  0  0  0  0  0  0  0
    9.2636    9.8307   23.2642 C   0  0  0  0  0  0  0  0  0  0  0  0
   10.3610    9.4081   24.2598 C   0  0  0  0  0  0  0  0  0  0  0  0
    9.1421    8.7372   22.1882 C   0  0  0  0  0  0  0  0  0  0  0  0
   11.6211   13.4079   22.6990 C   0  0  0  0  0  0  0  0  0  0  0  0
    9.7219   16.6254   20.7413 N   0  0  0  0  0  0  0  0  0  0  0  0
   11.1320   14.5292   21.9094 N   0  0  0  0  0  0  0  0  0  0  0  0
    9.5796   12.2911   23.5313 N   0  0  0  0  0  0  0  0  0  0  0  0
   12.3248   16.1142   23.1133 O   0  0  0  0  0  0  0  0  0  0  0  0
   10.7677   13.7639   24.8799 O   0  0  0  0  0  0  0  0  0  0  0  0
   11.0288   17.8723   21.8506 H   0  0  0  0  0  0  0  0  0  0  0  0
   11.7483   17.0286   20.4661 H   0  0  0  0  0  0  0  0  0  0  0  0
    6.8358   11.3287   25.3038 H   0  0  0  0  0  0  0  0  0  0  0  0
    8.5028   11.0298   25.7715 H   0  0  0  0  0  0  0  0  0  0  0  0
    7.7091    9.0865   24.5883 H   0  0  0  0  0  0  0  0  0  0  0  0
    7.0874   10.0451   23.2530 H   0  0  0  0  0  0  0  0  0  0  0  0
    7.5163   12.7658   23.4631 H   0  0  0  0  0  0  0  0  0  0  0  0
    8.3927   13.2967   24.8994 H   0  0  0  0  0  0  0  0  0  0  0  0
   10.5674   15.4272   19.2443 H   0  0  0  0  0  0  0  0  0  0  0  0
    8.8325   15.1994   19.4579 H   0  0  0  0  0  0  0  0  0  0  0  0
    9.1630   13.9803   21.5159 H   0  0  0  0  0  0  0  0  0  0  0  0
   10.3825   13.3478   20.3950 H   0  0  0  0  0  0  0  0  0  0  0  0
   10.6812   11.1282   22.2262 H   0  0  0  0  0  0  0  0  0  0  0  0
    9.0170   11.3358   21.7107 H   0  0  0  0  0  0  0  0  0  0  0  0
   11.3035    9.3082   23.7318 H   0  0  0  0  0  0  0  0  0  0  0  0
   10.0904    8.4578   24.7078 H   0  0  0  0  0  0  0  0  0  0  0  0
   10.4529   10.1639   25.0326 H   0  0  0  0  0  0  0  0  0  0  0  0
   10.0950    8.6288   21.6822 H   0  0  0  0  0  0  0  0  0  0  0  0
    8.3780    9.0241   21.4744 H   0  0  0  0  0  0  0  0  0  0  0  0
    8.8692    7.8008   22.6619 H   0  0  0  0  0  0  0  0  0  0  0  0
   11.6816   12.5026   22.1024 H   0  0  0  0  0  0  0  0  0  0  0  0
   12.5818   13.6342   23.1520 H   0  0  0  0  0  0  0  0  0  0  0  0
    9.0532   16.5361   21.5058 H   0  0  0  0  0  0  0  0  0  0  0  0
  1  3  1  0  0  0  0
  1 15  1  0  0  0  0
  1 17  2  0  0  0  0
  2 13  1  0  0  0  0
  2 16  1  0  0  0  0
  2 18  2  0  0  0  0
  3 14  1  0  0  0  0
  4  5  1  0  0  0  0
  4  6  1  0  0  0  0
  5 10  1  0  0  0  0
  6 16  1  0  0  0  0
  7  8  1  0  0  0  0
  7 14  1  0  0  0  0
  8 15  1  0  0  0  0
  9 10  1  0  0  0  0
  9 16  1  0  0  0  0
 10 11  1  0  0  0  0
 10 12  1  0  0  0  0
 13 15  1  0  0  0  0
  3 19  1  0  0  0  0
  3 20  1  0  0  0  0
  4 21  1  0  0  0  0
  4 22  1  0  0  0  0
  5 23  1  0  0  0  0
  5 24  1  0  0  0  0
  6 25  1  0  0  0  0
  6 26  1  0  0  0  0
  7 27  1  0  0  0  0
  7 28  1  0  0  0  0
  8 29  1  0  0  0  0
  8 30  1  0  0  0  0
  9 31  1  0  0  0  0
  9 32  1  0  0  0  0
 11 33  1  0  0  0  0
 11 34  1  0  0  0  0
 11 35  1  0  0  0  0
 12 36  1  0  0  0  0
 12 37  1  0  0  0  0
 12 38  1  0  0  0  0
 13 39  1  0  0  0  0
 13 40  1  0  0  0  0
 14 41  1  0  0  0  0
M  END
> <Catalog ID>
Z2242918885

> <PlateID>
1337959-R-12

> <Well>
F05

> <MW (desalted)>
253.341

> <CLogP>
1.782

> <HBD>
1

> <TPSA>
52.650

> <RotBonds>
2

> <ROCS_ShapeQuery>
A71EV2A-x0451_0A_A71EV2A-x0310_0A_A71EV2A-x0416_0A_peptide

> <ROCS_TanimotoCombo>
0.462 

> <ROCS_ShapeTanimoto>
0.289 

> <ROCS_ColorTanimoto>
0.173 

> <ROCS_RefTversky>
0.260 

> <ROCS_RefColorTversky>
0.187 

> <ROCS_RefTverskyCombo>
0.447 

> <ROCS_FitTversky>
1.633 

> <ROCS_FitColorTversky>
0.693 

> <ROCS_FitTverskyCombo>
2.326 

> <ROCS_ColorScore>
-5.707

> <ROCS_Overlap>
1803.388

> <ROCS_Rank>
33                  

$$$$
untitled-dbase-502_179
  -OEChem-11112309163D

 34 35  0     1  0  0  0  0  0999 V2000
    6.9218   11.9322   26.7215 C   0  0  0  0  0  0  0  0  0  0  0  0
    6.3787   12.6181   25.4686 C   0  0  0  0  0  0  0  0  0  0  0  0
    7.5946   10.6519   26.2385 C   0  0  0  0  0  0  0  0  0  0  0  0
    6.7503   11.7111   24.3001 C   0  0  0  0  0  0  0  0  0  0  0  0
    9.3546   10.7545   22.3378 C   0  0  0  0  0  0  0  0  0  0  0  0
    9.2918   11.7252   24.6802 C   0  0  0  0  0  0  0  0  0  0  0  0
    9.1144    9.5059   23.1713 C   0  0  0  0  0  0  0  0  0  0  0  0
    9.7129   11.9528   23.2225 C   0  0  1  0  0  0  0  0  0  0  0  0
    7.9790   10.9242   24.7780 C   0  0  0  0  0  0  0  0  0  0  0  0
   11.5078   14.4079   21.6838 C   0  0  0  0  0  0  0  0  0  0  0  0
   11.1392   12.2098   23.1725 N   0  0  0  0  0  0  0  0  0  0  0  0
   13.1102   13.8107   23.6652 O   0  0  0  0  0  0  0  0  0  0  0  0
   10.7492   14.5319   24.1767 O   0  0  0  0  0  0  0  0  0  0  0  0
    8.0362    9.6727   24.0884 O   0  0  0  0  0  0  0  0  0  0  0  0
   11.6956   13.8101   23.3480 S   0  0  0  0  0  0  0  0  0  0  0  0
    7.6291   12.5717   27.2585 H   0  0  0  0  0  0  0  0  0  0  0  0
    6.0988   11.7034   27.4075 H   0  0  0  0  0  0  0  0  0  0  0  0
    5.2887   12.7170   25.5434 H   0  0  0  0  0  0  0  0  0  0  0  0
    6.7912   13.6246   25.3426 H   0  0  0  0  0  0  0  0  0  0  0  0
    8.4883   10.4573   26.8489 H   0  0  0  0  0  0  0  0  0  0  0  0
    6.9191    9.7927   26.3445 H   0  0  0  0  0  0  0  0  0  0  0  0
    5.8968   11.0835   24.0136 H   0  0  0  0  0  0  0  0  0  0  0  0
    7.0060   12.3304   23.4259 H   0  0  0  0  0  0  0  0  0  0  0  0
   10.1813   10.5638   21.6351 H   0  0  0  0  0  0  0  0  0  0  0  0
    8.4702   10.9806   21.7244 H   0  0  0  0  0  0  0  0  0  0  0  0
   10.0880   11.1660   25.1930 H   0  0  0  0  0  0  0  0  0  0  0  0
    9.2040   12.6864   25.2035 H   0  0  0  0  0  0  0  0  0  0  0  0
    8.9328    8.6312   22.5343 H   0  0  0  0  0  0  0  0  0  0  0  0
   10.0122    9.2798   23.7602 H   0  0  0  0  0  0  0  0  0  0  0  0
    9.1951   12.8578   22.8348 H   0  0  0  0  0  0  0  0  0  0  0  0
   11.8361   15.4480   21.6524 H   0  0  0  0  0  0  0  0  0  0  0  0
   12.1230   13.7927   21.0255 H   0  0  0  0  0  0  0  0  0  0  0  0
   10.4554   14.3305   21.4069 H   0  0  0  0  0  0  0  0  0  0  0  0
   11.6410   11.6053   22.5142 H   0  0  0  0  0  0  0  0  0  0  0  0
  1  2  1  0  0  0  0
  1  3  1  0  0  0  0
  2  4  1  0  0  0  0
  3  9  1  0  0  0  0
  4  9  1  0  0  0  0
  5  7  1  0  0  0  0
  5  8  1  0  0  0  0
  6  8  1  0  0  0  0
  6  9  1  0  0  0  0
  7 14  1  0  0  0  0
  8 11  1  0  0  0  0
  9 14  1  0  0  0  0
 10 15  1  0  0  0  0
 11 15  1  0  0  0  0
 12 15  2  0  0  0  0
 13 15  2  0  0  0  0
  1 16  1  0  0  0  0
  1 17  1  0  0  0  0
  2 18  1  0  0  0  0
  2 19  1  0  0  0  0
  3 20  1  0  0  0  0
  3 21  1  0  0  0  0
  4 22  1  0  0  0  0
  4 23  1  0  0  0  0
  5 24  1  0  0  0  0
  5 25  1  0  0  0  0
  6 26  1  0  0  0  0
  6 27  1  0  0  0  0
  7 28  1  0  0  0  0
  7 29  1  0  0  0  0
  8 30  1  0  0  0  0
 10 31  1  0  0  0  0
 10 32  1  0  0  0  0
 10 33  1  0  0  0  0
 11 34  1  0  0  0  0
M  END
> <Catalog ID>
Z1446981563

> <PlateID>
1337959-R-07

> <Well>
C04

> <MW (desalted)>
233.328

> <CLogP>
0.196

> <HBD>
1

> <TPSA>
55.400

> <RotBonds>
1

> <ROCS_ShapeQuery>
A71EV2A-x0451_0A_A71EV2A-x0310_0A_A71EV2A-x0416_0A_peptide

> <ROCS_TanimotoCombo>
0.462 

> <ROCS_ShapeTanimoto>
0.280 

> <ROCS_ColorTanimoto>
0.182 

> <ROCS_RefTversky>
0.249 

> <ROCS_RefColorTversky>
0.191 

> <ROCS_RefTverskyCombo>
0.440 

> <ROCS_FitTversky>
1.802 

> <ROCS_FitColorTversky>
0.796 

> <ROCS_FitTverskyCombo>
2.598 

> <ROCS_ColorScore>
-5.805

> <ROCS_Overlap>
1725.356

> <ROCS_Rank>
34                  

$$$$
untitled-dbase-296_3
  -OEChem-11112309163D

 36 38  0     0  0  0  0  0  0999 V2000
   10.9704   13.4831   23.3349 C   0  0  0  0  0  0  0  0  0  0  0  0
    6.9698   10.2145   23.4836 C   0  0  0  0  0  0  0  0  0  0  0  0
    6.8801   12.0544   25.1850 C   0  0  0  0  0  0  0  0  0  0  0  0
    7.8574    9.8276   25.7967 C   0  0  0  0  0  0  0  0  0  0  0  0
    8.4597   12.2177   23.2439 C   0  0  0  0  0  0  0  0  0  0  0  0
    9.4392    9.9859   23.8568 C   0  0  0  0  0  0  0  0  0  0  0  0
    9.3494   11.8296   25.5622 C   0  0  0  0  0  0  0  0  0  0  0  0
    7.0695   11.7347   23.6929 C   0  0  0  0  0  0  0  0  0  0  0  0
    8.0517    9.4968   24.3076 C   0  0  0  0  0  0  0  0  0  0  0  0
    7.9615   11.3458   26.0175 C   0  0  0  0  0  0  0  0  0  0  0  0
    9.5671   11.5137   24.0634 C   0  0  0  0  0  0  0  0  0  0  0  0
   11.4438   15.0732   21.4773 C   0  0  0  0  0  0  0  0  0  0  0  0
   10.9487   11.9966   23.6140 C   0  0  0  0  0  0  0  0  0  0  0  0
   11.3415   13.7390   22.0230 N   0  0  0  0  0  0  0  0  0  0  0  0
   10.6905   14.3363   24.1726 O   0  0  0  0  0  0  0  0  0  0  0  0
    5.9754    9.8600   23.7818 H   0  0  0  0  0  0  0  0  0  0  0  0
    7.0876    9.9740   22.4199 H   0  0  0  0  0  0  0  0  0  0  0  0
    6.9334   13.1381   25.3458 H   0  0  0  0  0  0  0  0  0  0  0  0
    5.8841   11.7325   25.5133 H   0  0  0  0  0  0  0  0  0  0  0  0
    6.8787    9.4662   26.1357 H   0  0  0  0  0  0  0  0  0  0  0  0
    8.6141    9.3087   26.3979 H   0  0  0  0  0  0  0  0  0  0  0  0
    8.5923   12.0142   22.1735 H   0  0  0  0  0  0  0  0  0  0  0  0
    8.5293   13.3060   23.3683 H   0  0  0  0  0  0  0  0  0  0  0  0
   10.2175    9.4597   24.4246 H   0  0  0  0  0  0  0  0  0  0  0  0
    9.5941    9.7315   22.8004 H   0  0  0  0  0  0  0  0  0  0  0  0
    9.4396   12.9092   25.7395 H   0  0  0  0  0  0  0  0  0  0  0  0
   10.1254   11.3452   26.1687 H   0  0  0  0  0  0  0  0  0  0  0  0
    6.2952   12.2403   23.1051 H   0  0  0  0  0  0  0  0  0  0  0  0
    7.9745    8.4143   24.1562 H   0  0  0  0  0  0  0  0  0  0  0  0
    7.8202   11.5756   27.0795 H   0  0  0  0  0  0  0  0  0  0  0  0
   10.4750   15.3701   21.0491 H   0  0  0  0  0  0  0  0  0  0  0  0
   11.7220   15.7758   22.2766 H   0  0  0  0  0  0  0  0  0  0  0  0
   12.2126   15.0895   20.6907 H   0  0  0  0  0  0  0  0  0  0  0  0
   11.2337   11.4598   22.7071 H   0  0  0  0  0  0  0  0  0  0  0  0
   11.6749   11.7697   24.3967 H   0  0  0  0  0  0  0  0  0  0  0  0
   11.5512   12.9511   21.4170 H   0  0  0  0  0  0  0  0  0  0  0  0
  1 13  1  0  0  0  0
  1 14  1  0  0  0  0
  1 15  2  0  0  0  0
  2  8  1  0  0  0  0
  2  9  1  0  0  0  0
  3  8  1  0  0  0  0
  3 10  1  0  0  0  0
  4  9  1  0  0  0  0
  4 10  1  0  0  0  0
  5  8  1  0  0  0  0
  5 11  1  0  0  0  0
  6  9  1  0  0  0  0
  6 11  1  0  0  0  0
  7 10  1  0  0  0  0
  7 11  1  0  0  0  0
 11 13  1  0  0  0  0
 12 14  1  0  0  0  0
  2 16  1  0  0  0  0
  2 17  1  0  0  0  0
  3 18  1  0  0  0  0
  3 19  1  0  0  0  0
  4 20  1  0  0  0  0
  4 21  1  0  0  0  0
  5 22  1  0  0  0  0
  5 23  1  0  0  0  0
  6 24  1  0  0  0  0
  6 25  1  0  0  0  0
  7 26  1  0  0  0  0
  7 27  1  0  0  0  0
  8 28  1  0  0  0  0
  9 29  1  0  0  0  0
 10 30  1  0  0  0  0
 12 31  1  0  0  0  0
 12 32  1  0  0  0  0
 12 33  1  0  0  0  0
 13 34  1  0  0  0  0
 13 35  1  0  0  0  0
 14 36  1  0  0  0  0
M  END
> <Catalog ID>
Z32016516

> <PlateID>
1337959-R-04

> <Well>
F08

> <MW (desalted)>
207.312

> <CLogP>
3.240

> <HBD>
1

> <TPSA>
29.100

> <RotBonds>
2

> <ROCS_ShapeQuery>
A71EV2A-x0451_0A_A71EV2A-x0310_0A_A71EV2A-x0416_0A_peptide

> <ROCS_TanimotoCombo>
0.462 

> <ROCS_ShapeTanimoto>
0.273 

> <ROCS_ColorTanimoto>
0.189 

> <ROCS_RefTversky>
0.245 

> <ROCS_RefColorTversky>
0.209 

> <ROCS_RefTverskyCombo>
0.454 

> <ROCS_FitTversky>
1.710 

> <ROCS_FitColorTversky>
0.662 

> <ROCS_FitTverskyCombo>
2.373 

> <ROCS_ColorScore>
-6.376

> <ROCS_Overlap>
1700.067

> <ROCS_Rank>
35                  

$$$$
untitled-dbase-177_5
  -OEChem-11112309163D

 32 34  0     0  0  0  0  0  0999 V2000
   10.5245   13.2134   23.3473 C   0  0  0  0  0  0  0  0  0  0  0  0
    7.1433   10.5998   25.2240 C   0  0  0  0  0  0  0  0  0  0  0  0
    9.2357   11.8782   25.7268 C   0  0  0  0  0  0  0  0  0  0  0  0
    7.6145   12.7396   24.0061 C   0  0  0  0  0  0  0  0  0  0  0  0
    9.3712    9.7040   24.5065 C   0  0  0  0  0  0  0  0  0  0  0  0
    7.7370   10.5671   22.7933 C   0  0  0  0  0  0  0  0  0  0  0  0
    7.7487   12.0070   25.3535 C   0  0  0  0  0  0  0  0  0  0  0  0
    7.8825    9.8144   24.1282 C   0  0  0  0  0  0  0  0  0  0  0  0
   10.0014   11.1121   24.6227 C   0  0  0  0  0  0  0  0  0  0  0  0
    8.3773   11.9721   22.8988 C   0  0  0  0  0  0  0  0  0  0  0  0
    9.8791   11.8499   23.2668 C   0  0  0  0  0  0  0  0  0  0  0  0
   11.0436   13.6526   22.1523 N   0  0  0  0  0  0  0  0  0  0  0  0
   10.6525   11.1887   22.2104 N   0  0  0  0  0  0  0  0  0  0  0  0
   10.5561   13.8601   24.3914 O   0  0  0  0  0  0  0  0  0  0  0  0
    7.2160   10.0691   26.1812 H   0  0  0  0  0  0  0  0  0  0  0  0
    6.0761   10.6707   24.9807 H   0  0  0  0  0  0  0  0  0  0  0  0
    9.6705   12.8731   25.8772 H   0  0  0  0  0  0  0  0  0  0  0  0
    9.3358   11.3495   26.6832 H   0  0  0  0  0  0  0  0  0  0  0  0
    6.5549   12.8281   23.7340 H   0  0  0  0  0  0  0  0  0  0  0  0
    7.9965   13.7629   24.0977 H   0  0  0  0  0  0  0  0  0  0  0  0
    9.4672    9.1802   25.4665 H   0  0  0  0  0  0  0  0  0  0  0  0
    9.9046    9.0880   23.7746 H   0  0  0  0  0  0  0  0  0  0  0  0
    8.1958    9.9895   21.9830 H   0  0  0  0  0  0  0  0  0  0  0  0
    6.6746   10.6629   22.5350 H   0  0  0  0  0  0  0  0  0  0  0  0
    7.2184   12.5657   26.1330 H   0  0  0  0  0  0  0  0  0  0  0  0
    7.4480    8.8125   24.0378 H   0  0  0  0  0  0  0  0  0  0  0  0
   11.0531   11.0187   24.9213 H   0  0  0  0  0  0  0  0  0  0  0  0
    8.2503   12.5052   21.9481 H   0  0  0  0  0  0  0  0  0  0  0  0
   10.9599   13.0555   21.3362 H   0  0  0  0  0  0  0  0  0  0  0  0
   11.5070   14.5500   22.0537 H   0  0  0  0  0  0  0  0  0  0  0  0
   11.0739   10.3820   22.6013 H   0  0  0  0  0  0  0  0  0  0  0  0
   10.0262   10.9452   21.4826 H   0  0  0  0  0  0  0  0  0  0  0  0
  1 11  1  0  0  0  0
  1 12  1  0  0  0  0
  1 14  2  0  0  0  0
  2  7  1  0  0  0  0
  2  8  1  0  0  0  0
  3  7  1  0  0  0  0
  3  9  1  0  0  0  0
  4  7  1  0  0  0  0
  4 10  1  0  0  0  0
  5  8  1  0  0  0  0
  5  9  1  0  0  0  0
  6  8  1  0  0  0  0
  6 10  1  0  0  0  0
  9 11  1  0  0  0  0
 10 11  1  0  0  0  0
 11 13  1  0  0  0  0
  2 15  1  0  0  0  0
  2 16  1  0  0  0  0
  3 17  1  0  0  0  0
  3 18  1  0  0  0  0
  4 19  1  0  0  0  0
  4 20  1  0  0  0  0
  5 21  1  0  0  0  0
  5 22  1  0  0  0  0
  6 23  1  0  0  0  0
  6 24  1  0  0  0  0
  7 25  1  0  0  0  0
  8 26  1  0  0  0  0
  9 27  1  0  0  0  0
 10 28  1  0  0  0  0
 12 29  1  0  0  0  0
 12 30  1  0  0  0  0
 13 31  1  0  0  0  0
 13 32  1  0  0  0  0
M  END
> <Catalog ID>
Z2286614876

> <PlateID>
1337959-R-03

> <Well>
B09

> <MW (desalted)>
194.273

> <CLogP>
0.688

> <HBD>
2

> <TPSA>
69.110

> <RotBonds>
1

> <ROCS_ShapeQuery>
A71EV2A-x0451_0A_A71EV2A-x0310_0A_A71EV2A-x0416_0A_peptide

> <ROCS_TanimotoCombo>
0.462 

> <ROCS_ShapeTanimoto>
0.258 

> <ROCS_ColorTanimoto>
0.204 

> <ROCS_RefTversky>
0.234 

> <ROCS_RefColorTversky>
0.233 

> <ROCS_RefTverskyCombo>
0.467 

> <ROCS_FitTversky>
1.674 

> <ROCS_FitColorTversky>
0.620 

> <ROCS_FitTverskyCombo>
2.294 

> <ROCS_ColorScore>
-7.139

> <ROCS_Overlap>
1618.082

> <ROCS_Rank>
36                  

$$$$
untitled-dbase-311_349
  -OEChem-11112309163D

 40 41  0     1  0  0  0  0  0999 V2000
    7.5181   10.4818   25.4786 C   0  0  0  0  0  0  0  0  0  0  0  0
   10.4809   13.3805   23.6089 C   0  0  0  0  0  0  0  0  0  0  0  0
    9.6313    9.6534   23.3725 C   0  0  0  0  0  0  0  0  0  0  0  0
    8.1400    9.7878   23.1341 C   0  0  0  0  0  0  0  0  0  0  0  0
   10.3403   10.9525   23.0423 C   0  0  0  0  0  0  0  0  0  0  0  0
    8.0804   12.7747   25.4035 C   0  0  0  0  0  0  0  0  0  0  0  0
    7.5664   10.8827   24.0123 C   0  0  2  0  0  0  0  0  0  0  0  0
    8.3406   12.2164   23.9967 C   0  0  2  0  0  0  0  0  0  0  0  0
   12.3604   15.1742   20.7326 C   0  0  0  0  0  0  0  0  0  0  0  0
   10.0919   15.6932   21.6569 C   0  0  0  0  0  0  0  0  0  0  0  0
    7.7828   11.7041   27.6636 C   0  0  0  0  0  0  0  0  0  0  0  0
   11.3547   13.5985   22.3966 C   0  0  0  0  0  0  0  0  0  0  0  0
   11.4548   15.0687   21.9645 C   0  0  0  0  0  0  0  0  0  0  0  0
    7.8169   11.6159   26.2192 N   0  0  0  0  0  0  0  0  0  0  0  0
    9.7819   12.1559   23.6714 N   0  0  0  0  0  0  0  0  0  0  0  0
    7.2226    9.3718   25.8971 O   0  0  0  0  0  0  0  0  0  0  0  0
   10.4225   14.2594   24.4730 O   0  0  0  0  0  0  0  0  0  0  0  0
   12.0564   15.8351   23.0114 O   0  0  0  0  0  0  0  0  0  0  0  0
    9.8125    9.3907   24.4196 H   0  0  0  0  0  0  0  0  0  0  0  0
   10.0375    8.8405   22.7607 H   0  0  0  0  0  0  0  0  0  0  0  0
    7.9498   10.0173   22.0794 H   0  0  0  0  0  0  0  0  0  0  0  0
    7.6498    8.8260   23.3302 H   0  0  0  0  0  0  0  0  0  0  0  0
   11.4037   10.8992   23.3539 H   0  0  0  0  0  0  0  0  0  0  0  0
   10.3663   11.0650   21.9425 H   0  0  0  0  0  0  0  0  0  0  0  0
    8.9555   13.2963   25.8245 H   0  0  0  0  0  0  0  0  0  0  0  0
    7.2166   13.4588   25.4174 H   0  0  0  0  0  0  0  0  0  0  0  0
    6.5032   11.0977   23.6758 H   0  0  0  0  0  0  0  0  0  0  0  0
    7.8530   12.8851   23.2856 H   0  0  0  0  0  0  0  0  0  0  0  0
   13.3434   14.7320   20.9316 H   0  0  0  0  0  0  0  0  0  0  0  0
   11.9380   14.6182   19.8874 H   0  0  0  0  0  0  0  0  0  0  0  0
   12.5031   16.2154   20.4251 H   0  0  0  0  0  0  0  0  0  0  0  0
    9.4187   15.6345   22.5183 H   0  0  0  0  0  0  0  0  0  0  0  0
   10.1894   16.7427   21.3587 H   0  0  0  0  0  0  0  0  0  0  0  0
    9.6148   15.1843   20.8111 H   0  0  0  0  0  0  0  0  0  0  0  0
    8.7691   11.4375   28.0711 H   0  0  0  0  0  0  0  0  0  0  0  0
    7.5284   12.7318   27.9622 H   0  0  0  0  0  0  0  0  0  0  0  0
    7.0246   11.0101   28.0554 H   0  0  0  0  0  0  0  0  0  0  0  0
   12.3435   13.2079   22.6507 H   0  0  0  0  0  0  0  0  0  0  0  0
   10.9563   12.9838   21.5863 H   0  0  0  0  0  0  0  0  0  0  0  0
   11.4699   15.7550   23.7777 H   0  0  0  0  0  0  0  0  0  0  0  0
  1  7  1  6  0  0  0
  1 14  1  0  0  0  0
  1 16  2  0  0  0  0
  2 12  1  0  0  0  0
  2 15  1  0  0  0  0
  2 17  2  0  0  0  0
  3  4  1  0  0  0  0
  3  5  1  0  0  0  0
  4  7  1  0  0  0  0
  5 15  1  0  0  0  0
  6  8  1  6  0  0  0
  6 14  1  0  0  0  0
  7  8  1  0  0  0  0
  8 15  1  0  0  0  0
  9 13  1  0  0  0  0
 10 13  1  0  0  0  0
 11 14  1  0  0  0  0
 12 13  1  0  0  0  0
 13 18  1  0  0  0  0
  3 19  1  0  0  0  0
  3 20  1  0  0  0  0
  4 21  1  0  0  0  0
  4 22  1  0  0  0  0
  5 23  1  0  0  0  0
  5 24  1  0  0  0  0
  6 25  1  0  0  0  0
  6 26  1  0  0  0  0
  7 27  1  0  0  0  0
  8 28  1  0  0  0  0
  9 29  1  0  0  0  0
  9 30  1  0  0  0  0
  9 31  1  0  0  0  0
 10 32  1  0  0  0  0
 10 33  1  0  0  0  0
 10 34  1  0  0  0  0
 11 35  1  0  0  0  0
 11 36  1  0  0  0  0
 11 37  1  0  0  0  0
 12 38  1  0  0  0  0
 12 39  1  0  0  0  0
 18 40  1  0  0  0  0
M  END
> <Catalog ID>
Z4772960027

> <PlateID>
1337959-R-04

> <Well>
H03

> <MW (desalted)>
254.325

> <CLogP>
0.212

> <HBD>
1

> <TPSA>
60.850

> <RotBonds>
2

> <ROCS_ShapeQuery>
A71EV2A-x0451_0A_A71EV2A-x0310_0A_A71EV2A-x0416_0A_peptide

> <ROCS_TanimotoCombo>
0.462 

> <ROCS_ShapeTanimoto>
0.313 

> <ROCS_ColorTanimoto>
0.149 

> <ROCS_RefTversky>
0.276 

> <ROCS_RefColorTversky>
0.165 

> <ROCS_RefTverskyCombo>
0.441 

> <ROCS_FitTversky>
1.723 

> <ROCS_FitColorTversky>
0.607 

> <ROCS_FitTverskyCombo>
2.331 

> <ROCS_ColorScore>
-5.021

> <ROCS_Overlap>
1916.826

> <ROCS_Rank>
37                  

$$$$
untitled-dbase-808_4
  -OEChem-11112309163D

 28 30  0     0  0  0  0  0  0999 V2000
   11.0595    8.5723   22.5564 C   0  0  0  0  0  0  0  0  0  0  0  0
   11.0643    9.9478   22.8914 C   0  0  0  0  0  0  0  0  0  0  0  0
    9.9528    7.7500   22.8342 C   0  0  0  0  0  0  0  0  0  0  0  0
    7.4932   11.3198   24.7740 C   0  0  0  0  0  0  0  0  0  0  0  0
    8.5280   12.2462   24.5527 C   0  0  0  0  0  0  0  0  0  0  0  0
    9.9434   10.5316   23.5200 C   0  0  0  0  0  0  0  0  0  0  0  0
    8.8839    9.6672   23.7671 C   0  0  0  0  0  0  0  0  0  0  0  0
    8.8668    8.3353   23.4481 C   0  0  0  0  0  0  0  0  0  0  0  0
    7.7073   10.0228   24.3637 C   0  0  0  0  0  0  0  0  0  0  0  0
    9.7430   11.8661   23.9336 C   0  0  0  0  0  0  0  0  0  0  0  0
    7.5580    7.8015   23.8839 C   0  0  0  0  0  0  0  0  0  0  0  0
   11.2520   14.6143   21.4246 C   0  0  0  0  0  0  0  0  0  0  0  0
    6.8886    8.8945   24.4417 N   0  0  0  0  0  0  0  0  0  0  0  0
   10.9645   13.2942   22.0038 N   0  0  0  0  0  0  0  0  0  0  0  0
    7.1925    6.6490   23.7590 O   0  0  0  0  0  0  0  0  0  0  0  0
   10.5322   14.3224   24.3260 O   0  0  0  0  0  0  0  0  0  0  0  0
   12.2517   12.5026   24.0893 O   0  0  0  0  0  0  0  0  0  0  0  0
   10.9766   13.0859   23.6991 S   0  0  0  0  0  0  0  0  0  0  0  0
   11.9339    8.1430   22.0727 H   0  0  0  0  0  0  0  0  0  0  0  0
   11.9443   10.5400   22.6555 H   0  0  0  0  0  0  0  0  0  0  0  0
    9.9636    6.6986   22.5718 H   0  0  0  0  0  0  0  0  0  0  0  0
    6.5681   11.6248   25.2496 H   0  0  0  0  0  0  0  0  0  0  0  0
    8.3815   13.2770   24.8692 H   0  0  0  0  0  0  0  0  0  0  0  0
   11.8783   15.1920   22.1204 H   0  0  0  0  0  0  0  0  0  0  0  0
   11.7847   14.4879   20.4706 H   0  0  0  0  0  0  0  0  0  0  0  0
   10.3080   15.1511   21.2492 H   0  0  0  0  0  0  0  0  0  0  0  0
    5.9575    8.8716   24.8392 H   0  0  0  0  0  0  0  0  0  0  0  0
   10.3827   12.6688   21.4330 H   0  0  0  0  0  0  0  0  0  0  0  0
  1  2  2  0  0  0  0
  1  3  1  0  0  0  0
  2  6  1  0  0  0  0
  3  8  2  0  0  0  0
  4  5  1  0  0  0  0
  4  9  2  0  0  0  0
  5 10  2  0  0  0  0
  6  7  2  0  0  0  0
  6 10  1  0  0  0  0
  7  8  1  0  0  0  0
  7  9  1  0  0  0  0
  8 11  1  0  0  0  0
  9 13  1  0  0  0  0
 10 18  1  0  0  0  0
 11 13  1  0  0  0  0
 11 15  2  0  0  0  0
 12 14  1  0  0  0  0
 14 18  1  0  0  0  0
 16 18  2  0  0  0  0
 17 18  2  0  0  0  0
  1 19  1  0  0  0  0
  2 20  1  0  0  0  0
  3 21  1  0  0  0  0
  4 22  1  0  0  0  0
  5 23  1  0  0  0  0
 12 24  1  0  0  0  0
 12 25  1  0  0  0  0
 12 26  1  0  0  0  0
 13 27  1  0  0  0  0
 14 28  1  0  0  0  0
M  END
> <Catalog ID>
Z56826073

> <PlateID>
1337959-R-11

> <Well>
A11

> <MW (desalted)>
262.284

> <CLogP>
1.182

> <HBD>
2

> <TPSA>
75.270

> <RotBonds>
1

> <ROCS_ShapeQuery>
A71EV2A-x0451_0A_A71EV2A-x0310_0A_A71EV2A-x0416_0A_peptide

> <ROCS_TanimotoCombo>
0.461 

> <ROCS_ShapeTanimoto>
0.309 

> <ROCS_ColorTanimoto>
0.152 

> <ROCS_RefTversky>
0.275 

> <ROCS_RefColorTversky>
0.172 

> <ROCS_RefTverskyCombo>
0.447 

> <ROCS_FitTversky>
1.668 

> <ROCS_FitColorTversky>
0.567 

> <ROCS_FitTverskyCombo>
2.236 

> <ROCS_ColorScore>
-5.239

> <ROCS_Overlap>
1908.982

> <ROCS_Rank>
38                  

$$$$
untitled-dbase-529_120
  -OEChem-11112309163D

 35 36  0     1  0  0  0  0  0999 V2000
    7.5368   10.0383   24.3242 C   0  0  0  0  0  0  0  0  0  0  0  0
    8.6520    9.6356   23.5895 C   0  0  0  0  0  0  0  0  0  0  0  0
    8.4905   12.2452   24.5624 C   0  0  0  0  0  0  0  0  0  0  0  0
    7.4560   11.3431   24.8106 C   0  0  0  0  0  0  0  0  0  0  0  0
    9.6865   10.5377   23.3413 C   0  0  0  0  0  0  0  0  0  0  0  0
    9.6058   11.8426   23.8277 C   0  0  0  0  0  0  0  0  0  0  0  0
    9.8824   14.5304   19.8780 C   0  0  0  0  0  0  0  0  0  0  0  0
   10.1877   16.0015   19.6315 C   0  0  0  0  0  0  0  0  0  0  0  0
   10.3959   15.7140   21.9195 C   0  0  0  0  0  0  0  0  0  0  0  0
    9.9211   14.3657   21.3973 C   0  0  2  0  0  0  0  0  0  0  0  0
    6.2637   11.7733   25.5963 C   0  0  0  0  0  0  0  0  0  0  0  0
   12.0001   13.1759   20.9962 C   0  0  0  0  0  0  0  0  0  0  0  0
    9.9067   16.6495   20.9103 N   0  0  0  0  0  0  0  0  0  0  0  0
   10.7674   13.2855   21.8227 N   0  0  1  0  0  0  0  0  0  0  0  0
   10.6132   14.2029   24.2554 O   0  0  0  0  0  0  0  0  0  0  0  0
   12.1670   12.2952   23.7750 O   0  0  0  0  0  0  0  0  0  0  0  0
   10.7543   10.1390   22.6359 F   0  0  0  0  0  0  0  0  0  0  0  0
   10.9188   12.9902   23.5190 S   0  0  0  0  0  0  0  0  0  0  0  0
    6.7357    9.3284   24.5128 H   0  0  0  0  0  0  0  0  0  0  0  0
    8.7148    8.6195   23.2113 H   0  0  0  0  0  0  0  0  0  0  0  0
    8.4265   13.2616   24.9434 H   0  0  0  0  0  0  0  0  0  0  0  0
    8.8780   14.2863   19.5116 H   0  0  0  0  0  0  0  0  0  0  0  0
   10.5941   13.8859   19.3507 H   0  0  0  0  0  0  0  0  0  0  0  0
   11.2437   16.1311   19.3660 H   0  0  0  0  0  0  0  0  0  0  0  0
    9.5774   16.4182   18.8251 H   0  0  0  0  0  0  0  0  0  0  0  0
    9.9784   15.9371   22.9061 H   0  0  0  0  0  0  0  0  0  0  0  0
   11.4894   15.7667   21.9928 H   0  0  0  0  0  0  0  0  0  0  0  0
    8.8755   14.1733   21.7606 H   0  0  0  0  0  0  0  0  0  0  0  0
    6.4240   11.5888   26.6657 H   0  0  0  0  0  0  0  0  0  0  0  0
    6.0576   12.8422   25.4549 H   0  0  0  0  0  0  0  0  0  0  0  0
    5.3622   11.2318   25.2811 H   0  0  0  0  0  0  0  0  0  0  0  0
   12.6127   12.3377   21.3598 H   0  0  0  0  0  0  0  0  0  0  0  0
   11.7231   12.9991   19.9465 H   0  0  0  0  0  0  0  0  0  0  0  0
   12.5759   14.1102   21.0711 H   0  0  0  0  0  0  0  0  0  0  0  0
   10.3929   17.5418   20.9777 H   0  0  0  0  0  0  0  0  0  0  0  0
  1  2  1  0  0  0  0
  1  4  2  0  0  0  0
  2  5  2  0  0  0  0
  3  4  1  0  0  0  0
  3  6  2  0  0  0  0
  4 11  1  0  0  0  0
  5  6  1  0  0  0  0
  5 17  1  0  0  0  0
  6 18  1  0  0  0  0
  7  8  1  0  0  0  0
  7 10  1  0  0  0  0
  8 13  1  0  0  0  0
  9 10  1  0  0  0  0
  9 13  1  0  0  0  0
 10 14  1  0  0  0  0
 12 14  1  0  0  0  0
 14 18  1  0  0  0  0
 15 18  2  0  0  0  0
 16 18  2  0  0  0  0
  1 19  1  0  0  0  0
  2 20  1  0  0  0  0
  3 21  1  0  0  0  0
  7 22  1  0  0  0  0
  7 23  1  0  0  0  0
  8 24  1  0  0  0  0
  8 25  1  0  0  0  0
  9 26  1  0  0  0  0
  9 27  1  0  0  0  0
 10 28  1  0  0  0  0
 11 29  1  0  0  0  0
 11 30  1  0  0  0  0
 11 31  1  0  0  0  0
 12 32  1  0  0  0  0
 12 33  1  0  0  0  0
 12 34  1  0  0  0  0
 13 35  1  0  0  0  0
M  END
> <Catalog ID>
Z1123687529

> <PlateID>
1337959-R-07

> <Well>
E11

> <MW (desalted)>
272.339

> <CLogP>
1.920

> <HBD>
1

> <TPSA>
49.410

> <RotBonds>
2

> <ROCS_ShapeQuery>
A71EV2A-x0451_0A_A71EV2A-x0310_0A_A71EV2A-x0416_0A_peptide

> <ROCS_TanimotoCombo>
0.461 

> <ROCS_ShapeTanimoto>
0.295 

> <ROCS_ColorTanimoto>
0.166 

> <ROCS_RefTversky>
0.264 

> <ROCS_RefColorTversky>
0.176 

> <ROCS_RefTverskyCombo>
0.440 

> <ROCS_FitTversky>
1.666 

> <ROCS_FitColorTversky>
0.735 

> <ROCS_FitTverskyCombo>
2.401 

> <ROCS_ColorScore>
-5.358

> <ROCS_Overlap>
1829.950

> <ROCS_Rank>
39                  

$$$$
untitled-dbase-705_81
  -OEChem-11112309163D

 35 36  0     1  0  0  0  0  0999 V2000
    7.3357   11.4372   24.0976 C   0  0  0  0  0  0  0  0  0  0  0  0
    8.3538   12.3781   23.9436 C   0  0  0  0  0  0  0  0  0  0  0  0
    9.9977   10.6084   23.9983 C   0  0  0  0  0  0  0  0  0  0  0  0
    7.6486   10.0818   24.2020 C   0  0  0  0  0  0  0  0  0  0  0  0
    9.6848   11.9637   23.8940 C   0  0  0  0  0  0  0  0  0  0  0  0
    8.9796    9.6674   24.1523 C   0  0  0  0  0  0  0  0  0  0  0  0
    9.9130   15.1868   18.9709 C   0  0  0  0  0  0  0  0  0  0  0  0
   10.6084   14.0803   19.7584 C   0  0  0  0  0  0  0  0  0  0  0  0
   10.2372   16.5640   19.5468 C   0  0  0  0  0  0  0  0  0  0  0  0
   10.6255   15.6350   21.7464 C   0  0  0  0  0  0  0  0  0  0  0  0
   10.3093   14.2231   21.2499 C   0  0  2  0  0  0  0  0  0  0  0  0
    6.5291    9.1053   24.3678 C   0  0  0  0  0  0  0  0  0  0  0  0
    9.9029   16.6436   20.9695 N   0  0  0  0  0  0  0  0  0  0  0  0
   11.1216   13.2437   22.0114 N   0  0  0  0  0  0  0  0  0  0  0  0
   10.4890   14.4263   24.2086 O   0  0  0  0  0  0  0  0  0  0  0  0
   12.1821   12.5671   24.2442 O   0  0  0  0  0  0  0  0  0  0  0  0
   10.9741   13.1574   23.7002 S   0  0  0  0  0  0  0  0  0  0  0  0
    9.4042    7.9993   24.2795 Cl  0  0  0  0  0  0  0  0  0  0  0  0
    6.3023   11.7712   24.1370 H   0  0  0  0  0  0  0  0  0  0  0  0
    8.0985   13.4314   23.8650 H   0  0  0  0  0  0  0  0  0  0  0  0
   11.0373   10.2904   23.9612 H   0  0  0  0  0  0  0  0  0  0  0  0
   10.2200   15.1423   17.9200 H   0  0  0  0  0  0  0  0  0  0  0  0
    8.8280   15.0243   18.9944 H   0  0  0  0  0  0  0  0  0  0  0  0
   10.2810   13.0990   19.3949 H   0  0  0  0  0  0  0  0  0  0  0  0
   11.6909   14.1333   19.5830 H   0  0  0  0  0  0  0  0  0  0  0  0
   11.2982   16.7979   19.3959 H   0  0  0  0  0  0  0  0  0  0  0  0
    9.6618   17.3230   19.0056 H   0  0  0  0  0  0  0  0  0  0  0  0
   10.3343   15.7268   22.7995 H   0  0  0  0  0  0  0  0  0  0  0  0
   11.7050   15.8309   21.7045 H   0  0  0  0  0  0  0  0  0  0  0  0
    9.2494   13.9965   21.4344 H   0  0  0  0  0  0  0  0  0  0  0  0
    6.1768    8.7634   23.3882 H   0  0  0  0  0  0  0  0  0  0  0  0
    6.8489    8.2326   24.9496 H   0  0  0  0  0  0  0  0  0  0  0  0
    5.6869    9.5574   24.9053 H   0  0  0  0  0  0  0  0  0  0  0  0
   10.1412   17.5713   21.3193 H   0  0  0  0  0  0  0  0  0  0  0  0
   11.4178   12.4200   21.4856 H   0  0  0  0  0  0  0  0  0  0  0  0
  1  2  1  0  0  0  0
  1  4  2  0  0  0  0
  2  5  2  0  0  0  0
  3  5  1  0  0  0  0
  3  6  2  0  0  0  0
  4  6  1  0  0  0  0
  4 12  1  0  0  0  0
  5 17  1  0  0  0  0
  6 18  1  0  0  0  0
  7  8  1  0  0  0  0
  7  9  1  0  0  0  0
  8 11  1  0  0  0  0
  9 13  1  0  0  0  0
 10 11  1  0  0  0  0
 10 13  1  0  0  0  0
 11 14  1  0  0  0  0
 14 17  1  0  0  0  0
 15 17  2  0  0  0  0
 16 17  2  0  0  0  0
  1 19  1  0  0  0  0
  2 20  1  0  0  0  0
  3 21  1  0  0  0  0
  7 22  1  0  0  0  0
  7 23  1  0  0  0  0
  8 24  1  0  0  0  0
  8 25  1  0  0  0  0
  9 26  1  0  0  0  0
  9 27  1  0  0  0  0
 10 28  1  0  0  0  0
 10 29  1  0  0  0  0
 11 30  1  0  0  0  0
 12 31  1  0  0  0  0
 12 32  1  0  0  0  0
 12 33  1  0  0  0  0
 13 34  1  0  0  0  0
 14 35  1  0  0  0  0
M  END
> <Catalog ID>
Z2242929843

> <PlateID>
1337959-R-09

> <Well>
G08

> <MW (desalted)>
288.794

> <CLogP>
2.857

> <HBD>
2

> <TPSA>
58.200

> <RotBonds>
2

> <ROCS_ShapeQuery>
A71EV2A-x0451_0A_A71EV2A-x0310_0A_A71EV2A-x0416_0A_peptide

> <ROCS_TanimotoCombo>
0.460 

> <ROCS_ShapeTanimoto>
0.266 

> <ROCS_ColorTanimoto>
0.193 

> <ROCS_RefTversky>
0.243 

> <ROCS_RefColorTversky>
0.206 

> <ROCS_RefTverskyCombo>
0.449 

> <ROCS_FitTversky>
1.565 

> <ROCS_FitColorTversky>
0.761 

> <ROCS_FitTverskyCombo>
2.327 

> <ROCS_ColorScore>
-6.272

> <ROCS_Overlap>
1685.503

> <ROCS_Rank>
40                  

$$$$
untitled-dbase-865_418
  -OEChem-11112309163D

 37 38  0     0  0  0  0  0  0999 V2000
    9.0914   10.1357   23.4112 C   0  0  0  0  0  0  0  0  0  0  0  0
    8.3591   11.9687   24.3801 C   0  0  0  0  0  0  0  0  0  0  0  0
    9.2877   11.5285   23.4689 C   0  0  0  0  0  0  0  0  0  0  0  0
   10.8066   13.5122   23.1822 C   0  0  0  0  0  0  0  0  0  0  0  0
   12.1861   16.3580   21.4931 C   0  0  0  0  0  0  0  0  0  0  0  0
   10.9061   15.8967   20.8192 C   0  0  0  0  0  0  0  0  0  0  0  0
   12.3755   15.3606   22.6329 C   0  0  0  0  0  0  0  0  0  0  0  0
   11.0457   14.3796   20.8151 C   0  0  0  0  0  0  0  0  0  0  0  0
   11.7527   14.0557   22.1298 C   0  0  0  0  0  0  0  0  0  0  0  0
    6.2204   12.2126   26.2384 C   0  0  0  0  0  0  0  0  0  0  0  0
    6.9275    9.8826   26.9293 C   0  0  0  0  0  0  0  0  0  0  0  0
    6.6129   10.8143   25.7574 C   0  0  0  0  0  0  0  0  0  0  0  0
    8.1148    9.7187   24.2214 N   0  0  0  0  0  0  0  0  0  0  0  0
    7.6893   10.8561   24.7969 N   0  0  0  0  0  0  0  0  0  0  0  0
   12.7420   13.0220   21.9547 N   0  0  0  0  0  0  0  0  0  0  0  0
   10.2196   12.3253   22.7624 N   0  0  0  0  0  0  0  0  0  0  0  0
   10.6405   14.1047   24.2434 O   0  0  0  0  0  0  0  0  0  0  0  0
    9.6173    9.4052   22.8131 H   0  0  0  0  0  0  0  0  0  0  0  0
    8.1231   12.9542   24.7590 H   0  0  0  0  0  0  0  0  0  0  0  0
   13.0271   16.2928   20.7924 H   0  0  0  0  0  0  0  0  0  0  0  0
   12.1210   17.3891   21.8521 H   0  0  0  0  0  0  0  0  0  0  0  0
   10.0337   16.1973   21.4112 H   0  0  0  0  0  0  0  0  0  0  0  0
   10.7954   16.3062   19.8111 H   0  0  0  0  0  0  0  0  0  0  0  0
   13.4381   15.2673   22.8853 H   0  0  0  0  0  0  0  0  0  0  0  0
   11.8693   15.7320   23.5327 H   0  0  0  0  0  0  0  0  0  0  0  0
   10.0735   13.8901   20.6935 H   0  0  0  0  0  0  0  0  0  0  0  0
   11.6609   14.0927   19.9516 H   0  0  0  0  0  0  0  0  0  0  0  0
    7.0386   12.7050   26.7746 H   0  0  0  0  0  0  0  0  0  0  0  0
    5.3624   12.1590   26.9171 H   0  0  0  0  0  0  0  0  0  0  0  0
    5.9424   12.8524   25.3934 H   0  0  0  0  0  0  0  0  0  0  0  0
    7.7916   10.2464   27.4962 H   0  0  0  0  0  0  0  0  0  0  0  0
    7.1613    8.8756   26.5678 H   0  0  0  0  0  0  0  0  0  0  0  0
    6.0843    9.7998   27.6234 H   0  0  0  0  0  0  0  0  0  0  0  0
    5.7433   10.3954   25.2347 H   0  0  0  0  0  0  0  0  0  0  0  0
   12.7182   12.7244   21.0077 H   0  0  0  0  0  0  0  0  0  0  0  0
   13.6317   13.4011   22.1799 H   0  0  0  0  0  0  0  0  0  0  0  0
   10.4819   11.9771   21.8426 H   0  0  0  0  0  0  0  0  0  0  0  0
  1  3  1  0  0  0  0
  1 13  2  0  0  0  0
  2  3  2  0  0  0  0
  2 14  1  0  0  0  0
  3 16  1  0  0  0  0
  4  9  1  0  0  0  0
  4 16  1  0  0  0  0
  4 17  2  0  0  0  0
  5  6  1  0  0  0  0
  5  7  1  0  0  0  0
  6  8  1  0  0  0  0
  7  9  1  0  0  0  0
  8  9  1  0  0  0  0
  9 15  1  0  0  0  0
 10 12  1  0  0  0  0
 11 12  1  0  0  0  0
 12 14  1  0  0  0  0
 13 14  1  0  0  0  0
  1 18  1  0  0  0  0
  2 19  1  0  0  0  0
  5 20  1  0  0  0  0
  5 21  1  0  0  0  0
  6 22  1  0  0  0  0
  6 23  1  0  0  0  0
  7 24  1  0  0  0  0
  7 25  1  0  0  0  0
  8 26  1  0  0  0  0
  8 27  1  0  0  0  0
 10 28  1  0  0  0  0
 10 29  1  0  0  0  0
 10 30  1  0  0  0  0
 11 31  1  0  0  0  0
 11 32  1  0  0  0  0
 11 33  1  0  0  0  0
 12 34  1  0  0  0  0
 15 35  1  0  0  0  0
 15 36  1  0  0  0  0
 16 37  1  0  0  0  0
M  END
> <Catalog ID>
Z1450282941

> <PlateID>
1337959-R-11

> <Well>
G09

> <MW (desalted)>
236.313

> <CLogP>
0.982

> <HBD>
2

> <TPSA>
72.940

> <RotBonds>
3

> <ROCS_ShapeQuery>
A71EV2A-x0451_0A_A71EV2A-x0310_0A_A71EV2A-x0416_0A_peptide

> <ROCS_TanimotoCombo>
0.459 

> <ROCS_ShapeTanimoto>
0.303 

> <ROCS_ColorTanimoto>
0.156 

> <ROCS_RefTversky>
0.269 

> <ROCS_RefColorTversky>
0.176 

> <ROCS_RefTverskyCombo>
0.444 

> <ROCS_FitTversky>
1.728 

> <ROCS_FitColorTversky>
0.583 

> <ROCS_FitTverskyCombo>
2.311 

> <ROCS_ColorScore>
-5.357

> <ROCS_Overlap>
1864.062

> <ROCS_Rank>
41                  

$$$$
untitled-dbase-1023_185
  -OEChem-11112309163D

 39 40  0     1  0  0  0  0  0999 V2000
    9.0118   11.5325   23.2685 C   0  0  0  0  0  0  0  0  0  0  0  0
    8.0348   12.0589   24.1311 C   0  0  0  0  0  0  0  0  0  0  0  0
    9.0206   10.1950   23.5640 C   0  0  0  0  0  0  0  0  0  0  0  0
   10.5295   14.6503   22.5533 C   0  0  0  0  0  0  0  0  0  0  0  0
   12.3111   15.1822   19.9607 C   0  0  0  0  0  0  0  0  0  0  0  0
   12.0284   16.6748   19.8429 C   0  0  0  0  0  0  0  0  0  0  0  0
   11.0103   14.3927   20.0956 C   0  0  0  0  0  0  0  0  0  0  0  0
   11.1415   17.1565   20.9873 C   0  0  0  0  0  0  0  0  0  0  0  0
   10.0730   14.9644   21.1612 C   0  0  2  0  0  0  0  0  0  0  0  0
    7.5933   13.4582   24.2567 C   0  0  0  0  0  0  0  0  0  0  0  0
    9.7818    9.0444   23.0602 C   0  0  0  0  0  0  0  0  0  0  0  0
   11.6443   12.8295   23.8526 C   0  0  0  0  0  0  0  0  0  0  0  0
    9.8516   12.2598   22.2587 C   0  0  0  0  0  0  0  0  0  0  0  0
    7.4801   11.1197   24.9026 N   0  0  0  0  0  0  0  0  0  0  0  0
    9.8800   16.4134   21.0572 N   0  0  0  0  0  0  0  0  0  0  0  0
   10.6703   13.3001   22.8761 N   0  0  0  0  0  0  0  0  0  0  0  0
   10.7560   15.5769   23.3360 O   0  0  0  0  0  0  0  0  0  0  0  0
    8.1107    9.9363   24.5377 O   0  0  0  0  0  0  0  0  0  0  0  0
   12.8553   14.8397   19.0701 H   0  0  0  0  0  0  0  0  0  0  0  0
   12.9582   14.9876   20.8246 H   0  0  0  0  0  0  0  0  0  0  0  0
   12.9751   17.2286   19.8516 H   0  0  0  0  0  0  0  0  0  0  0  0
   11.5430   16.8843   18.8838 H   0  0  0  0  0  0  0  0  0  0  0  0
   10.4947   14.3650   19.1189 H   0  0  0  0  0  0  0  0  0  0  0  0
   11.2512   13.3374   20.3248 H   0  0  0  0  0  0  0  0  0  0  0  0
   11.6748   17.0380   21.9391 H   0  0  0  0  0  0  0  0  0  0  0  0
   10.9320   18.2298   20.8815 H   0  0  0  0  0  0  0  0  0  0  0  0
    9.0600   14.4701   21.0563 H   0  0  0  0  0  0  0  0  0  0  0  0
    6.7533   13.6760   23.5749 H   0  0  0  0  0  0  0  0  0  0  0  0
    7.2605   13.7003   25.2818 H   0  0  0  0  0  0  0  0  0  0  0  0
    8.4030   14.1734   24.0255 H   0  0  0  0  0  0  0  0  0  0  0  0
   10.7115    8.8903   23.6373 H   0  0  0  0  0  0  0  0  0  0  0  0
    9.2038    8.1026   23.1101 H   0  0  0  0  0  0  0  0  0  0  0  0
   10.0694    9.1621   21.9984 H   0  0  0  0  0  0  0  0  0  0  0  0
   11.1856   12.8177   24.8524 H   0  0  0  0  0  0  0  0  0  0  0  0
   11.9687   11.8128   23.5862 H   0  0  0  0  0  0  0  0  0  0  0  0
   12.5142   13.5028   23.8564 H   0  0  0  0  0  0  0  0  0  0  0  0
   10.5226   11.5648   21.7421 H   0  0  0  0  0  0  0  0  0  0  0  0
    9.2257   12.7349   21.4960 H   0  0  0  0  0  0  0  0  0  0  0  0
    9.3592   16.7416   21.8796 H   0  0  0  0  0  0  0  0  0  0  0  0
  1  2  1  0  0  0  0
  1  3  2  0  0  0  0
  1 13  1  0  0  0  0
  2 10  1  0  0  0  0
  2 14  2  0  0  0  0
  3 11  1  0  0  0  0
  3 18  1  0  0  0  0
  4  9  1  6  0  0  0
  4 16  1  0  0  0  0
  4 17  2  0  0  0  0
  5  6  1  0  0  0  0
  5  7  1  0  0  0  0
  6  8  1  0  0  0  0
  7  9  1  0  0  0  0
  8 15  1  0  0  0  0
  9 15  1  0  0  0  0
 12 16  1  0  0  0  0
 13 16  1  0  0  0  0
 14 18  1  0  0  0  0
  5 19  1  0  0  0  0
  5 20  1  0  0  0  0
  6 21  1  0  0  0  0
  6 22  1  0  0  0  0
  7 23  1  0  0  0  0
  7 24  1  0  0  0  0
  8 25  1  0  0  0  0
  8 26  1  0  0  0  0
  9 27  1  0  0  0  0
 10 28  1  0  0  0  0
 10 29  1  0  0  0  0
 10 30  1  0  0  0  0
 11 31  1  0  0  0  0
 11 32  1  0  0  0  0
 11 33  1  0  0  0  0
 12 34  1  0  0  0  0
 12 35  1  0  0  0  0
 12 36  1  0  0  0  0
 13 37  1  0  0  0  0
 13 38  1  0  0  0  0
 15 39  1  0  0  0  0
M  END
> <Catalog ID>
Z1455719873

> <PlateID>
1337959-R-13

> <Well>
G08

> <MW (desalted)>
251.325

> <CLogP>
0.518

> <HBD>
1

> <TPSA>
58.370

> <RotBonds>
3

> <ROCS_ShapeQuery>
A71EV2A-x0451_0A_A71EV2A-x0310_0A_A71EV2A-x0416_0A_peptide

> <ROCS_TanimotoCombo>
0.459 

> <ROCS_ShapeTanimoto>
0.292 

> <ROCS_ColorTanimoto>
0.167 

> <ROCS_RefTversky>
0.262 

> <ROCS_RefColorTversky>
0.177 

> <ROCS_RefTverskyCombo>
0.440 

> <ROCS_FitTversky>
1.637 

> <ROCS_FitColorTversky>
0.740 

> <ROCS_FitTverskyCombo>
2.376 

> <ROCS_ColorScore>
-5.388

> <ROCS_Overlap>
1819.977

> <ROCS_Rank>
42                  

$$$$
untitled-dbase-911_37
  -OEChem-11112309163D

 34 36  0     0  0  0  0  0  0999 V2000
    6.7739   12.0286   25.9271 C   0  0  0  0  0  0  0  0  0  0  0  0
    6.4999   10.6726   25.7599 C   0  0  0  0  0  0  0  0  0  0  0  0
    7.8339   12.6349   25.2431 C   0  0  0  0  0  0  0  0  0  0  0  0
    7.2736    9.8808   24.9066 C   0  0  0  0  0  0  0  0  0  0  0  0
   10.1064   10.9571   22.9233 C   0  0  0  0  0  0  0  0  0  0  0  0
    8.6278   11.8567   24.3774 C   0  0  0  0  0  0  0  0  0  0  0  0
    9.7507   12.1306   23.5473 C   0  0  0  0  0  0  0  0  0  0  0  0
    8.3300   10.5003   24.2294 C   0  0  0  0  0  0  0  0  0  0  0  0
   10.4457   13.4138   23.3528 C   0  0  0  0  0  0  0  0  0  0  0  0
   10.5946   13.1126   20.8327 C   0  0  0  0  0  0  0  0  0  0  0  0
   12.2033   14.5518   22.0467 C   0  0  0  0  0  0  0  0  0  0  0  0
   10.9811   14.0506   19.6965 C   0  0  0  0  0  0  0  0  0  0  0  0
   13.0837   14.1896   20.8595 C   0  0  0  0  0  0  0  0  0  0  0  0
    9.2981    8.6019   22.9017 C   0  0  0  0  0  0  0  0  0  0  0  0
    9.2435    9.9796   23.3408 N   0  0  0  0  0  0  0  0  0  0  0  0
   11.0532   13.6527   22.1183 N   0  0  0  0  0  0  0  0  0  0  0  0
   10.4450   14.1937   24.3042 O   0  0  0  0  0  0  0  0  0  0  0  0
   12.3915   14.2642   19.6111 O   0  0  0  0  0  0  0  0  0  0  0  0
    6.1581   12.6239   26.5962 H   0  0  0  0  0  0  0  0  0  0  0  0
    5.6717   10.2223   26.3011 H   0  0  0  0  0  0  0  0  0  0  0  0
    8.0346   13.6931   25.3841 H   0  0  0  0  0  0  0  0  0  0  0  0
    7.0557    8.8256   24.7802 H   0  0  0  0  0  0  0  0  0  0  0  0
   10.8980   10.7356   22.2194 H   0  0  0  0  0  0  0  0  0  0  0  0
    9.5160   12.9356   20.8222 H   0  0  0  0  0  0  0  0  0  0  0  0
   11.0968   12.1451   20.7097 H   0  0  0  0  0  0  0  0  0  0  0  0
   12.7587   14.4210   22.9825 H   0  0  0  0  0  0  0  0  0  0  0  0
   11.8847   15.5961   21.9831 H   0  0  0  0  0  0  0  0  0  0  0  0
   10.6550   13.6209   18.7335 H   0  0  0  0  0  0  0  0  0  0  0  0
   10.4688   15.0270   19.7906 H   0  0  0  0  0  0  0  0  0  0  0  0
   13.9867   14.8313   20.8176 H   0  0  0  0  0  0  0  0  0  0  0  0
   13.4508   13.1526   20.9713 H   0  0  0  0  0  0  0  0  0  0  0  0
    9.9490    8.0545   23.5884 H   0  0  0  0  0  0  0  0  0  0  0  0
    8.2905    8.1770   22.9095 H   0  0  0  0  0  0  0  0  0  0  0  0
    9.6953    8.5626   21.8835 H   0  0  0  0  0  0  0  0  0  0  0  0
  1  2  2  0  0  0  0
  1  3  1  0  0  0  0
  2  4  1  0  0  0  0
  3  6  2  0  0  0  0
  4  8  2  0  0  0  0
  5  7  2  0  0  0  0
  5 15  1  0  0  0  0
  6  7  1  0  0  0  0
  6  8  1  0  0  0  0
  7  9  1  0  0  0  0
  8 15  1  0  0  0  0
  9 16  1  0  0  0  0
  9 17  2  0  0  0  0
 10 12  1  0  0  0  0
 10 16  1  0  0  0  0
 11 13  1  0  0  0  0
 11 16  1  0  0  0  0
 12 18  1  0  0  0  0
 13 18  1  0  0  0  0
 14 15  1  0  0  0  0
  1 19  1  0  0  0  0
  2 20  1  0  0  0  0
  3 21  1  0  0  0  0
  4 22  1  0  0  0  0
  5 23  1  0  0  0  0
 10 24  1  0  0  0  0
 10 25  1  0  0  0  0
 11 26  1  0  0  0  0
 11 27  1  0  0  0  0
 12 28  1  0  0  0  0
 12 29  1  0  0  0  0
 13 30  1  0  0  0  0
 13 31  1  0  0  0  0
 14 32  1  0  0  0  0
 14 33  1  0  0  0  0
 14 34  1  0  0  0  0
M  END
> <Catalog ID>
Z100525310

> <PlateID>
1337959-R-12

> <Well>
D05

> <MW (desalted)>
244.289

> <CLogP>
1.411

> <HBD>
0

> <TPSA>
34.470

> <RotBonds>
1

> <ROCS_ShapeQuery>
A71EV2A-x0451_0A_A71EV2A-x0310_0A_A71EV2A-x0416_0A_peptide

> <ROCS_TanimotoCombo>
0.458 

> <ROCS_ShapeTanimoto>
0.329 

> <ROCS_ColorTanimoto>
0.129 

> <ROCS_RefTversky>
0.289 

> <ROCS_RefColorTversky>
0.139 

> <ROCS_RefTverskyCombo>
0.427 

> <ROCS_FitTversky>
1.744 

> <ROCS_FitColorTversky>
0.663 

> <ROCS_FitTverskyCombo>
2.407 

> <ROCS_ColorScore>
-4.209

> <ROCS_Overlap>
2001.623

> <ROCS_Rank>
43                  

$$$$
untitled-dbase-736_567
  -OEChem-11112309163D

 47 48  0     1  0  0  0  0  0999 V2000
   10.6995   12.9059   23.7855 C   0  0  0  0  0  0  0  0  0  0  0  0
    5.4437   12.8265   26.0731 C   0  0  0  0  0  0  0  0  0  0  0  0
    6.2407   13.8064   25.2233 C   0  0  0  0  0  0  0  0  0  0  0  0
    6.3250   11.8098   26.7941 C   0  0  0  0  0  0  0  0  0  0  0  0
    6.6945   13.3036   23.8560 C   0  0  0  0  0  0  0  0  0  0  0  0
    6.8131   10.6589   25.9230 C   0  0  0  0  0  0  0  0  0  0  0  0
    6.8812   11.8026   23.6540 C   0  0  0  0  0  0  0  0  0  0  0  0
   10.0824   10.5217   23.2443 C   0  0  0  0  0  0  0  0  0  0  0  0
    8.9991   11.7027   25.1294 C   0  0  0  0  0  0  0  0  0  0  0  0
    9.3105    9.3804   23.8852 C   0  0  0  0  0  0  0  0  0  0  0  0
    7.6889   11.0086   24.7025 C   0  0  0  0  0  0  0  0  0  0  0  0
   13.1771   14.6106   23.6384 C   0  0  0  0  0  0  0  0  0  0  0  0
   13.5992   12.2015   24.1479 C   0  0  0  0  0  0  0  0  0  0  0  0
   11.6778   12.8347   22.6383 C   0  0  2  0  0  0  0  0  0  0  0  0
   13.1020   13.1844   23.0820 C   0  0  0  0  0  0  0  0  0  0  0  0
    9.9582   11.7502   24.0275 N   0  0  0  0  0  0  0  0  0  0  0  0
   11.1244   13.7814   21.7104 N   0  0  0  0  0  0  0  0  0  0  0  0
   10.6005   13.9452   24.4412 O   0  0  0  0  0  0  0  0  0  0  0  0
    7.9410    9.7231   24.0735 O   0  0  0  0  0  0  0  0  0  0  0  0
    4.8462   13.3746   26.7968 H   0  0  0  0  0  0  0  0  0  0  0  0
    4.7563   12.2914   25.4222 H   0  0  0  0  0  0  0  0  0  0  0  0
    5.6563   14.7327   25.0971 H   0  0  0  0  0  0  0  0  0  0  0  0
    7.1341   14.1026   25.7971 H   0  0  0  0  0  0  0  0  0  0  0  0
    7.2160   12.3577   27.1582 H   0  0  0  0  0  0  0  0  0  0  0  0
    5.8247   11.4389   27.7101 H   0  0  0  0  0  0  0  0  0  0  0  0
    5.9192   13.6431   23.1167 H   0  0  0  0  0  0  0  0  0  0  0  0
    7.6117   13.8670   23.5223 H   0  0  0  0  0  0  0  0  0  0  0  0
    7.3303    9.9142   26.5642 H   0  0  0  0  0  0  0  0  0  0  0  0
    5.9121   10.1255   25.5526 H   0  0  0  0  0  0  0  0  0  0  0  0
    5.8844   11.3266   23.5179 H   0  0  0  0  0  0  0  0  0  0  0  0
    7.3528   11.6623   22.6575 H   0  0  0  0  0  0  0  0  0  0  0  0
   11.1556   10.2818   23.2118 H   0  0  0  0  0  0  0  0  0  0  0  0
    9.7492   10.6753   22.2091 H   0  0  0  0  0  0  0  0  0  0  0  0
    8.7942   12.6939   25.5390 H   0  0  0  0  0  0  0  0  0  0  0  0
    9.4933   11.1234   25.9203 H   0  0  0  0  0  0  0  0  0  0  0  0
    9.3951    8.4589   23.2968 H   0  0  0  0  0  0  0  0  0  0  0  0
    9.7323    9.1637   24.8734 H   0  0  0  0  0  0  0  0  0  0  0  0
   12.5160   14.7366   24.5018 H   0  0  0  0  0  0  0  0  0  0  0  0
   12.8679   15.3393   22.8812 H   0  0  0  0  0  0  0  0  0  0  0  0
   14.1966   14.8610   23.9514 H   0  0  0  0  0  0  0  0  0  0  0  0
   12.9557   12.2191   25.0342 H   0  0  0  0  0  0  0  0  0  0  0  0
   13.6222   11.1764   23.7643 H   0  0  0  0  0  0  0  0  0  0  0  0
   14.6170   12.4543   24.4643 H   0  0  0  0  0  0  0  0  0  0  0  0
   11.6144   11.8418   22.1910 H   0  0  0  0  0  0  0  0  0  0  0  0
   13.7834   13.1219   22.2228 H   0  0  0  0  0  0  0  0  0  0  0  0
   11.6440   13.7557   20.8562 H   0  0  0  0  0  0  0  0  0  0  0  0
   10.1692   13.5489   21.5259 H   0  0  0  0  0  0  0  0  0  0  0  0
  1 14  1  0  0  0  0
  1 16  1  0  0  0  0
  1 18  2  0  0  0  0
  2  3  1  0  0  0  0
  2  4  1  0  0  0  0
  3  5  1  0  0  0  0
  4  6  1  0  0  0  0
  5  7  1  0  0  0  0
  6 11  1  0  0  0  0
  7 11  1  0  0  0  0
  8 10  1  0  0  0  0
  8 16  1  0  0  0  0
  9 11  1  0  0  0  0
  9 16  1  0  0  0  0
 10 19  1  0  0  0  0
 11 19  1  0  0  0  0
 12 15  1  0  0  0  0
 13 15  1  0  0  0  0
 14 15  1  0  0  0  0
 14 17  1  6  0  0  0
  2 20  1  0  0  0  0
  2 21  1  0  0  0  0
  3 22  1  0  0  0  0
  3 23  1  0  0  0  0
  4 24  1  0  0  0  0
  4 25  1  0  0  0  0
  5 26  1  0  0  0  0
  5 27  1  0  0  0  0
  6 28  1  0  0  0  0
  6 29  1  0  0  0  0
  7 30  1  0  0  0  0
  7 31  1  0  0  0  0
  8 32  1  0  0  0  0
  8 33  1  0  0  0  0
  9 34  1  0  0  0  0
  9 35  1  0  0  0  0
 10 36  1  0  0  0  0
 10 37  1  0  0  0  0
 12 38  1  0  0  0  0
 12 39  1  0  0  0  0
 12 40  1  0  0  0  0
 13 41  1  0  0  0  0
 13 42  1  0  0  0  0
 13 43  1  0  0  0  0
 14 44  1  0  0  0  0
 15 45  1  0  0  0  0
 17 46  1  0  0  0  0
 17 47  1  0  0  0  0
M  END
> <Catalog ID>
Z1622632621

> <PlateID>
1337959-R-10

> <Well>
B09

> <MW (desalted)>
268.395

> <CLogP>
2.732

> <HBD>
1

> <TPSA>
55.560

> <RotBonds>
2

> <ROCS_ShapeQuery>
A71EV2A-x0451_0A_A71EV2A-x0310_0A_A71EV2A-x0416_0A_peptide

> <ROCS_TanimotoCombo>
0.458 

> <ROCS_ShapeTanimoto>
0.312 

> <ROCS_ColorTanimoto>
0.146 

> <ROCS_RefTversky>
0.277 

> <ROCS_RefColorTversky>
0.162 

> <ROCS_RefTverskyCombo>
0.439 

> <ROCS_FitTversky>
1.697 

> <ROCS_FitColorTversky>
0.599 

> <ROCS_FitTverskyCombo>
2.296 

> <ROCS_ColorScore>
-4.930

> <ROCS_Overlap>
1919.702

> <ROCS_Rank>
44                  

$$$$
untitled-dbase-788_80
  -OEChem-11112309163D

 32 33  0     1  0  0  0  0  0999 V2000
    7.3537   11.2599   24.7554 C   0  0  0  0  0  0  0  0  0  0  0  0
    7.6294    9.9322   24.4287 C   0  0  0  0  0  0  0  0  0  0  0  0
    8.2422   12.2688   24.3831 C   0  0  0  0  0  0  0  0  0  0  0  0
    8.7937    9.6133   23.7298 C   0  0  0  0  0  0  0  0  0  0  0  0
    9.6822   10.6221   23.3576 C   0  0  0  0  0  0  0  0  0  0  0  0
    9.4064   11.9498   23.6843 C   0  0  0  0  0  0  0  0  0  0  0  0
    9.4106   16.4482   22.2592 C   0  0  0  0  0  0  0  0  0  0  0  0
    8.7017   15.1107   22.4191 C   0  0  0  0  0  0  0  0  0  0  0  0
   10.1675   14.1728   20.6543 C   0  0  0  0  0  0  0  0  0  0  0  0
   10.7846   15.5622   20.4481 C   0  0  2  0  0  0  0  0  0  0  0  0
   12.1755   15.6996   21.0712 C   0  0  0  0  0  0  0  0  0  0  0  0
    9.8886   16.6424   20.8875 N   0  0  0  0  0  0  0  0  0  0  0  0
    9.6021   14.0050   22.0167 N   0  0  1  0  0  0  0  0  0  0  0  0
   10.6791   14.1227   24.3415 O   0  0  0  0  0  0  0  0  0  0  0  0
   11.6755   12.6111   22.5894 O   0  0  0  0  0  0  0  0  0  0  0  0
    9.0568    8.3383   23.4146 F   0  0  0  0  0  0  0  0  0  0  0  0
   10.7970   10.3037   22.6851 F   0  0  0  0  0  0  0  0  0  0  0  0
   10.5255   13.2309   23.2122 S   0  0  0  0  0  0  0  0  0  0  0  0
    6.4463   11.5078   25.2980 H   0  0  0  0  0  0  0  0  0  0  0  0
    6.9383    9.1461   24.7179 H   0  0  0  0  0  0  0  0  0  0  0  0
    8.0175   13.2994   24.6439 H   0  0  0  0  0  0  0  0  0  0  0  0
    8.7406   17.2729   22.5381 H   0  0  0  0  0  0  0  0  0  0  0  0
   10.2681   16.4881   22.9417 H   0  0  0  0  0  0  0  0  0  0  0  0
    8.3765   14.9652   23.4608 H   0  0  0  0  0  0  0  0  0  0  0  0
    7.8054   15.1035   21.7821 H   0  0  0  0  0  0  0  0  0  0  0  0
    9.3596   14.0236   19.9098 H   0  0  0  0  0  0  0  0  0  0  0  0
   10.9184   13.3763   20.4687 H   0  0  0  0  0  0  0  0  0  0  0  0
   10.9289   15.6998   19.3229 H   0  0  0  0  0  0  0  0  0  0  0  0
   12.1101   15.5781   22.1513 H   0  0  0  0  0  0  0  0  0  0  0  0
   12.5850   16.6834   20.8474 H   0  0  0  0  0  0  0  0  0  0  0  0
   12.8387   14.9368   20.6661 H   0  0  0  0  0  0  0  0  0  0  0  0
    9.0838   16.6972   20.2549 H   0  0  0  0  0  0  0  0  0  0  0  0
  1  2  2  0  0  0  0
  1  3  1  0  0  0  0
  2  4  1  0  0  0  0
  3  6  2  0  0  0  0
  4  5  2  0  0  0  0
  4 16  1  0  0  0  0
  5  6  1  0  0  0  0
  5 17  1  0  0  0  0
  6 18  1  0  0  0  0
  7  8  1  0  0  0  0
  7 12  1  0  0  0  0
  8 13  1  0  0  0  0
  9 10  1  0  0  0  0
  9 13  1  0  0  0  0
 10 11  1  0  0  0  0
 10 12  1  0  0  0  0
 13 18  1  0  0  0  0
 14 18  2  0  0  0  0
 15 18  2  0  0  0  0
  1 19  1  0  0  0  0
  2 20  1  0  0  0  0
  3 21  1  0  0  0  0
  7 22  1  0  0  0  0
  7 23  1  0  0  0  0
  8 24  1  0  0  0  0
  8 25  1  0  0  0  0
  9 26  1  0  0  0  0
  9 27  1  0  0  0  0
 10 28  1  0  0  0  0
 11 29  1  0  0  0  0
 11 30  1  0  0  0  0
 11 31  1  0  0  0  0
 12 32  1  0  0  0  0
M  END
> <Catalog ID>
Z1491312810

> <PlateID>
1337959-R-10

> <Well>
G11

> <MW (desalted)>
276.303

> <CLogP>
2.004

> <HBD>
1

> <TPSA>
49.410

> <RotBonds>
1

> <ROCS_ShapeQuery>
A71EV2A-x0451_0A_A71EV2A-x0310_0A_A71EV2A-x0416_0A_peptide

> <ROCS_TanimotoCombo>
0.458 

> <ROCS_ShapeTanimoto>
0.294 

> <ROCS_ColorTanimoto>
0.165 

> <ROCS_RefTversky>
0.263 

> <ROCS_RefColorTversky>
0.175 

> <ROCS_RefTverskyCombo>
0.438 

> <ROCS_FitTversky>
1.654 

> <ROCS_FitColorTversky>
0.731 

> <ROCS_FitTverskyCombo>
2.385 

> <ROCS_ColorScore>
-5.328

> <ROCS_Overlap>
1824.132

> <ROCS_Rank>
45                  

$$$$
untitled-dbase-806_23
  -OEChem-11112309163D

 32 33  0     0  0  0  0  0  0999 V2000
   12.1284   15.4237   22.6248 C   0  0  0  0  0  0  0  0  0  0  0  0
    7.5835    9.8869   24.8639 C   0  0  0  0  0  0  0  0  0  0  0  0
    8.4864    9.3288   23.9658 C   0  0  0  0  0  0  0  0  0  0  0  0
    7.5892   11.2639   25.0179 C   0  0  0  0  0  0  0  0  0  0  0  0
    9.3550   10.1530   23.2591 C   0  0  0  0  0  0  0  0  0  0  0  0
    9.2812   11.5181   23.4847 C   0  0  0  0  0  0  0  0  0  0  0  0
   10.7012   13.5689   23.1654 C   0  0  0  0  0  0  0  0  0  0  0  0
   13.0330   14.2821   19.6091 C   0  0  0  0  0  0  0  0  0  0  0  0
   11.6207   14.8639   19.6444 C   0  0  0  0  0  0  0  0  0  0  0  0
   13.1284   12.9717   20.3749 C   0  0  0  0  0  0  0  0  0  0  0  0
   10.7840   14.3804   20.8335 C   0  0  0  0  0  0  0  0  0  0  0  0
   12.7692   13.1481   21.8546 C   0  0  0  0  0  0  0  0  0  0  0  0
   11.6104   14.1403   22.1079 C   0  0  0  0  0  0  0  0  0  0  0  0
   12.5351   16.4316   23.0307 N   0  0  0  0  0  0  0  0  0  0  0  0
    8.4177   12.0969   24.3491 N   0  0  0  0  0  0  0  0  0  0  0  0
   10.1684   12.3510   22.7625 N   0  0  0  0  0  0  0  0  0  0  0  0
   10.5125   14.1655   24.2206 O   0  0  0  0  0  0  0  0  0  0  0  0
   10.2295    9.6291   22.3907 F   0  0  0  0  0  0  0  0  0  0  0  0
    6.8971    9.2637   25.4253 H   0  0  0  0  0  0  0  0  0  0  0  0
    8.5131    8.2536   23.8164 H   0  0  0  0  0  0  0  0  0  0  0  0
    6.9045   11.7485   25.7060 H   0  0  0  0  0  0  0  0  0  0  0  0
   13.3382   14.1253   18.5661 H   0  0  0  0  0  0  0  0  0  0  0  0
   13.7365   15.0103   20.0366 H   0  0  0  0  0  0  0  0  0  0  0  0
   11.6816   15.9663   19.6675 H   0  0  0  0  0  0  0  0  0  0  0  0
   11.1008   14.6155   18.7015 H   0  0  0  0  0  0  0  0  0  0  0  0
   12.4614   12.2286   19.9199 H   0  0  0  0  0  0  0  0  0  0  0  0
   14.1459   12.5707   20.2943 H   0  0  0  0  0  0  0  0  0  0  0  0
   10.0046   15.1323   21.0338 H   0  0  0  0  0  0  0  0  0  0  0  0
   10.2479   13.4659   20.5380 H   0  0  0  0  0  0  0  0  0  0  0  0
   12.5317   12.1601   22.2807 H   0  0  0  0  0  0  0  0  0  0  0  0
   13.6698   13.4922   22.3897 H   0  0  0  0  0  0  0  0  0  0  0  0
   10.4401   12.0060   21.8442 H   0  0  0  0  0  0  0  0  0  0  0  0
  1 13  1  0  0  0  0
  1 14  3  0  0  0  0
  2  3  1  0  0  0  0
  2  4  2  0  0  0  0
  3  5  2  0  0  0  0
  4 15  1  0  0  0  0
  5  6  1  0  0  0  0
  5 18  1  0  0  0  0
  6 15  2  0  0  0  0
  6 16  1  0  0  0  0
  7 13  1  0  0  0  0
  7 16  1  0  0  0  0
  7 17  2  0  0  0  0
  8  9  1  0  0  0  0
  8 10  1  0  0  0  0
  9 11  1  0  0  0  0
 10 12  1  0  0  0  0
 11 13  1  0  0  0  0
 12 13  1  0  0  0  0
  2 19  1  0  0  0  0
  3 20  1  0  0  0  0
  4 21  1  0  0  0  0
  8 22  1  0  0  0  0
  8 23  1  0  0  0  0
  9 24  1  0  0  0  0
  9 25  1  0  0  0  0
 10 26  1  0  0  0  0
 10 27  1  0  0  0  0
 11 28  1  0  0  0  0
 11 29  1  0  0  0  0
 12 30  1  0  0  0  0
 12 31  1  0  0  0  0
 16 32  1  0  0  0  0
M  END
> <Catalog ID>
Z1666803620

> <PlateID>
1337959-R-11

> <Well>
A09

> <MW (desalted)>
247.268

> <CLogP>
1.354

> <HBD>
1

> <TPSA>
65.780

> <RotBonds>
2

> <ROCS_ShapeQuery>
A71EV2A-x0451_0A_A71EV2A-x0310_0A_A71EV2A-x0416_0A_peptide

> <ROCS_TanimotoCombo>
0.458 

> <ROCS_ShapeTanimoto>
0.304 

> <ROCS_ColorTanimoto>
0.154 

> <ROCS_RefTversky>
0.271 

> <ROCS_RefColorTversky>
0.165 

> <ROCS_RefTverskyCombo>
0.436 

> <ROCS_FitTversky>
1.672 

> <ROCS_FitColorTversky>
0.689 

> <ROCS_FitTverskyCombo>
2.361 

> <ROCS_ColorScore>
-5.021

> <ROCS_Overlap>
1880.953

> <ROCS_Rank>
46                  

$$$$
untitled-dbase-668_2
  -OEChem-11112309163D

 30 32  0     0  0  0  0  0  0999 V2000
   10.4882   13.2191   23.2612 C   0  0  0  0  0  0  0  0  0  0  0  0
    7.5293   10.2305   25.3618 C   0  0  0  0  0  0  0  0  0  0  0  0
    9.8326   11.2104   25.5041 C   0  0  0  0  0  0  0  0  0  0  0  0
    7.8960   12.6520   24.8259 C   0  0  0  0  0  0  0  0  0  0  0  0
    9.2732    9.5922   23.6774 C   0  0  0  0  0  0  0  0  0  0  0  0
    7.3301   11.0386   22.9968 C   0  0  0  0  0  0  0  0  0  0  0  0
    9.6327   11.9943   23.1053 C   0  0  0  0  0  0  0  0  0  0  0  0
    8.3366   11.4875   25.7287 C   0  0  0  0  0  0  0  0  0  0  0  0
    7.7711    9.8620   23.8879 C   0  0  0  0  0  0  0  0  0  0  0  0
   10.0920   10.8513   24.0270 C   0  0  0  0  0  0  0  0  0  0  0  0
    8.1442   12.3012   23.3448 C   0  0  0  0  0  0  0  0  0  0  0  0
   11.1414   13.5895   22.1095 N   0  0  0  0  0  0  0  0  0  0  0  0
   10.5685   13.8282   24.3251 O   0  0  0  0  0  0  0  0  0  0  0  0
    7.8206    9.3951   26.0101 H   0  0  0  0  0  0  0  0  0  0  0  0
    6.4606   10.4086   25.5328 H   0  0  0  0  0  0  0  0  0  0  0  0
   10.4233   12.0878   25.7934 H   0  0  0  0  0  0  0  0  0  0  0  0
   10.1597   10.3862   26.1499 H   0  0  0  0  0  0  0  0  0  0  0  0
    6.8311   12.8637   24.9842 H   0  0  0  0  0  0  0  0  0  0  0  0
    8.4403   13.5638   25.0989 H   0  0  0  0  0  0  0  0  0  0  0  0
    9.5936    8.7515   24.3049 H   0  0  0  0  0  0  0  0  0  0  0  0
    9.4587    9.3008   22.6364 H   0  0  0  0  0  0  0  0  0  0  0  0
    7.4713   10.7807   21.9401 H   0  0  0  0  0  0  0  0  0  0  0  0
    6.2595   11.2330   23.1360 H   0  0  0  0  0  0  0  0  0  0  0  0
    9.7702   11.6870   22.0596 H   0  0  0  0  0  0  0  0  0  0  0  0
    8.1609   11.7457   26.7790 H   0  0  0  0  0  0  0  0  0  0  0  0
    7.1945    8.9664   23.6309 H   0  0  0  0  0  0  0  0  0  0  0  0
   11.1601   10.6483   23.8851 H   0  0  0  0  0  0  0  0  0  0  0  0
    7.8174   13.1365   22.7144 H   0  0  0  0  0  0  0  0  0  0  0  0
   11.7404   14.4082   22.1312 H   0  0  0  0  0  0  0  0  0  0  0  0
   11.0485   13.0769   21.2385 H   0  0  0  0  0  0  0  0  0  0  0  0
  1  7  1  0  0  0  0
  1 12  1  0  0  0  0
  1 13  2  0  0  0  0
  2  8  1  0  0  0  0
  2  9  1  0  0  0  0
  3  8  1  0  0  0  0
  3 10  1  0  0  0  0
  4  8  1  0  0  0  0
  4 11  1  0  0  0  0
  5  9  1  0  0  0  0
  5 10  1  0  0  0  0
  6  9  1  0  0  0  0
  6 11  1  0  0  0  0
  7 10  1  0  0  0  0
  7 11  1  0  0  0  0
  2 14  1  0  0  0  0
  2 15  1  0  0  0  0
  3 16  1  0  0  0  0
  3 17  1  0  0  0  0
  4 18  1  0  0  0  0
  4 19  1  0  0  0  0
  5 20  1  0  0  0  0
  5 21  1  0  0  0  0
  6 22  1  0  0  0  0
  6 23  1  0  0  0  0
  7 24  1  0  0  0  0
  8 25  1  0  0  0  0
  9 26  1  0  0  0  0
 10 27  1  0  0  0  0
 11 28  1  0  0  0  0
 12 29  1  0  0  0  0
 12 30  1  0  0  0  0
M  END
> <Catalog ID>
Z135897268

> <PlateID>
1337959-R-09

> <Well>
C11

> <MW (desalted)>
179.259

> <CLogP>
2.585

> <HBD>
1

> <TPSA>
43.090

> <RotBonds>
1

> <ROCS_ShapeQuery>
A71EV2A-x0451_0A_A71EV2A-x0310_0A_A71EV2A-x0416_0A_peptide

> <ROCS_TanimotoCombo>
0.458 

> <ROCS_ShapeTanimoto>
0.248 

> <ROCS_ColorTanimoto>
0.210 

> <ROCS_RefTversky>
0.225 

> <ROCS_RefColorTversky>
0.228 

> <ROCS_RefTverskyCombo>
0.453 

> <ROCS_FitTversky>
1.696 

> <ROCS_FitColorTversky>
0.723 

> <ROCS_FitTverskyCombo>
2.419 

> <ROCS_ColorScore>
-6.966

> <ROCS_Overlap>
1558.327

> <ROCS_Rank>
47                  

$$$$
untitled-dbase-898_0
  -OEChem-11112309163D

 33 35  0     0  0  0  0  0  0999 V2000
   11.0047   13.7442   23.0961 C   0  0  0  0  0  0  0  0  0  0  0  0
    6.7549   10.6343   23.5788 C   0  0  0  0  0  0  0  0  0  0  0  0
    7.6436   11.5699   25.7292 C   0  0  0  0  0  0  0  0  0  0  0  0
    8.5389    9.4027   24.8399 C   0  0  0  0  0  0  0  0  0  0  0  0
    8.1904   12.6901   23.5535 C   0  0  0  0  0  0  0  0  0  0  0  0
    9.0865   10.5206   22.6633 C   0  0  0  0  0  0  0  0  0  0  0  0
    9.9770   11.4571   24.8171 C   0  0  0  0  0  0  0  0  0  0  0  0
    7.1054   11.9278   24.3334 C   0  0  0  0  0  0  0  0  0  0  0  0
    8.0051    9.7495   23.4396 C   0  0  0  0  0  0  0  0  0  0  0  0
    8.8986   10.6898   25.6015 C   0  0  0  0  0  0  0  0  0  0  0  0
    9.4596   11.8213   23.4086 C   0  0  0  0  0  0  0  0  0  0  0  0
   12.0422   14.3066   22.1820 C   0  0  0  0  0  0  0  0  0  0  0  0
   10.4759   12.5405   22.6726 N   0  0  0  0  0  0  0  0  0  0  0  0
   10.7028   14.3541   24.1153 O   0  0  0  0  0  0  0  0  0  0  0  0
    5.9684   10.0894   24.1150 H   0  0  0  0  0  0  0  0  0  0  0  0
    6.3544   10.8759   22.5865 H   0  0  0  0  0  0  0  0  0  0  0  0
    7.8826   12.4853   26.2846 H   0  0  0  0  0  0  0  0  0  0  0  0
    6.8729   11.0411   26.3033 H   0  0  0  0  0  0  0  0  0  0  0  0
    7.7837    8.8362   25.3986 H   0  0  0  0  0  0  0  0  0  0  0  0
    9.4221    8.7579   24.7550 H   0  0  0  0  0  0  0  0  0  0  0  0
    7.8024   12.9667   22.5644 H   0  0  0  0  0  0  0  0  0  0  0  0
    8.4277   13.6258   24.0764 H   0  0  0  0  0  0  0  0  0  0  0  0
    9.9727    9.8844   22.5408 H   0  0  0  0  0  0  0  0  0  0  0  0
    8.7183   10.7516   21.6552 H   0  0  0  0  0  0  0  0  0  0  0  0
   10.2533   12.3656   25.3678 H   0  0  0  0  0  0  0  0  0  0  0  0
   10.8825   10.8408   24.7434 H   0  0  0  0  0  0  0  0  0  0  0  0
    6.2107   12.5529   24.4307 H   0  0  0  0  0  0  0  0  0  0  0  0
    7.7495    8.8293   22.9026 H   0  0  0  0  0  0  0  0  0  0  0  0
    9.2760   10.4364   26.5984 H   0  0  0  0  0  0  0  0  0  0  0  0
   11.6107   14.9639   21.4100 H   0  0  0  0  0  0  0  0  0  0  0  0
   12.7796   14.9283   22.7147 H   0  0  0  0  0  0  0  0  0  0  0  0
   12.6368   13.5619   21.6291 H   0  0  0  0  0  0  0  0  0  0  0  0
   10.8169   12.1417   21.8036 H   0  0  0  0  0  0  0  0  0  0  0  0
  1 12  1  0  0  0  0
  1 13  1  0  0  0  0
  1 14  2  0  0  0  0
  2  8  1  0  0  0  0
  2  9  1  0  0  0  0
  3  8  1  0  0  0  0
  3 10  1  0  0  0  0
  4  9  1  0  0  0  0
  4 10  1  0  0  0  0
  5  8  1  0  0  0  0
  5 11  1  0  0  0  0
  6  9  1  0  0  0  0
  6 11  1  0  0  0  0
  7 10  1  0  0  0  0
  7 11  1  0  0  0  0
 11 13  1  0  0  0  0
  2 15  1  0  0  0  0
  2 16  1  0  0  0  0
  3 17  1  0  0  0  0
  3 18  1  0  0  0  0
  4 19  1  0  0  0  0
  4 20  1  0  0  0  0
  5 21  1  0  0  0  0
  5 22  1  0  0  0  0
  6 23  1  0  0  0  0
  6 24  1  0  0  0  0
  7 25  1  0  0  0  0
  7 26  1  0  0  0  0
  8 27  1  0  0  0  0
  9 28  1  0  0  0  0
 10 29  1  0  0  0  0
 12 30  1  0  0  0  0
 12 31  1  0  0  0  0
 12 32  1  0  0  0  0
 13 33  1  0  0  0  0
M  END
> <Catalog ID>
Z27687036

> <PlateID>
1337959-R-12

> <Well>
C02

> <MW (desalted)>
193.285

> <CLogP>
1.581

> <HBD>
1

> <TPSA>
29.100

> <RotBonds>
1

> <ROCS_ShapeQuery>
A71EV2A-x0451_0A_A71EV2A-x0310_0A_A71EV2A-x0416_0A_peptide

> <ROCS_TanimotoCombo>
0.457 

> <ROCS_ShapeTanimoto>
0.259 

> <ROCS_ColorTanimoto>
0.198 

> <ROCS_RefTversky>
0.234 

> <ROCS_RefColorTversky>
0.218 

> <ROCS_RefTverskyCombo>
0.452 

> <ROCS_FitTversky>
1.690 

> <ROCS_FitColorTversky>
0.691 

> <ROCS_FitTverskyCombo>
2.381 

> <ROCS_ColorScore>
-6.654

> <ROCS_Overlap>
1621.019

> <ROCS_Rank>
48                  

$$$$
untitled-dbase-1110_64
  -OEChem-11112309163D

 44 46  0     0  0  0  0  0  0999 V2000
   10.5214   12.4217   22.7919 C   0  0  0  0  0  0  0  0  0  0  0  0
   11.9231   14.5910   20.8049 C   0  0  0  0  0  0  0  0  0  0  0  0
   10.6480   15.4103   20.9005 C   0  0  0  0  0  0  0  0  0  0  0  0
   12.1763   14.1859   22.2498 C   0  0  0  0  0  0  0  0  0  0  0  0
    9.7929   14.6600   21.9198 C   0  0  0  0  0  0  0  0  0  0  0  0
    8.9590    9.2948   22.1297 C   0  0  0  0  0  0  0  0  0  0  0  0
    9.3288    8.2435   23.1259 C   0  0  0  0  0  0  0  0  0  0  0  0
    8.5802   12.6496   24.4122 C   0  0  0  0  0  0  0  0  0  0  0  0
    9.8652   10.5131   24.2422 C   0  0  0  0  0  0  0  0  0  0  0  0
    7.2236   11.9907   24.1984 C   0  0  0  0  0  0  0  0  0  0  0  0
    7.4487    9.6097   24.2156 C   0  0  0  0  0  0  0  0  0  0  0  0
   10.7847   13.9171   22.8172 C   0  0  0  0  0  0  0  0  0  0  0  0
    8.8392    9.5944   23.6130 C   0  0  0  0  0  0  0  0  0  0  0  0
   11.5316   14.2003   26.4055 C   0  0  0  0  0  0  0  0  0  0  0  0
   11.6684   13.6928   24.9858 C   0  0  0  0  0  0  0  0  0  0  0  0
    9.6738   11.8964   23.7860 N   0  0  0  0  0  0  0  0  0  0  0  0
   11.0402   11.7122   21.9161 O   0  0  0  0  0  0  0  0  0  0  0  0
    7.1516   10.7911   24.9612 O   0  0  0  0  0  0  0  0  0  0  0  0
   10.7085   14.3495   24.1640 O   0  0  0  0  0  0  0  0  0  0  0  0
   11.8188   13.7324   20.1428 H   0  0  0  0  0  0  0  0  0  0  0  0
   12.7428   15.2153   20.4415 H   0  0  0  0  0  0  0  0  0  0  0  0
   10.8400   16.4478   21.2073 H   0  0  0  0  0  0  0  0  0  0  0  0
   10.1377   15.4395   19.9253 H   0  0  0  0  0  0  0  0  0  0  0  0
   12.7993   13.2861   22.2646 H   0  0  0  0  0  0  0  0  0  0  0  0
   12.7105   14.9729   22.7872 H   0  0  0  0  0  0  0  0  0  0  0  0
    9.2035   15.3769   22.5106 H   0  0  0  0  0  0  0  0  0  0  0  0
    9.0743   13.9981   21.4176 H   0  0  0  0  0  0  0  0  0  0  0  0
    9.7586    9.7646   21.5690 H   0  0  0  0  0  0  0  0  0  0  0  0
    8.0509    9.1475   21.5566 H   0  0  0  0  0  0  0  0  0  0  0  0
    8.6748    7.3841   23.2174 H   0  0  0  0  0  0  0  0  0  0  0  0
   10.3803    8.0030   23.2358 H   0  0  0  0  0  0  0  0  0  0  0  0
    8.6012   13.6788   24.0233 H   0  0  0  0  0  0  0  0  0  0  0  0
    8.7719   12.7166   25.4935 H   0  0  0  0  0  0  0  0  0  0  0  0
    9.7558   10.4569   25.3136 H   0  0  0  0  0  0  0  0  0  0  0  0
   10.8717   10.2287   23.9686 H   0  0  0  0  0  0  0  0  0  0  0  0
    6.3986   12.6496   24.4394 H   0  0  0  0  0  0  0  0  0  0  0  0
    7.1389   11.6999   23.1573 H   0  0  0  0  0  0  0  0  0  0  0  0
    6.6857    9.5555   23.4121 H   0  0  0  0  0  0  0  0  0  0  0  0
    7.2649    8.7055   24.8375 H   0  0  0  0  0  0  0  0  0  0  0  0
   11.7101   15.2781   26.4535 H   0  0  0  0  0  0  0  0  0  0  0  0
   10.5304   13.9901   26.7958 H   0  0  0  0  0  0  0  0  0  0  0  0
   12.2434   13.6946   27.0662 H   0  0  0  0  0  0  0  0  0  0  0  0
   11.4886   12.6144   24.9448 H   0  0  0  0  0  0  0  0  0  0  0  0
   12.6689   13.9045   24.5971 H   0  0  0  0  0  0  0  0  0  0  0  0
  1 12  1  0  0  0  0
  1 16  1  0  0  0  0
  1 17  2  0  0  0  0
  2  3  1  0  0  0  0
  2  4  1  0  0  0  0
  3  5  1  0  0  0  0
  4 12  1  0  0  0  0
  5 12  1  0  0  0  0
  6  7  1  0  0  0  0
  6 13  1  0  0  0  0
  7 13  1  0  0  0  0
  8 10  1  0  0  0  0
  8 16  1  0  0  0  0
  9 13  1  0  0  0  0
  9 16  1  0  0  0  0
 10 18  1  0  0  0  0
 11 13  1  0  0  0  0
 11 18  1  0  0  0  0
 12 19  1  0  0  0  0
 14 15  1  0  0  0  0
 15 19  1  0  0  0  0
  2 20  1  0  0  0  0
  2 21  1  0  0  0  0
  3 22  1  0  0  0  0
  3 23  1  0  0  0  0
  4 24  1  0  0  0  0
  4 25  1  0  0  0  0
  5 26  1  0  0  0  0
  5 27  1  0  0  0  0
  6 28  1  0  0  0  0
  6 29  1  0  0  0  0
  7 30  1  0  0  0  0
  7 31  1  0  0  0  0
  8 32  1  0  0  0  0
  8 33  1  0  0  0  0
  9 34  1  0  0  0  0
  9 35  1  0  0  0  0
 10 36  1  0  0  0  0
 10 37  1  0  0  0  0
 11 38  1  0  0  0  0
 11 39  1  0  0  0  0
 14 40  1  0  0  0  0
 14 41  1  0  0  0  0
 14 42  1  0  0  0  0
 15 43  1  0  0  0  0
 15 44  1  0  0  0  0
M  END
> <Catalog ID>
Z2044225367

> <PlateID>
1337959-R-14

> <Well>
H06

> <MW (desalted)>
267.364

> <CLogP>
2.017

> <HBD>
0

> <TPSA>
38.770

> <RotBonds>
3

> <ROCS_ShapeQuery>
A71EV2A-x0451_0A_A71EV2A-x0310_0A_A71EV2A-x0416_0A_peptide

> <ROCS_TanimotoCombo>
0.457 

> <ROCS_ShapeTanimoto>
0.327 

> <ROCS_ColorTanimoto>
0.129 

> <ROCS_RefTversky>
0.288 

> <ROCS_RefColorTversky>
0.138 

> <ROCS_RefTverskyCombo>
0.426 

> <ROCS_FitTversky>
1.725 

> <ROCS_FitColorTversky>
0.664 

> <ROCS_FitTverskyCombo>
2.389 

> <ROCS_ColorScore>
-4.206

> <ROCS_Overlap>
1996.049

> <ROCS_Rank>
49                  

$$$$
untitled-dbase-1_131
  -OEChem-11112309163D

 38 39  0     1  0  0  0  0  0999 V2000
    8.6691    9.6346   23.5788 C   0  0  0  0  0  0  0  0  0  0  0  0
    9.7004   10.5419   23.3361 C   0  0  0  0  0  0  0  0  0  0  0  0
    8.4948   12.2399   24.5609 C   0  0  0  0  0  0  0  0  0  0  0  0
    7.5506   10.0300   24.3126 C   0  0  0  0  0  0  0  0  0  0  0  0
    7.4635   11.3326   24.8036 C   0  0  0  0  0  0  0  0  0  0  0  0
    9.6132   11.8445   23.8271 C   0  0  0  0  0  0  0  0  0  0  0  0
    9.8870   14.5317   19.8768 C   0  0  0  0  0  0  0  0  0  0  0  0
   10.1892   16.0034   19.6300 C   0  0  0  0  0  0  0  0  0  0  0  0
   10.3960   15.7171   21.9183 C   0  0  0  0  0  0  0  0  0  0  0  0
    9.9247   14.3675   21.3962 C   0  0  2  0  0  0  0  0  0  0  0  0
    6.4582    9.0413   24.5564 C   0  0  0  0  0  0  0  0  0  0  0  0
    6.2749   11.7788   25.5901 C   0  0  0  0  0  0  0  0  0  0  0  0
   12.0069   13.1824   20.9972 C   0  0  0  0  0  0  0  0  0  0  0  0
    9.9055   16.6512   20.9083 N   0  0  0  0  0  0  0  0  0  0  0  0
   10.7732   13.2894   21.8226 N   0  0  1  0  0  0  0  0  0  0  0  0
   10.6149   14.2072   24.2549 O   0  0  0  0  0  0  0  0  0  0  0  0
   12.1734   12.3030   23.7764 O   0  0  0  0  0  0  0  0  0  0  0  0
   10.9239   12.9950   23.5191 S   0  0  0  0  0  0  0  0  0  0  0  0
    8.7445    8.6226   23.1897 H   0  0  0  0  0  0  0  0  0  0  0  0
   10.5673   10.2235   22.7635 H   0  0  0  0  0  0  0  0  0  0  0  0
    8.4259   13.2558   24.9431 H   0  0  0  0  0  0  0  0  0  0  0  0
    8.8834   14.2852   19.5096 H   0  0  0  0  0  0  0  0  0  0  0  0
   10.6006   13.8887   19.3502 H   0  0  0  0  0  0  0  0  0  0  0  0
   11.2450   16.1354   19.3654 H   0  0  0  0  0  0  0  0  0  0  0  0
    9.5786   16.4185   18.8230 H   0  0  0  0  0  0  0  0  0  0  0  0
    9.9772   15.9396   22.9045 H   0  0  0  0  0  0  0  0  0  0  0  0
   11.4894   15.7724   21.9925 H   0  0  0  0  0  0  0  0  0  0  0  0
    8.8793   14.1729   21.7586 H   0  0  0  0  0  0  0  0  0  0  0  0
    6.6441    8.4914   25.4862 H   0  0  0  0  0  0  0  0  0  0  0  0
    5.4834    9.5386   24.6333 H   0  0  0  0  0  0  0  0  0  0  0  0
    6.3848    8.3205   23.7325 H   0  0  0  0  0  0  0  0  0  0  0  0
    5.5084   12.1874   24.9213 H   0  0  0  0  0  0  0  0  0  0  0  0
    5.8380   10.9461   26.1550 H   0  0  0  0  0  0  0  0  0  0  0  0
    6.5495   12.5505   26.3200 H   0  0  0  0  0  0  0  0  0  0  0  0
   12.6210   12.3457   21.3615 H   0  0  0  0  0  0  0  0  0  0  0  0
   11.7311   13.0046   19.9472 H   0  0  0  0  0  0  0  0  0  0  0  0
   12.5804   14.1180   21.0722 H   0  0  0  0  0  0  0  0  0  0  0  0
   10.3897   17.5446   20.9759 H   0  0  0  0  0  0  0  0  0  0  0  0
  1  2  1  0  0  0  0
  1  4  2  0  0  0  0
  2  6  2  0  0  0  0
  3  5  2  0  0  0  0
  3  6  1  0  0  0  0
  4  5  1  0  0  0  0
  4 11  1  0  0  0  0
  5 12  1  0  0  0  0
  6 18  1  0  0  0  0
  7  8  1  0  0  0  0
  7 10  1  0  0  0  0
  8 14  1  0  0  0  0
  9 10  1  0  0  0  0
  9 14  1  0  0  0  0
 10 15  1  0  0  0  0
 13 15  1  0  0  0  0
 15 18  1  0  0  0  0
 16 18  2  0  0  0  0
 17 18  2  0  0  0  0
  1 19  1  0  0  0  0
  2 20  1  0  0  0  0
  3 21  1  0  0  0  0
  7 22  1  0  0  0  0
  7 23  1  0  0  0  0
  8 24  1  0  0  0  0
  8 25  1  0  0  0  0
  9 26  1  0  0  0  0
  9 27  1  0  0  0  0
 10 28  1  0  0  0  0
 11 29  1  0  0  0  0
 11 30  1  0  0  0  0
 11 31  1  0  0  0  0
 12 32  1  0  0  0  0
 12 33  1  0  0  0  0
 12 34  1  0  0  0  0
 13 35  1  0  0  0  0
 13 36  1  0  0  0  0
 13 37  1  0  0  0  0
 14 38  1  0  0  0  0
M  END
> <Catalog ID>
Z513889308

> <PlateID>
1337959-R-01

> <Well>
A02

> <MW (desalted)>
268.375

> <CLogP>
2.226

> <HBD>
1

> <TPSA>
49.410

> <RotBonds>
2

> <ROCS_ShapeQuery>
A71EV2A-x0451_0A_A71EV2A-x0310_0A_A71EV2A-x0416_0A_peptide

> <ROCS_TanimotoCombo>
0.457 

> <ROCS_ShapeTanimoto>
0.291 

> <ROCS_ColorTanimoto>
0.166 

> <ROCS_RefTversky>
0.261 

> <ROCS_RefColorTversky>
0.176 

> <ROCS_RefTverskyCombo>
0.437 

> <ROCS_FitTversky>
1.658 

> <ROCS_FitColorTversky>
0.735 

> <ROCS_FitTverskyCombo>
2.393 

> <ROCS_ColorScore>
-5.358

> <ROCS_Overlap>
1808.611

> <ROCS_Rank>
50                  

$$$$
untitled-dbase-884_264
  -OEChem-11112309163D

 33 34  0     1  0  0  0  0  0999 V2000
    9.7606   11.6251   23.7702 C   0  0  0  0  0  0  0  0  0  0  0  0
    9.4251   10.2709   23.5994 C   0  0  0  0  0  0  0  0  0  0  0  0
    8.6569   12.1597   24.3803 C   0  0  0  0  0  0  0  0  0  0  0  0
   10.5081   14.4787   22.2468 C   0  0  0  0  0  0  0  0  0  0  0  0
    9.2565   14.5514   20.0712 C   0  0  0  0  0  0  0  0  0  0  0  0
    9.4043   16.9500   19.8242 C   0  0  0  0  0  0  0  0  0  0  0  0
   10.3833   15.1232   20.9078 C   0  0  1  0  0  0  0  0  0  0  0  0
    8.9613   15.6830   19.1079 C   0  0  1  0  0  0  0  0  0  0  0  0
   10.2380    9.2038   22.9918 C   0  0  0  0  0  0  0  0  0  0  0  0
    8.3035   13.5051   24.8516 C   0  0  0  0  0  0  0  0  0  0  0  0
   11.0288   12.3268   23.3784 C   0  0  0  0  0  0  0  0  0  0  0  0
    8.2064    9.9873   24.0676 N   0  0  0  0  0  0  0  0  0  0  0  0
    9.9862   16.5228   21.1074 N   0  0  0  0  0  0  0  0  0  0  0  0
   10.8534   13.1416   22.1976 N   0  0  0  0  0  0  0  0  0  0  0  0
   10.3081   15.1421   23.2575 O   0  0  0  0  0  0  0  0  0  0  0  0
    7.7223   11.1921   24.5631 O   0  0  0  0  0  0  0  0  0  0  0  0
    9.7377   15.5228   18.0007 F   0  0  0  0  0  0  0  0  0  0  0  0
    9.5959   13.6762   19.5157 H   0  0  0  0  0  0  0  0  0  0  0  0
    8.3695   14.2767   20.6390 H   0  0  0  0  0  0  0  0  0  0  0  0
   10.1522   17.5020   19.2185 H   0  0  0  0  0  0  0  0  0  0  0  0
    8.5575   17.6460   19.9806 H   0  0  0  0  0  0  0  0  0  0  0  0
   11.3365   15.0574   20.3758 H   0  0  0  0  0  0  0  0  0  0  0  0
    7.9228   15.7148   18.8087 H   0  0  0  0  0  0  0  0  0  0  0  0
   10.8631    8.6972   23.7470 H   0  0  0  0  0  0  0  0  0  0  0  0
    9.6161    8.4323   22.5036 H   0  0  0  0  0  0  0  0  0  0  0  0
   10.9125    9.5892   22.2063 H   0  0  0  0  0  0  0  0  0  0  0  0
    7.8022   14.0921   24.0610 H   0  0  0  0  0  0  0  0  0  0  0  0
    7.6239   13.4808   25.7240 H   0  0  0  0  0  0  0  0  0  0  0  0
    9.1886   14.0825   25.1789 H   0  0  0  0  0  0  0  0  0  0  0  0
   11.3763   12.9772   24.1885 H   0  0  0  0  0  0  0  0  0  0  0  0
   11.8286   11.6075   23.1731 H   0  0  0  0  0  0  0  0  0  0  0  0
   10.7793   17.0987   21.3547 H   0  0  0  0  0  0  0  0  0  0  0  0
   10.9906   12.7109   21.2882 H   0  0  0  0  0  0  0  0  0  0  0  0
  1  2  1  0  0  0  0
  1  3  2  0  0  0  0
  1 11  1  0  0  0  0
  2  9  1  0  0  0  0
  2 12  2  0  0  0  0
  3 10  1  0  0  0  0
  3 16  1  0  0  0  0
  4  7  1  1  0  0  0
  4 14  1  0  0  0  0
  4 15  2  0  0  0  0
  5  7  1  0  0  0  0
  5  8  1  0  0  0  0
  6  8  1  0  0  0  0
  6 13  1  0  0  0  0
  7 13  1  0  0  0  0
  8 17  1  6  0  0  0
 11 14  1  0  0  0  0
 12 16  1  0  0  0  0
  5 18  1  0  0  0  0
  5 19  1  0  0  0  0
  6 20  1  0  0  0  0
  6 21  1  0  0  0  0
  7 22  1  0  0  0  0
  8 23  1  0  0  0  0
  9 24  1  0  0  0  0
  9 25  1  0  0  0  0
  9 26  1  0  0  0  0
 10 27  1  0  0  0  0
 10 28  1  0  0  0  0
 10 29  1  0  0  0  0
 11 30  1  0  0  0  0
 11 31  1  0  0  0  0
 13 32  1  0  0  0  0
 14 33  1  0  0  0  0
M  END
> <Catalog ID>
Z2242004291

> <PlateID>
1337959-R-12

> <Well>
A08

> <MW (desalted)>
241.262

> <CLogP>
-0.451

> <HBD>
2

> <TPSA>
67.160

> <RotBonds>
3

> <ROCS_ShapeQuery>
A71EV2A-x0451_0A_A71EV2A-x0310_0A_A71EV2A-x0416_0A_peptide

> <ROCS_TanimotoCombo>
0.456 

> <ROCS_ShapeTanimoto>
0.255 

> <ROCS_ColorTanimoto>
0.201 

> <ROCS_RefTversky>
0.235 

> <ROCS_RefColorTversky>
0.212 

> <ROCS_RefTverskyCombo>
0.448 

> <ROCS_FitTversky>
1.510 

> <ROCS_FitColorTversky>
0.786 

> <ROCS_FitTverskyCombo>
2.296 

> <ROCS_ColorScore>
-6.475

> <ROCS_Overlap>
1630.317

> <ROCS_Rank>
51                  

$$$$
untitled-dbase-309_141
  -OEChem-11112309163D

 39 40  0     1  0  0  0  0  0999 V2000
    6.4353   12.1737   26.5727 C   0  0  0  0  0  0  0  0  0  0  0  0
    6.4602   10.8047   26.7966 C   0  0  0  0  0  0  0  0  0  0  0  0
    7.0671   12.6990   25.4495 C   0  0  0  0  0  0  0  0  0  0  0  0
    7.1248    9.9637   25.9021 C   0  0  0  0  0  0  0  0  0  0  0  0
    7.7436   11.8634   24.5409 C   0  0  0  0  0  0  0  0  0  0  0  0
    7.7895   10.4671   24.7647 C   0  0  0  0  0  0  0  0  0  0  0  0
   10.7279   13.2421   23.5243 C   0  0  0  0  0  0  0  0  0  0  0  0
    8.3229   12.4836   23.2890 C   0  0  0  0  0  0  0  0  0  0  0  0
    9.9126    9.8602   23.7338 C   0  0  0  0  0  0  0  0  0  0  0  0
   10.2355   10.9538   22.7091 C   0  0  1  0  0  0  0  0  0  0  0  0
    9.7589   10.6073   21.2957 C   0  0  0  0  0  0  0  0  0  0  0  0
    8.0013    8.2543   23.6945 C   0  0  0  0  0  0  0  0  0  0  0  0
   11.4635   14.8798   21.1056 C   0  0  0  0  0  0  0  0  0  0  0  0
   12.0290   13.2353   22.7600 C   0  0  0  0  0  0  0  0  0  0  0  0
    8.4766    9.6169   23.8922 N   0  0  1  0  0  0  0  0  0  0  0  0
    9.7726   12.2813   23.1614 N   0  0  0  0  0  0  0  0  0  0  0  0
   11.7075   13.4614   21.3839 N   0  0  0  0  0  0  0  0  0  0  0  0
   10.5692   14.0753   24.4208 O   0  0  0  0  0  0  0  0  0  0  0  0
    5.9281   12.8328   27.2721 H   0  0  0  0  0  0  0  0  0  0  0  0
    5.9555   10.3865   27.6626 H   0  0  0  0  0  0  0  0  0  0  0  0
    7.0375   13.7731   25.2940 H   0  0  0  0  0  0  0  0  0  0  0  0
    7.0868    8.9004   26.1069 H   0  0  0  0  0  0  0  0  0  0  0  0
    7.8193   12.0771   22.4031 H   0  0  0  0  0  0  0  0  0  0  0  0
    8.1172   13.5590   23.2725 H   0  0  0  0  0  0  0  0  0  0  0  0
   10.4351    8.9089   23.5047 H   0  0  0  0  0  0  0  0  0  0  0  0
   10.3474   10.1571   24.7094 H   0  0  0  0  0  0  0  0  0  0  0  0
   11.3572   11.0165   22.6563 H   0  0  0  0  0  0  0  0  0  0  0  0
    8.6737   10.5325   21.2831 H   0  0  0  0  0  0  0  0  0  0  0  0
   10.1877    9.6564   20.9875 H   0  0  0  0  0  0  0  0  0  0  0  0
   10.0732   11.3845   20.6025 H   0  0  0  0  0  0  0  0  0  0  0  0
    8.6586    7.7360   22.9809 H   0  0  0  0  0  0  0  0  0  0  0  0
    8.0101    7.7199   24.6559 H   0  0  0  0  0  0  0  0  0  0  0  0
    6.9756    8.2779   23.2975 H   0  0  0  0  0  0  0  0  0  0  0  0
   10.6443   15.2435   21.7433 H   0  0  0  0  0  0  0  0  0  0  0  0
   12.3760   15.4569   21.3164 H   0  0  0  0  0  0  0  0  0  0  0  0
   11.1875   15.0037   20.0481 H   0  0  0  0  0  0  0  0  0  0  0  0
   12.4989   12.2669   22.9013 H   0  0  0  0  0  0  0  0  0  0  0  0
   12.6567   14.0286   23.1541 H   0  0  0  0  0  0  0  0  0  0  0  0
   12.4754   13.1457   20.7771 H   0  0  0  0  0  0  0  0  0  0  0  0
  1  2  2  0  0  0  0
  1  3  1  0  0  0  0
  2  4  1  0  0  0  0
  3  5  2  0  0  0  0
  4  6  2  0  0  0  0
  5  6  1  0  0  0  0
  5  8  1  0  0  0  0
  6 15  1  0  0  0  0
  7 14  1  0  0  0  0
  7 16  1  0  0  0  0
  7 18  2  0  0  0  0
  8 16  1  0  0  0  0
  9 10  1  0  0  0  0
  9 15  1  0  0  0  0
 10 11  1  0  0  0  0
 10 16  1  0  0  0  0
 12 15  1  0  0  0  0
 13 17  1  0  0  0  0
 14 17  1  0  0  0  0
  1 19  1  0  0  0  0
  2 20  1  0  0  0  0
  3 21  1  0  0  0  0
  4 22  1  0  0  0  0
  8 23  1  0  0  0  0
  8 24  1  0  0  0  0
  9 25  1  0  0  0  0
  9 26  1  0  0  0  0
 10 27  1  0  0  0  0
 11 28  1  0  0  0  0
 11 29  1  0  0  0  0
 11 30  1  0  0  0  0
 12 31  1  0  0  0  0
 12 32  1  0  0  0  0
 12 33  1  0  0  0  0
 13 34  1  0  0  0  0
 13 35  1  0  0  0  0
 13 36  1  0  0  0  0
 14 37  1  0  0  0  0
 14 38  1  0  0  0  0
 17 39  1  0  0  0  0
M  END
> <Catalog ID>
Z2242923363

> <PlateID>
1337959-R-04

> <Well>
G11

> <MW (desalted)>
247.336

> <CLogP>
1.633

> <HBD>
1

> <TPSA>
35.580

> <RotBonds>
2

> <ROCS_ShapeQuery>
A71EV2A-x0451_0A_A71EV2A-x0310_0A_A71EV2A-x0416_0A_peptide

> <ROCS_TanimotoCombo>
0.456 

> <ROCS_ShapeTanimoto>
0.325 

> <ROCS_ColorTanimoto>
0.131 

> <ROCS_RefTversky>
0.285 

> <ROCS_RefColorTversky>
0.140 

> <ROCS_RefTverskyCombo>
0.425 

> <ROCS_FitTversky>
1.776 

> <ROCS_FitColorTversky>
0.672 

> <ROCS_FitTverskyCombo>
2.448 

> <ROCS_ColorScore>
-4.256

> <ROCS_Overlap>
1973.823

> <ROCS_Rank>
52                  

$$$$
untitled-dbase-864_108
  -OEChem-11112309163D

 34 35  0     1  0  0  0  0  0999 V2000
   14.1088   16.3851   19.0466 C   0  0  0  0  0  0  0  0  0  0  0  0
   13.9822   16.2567   20.4599 C   0  0  0  0  0  0  0  0  0  0  0  0
   13.0272   15.8532   18.3797 C   0  0  0  0  0  0  0  0  0  0  0  0
   12.8083   15.6316   20.8195 C   0  0  0  0  0  0  0  0  0  0  0  0
    9.1719   10.2799   23.5459 C   0  0  0  0  0  0  0  0  0  0  0  0
    9.4060   11.5793   23.4553 C   0  0  0  0  0  0  0  0  0  0  0  0
   10.9865   13.4102   23.1874 C   0  0  0  0  0  0  0  0  0  0  0  0
    8.3800   12.2736   24.2375 C   0  0  0  0  0  0  0  0  0  0  0  0
   12.7837   15.7918   16.9221 C   0  0  0  0  0  0  0  0  0  0  0  0
   13.2580   15.7727   23.3035 C   0  0  0  0  0  0  0  0  0  0  0  0
   12.8542   12.9844   21.5645 C   0  0  0  0  0  0  0  0  0  0  0  0
   12.3007   15.3077   22.2080 C   0  0  2  0  0  0  0  0  0  0  0  0
    8.0714   10.0289   24.3244 N   0  0  0  0  0  0  0  0  0  0  0  0
    7.5779   11.1209   24.7455 N   0  0  0  0  0  0  0  0  0  0  0  0
   10.4068   12.2107   22.7739 N   0  0  0  0  0  0  0  0  0  0  0  0
   12.0133   13.8862   22.3477 N   0  0  0  0  0  0  0  0  0  0  0  0
   10.6350   14.0003   24.2139 O   0  0  0  0  0  0  0  0  0  0  0  0
   11.8653   15.2024   19.4562 S   0  0  0  0  0  0  0  0  0  0  0  0
   14.9521   16.8465   18.5483 H   0  0  0  0  0  0  0  0  0  0  0  0
   14.7168   16.6080   21.1734 H   0  0  0  0  0  0  0  0  0  0  0  0
    9.7311    9.4760   23.0923 H   0  0  0  0  0  0  0  0  0  0  0  0
    8.7969   12.8338   25.0796 H   0  0  0  0  0  0  0  0  0  0  0  0
    7.7476   12.9235   23.6255 H   0  0  0  0  0  0  0  0  0  0  0  0
   13.1923   14.8636   16.4929 H   0  0  0  0  0  0  0  0  0  0  0  0
   11.7082   15.8294   16.6833 H   0  0  0  0  0  0  0  0  0  0  0  0
   13.2458   16.6409   16.3923 H   0  0  0  0  0  0  0  0  0  0  0  0
   14.2396   15.2980   23.1972 H   0  0  0  0  0  0  0  0  0  0  0  0
   13.3990   16.8583   23.2548 H   0  0  0  0  0  0  0  0  0  0  0  0
   12.8780   15.5422   24.3051 H   0  0  0  0  0  0  0  0  0  0  0  0
   12.3941   12.8160   20.5796 H   0  0  0  0  0  0  0  0  0  0  0  0
   13.8495   13.4336   21.4322 H   0  0  0  0  0  0  0  0  0  0  0  0
   12.9525   12.0242   22.0921 H   0  0  0  0  0  0  0  0  0  0  0  0
   11.3409   15.8145   22.3672 H   0  0  0  0  0  0  0  0  0  0  0  0
   10.7420   11.7376   21.9422 H   0  0  0  0  0  0  0  0  0  0  0  0
  1  2  1  0  0  0  0
  1  3  2  0  0  0  0
  2  4  2  0  0  0  0
  3  9  1  0  0  0  0
  3 18  1  0  0  0  0
  4 12  1  0  0  0  0
  4 18  1  0  0  0  0
  5  6  2  0  0  0  0
  5 13  1  0  0  0  0
  6  8  1  0  0  0  0
  6 15  1  0  0  0  0
  7 15  1  0  0  0  0
  7 16  1  0  0  0  0
  7 17  2  0  0  0  0
  8 14  1  0  0  0  0
 10 12  1  0  0  0  0
 11 16  1  0  0  0  0
 12 16  1  0  0  0  0
 13 14  2  0  0  0  0
  1 19  1  0  0  0  0
  2 20  1  0  0  0  0
  5 21  1  0  0  0  0
  8 22  1  0  0  0  0
  8 23  1  0  0  0  0
  9 24  1  0  0  0  0
  9 25  1  0  0  0  0
  9 26  1  0  0  0  0
 10 27  1  0  0  0  0
 10 28  1  0  0  0  0
 10 29  1  0  0  0  0
 11 30  1  0  0  0  0
 11 31  1  0  0  0  0
 11 32  1  0  0  0  0
 12 33  1  0  0  0  0
 15 34  1  0  0  0  0
M  END
> <Catalog ID>
Z815282790

> <PlateID>
1337959-R-11

> <Well>
G08

> <MW (desalted)>
264.347

> <CLogP>
2.056

> <HBD>
2

> <TPSA>
61.020

> <RotBonds>
3

> <ROCS_ShapeQuery>
A71EV2A-x0451_0A_A71EV2A-x0310_0A_A71EV2A-x0416_0A_peptide

> <ROCS_TanimotoCombo>
0.455 

> <ROCS_ShapeTanimoto>
0.278 

> <ROCS_ColorTanimoto>
0.177 

> <ROCS_RefTversky>
0.253 

> <ROCS_RefColorTversky>
0.177 

> <ROCS_RefTverskyCombo>
0.430 

> <ROCS_FitTversky>
1.579 

> <ROCS_FitColorTversky>
1.000 

> <ROCS_FitTverskyCombo>
2.579 

> <ROCS_ColorScore>
-5.371

> <ROCS_Overlap>
1752.112

> <ROCS_Rank>
53                  

$$$$
untitled-dbase-816_86
  -OEChem-11112309163D

 36 38  0     1  0  0  0  0  0999 V2000
   10.5527   13.6419   22.9391 C   0  0  0  0  0  0  0  0  0  0  0  0
   14.2821   16.0108   19.7546 C   0  0  0  0  0  0  0  0  0  0  0  0
   12.9590   16.8012   19.7683 C   0  0  0  0  0  0  0  0  0  0  0  0
   13.4449   14.7294   19.5726 C   0  0  0  0  0  0  0  0  0  0  0  0
   10.8822   15.1955   19.6173 C   0  0  0  0  0  0  0  0  0  0  0  0
    8.9565   10.2129   23.2341 C   0  0  0  0  0  0  0  0  0  0  0  0
   10.3913   14.0617   20.4960 C   0  0  0  0  0  0  0  0  0  0  0  0
   12.0930   15.2791   21.7274 C   0  0  0  0  0  0  0  0  0  0  0  0
    8.0494    9.7989   24.3711 C   0  0  0  0  0  0  0  0  0  0  0  0
    8.3312   12.1090   24.4796 C   0  0  0  0  0  0  0  0  0  0  0  0
    9.5223   11.5161   23.7495 C   0  0  2  0  0  0  0  0  0  0  0  0
   12.2484   15.4951   20.2208 C   0  0  0  0  0  0  0  0  0  0  0  0
   11.0019   14.3058   21.7954 N   0  0  0  0  0  0  0  0  0  0  0  0
   10.0368   12.3724   22.7035 N   0  0  0  0  0  0  0  0  0  0  0  0
   10.6144   14.1445   24.0645 O   0  0  0  0  0  0  0  0  0  0  0  0
    7.5364   11.0083   24.9460 O   0  0  0  0  0  0  0  0  0  0  0  0
   14.9691   16.2486   18.9386 H   0  0  0  0  0  0  0  0  0  0  0  0
   14.8302   16.0491   20.7029 H   0  0  0  0  0  0  0  0  0  0  0  0
   12.9246   17.6487   20.4621 H   0  0  0  0  0  0  0  0  0  0  0  0
   12.6647   17.1616   18.7729 H   0  0  0  0  0  0  0  0  0  0  0  0
   13.2834   14.4606   18.5237 H   0  0  0  0  0  0  0  0  0  0  0  0
   13.8044   13.8514   20.1119 H   0  0  0  0  0  0  0  0  0  0  0  0
   10.9911   14.8473   18.5833 H   0  0  0  0  0  0  0  0  0  0  0  0
   10.2031   16.0530   19.6233 H   0  0  0  0  0  0  0  0  0  0  0  0
    9.7667    9.4846   23.1283 H   0  0  0  0  0  0  0  0  0  0  0  0
    8.4412   10.2853   22.2752 H   0  0  0  0  0  0  0  0  0  0  0  0
    9.3049   14.1048   20.6336 H   0  0  0  0  0  0  0  0  0  0  0  0
   10.6566   13.0722   20.1120 H   0  0  0  0  0  0  0  0  0  0  0  0
   12.9812   14.8139   22.1680 H   0  0  0  0  0  0  0  0  0  0  0  0
   11.8362   16.1865   22.2820 H   0  0  0  0  0  0  0  0  0  0  0  0
    7.1988    9.2124   24.0110 H   0  0  0  0  0  0  0  0  0  0  0  0
    8.5727    9.2213   25.1368 H   0  0  0  0  0  0  0  0  0  0  0  0
    8.6589   12.6722   25.3606 H   0  0  0  0  0  0  0  0  0  0  0  0
    7.7192   12.7735   23.8617 H   0  0  0  0  0  0  0  0  0  0  0  0
   10.3737   11.3456   24.4542 H   0  0  0  0  0  0  0  0  0  0  0  0
    9.9549   12.0263   21.7469 H   0  0  0  0  0  0  0  0  0  0  0  0
  1 13  1  0  0  0  0
  1 14  1  0  0  0  0
  1 15  2  0  0  0  0
  2  3  1  0  0  0  0
  2  4  1  0  0  0  0
  3 12  1  0  0  0  0
  4 12  1  0  0  0  0
  5  7  1  0  0  0  0
  5 12  1  0  0  0  0
  6  9  1  0  0  0  0
  6 11  1  0  0  0  0
  7 13  1  0  0  0  0
  8 12  1  0  0  0  0
  8 13  1  0  0  0  0
  9 16  1  0  0  0  0
 10 11  1  0  0  0  0
 10 16  1  0  0  0  0
 11 14  1  0  0  0  0
  2 17  1  0  0  0  0
  2 18  1  0  0  0  0
  3 19  1  0  0  0  0
  3 20  1  0  0  0  0
  4 21  1  0  0  0  0
  4 22  1  0  0  0  0
  5 23  1  0  0  0  0
  5 24  1  0  0  0  0
  6 25  1  0  0  0  0
  6 26  1  0  0  0  0
  7 27  1  0  0  0  0
  7 28  1  0  0  0  0
  8 29  1  0  0  0  0
  8 30  1  0  0  0  0
  9 31  1  0  0  0  0
  9 32  1  0  0  0  0
 10 33  1  0  0  0  0
 10 34  1  0  0  0  0
 11 35  1  0  0  0  0
 14 36  1  0  0  0  0
M  END
> <Catalog ID>
Z1499623944

> <PlateID>
1337959-R-11

> <Well>
B09

> <MW (desalted)>
224.299

> <CLogP>
1.344

> <HBD>
1

> <TPSA>
41.570

> <RotBonds>
1

> <ROCS_ShapeQuery>
A71EV2A-x0451_0A_A71EV2A-x0310_0A_A71EV2A-x0416_0A_peptide

> <ROCS_TanimotoCombo>
0.454 

> <ROCS_ShapeTanimoto>
0.265 

> <ROCS_ColorTanimoto>
0.190 

> <ROCS_RefTversky>
0.241 

> <ROCS_RefColorTversky>
0.198 

> <ROCS_RefTverskyCombo>
0.438 

> <ROCS_FitTversky>
1.608 

> <ROCS_FitColorTversky>
0.825 

> <ROCS_FitTverskyCombo>
2.432 

> <ROCS_ColorScore>
-6.015

> <ROCS_Overlap>
1667.196

> <ROCS_Rank>
54                  

$$$$
untitled-dbase-95_5
  -OEChem-11112309163D

 31 33  0     1  0  0  0  0  0999 V2000
   10.1499   13.5215   23.4813 C   0  0  0  0  0  0  0  0  0  0  0  0
    8.0126   10.5977   25.8054 C   0  0  0  0  0  0  0  0  0  0  0  0
    6.6971   10.9594   23.6994 C   0  0  0  0  0  0  0  0  0  0  0  0
    8.0888   12.8191   24.6431 C   0  0  0  0  0  0  0  0  0  0  0  0
   10.1032   11.3200   24.6274 C   0  0  0  0  0  0  0  0  0  0  0  0
    8.7844   11.6858   22.5172 C   0  0  0  0  0  0  0  0  0  0  0  0
    7.1928   11.6191   24.9981 C   0  0  0  0  0  0  0  0  0  0  0  0
    9.2181   10.1072   24.9779 C   0  0  2  0  0  0  0  0  0  0  0  0
    7.8943   10.4729   22.8575 C   0  0  1  0  0  0  0  0  0  0  0  0
    8.7371    9.4568   23.6610 C   0  0  0  0  0  0  0  0  0  0  0  0
    9.2875   12.3360   23.8154 C   0  0  0  0  0  0  0  0  0  0  0  0
    7.9780    8.2328   23.9240 N   0  0  0  0  0  0  0  0  0  0  0  0
   10.6897   14.2499   24.3007 O   0  0  0  0  0  0  0  0  0  0  0  0
   10.2484   13.6785   22.1386 O   0  0  0  0  0  0  0  0  0  0  0  0
    8.3663   11.0591   26.7360 H   0  0  0  0  0  0  0  0  0  0  0  0
    7.3769    9.7540   26.0989 H   0  0  0  0  0  0  0  0  0  0  0  0
    6.0249   10.1256   23.9340 H   0  0  0  0  0  0  0  0  0  0  0  0
    6.1066   11.6803   23.1199 H   0  0  0  0  0  0  0  0  0  0  0  0
    7.5096   13.5669   24.0856 H   0  0  0  0  0  0  0  0  0  0  0  0
    8.4285   13.3164   25.5612 H   0  0  0  0  0  0  0  0  0  0  0  0
   10.4856   11.7787   25.5488 H   0  0  0  0  0  0  0  0  0  0  0  0
   10.9839   10.9909   24.0605 H   0  0  0  0  0  0  0  0  0  0  0  0
    9.6296   11.3676   21.8928 H   0  0  0  0  0  0  0  0  0  0  0  0
    8.2149   12.4081   21.9174 H   0  0  0  0  0  0  0  0  0  0  0  0
    6.3369   11.9599   25.5911 H   0  0  0  0  0  0  0  0  0  0  0  0
    9.8035    9.3911   25.5673 H   0  0  0  0  0  0  0  0  0  0  0  0
    7.5315   10.0191   21.9275 H   0  0  0  0  0  0  0  0  0  0  0  0
    9.6135    9.1715   23.0645 H   0  0  0  0  0  0  0  0  0  0  0  0
    7.7099    7.8446   23.0522 H   0  0  0  0  0  0  0  0  0  0  0  0
    8.5654    7.6092   24.4230 H   0  0  0  0  0  0  0  0  0  0  0  0
   10.8064   14.4492   21.8998 H   0  0  0  0  0  0  0  0  0  0  0  0
  1 11  1  0  0  0  0
  1 13  2  0  0  0  0
  1 14  1  0  0  0  0
  2  7  1  0  0  0  0
  2  8  1  0  0  0  0
  3  7  1  0  0  0  0
  3  9  1  0  0  0  0
  4  7  1  0  0  0  0
  4 11  1  0  0  0  0
  5  8  1  0  0  0  0
  5 11  1  0  0  0  0
  6  9  1  0  0  0  0
  6 11  1  0  0  0  0
  8 10  1  0  0  0  0
  9 10  1  0  0  0  0
 10 12  1  0  0  0  0
  2 15  1  0  0  0  0
  2 16  1  0  0  0  0
  3 17  1  0  0  0  0
  3 18  1  0  0  0  0
  4 19  1  0  0  0  0
  4 20  1  0  0  0  0
  5 21  1  0  0  0  0
  5 22  1  0  0  0  0
  6 23  1  0  0  0  0
  6 24  1  0  0  0  0
  7 25  1  0  0  0  0
  8 26  1  0  0  0  0
  9 27  1  0  0  0  0
 10 28  1  0  0  0  0
 12 29  1  0  0  0  0
 12 30  1  0  0  0  0
 14 31  1  0  0  0  0
M  END
> <Catalog ID>
Z2418414170

> <PlateID>
1337959-R-02

> <Well>
B06

> <MW (desalted)>
195.258

> <CLogP>
-1.792

> <HBD>
2

> <TPSA>
63.320

> <RotBonds>
1

> <ROCS_ShapeQuery>
A71EV2A-x0451_0A_A71EV2A-x0310_0A_A71EV2A-x0416_0A_peptide

> <ROCS_TanimotoCombo>
0.454 

> <ROCS_ShapeTanimoto>
0.249 

> <ROCS_ColorTanimoto>
0.205 

> <ROCS_RefTversky>
0.227 

> <ROCS_RefColorTversky>
0.240 

> <ROCS_RefTverskyCombo>
0.467 

> <ROCS_FitTversky>
1.629 

> <ROCS_FitColorTversky>
0.589 

> <ROCS_FitTverskyCombo>
2.219 

> <ROCS_ColorScore>
-7.358

> <ROCS_Overlap>
1572.214

> <ROCS_Rank>
55                  

$$$$
untitled-dbase-1065_18
  -OEChem-11112309163D

 34 36  0     1  0  0  0  0  0999 V2000
    9.4819   10.4970   23.3565 C   0  0  0  0  0  0  0  0  0  0  0  0
    9.4619   11.8276   23.7961 C   0  0  0  0  0  0  0  0  0  0  0  0
    8.3635   11.9102   24.6212 C   0  0  0  0  0  0  0  0  0  0  0  0
    6.0754   11.3527   26.1066 C   0  0  0  0  0  0  0  0  0  0  0  0
    6.6423   10.3812   25.3844 C   0  0  0  0  0  0  0  0  0  0  0  0
    6.7647   12.6654   26.0247 C   0  0  0  0  0  0  0  0  0  0  0  0
   10.3785   12.9148   23.4767 C   0  0  0  0  0  0  0  0  0  0  0  0
   12.2998   14.5789   20.9921 C   0  0  0  0  0  0  0  0  0  0  0  0
   11.7011   14.0741   19.6784 C   0  0  0  0  0  0  0  0  0  0  0  0
   12.3285   13.4742   22.0431 C   0  0  0  0  0  0  0  0  0  0  0  0
   10.4116   12.3323   20.9839 C   0  0  0  0  0  0  0  0  0  0  0  0
   10.3359   13.3956   19.8762 C   0  0  1  0  0  0  0  0  0  0  0  0
    9.2332   14.4180   20.1681 C   0  0  0  0  0  0  0  0  0  0  0  0
    8.4807    9.7712   23.8529 N   0  0  0  0  0  0  0  0  0  0  0  0
    7.8314   12.9417   25.3376 N   0  0  0  0  0  0  0  0  0  0  0  0
    7.7867   10.6392   24.6347 N   0  0  0  0  0  0  0  0  0  0  0  0
   11.0006   12.8824   22.2149 N   0  0  0  0  0  0  0  0  0  0  0  0
   10.5783   13.8159   24.2929 O   0  0  0  0  0  0  0  0  0  0  0  0
   10.1866   10.0183   22.6912 H   0  0  0  0  0  0  0  0  0  0  0  0
    5.1893   11.2296   26.7114 H   0  0  0  0  0  0  0  0  0  0  0  0
    6.2448    9.3740   25.3517 H   0  0  0  0  0  0  0  0  0  0  0  0
    6.2998   13.4689   26.6193 H   0  0  0  0  0  0  0  0  0  0  0  0
   13.3177   14.9444   20.8156 H   0  0  0  0  0  0  0  0  0  0  0  0
   11.7122   15.4255   21.3615 H   0  0  0  0  0  0  0  0  0  0  0  0
   11.5990   14.9228   18.9805 H   0  0  0  0  0  0  0  0  0  0  0  0
   12.4051   13.3710   19.2040 H   0  0  0  0  0  0  0  0  0  0  0  0
   13.0615   12.7101   21.7590 H   0  0  0  0  0  0  0  0  0  0  0  0
   12.6377   13.8759   23.0171 H   0  0  0  0  0  0  0  0  0  0  0  0
    9.4066   11.9674   21.2432 H   0  0  0  0  0  0  0  0  0  0  0  0
   10.9769   11.4644   20.6240 H   0  0  0  0  0  0  0  0  0  0  0  0
   10.0662   12.8806   18.9302 H   0  0  0  0  0  0  0  0  0  0  0  0
    9.4574   14.9493   21.0917 H   0  0  0  0  0  0  0  0  0  0  0  0
    8.2763   13.9093   20.2728 H   0  0  0  0  0  0  0  0  0  0  0  0
    9.1686   15.1348   19.3510 H   0  0  0  0  0  0  0  0  0  0  0  0
  1  2  1  0  0  0  0
  1 14  2  0  0  0  0
  2  3  2  0  0  0  0
  2  7  1  0  0  0  0
  3 15  1  0  0  0  0
  3 16  1  0  0  0  0
  4  5  2  0  0  0  0
  4  6  1  0  0  0  0
  5 16  1  0  0  0  0
  6 15  2  0  0  0  0
  7 17  1  0  0  0  0
  7 18  2  0  0  0  0
  8  9  1  0  0  0  0
  8 10  1  0  0  0  0
  9 12  1  0  0  0  0
 10 17  1  0  0  0  0
 11 12  1  0  0  0  0
 11 17  1  0  0  0  0
 12 13  1  0  0  0  0
 14 16  1  0  0  0  0
  1 19  1  0  0  0  0
  4 20  1  0  0  0  0
  5 21  1  0  0  0  0
  6 22  1  0  0  0  0
  8 23  1  0  0  0  0
  8 24  1  0  0  0  0
  9 25  1  0  0  0  0
  9 26  1  0  0  0  0
 10 27  1  0  0  0  0
 10 28  1  0  0  0  0
 11 29  1  0  0  0  0
 11 30  1  0  0  0  0
 12 31  1  0  0  0  0
 13 32  1  0  0  0  0
 13 33  1  0  0  0  0
 13 34  1  0  0  0  0
M  END
> <Catalog ID>
Z285640126

> <PlateID>
1337959-R-14

> <Well>
C11

> <MW (desalted)>
244.292

> <CLogP>
0.854

> <HBD>
0

> <TPSA>
50.500

> <RotBonds>
1

> <ROCS_ShapeQuery>
A71EV2A-x0451_0A_A71EV2A-x0310_0A_A71EV2A-x0416_0A_peptide

> <ROCS_TanimotoCombo>
0.454 

> <ROCS_ShapeTanimoto>
0.301 

> <ROCS_ColorTanimoto>
0.153 

> <ROCS_RefTversky>
0.270 

> <ROCS_RefColorTversky>
0.164 

> <ROCS_RefTverskyCombo>
0.434 

> <ROCS_FitTversky>
1.630 

> <ROCS_FitColorTversky>
0.684 

> <ROCS_FitTverskyCombo>
2.314 

> <ROCS_ColorScore>
-4.997

> <ROCS_Overlap>
1870.268

> <ROCS_Rank>
56                  

$$$$
untitled-dbase-549_103
  -OEChem-11112309163D

 40 41  0     1  0  0  0  0  0999 V2000
    9.1151   10.1429   23.4227 C   0  0  0  0  0  0  0  0  0  0  0  0
    8.3975   12.0018   24.3525 C   0  0  0  0  0  0  0  0  0  0  0  0
    9.3335   11.5330   23.4633 C   0  0  0  0  0  0  0  0  0  0  0  0
   10.8916   13.4944   23.1752 C   0  0  0  0  0  0  0  0  0  0  0  0
   13.1716   15.6432   20.2200 C   0  0  0  0  0  0  0  0  0  0  0  0
   11.8133   15.0077   19.9563 C   0  0  0  0  0  0  0  0  0  0  0  0
   13.3181   15.9636   21.7026 C   0  0  0  0  0  0  0  0  0  0  0  0
   11.6125   13.7701   20.8199 C   0  0  0  0  0  0  0  0  0  0  0  0
   13.0713   14.7476   22.6112 C   0  0  2  0  0  0  0  0  0  0  0  0
   15.3688   14.3080   23.5236 C   0  0  0  0  0  0  0  0  0  0  0  0
   13.8122   12.3921   23.0656 C   0  0  0  0  0  0  0  0  0  0  0  0
    6.6104   10.8965   25.7175 C   0  0  0  0  0  0  0  0  0  0  0  0
   14.2581   13.7815   22.6193 C   0  0  0  0  0  0  0  0  0  0  0  0
    8.1188    9.7538   24.2227 N   0  0  0  0  0  0  0  0  0  0  0  0
    7.7027   10.9065   24.7744 N   0  0  0  0  0  0  0  0  0  0  0  0
   11.8179   14.0398   22.2499 N   0  0  0  0  0  0  0  0  0  0  0  0
   10.2913   12.3051   22.7595 N   0  0  0  0  0  0  0  0  0  0  0  0
   10.6359   14.0538   24.2447 O   0  0  0  0  0  0  0  0  0  0  0  0
    9.6386    9.3950   22.8441 H   0  0  0  0  0  0  0  0  0  0  0  0
    8.1717   12.9965   24.7130 H   0  0  0  0  0  0  0  0  0  0  0  0
   13.9716   14.9674   19.8967 H   0  0  0  0  0  0  0  0  0  0  0  0
   13.2713   16.5617   19.6309 H   0  0  0  0  0  0  0  0  0  0  0  0
   11.0159   15.7330   20.1598 H   0  0  0  0  0  0  0  0  0  0  0  0
   11.7352   14.7350   18.8978 H   0  0  0  0  0  0  0  0  0  0  0  0
   14.3141   16.3815   21.8913 H   0  0  0  0  0  0  0  0  0  0  0  0
   12.5976   16.7496   21.9654 H   0  0  0  0  0  0  0  0  0  0  0  0
   10.6108   13.3656   20.6423 H   0  0  0  0  0  0  0  0  0  0  0  0
   12.3234   12.9860   20.5338 H   0  0  0  0  0  0  0  0  0  0  0  0
   12.9751   15.1533   23.6219 H   0  0  0  0  0  0  0  0  0  0  0  0
   15.0297   14.3990   24.5613 H   0  0  0  0  0  0  0  0  0  0  0  0
   15.7077   15.2946   23.1906 H   0  0  0  0  0  0  0  0  0  0  0  0
   16.2322   13.6345   23.5075 H   0  0  0  0  0  0  0  0  0  0  0  0
   13.4130   12.4089   24.0855 H   0  0  0  0  0  0  0  0  0  0  0  0
   14.6526   11.6903   23.0423 H   0  0  0  0  0  0  0  0  0  0  0  0
   13.0322   12.0018   22.4033 H   0  0  0  0  0  0  0  0  0  0  0  0
    5.6800   11.0217   25.1574 H   0  0  0  0  0  0  0  0  0  0  0  0
    6.6056    9.9464   26.2591 H   0  0  0  0  0  0  0  0  0  0  0  0
    6.7415   11.7148   26.4310 H   0  0  0  0  0  0  0  0  0  0  0  0
   14.6474   13.7095   21.5975 H   0  0  0  0  0  0  0  0  0  0  0  0
   10.5753   11.9276   21.8139 H   0  0  0  0  0  0  0  0  0  0  0  0
  1  3  1  0  0  0  0
  1 14  2  0  0  0  0
  2  3  2  0  0  0  0
  2 15  1  0  0  0  0
  3 17  1  0  0  0  0
  4 16  1  0  0  0  0
  4 17  1  0  0  0  0
  4 18  2  0  0  0  0
  5  6  1  0  0  0  0
  5  7  1  0  0  0  0
  6  8  1  0  0  0  0
  7  9  1  0  0  0  0
  8 16  1  0  0  0  0
  9 13  1  0  0  0  0
  9 16  1  0  0  0  0
 10 13  1  0  0  0  0
 11 13  1  0  0  0  0
 12 15  1  0  0  0  0
 14 15  1  0  0  0  0
  1 19  1  0  0  0  0
  2 20  1  0  0  0  0
  5 21  1  0  0  0  0
  5 22  1  0  0  0  0
  6 23  1  0  0  0  0
  6 24  1  0  0  0  0
  7 25  1  0  0  0  0
  7 26  1  0  0  0  0
  8 27  1  0  0  0  0
  8 28  1  0  0  0  0
  9 29  1  0  0  0  0
 10 30  1  0  0  0  0
 10 31  1  0  0  0  0
 10 32  1  0  0  0  0
 11 33  1  0  0  0  0
 11 34  1  0  0  0  0
 11 35  1  0  0  0  0
 12 36  1  0  0  0  0
 12 37  1  0  0  0  0
 12 38  1  0  0  0  0
 13 39  1  0  0  0  0
 17 40  1  0  0  0  0
M  END
> <Catalog ID>
Z1673987193

> <PlateID>
1337959-R-07

> <Well>
G11

> <MW (desalted)>
250.340

> <CLogP>
1.889

> <HBD>
1

> <TPSA>
50.160

> <RotBonds>
2

> <ROCS_ShapeQuery>
A71EV2A-x0451_0A_A71EV2A-x0310_0A_A71EV2A-x0416_0A_peptide

> <ROCS_TanimotoCombo>
0.453 

> <ROCS_ShapeTanimoto>
0.288 

> <ROCS_ColorTanimoto>
0.165 

> <ROCS_RefTversky>
0.259 

> <ROCS_RefColorTversky>
0.176 

> <ROCS_RefTverskyCombo>
0.435 

> <ROCS_FitTversky>
1.616 

> <ROCS_FitColorTversky>
0.734 

> <ROCS_FitTverskyCombo>
2.350 

> <ROCS_ColorScore>
-5.346

> <ROCS_Overlap>
1797.570

> <ROCS_Rank>
57                  

$$$$
untitled-dbase-1067_38
  -OEChem-11112309163D

 40 41  0     1  0  0  0  0  0999 V2000
    7.8172    9.9723   23.8395 C   0  0  0  0  0  0  0  0  0  0  0  0
    7.4749   11.1162   24.5852 C   0  0  0  0  0  0  0  0  0  0  0  0
    9.1479   10.1408   23.5437 C   0  0  0  0  0  0  0  0  0  0  0  0
   10.7658   13.3204   23.3787 C   0  0  0  0  0  0  0  0  0  0  0  0
   11.9535   15.5688   21.5668 C   0  0  0  0  0  0  0  0  0  0  0  0
   11.1739   16.8680   21.7163 C   0  0  0  0  0  0  0  0  0  0  0  0
    9.5789   15.2521   21.2623 C   0  0  0  0  0  0  0  0  0  0  0  0
   10.9117   14.5237   21.1678 C   0  0  2  0  0  0  0  0  0  0  0  0
    6.1611   11.4536   25.1584 C   0  0  0  0  0  0  0  0  0  0  0  0
   10.0872    9.2916   22.7885 C   0  0  0  0  0  0  0  0  0  0  0  0
   11.3924   12.0679   25.4934 C   0  0  0  0  0  0  0  0  0  0  0  0
   11.2934   12.1149   21.2934 C   0  0  0  0  0  0  0  0  0  0  0  0
   10.8362   11.9571   24.0735 C   0  0  1  0  0  0  0  0  0  0  0  0
    8.5050   11.9497   24.7530 N   0  0  0  0  0  0  0  0  0  0  0  0
    9.5077   11.3289   24.1086 N   0  0  0  0  0  0  0  0  0  0  0  0
    9.9386   16.6374   20.9712 N   0  0  0  0  0  0  0  0  0  0  0  0
   10.9523   13.3482   21.9928 N   0  0  0  0  0  0  0  0  0  0  0  0
   10.5415   14.3368   24.0446 O   0  0  0  0  0  0  0  0  0  0  0  0
    7.1875    9.1416   23.5550 H   0  0  0  0  0  0  0  0  0  0  0  0
   12.7120   15.6556   20.7799 H   0  0  0  0  0  0  0  0  0  0  0  0
   12.4706   15.3213   22.5007 H   0  0  0  0  0  0  0  0  0  0  0  0
   10.9489   17.0581   22.7725 H   0  0  0  0  0  0  0  0  0  0  0  0
   11.7275   17.7252   21.3229 H   0  0  0  0  0  0  0  0  0  0  0  0
    8.8478   14.8677   20.5449 H   0  0  0  0  0  0  0  0  0  0  0  0
    9.1483   15.1817   22.2690 H   0  0  0  0  0  0  0  0  0  0  0  0
   11.0945   14.2065   20.1379 H   0  0  0  0  0  0  0  0  0  0  0  0
    6.0563   11.0553   26.1822 H   0  0  0  0  0  0  0  0  0  0  0  0
    5.9951   12.5447   25.2078 H   0  0  0  0  0  0  0  0  0  0  0  0
    5.3272   11.0486   24.5573 H   0  0  0  0  0  0  0  0  0  0  0  0
   10.0865    9.5514   21.7166 H   0  0  0  0  0  0  0  0  0  0  0  0
   11.1238    9.3907   23.1553 H   0  0  0  0  0  0  0  0  0  0  0  0
    9.8372    8.2194   22.8723 H   0  0  0  0  0  0  0  0  0  0  0  0
   10.7559   12.6937   26.1283 H   0  0  0  0  0  0  0  0  0  0  0  0
   12.3954   12.5073   25.4872 H   0  0  0  0  0  0  0  0  0  0  0  0
   11.4536   11.0794   25.9607 H   0  0  0  0  0  0  0  0  0  0  0  0
   10.3713   11.6049   20.9777 H   0  0  0  0  0  0  0  0  0  0  0  0
   11.9026   12.3517   20.4087 H   0  0  0  0  0  0  0  0  0  0  0  0
   11.8638   11.4577   21.9663 H   0  0  0  0  0  0  0  0  0  0  0  0
   11.5272   11.3200   23.5115 H   0  0  0  0  0  0  0  0  0  0  0  0
    9.2065   17.2742   21.2807 H   0  0  0  0  0  0  0  0  0  0  0  0
  1  2  1  0  0  0  0
  1  3  2  0  0  0  0
  2  9  1  0  0  0  0
  2 14  2  0  0  0  0
  3 10  1  0  0  0  0
  3 15  1  0  0  0  0
  4 13  1  0  0  0  0
  4 17  1  0  0  0  0
  4 18  2  0  0  0  0
  5  6  1  0  0  0  0
  5  8  1  0  0  0  0
  6 16  1  0  0  0  0
  7  8  1  0  0  0  0
  7 16  1  0  0  0  0
  8 17  1  0  0  0  0
 11 13  1  0  0  0  0
 12 17  1  0  0  0  0
 13 15  1  0  0  0  0
 14 15  1  0  0  0  0
  1 19  1  0  0  0  0
  5 20  1  0  0  0  0
  5 21  1  0  0  0  0
  6 22  1  0  0  0  0
  6 23  1  0  0  0  0
  7 24  1  0  0  0  0
  7 25  1  0  0  0  0
  8 26  1  0  0  0  0
  9 27  1  0  0  0  0
  9 28  1  0  0  0  0
  9 29  1  0  0  0  0
 10 30  1  0  0  0  0
 10 31  1  0  0  0  0
 10 32  1  0  0  0  0
 11 33  1  0  0  0  0
 11 34  1  0  0  0  0
 11 35  1  0  0  0  0
 12 36  1  0  0  0  0
 12 37  1  0  0  0  0
 12 38  1  0  0  0  0
 13 39  1  0  0  0  0
 16 40  1  0  0  0  0
M  END
> <Catalog ID>
Z2378832133

> <PlateID>
1337959-R-14

> <Well>
D03

> <MW (desalted)>
250.340

> <CLogP>
0.834

> <HBD>
1

> <TPSA>
50.160

> <RotBonds>
3

> <ROCS_ShapeQuery>
A71EV2A-x0451_0A_A71EV2A-x0310_0A_A71EV2A-x0416_0A_peptide

> <ROCS_TanimotoCombo>
0.453 

> <ROCS_ShapeTanimoto>
0.291 

> <ROCS_ColorTanimoto>
0.162 

> <ROCS_RefTversky>
0.262 

> <ROCS_RefColorTversky>
0.173 

> <ROCS_RefTverskyCombo>
0.434 

> <ROCS_FitTversky>
1.617 

> <ROCS_FitColorTversky>
0.721 

> <ROCS_FitTverskyCombo>
2.338 

> <ROCS_ColorScore>
-5.250

> <ROCS_Overlap>
1816.749

> <ROCS_Rank>
58                  

$$$$
untitled-dbase-832_63
  -OEChem-11112309163D

 31 32  0     1  0  0  0  0  0999 V2000
    6.8950   12.8394   25.6321 C   0  0  0  0  0  0  0  0  0  0  0  0
    5.9987   11.7808   25.6301 C   0  0  0  0  0  0  0  0  0  0  0  0
    8.1292   12.7049   24.9953 C   0  0  0  0  0  0  0  0  0  0  0  0
    6.3470   10.5837   25.0089 C   0  0  0  0  0  0  0  0  0  0  0  0
    8.4926   11.5168   24.3260 C   0  0  0  0  0  0  0  0  0  0  0  0
    7.5930   10.4337   24.3728 C   0  0  0  0  0  0  0  0  0  0  0  0
   10.7087   13.7690   23.3741 C   0  0  0  0  0  0  0  0  0  0  0  0
   10.0925   10.2055   22.7819 C   0  0  0  0  0  0  0  0  0  0  0  0
    9.7249    8.9173   23.4920 C   0  0  0  0  0  0  0  0  0  0  0  0
    9.8579   11.4438   23.6581 C   0  0  1  0  0  0  0  0  0  0  0  0
   12.8936   15.8498   23.0021 C   0  0  0  0  0  0  0  0  0  0  0  0
   10.8933   14.8291   22.3093 C   0  0  0  0  0  0  0  0  0  0  0  0
   10.1433   12.6189   22.8526 N   0  0  0  0  0  0  0  0  0  0  0  0
   11.0323   13.9416   24.5461 O   0  0  0  0  0  0  0  0  0  0  0  0
   11.4831   15.9888   22.8573 O   0  0  0  0  0  0  0  0  0  0  0  0
    7.9274    8.8202   23.6755 S   0  0  0  0  0  0  0  0  0  0  0  0
    6.6388   13.7717   26.1275 H   0  0  0  0  0  0  0  0  0  0  0  0
    5.0305   11.8840   26.1096 H   0  0  0  0  0  0  0  0  0  0  0  0
    8.8225   13.5462   25.0229 H   0  0  0  0  0  0  0  0  0  0  0  0
    5.6296    9.7652   25.0275 H   0  0  0  0  0  0  0  0  0  0  0  0
   11.1415   10.1736   22.4615 H   0  0  0  0  0  0  0  0  0  0  0  0
    9.4997   10.2948   21.8637 H   0  0  0  0  0  0  0  0  0  0  0  0
   10.0763    8.0443   22.9482 H   0  0  0  0  0  0  0  0  0  0  0  0
   10.1633    8.9016   24.4869 H   0  0  0  0  0  0  0  0  0  0  0  0
   10.6370   11.4280   24.4333 H   0  0  0  0  0  0  0  0  0  0  0  0
   13.3090   16.7664   23.4279 H   0  0  0  0  0  0  0  0  0  0  0  0
   13.3433   15.6526   22.0257 H   0  0  0  0  0  0  0  0  0  0  0  0
   13.1013   15.0125   23.6725 H   0  0  0  0  0  0  0  0  0  0  0  0
   11.5513   14.4423   21.5253 H   0  0  0  0  0  0  0  0  0  0  0  0
    9.9265   15.0906   21.8680 H   0  0  0  0  0  0  0  0  0  0  0  0
    9.9181   12.5950   21.8645 H   0  0  0  0  0  0  0  0  0  0  0  0
  1  2  2  0  0  0  0
  1  3  1  0  0  0  0
  2  4  1  0  0  0  0
  3  5  2  0  0  0  0
  4  6  2  0  0  0  0
  5  6  1  0  0  0  0
  5 10  1  0  0  0  0
  6 16  1  0  0  0  0
  7 12  1  0  0  0  0
  7 13  1  0  0  0  0
  7 14  2  0  0  0  0
  8  9  1  0  0  0  0
  8 10  1  0  0  0  0
  9 16  1  0  0  0  0
 10 13  1  0  0  0  0
 11 15  1  0  0  0  0
 12 15  1  0  0  0  0
  1 17  1  0  0  0  0
  2 18  1  0  0  0  0
  3 19  1  0  0  0  0
  4 20  1  0  0  0  0
  8 21  1  0  0  0  0
  8 22  1  0  0  0  0
  9 23  1  0  0  0  0
  9 24  1  0  0  0  0
 10 25  1  0  0  0  0
 11 26  1  0  0  0  0
 11 27  1  0  0  0  0
 11 28  1  0  0  0  0
 12 29  1  0  0  0  0
 12 30  1  0  0  0  0
 13 31  1  0  0  0  0
M  END
> <Catalog ID>
Z82833794

> <PlateID>
1337959-R-11

> <Well>
D05

> <MW (desalted)>
237.318

> <CLogP>
1.485

> <HBD>
1

> <TPSA>
38.330

> <RotBonds>
3

> <ROCS_ShapeQuery>
A71EV2A-x0451_0A_A71EV2A-x0310_0A_A71EV2A-x0416_0A_peptide

> <ROCS_TanimotoCombo>
0.453 

> <ROCS_ShapeTanimoto>
0.307 

> <ROCS_ColorTanimoto>
0.146 

> <ROCS_RefTversky>
0.269 

> <ROCS_RefColorTversky>
0.154 

> <ROCS_RefTverskyCombo>
0.423 

> <ROCS_FitTversky>
1.846 

> <ROCS_FitColorTversky>
0.738 

> <ROCS_FitTverskyCombo>
2.583 

> <ROCS_ColorScore>
-4.675

> <ROCS_Overlap>
1863.706

> <ROCS_Rank>
59                  

$$$$
untitled-dbase-973_789
  -OEChem-11112309163D

 37 38  0     1  0  0  0  0  0999 V2000
    7.3950   10.4485   24.3038 C   0  0  0  0  0  0  0  0  0  0  0  0
    7.6127   11.7942   24.5993 C   0  0  0  0  0  0  0  0  0  0  0  0
    8.4135    9.6865   23.7314 C   0  0  0  0  0  0  0  0  0  0  0  0
    8.8489   12.3779   24.3223 C   0  0  0  0  0  0  0  0  0  0  0  0
    9.6497   10.2702   23.4544 C   0  0  0  0  0  0  0  0  0  0  0  0
    9.8674   11.6159   23.7498 C   0  0  0  0  0  0  0  0  0  0  0  0
   11.0413   13.7160   23.1304 C   0  0  0  0  0  0  0  0  0  0  0  0
   10.6685   13.9975   19.5184 C   0  0  0  0  0  0  0  0  0  0  0  0
   11.2056   15.4095   19.2794 C   0  0  0  0  0  0  0  0  0  0  0  0
   11.4139   13.2950   20.6510 C   0  0  0  0  0  0  0  0  0  0  0  0
   11.9974   15.4738   21.6710 C   0  0  0  0  0  0  0  0  0  0  0  0
   11.2592   16.2379   20.5683 C   0  0  2  0  0  0  0  0  0  0  0  0
   10.7259    9.4346   22.8424 C   0  0  0  0  0  0  0  0  0  0  0  0
   11.1878   12.2656   23.4604 C   0  0  0  0  0  0  0  0  0  0  0  0
   11.4481   14.1288   21.8578 N   0  0  0  0  0  0  0  0  0  0  0  0
    9.9137   16.5563   21.0073 N   0  0  0  0  0  0  0  0  0  0  0  0
   10.5724   14.4569   23.9905 O   0  0  0  0  0  0  0  0  0  0  0  0
    6.4322    9.9947   24.5188 H   0  0  0  0  0  0  0  0  0  0  0  0
    6.8191   12.3870   25.0447 H   0  0  0  0  0  0  0  0  0  0  0  0
    8.2333    8.6392   23.5035 H   0  0  0  0  0  0  0  0  0  0  0  0
    9.0090   13.4271   24.5565 H   0  0  0  0  0  0  0  0  0  0  0  0
    9.5993   14.0461   19.7556 H   0  0  0  0  0  0  0  0  0  0  0  0
   10.7646   13.4078   18.5977 H   0  0  0  0  0  0  0  0  0  0  0  0
   12.2091   15.3440   18.8261 H   0  0  0  0  0  0  0  0  0  0  0  0
   10.5657   15.9122   18.5328 H   0  0  0  0  0  0  0  0  0  0  0  0
   10.9078   12.3611   20.9187 H   0  0  0  0  0  0  0  0  0  0  0  0
   12.4250   13.0379   20.3239 H   0  0  0  0  0  0  0  0  0  0  0  0
   13.0712   15.4457   21.4468 H   0  0  0  0  0  0  0  0  0  0  0  0
   11.8976   15.9918   22.6387 H   0  0  0  0  0  0  0  0  0  0  0  0
   11.7948   17.1717   20.3681 H   0  0  0  0  0  0  0  0  0  0  0  0
   10.6671    9.4810   21.7489 H   0  0  0  0  0  0  0  0  0  0  0  0
   11.7199    9.7783   23.1541 H   0  0  0  0  0  0  0  0  0  0  0  0
   10.6385    8.3862   23.1533 H   0  0  0  0  0  0  0  0  0  0  0  0
   11.8511   12.1705   24.3218 H   0  0  0  0  0  0  0  0  0  0  0  0
   11.6880   11.7715   22.6262 H   0  0  0  0  0  0  0  0  0  0  0  0
    9.2751   16.1453   20.3691 H   0  0  0  0  0  0  0  0  0  0  0  0
    9.7902   16.1832   21.9182 H   0  0  0  0  0  0  0  0  0  0  0  0
  1  2  2  0  0  0  0
  1  3  1  0  0  0  0
  2  4  1  0  0  0  0
  3  5  2  0  0  0  0
  4  6  2  0  0  0  0
  5  6  1  0  0  0  0
  5 13  1  0  0  0  0
  6 14  1  0  0  0  0
  7 14  1  0  0  0  0
  7 15  1  0  0  0  0
  7 17  2  0  0  0  0
  8  9  1  0  0  0  0
  8 10  1  0  0  0  0
  9 12  1  0  0  0  0
 10 15  1  0  0  0  0
 11 12  1  0  0  0  0
 11 15  1  0  0  0  0
 12 16  1  0  0  0  0
  1 18  1  0  0  0  0
  2 19  1  0  0  0  0
  3 20  1  0  0  0  0
  4 21  1  0  0  0  0
  8 22  1  0  0  0  0
  8 23  1  0  0  0  0
  9 24  1  0  0  0  0
  9 25  1  0  0  0  0
 10 26  1  0  0  0  0
 10 27  1  0  0  0  0
 11 28  1  0  0  0  0
 11 29  1  0  0  0  0
 12 30  1  0  0  0  0
 13 31  1  0  0  0  0
 13 32  1  0  0  0  0
 13 33  1  0  0  0  0
 14 34  1  0  0  0  0
 14 35  1  0  0  0  0
 16 36  1  0  0  0  0
 16 37  1  0  0  0  0
M  END
> <Catalog ID>
Z802635602

> <PlateID>
1337959-R-13

> <Well>
B08

> <MW (desalted)>
232.321

> <CLogP>
1.732

> <HBD>
1

> <TPSA>
46.330

> <RotBonds>
2

> <ROCS_ShapeQuery>
A71EV2A-x0451_0A_A71EV2A-x0310_0A_A71EV2A-x0416_0A_peptide

> <ROCS_TanimotoCombo>
0.453 

> <ROCS_ShapeTanimoto>
0.287 

> <ROCS_ColorTanimoto>
0.165 

> <ROCS_RefTversky>
0.257 

> <ROCS_RefColorTversky>
0.171 

> <ROCS_RefTverskyCombo>
0.429 

> <ROCS_FitTversky>
1.675 

> <ROCS_FitColorTversky>
0.822 

> <ROCS_FitTverskyCombo>
2.497 

> <ROCS_ColorScore>
-5.209

> <ROCS_Overlap>
1784.859

> <ROCS_Rank>
60                  

$$$$
untitled-dbase-920_124
  -OEChem-11112309163D

 31 32  0     1  0  0  0  0  0999 V2000
    9.9757   11.1237   23.0752 C   0  0  0  0  0  0  0  0  0  0  0  0
    8.3390   12.5002   24.1994 C   0  0  0  0  0  0  0  0  0  0  0  0
    9.5988   12.3515   23.6193 C   0  0  0  0  0  0  0  0  0  0  0  0
    9.0926   10.0445   23.1111 C   0  0  0  0  0  0  0  0  0  0  0  0
    7.4560   11.4210   24.2352 C   0  0  0  0  0  0  0  0  0  0  0  0
    7.8328   10.1931   23.6911 C   0  0  0  0  0  0  0  0  0  0  0  0
   10.5297   13.4905   23.5807 C   0  0  0  0  0  0  0  0  0  0  0  0
   12.2022   15.1119   20.7183 C   0  0  0  0  0  0  0  0  0  0  0  0
   11.8613   15.0587   22.1997 C   0  0  0  0  0  0  0  0  0  0  0  0
   10.5299   13.4311   21.0288 C   0  0  0  0  0  0  0  0  0  0  0  0
   10.9740   14.5033   20.0329 C   0  0  1  0  0  0  0  0  0  0  0  0
    9.8792   15.5406   19.7907 C   0  0  0  0  0  0  0  0  0  0  0  0
   10.9523   13.9317   22.3359 N   0  0  0  0  0  0  0  0  0  0  0  0
    9.7719   16.4130   20.9150 N   0  0  0  0  0  0  0  0  0  0  0  0
   10.8638   13.9835   24.6562 O   0  0  0  0  0  0  0  0  0  0  0  0
    9.4539    8.8656   22.5878 F   0  0  0  0  0  0  0  0  0  0  0  0
    6.2459   11.5641   24.7911 F   0  0  0  0  0  0  0  0  0  0  0  0
    6.9854    9.1565   23.7242 F   0  0  0  0  0  0  0  0  0  0  0  0
   10.9547   10.9969   22.6205 H   0  0  0  0  0  0  0  0  0  0  0  0
    8.0340   13.4523   24.6256 H   0  0  0  0  0  0  0  0  0  0  0  0
   12.3483   16.1566   20.4040 H   0  0  0  0  0  0  0  0  0  0  0  0
   13.1221   14.5594   20.4848 H   0  0  0  0  0  0  0  0  0  0  0  0
   12.7480   14.8458   22.8081 H   0  0  0  0  0  0  0  0  0  0  0  0
   11.3977   15.9795   22.5679 H   0  0  0  0  0  0  0  0  0  0  0  0
    9.4385   13.3115   21.0555 H   0  0  0  0  0  0  0  0  0  0  0  0
   10.9844   12.4547   20.8216 H   0  0  0  0  0  0  0  0  0  0  0  0
   11.2588   14.0469   19.0966 H   0  0  0  0  0  0  0  0  0  0  0  0
   10.1503   16.1066   18.8978 H   0  0  0  0  0  0  0  0  0  0  0  0
    8.9414   15.0035   19.6384 H   0  0  0  0  0  0  0  0  0  0  0  0
   10.6484   16.8737   21.0777 H   0  0  0  0  0  0  0  0  0  0  0  0
    9.0666   17.1063   20.7455 H   0  0  0  0  0  0  0  0  0  0  0  0
  1  3  2  0  0  0  0
  1  4  1  0  0  0  0
  2  3  1  0  0  0  0
  2  5  2  0  0  0  0
  3  7  1  0  0  0  0
  4  6  2  0  0  0  0
  4 16  1  0  0  0  0
  5  6  1  0  0  0  0
  5 17  1  0  0  0  0
  6 18  1  0  0  0  0
  7 13  1  0  0  0  0
  7 15  2  0  0  0  0
  8  9  1  0  0  0  0
  8 11  1  0  0  0  0
  9 13  1  0  0  0  0
 10 11  1  0  0  0  0
 10 13  1  0  0  0  0
 11 12  1  0  0  0  0
 12 14  1  0  0  0  0
  1 19  1  0  0  0  0
  2 20  1  0  0  0  0
  8 21  1  0  0  0  0
  8 22  1  0  0  0  0
  9 23  1  0  0  0  0
  9 24  1  0  0  0  0
 10 25  1  0  0  0  0
 10 26  1  0  0  0  0
 11 27  1  0  0  0  0
 12 28  1  0  0  0  0
 12 29  1  0  0  0  0
 14 30  1  0  0  0  0
 14 31  1  0  0  0  0
M  END
> <Catalog ID>
Z1456631886

> <PlateID>
1337959-R-12

> <Well>
E04

> <MW (desalted)>
258.240

> <CLogP>
0.273

> <HBD>
1

> <TPSA>
46.330

> <RotBonds>
2

> <ROCS_ShapeQuery>
A71EV2A-x0451_0A_A71EV2A-x0310_0A_A71EV2A-x0416_0A_peptide

> <ROCS_TanimotoCombo>
0.453 

> <ROCS_ShapeTanimoto>
0.301 

> <ROCS_ColorTanimoto>
0.151 

> <ROCS_RefTversky>
0.269 

> <ROCS_RefColorTversky>
0.159 

> <ROCS_RefTverskyCombo>
0.428 

> <ROCS_FitTversky>
1.658 

> <ROCS_FitColorTversky>
0.760 

> <ROCS_FitTverskyCombo>
2.418 

> <ROCS_ColorScore>
-4.817

> <ROCS_Overlap>
1867.756

> <ROCS_Rank>
61                  

$$$$
untitled-dbase-975_260
  -OEChem-11112309163D

 34 35  0     0  0  0  0  0  0999 V2000
   13.4558   16.5732   24.5233 C   0  0  0  0  0  0  0  0  0  0  0  0
   14.2052   15.6702   25.2691 C   0  0  0  0  0  0  0  0  0  0  0  0
    7.7761    9.9727   24.1570 C   0  0  0  0  0  0  0  0  0  0  0  0
    7.5186   11.2017   24.7642 C   0  0  0  0  0  0  0  0  0  0  0  0
   12.7413   16.1282   23.4166 C   0  0  0  0  0  0  0  0  0  0  0  0
    9.7628   10.8933   23.1360 C   0  0  0  0  0  0  0  0  0  0  0  0
   14.2072   14.3435   24.8698 C   0  0  0  0  0  0  0  0  0  0  0  0
    9.5054   12.1224   23.7432 C   0  0  0  0  0  0  0  0  0  0  0  0
    8.8982    9.8184   23.3429 C   0  0  0  0  0  0  0  0  0  0  0  0
    8.3832   12.2765   24.5573 C   0  0  0  0  0  0  0  0  0  0  0  0
   12.8090   14.7809   23.1001 C   0  0  0  0  0  0  0  0  0  0  0  0
   10.4244   13.2283   23.5103 C   0  0  0  0  0  0  0  0  0  0  0  0
    9.1730    8.5041   22.6939 C   0  0  0  0  0  0  0  0  0  0  0  0
    8.0837   13.5816   25.2198 C   0  0  0  0  0  0  0  0  0  0  0  0
   12.0502   14.2654   21.9116 C   0  0  0  0  0  0  0  0  0  0  0  0
   13.5259   13.8739   23.8007 N   0  0  0  0  0  0  0  0  0  0  0  0
   11.0916   13.2489   22.2813 N   0  0  0  0  0  0  0  0  0  0  0  0
   10.6062   14.0902   24.3868 O   0  0  0  0  0  0  0  0  0  0  0  0
   13.4286   17.6218   24.8042 H   0  0  0  0  0  0  0  0  0  0  0  0
   14.7699   15.9947   26.1356 H   0  0  0  0  0  0  0  0  0  0  0  0
    7.0970    9.1408   24.3238 H   0  0  0  0  0  0  0  0  0  0  0  0
    6.6417   11.3116   25.3968 H   0  0  0  0  0  0  0  0  0  0  0  0
   12.1528   16.8225   22.8265 H   0  0  0  0  0  0  0  0  0  0  0  0
   10.6371   10.7698   22.5005 H   0  0  0  0  0  0  0  0  0  0  0  0
   14.7758   13.5995   25.4179 H   0  0  0  0  0  0  0  0  0  0  0  0
    8.6900    8.4554   21.7103 H   0  0  0  0  0  0  0  0  0  0  0  0
   10.2507    8.3430   22.5606 H   0  0  0  0  0  0  0  0  0  0  0  0
    8.8009    7.6720   23.3058 H   0  0  0  0  0  0  0  0  0  0  0  0
    8.5611   13.6252   26.2054 H   0  0  0  0  0  0  0  0  0  0  0  0
    8.4463   14.4237   24.6178 H   0  0  0  0  0  0  0  0  0  0  0  0
    7.0033   13.7219   25.3476 H   0  0  0  0  0  0  0  0  0  0  0  0
   11.5064   15.0784   21.4183 H   0  0  0  0  0  0  0  0  0  0  0  0
   12.7291   13.8314   21.1700 H   0  0  0  0  0  0  0  0  0  0  0  0
   10.9529   12.4856   21.6272 H   0  0  0  0  0  0  0  0  0  0  0  0
  1  2  2  0  0  0  0
  1  5  1  0  0  0  0
  2  7  1  0  0  0  0
  3  4  1  0  0  0  0
  3  9  2  0  0  0  0
  4 10  2  0  0  0  0
  5 11  2  0  0  0  0
  6  8  2  0  0  0  0
  6  9  1  0  0  0  0
  7 16  2  0  0  0  0
  8 10  1  0  0  0  0
  8 12  1  0  0  0  0
  9 13  1  0  0  0  0
 10 14  1  0  0  0  0
 11 15  1  0  0  0  0
 11 16  1  0  0  0  0
 12 17  1  0  0  0  0
 12 18  2  0  0  0  0
 15 17  1  0  0  0  0
  1 19  1  0  0  0  0
  2 20  1  0  0  0  0
  3 21  1  0  0  0  0
  4 22  1  0  0  0  0
  5 23  1  0  0  0  0
  6 24  1  0  0  0  0
  7 25  1  0  0  0  0
 13 26  1  0  0  0  0
 13 27  1  0  0  0  0
 13 28  1  0  0  0  0
 14 29  1  0  0  0  0
 14 30  1  0  0  0  0
 14 31  1  0  0  0  0
 15 32  1  0  0  0  0
 15 33  1  0  0  0  0
 17 34  1  0  0  0  0
M  END
> <Catalog ID>
Z30166500

> <PlateID>
1337959-R-13

> <Well>
B10

> <MW (desalted)>
240.300

> <CLogP>
1.990

> <HBD>
1

> <TPSA>
41.990

> <RotBonds>
3

> <ROCS_ShapeQuery>
A71EV2A-x0451_0A_A71EV2A-x0310_0A_A71EV2A-x0416_0A_peptide

> <ROCS_TanimotoCombo>
0.452 

> <ROCS_ShapeTanimoto>
0.282 

> <ROCS_ColorTanimoto>
0.171 

> <ROCS_RefTversky>
0.255 

> <ROCS_RefColorTversky>
0.176 

> <ROCS_RefTverskyCombo>
0.432 

> <ROCS_FitTversky>
1.576 

> <ROCS_FitColorTversky>
0.845 

> <ROCS_FitTverskyCombo>
2.421 

> <ROCS_ColorScore>
-5.355

> <ROCS_Overlap>
1771.121

> <ROCS_Rank>
62                  

$$$$
untitled-dbase-927_73
  -OEChem-11112309163D

 35 36  0     1  0  0  0  0  0999 V2000
    8.8167    9.6092   23.7228 C   0  0  0  0  0  0  0  0  0  0  0  0
    9.6994   10.6237   23.3526 C   0  0  0  0  0  0  0  0  0  0  0  0
    8.2475   12.2608   24.3767 C   0  0  0  0  0  0  0  0  0  0  0  0
    7.6493    9.9204   24.4200 C   0  0  0  0  0  0  0  0  0  0  0  0
    7.3647   11.2462   24.7470 C   0  0  0  0  0  0  0  0  0  0  0  0
    9.4148   11.9495   23.6795 C   0  0  0  0  0  0  0  0  0  0  0  0
    9.4097   16.4489   22.2577 C   0  0  0  0  0  0  0  0  0  0  0  0
    8.7037   15.1097   22.4163 C   0  0  0  0  0  0  0  0  0  0  0  0
   10.1722   14.1763   20.6514 C   0  0  0  0  0  0  0  0  0  0  0  0
   10.7865   15.5672   20.4465 C   0  0  2  0  0  0  0  0  0  0  0  0
    6.7081    8.8328   24.8148 C   0  0  0  0  0  0  0  0  0  0  0  0
   12.1768   15.7072   21.0703 C   0  0  0  0  0  0  0  0  0  0  0  0
    9.8879   16.6452   20.8863 N   0  0  0  0  0  0  0  0  0  0  0  0
    9.6067   14.0063   22.0135 N   0  0  1  0  0  0  0  0  0  0  0  0
   10.6824   14.1248   24.3389 O   0  0  0  0  0  0  0  0  0  0  0  0
   11.6829   12.6166   22.5861 O   0  0  0  0  0  0  0  0  0  0  0  0
    6.2451   11.5552   25.4157 F   0  0  0  0  0  0  0  0  0  0  0  0
   10.5313   13.2334   23.2088 S   0  0  0  0  0  0  0  0  0  0  0  0
    9.0478    8.5791   23.4646 H   0  0  0  0  0  0  0  0  0  0  0  0
   10.6059   10.3703   22.8096 H   0  0  0  0  0  0  0  0  0  0  0  0
    8.0158   13.2902   24.6364 H   0  0  0  0  0  0  0  0  0  0  0  0
    8.7377   17.2719   22.5368 H   0  0  0  0  0  0  0  0  0  0  0  0
   10.2668   16.4902   22.9406 H   0  0  0  0  0  0  0  0  0  0  0  0
    8.3784   14.9628   23.4577 H   0  0  0  0  0  0  0  0  0  0  0  0
    7.8077   15.1010   21.7789 H   0  0  0  0  0  0  0  0  0  0  0  0
    9.3651   14.0259   19.9065 H   0  0  0  0  0  0  0  0  0  0  0  0
   10.9250   13.3816   20.4657 H   0  0  0  0  0  0  0  0  0  0  0  0
   10.9308   15.7060   19.3215 H   0  0  0  0  0  0  0  0  0  0  0  0
    6.9693    8.4432   25.8063 H   0  0  0  0  0  0  0  0  0  0  0  0
    5.6720    9.1940   24.8447 H   0  0  0  0  0  0  0  0  0  0  0  0
    6.7346    8.0030   24.0966 H   0  0  0  0  0  0  0  0  0  0  0  0
   12.1112   15.5848   22.1503 H   0  0  0  0  0  0  0  0  0  0  0  0
   12.5841   16.6921   20.8474 H   0  0  0  0  0  0  0  0  0  0  0  0
   12.8418   14.9462   20.6650 H   0  0  0  0  0  0  0  0  0  0  0  0
    9.0832   16.6987   20.2534 H   0  0  0  0  0  0  0  0  0  0  0  0
  1  2  1  0  0  0  0
  1  4  2  0  0  0  0
  2  6  2  0  0  0  0
  3  5  2  0  0  0  0
  3  6  1  0  0  0  0
  4  5  1  0  0  0  0
  4 11  1  0  0  0  0
  5 17  1  0  0  0  0
  6 18  1  0  0  0  0
  7  8  1  0  0  0  0
  7 13  1  0  0  0  0
  8 14  1  0  0  0  0
  9 10  1  0  0  0  0
  9 14  1  0  0  0  0
 10 12  1  0  0  0  0
 10 13  1  0  0  0  0
 14 18  1  0  0  0  0
 15 18  2  0  0  0  0
 16 18  2  0  0  0  0
  1 19  1  0  0  0  0
  2 20  1  0  0  0  0
  3 21  1  0  0  0  0
  7 22  1  0  0  0  0
  7 23  1  0  0  0  0
  8 24  1  0  0  0  0
  8 25  1  0  0  0  0
  9 26  1  0  0  0  0
  9 27  1  0  0  0  0
 10 28  1  0  0  0  0
 11 29  1  0  0  0  0
 11 30  1  0  0  0  0
 11 31  1  0  0  0  0
 12 32  1  0  0  0  0
 12 33  1  0  0  0  0
 12 34  1  0  0  0  0
 13 35  1  0  0  0  0
M  END
> <Catalog ID>
Z1262449451

> <PlateID>
1337959-R-12

> <Well>
E11

> <MW (desalted)>
272.339

> <CLogP>
2.430

> <HBD>
1

> <TPSA>
49.410

> <RotBonds>
1

> <ROCS_ShapeQuery>
A71EV2A-x0451_0A_A71EV2A-x0310_0A_A71EV2A-x0416_0A_peptide

> <ROCS_TanimotoCombo>
0.452 

> <ROCS_ShapeTanimoto>
0.288 

> <ROCS_ColorTanimoto>
0.164 

> <ROCS_RefTversky>
0.259 

> <ROCS_RefColorTversky>
0.175 

> <ROCS_RefTverskyCombo>
0.434 

> <ROCS_FitTversky>
1.641 

> <ROCS_FitColorTversky>
0.731 

> <ROCS_FitTverskyCombo>
2.372 

> <ROCS_ColorScore>
-5.327

> <ROCS_Overlap>
1793.940

> <ROCS_Rank>
63                  

$$$$
untitled-dbase-734_52
  -OEChem-11112309163D

 30 31  0     0  0  0  0  0  0999 V2000
    9.4871   10.4850   23.3551 C   0  0  0  0  0  0  0  0  0  0  0  0
    9.4788   11.8206   23.7799 C   0  0  0  0  0  0  0  0  0  0  0  0
    8.3836   11.9208   24.6074 C   0  0  0  0  0  0  0  0  0  0  0  0
    6.0959   11.3978   26.1058 C   0  0  0  0  0  0  0  0  0  0  0  0
    6.6529   10.4138   25.3927 C   0  0  0  0  0  0  0  0  0  0  0  0
    6.7951   12.7040   26.0072 C   0  0  0  0  0  0  0  0  0  0  0  0
   10.3866   12.8780   23.4515 C   0  0  0  0  0  0  0  0  0  0  0  0
   12.2410   14.9139   21.6220 C   0  0  0  0  0  0  0  0  0  0  0  0
    9.6164   13.2786   20.2570 C   0  0  0  0  0  0  0  0  0  0  0  0
   12.3533   13.4765   22.0012 C   0  0  0  0  0  0  0  0  0  0  0  0
   10.4361   12.2817   21.0032 C   0  0  0  0  0  0  0  0  0  0  0  0
    8.4818    9.7726   23.8625 N   0  0  0  0  0  0  0  0  0  0  0  0
    7.8618   12.9643   25.3138 N   0  0  0  0  0  0  0  0  0  0  0  0
    7.7970   10.6546   24.6367 N   0  0  0  0  0  0  0  0  0  0  0  0
   11.0391   12.8794   22.1926 N   0  0  0  0  0  0  0  0  0  0  0  0
   10.5619   13.7807   24.2961 O   0  0  0  0  0  0  0  0  0  0  0  0
   10.1859    9.9935   22.6931 H   0  0  0  0  0  0  0  0  0  0  0  0
    5.2107   11.2882   26.7146 H   0  0  0  0  0  0  0  0  0  0  0  0
    6.2476    9.4095   25.3724 H   0  0  0  0  0  0  0  0  0  0  0  0
    6.3383   13.5176   26.5942 H   0  0  0  0  0  0  0  0  0  0  0  0
   11.7141   15.4631   22.4162 H   0  0  0  0  0  0  0  0  0  0  0  0
   13.2474   15.3376   21.4890 H   0  0  0  0  0  0  0  0  0  0  0  0
   11.6788   15.0018   20.6806 H   0  0  0  0  0  0  0  0  0  0  0  0
   10.2538   14.1198   19.9470 H   0  0  0  0  0  0  0  0  0  0  0  0
    9.1803   12.8017   19.3668 H   0  0  0  0  0  0  0  0  0  0  0  0
    8.8099   13.6497   20.9064 H   0  0  0  0  0  0  0  0  0  0  0  0
   12.8809   12.9346   21.2024 H   0  0  0  0  0  0  0  0  0  0  0  0
   12.9242   13.3958   22.9380 H   0  0  0  0  0  0  0  0  0  0  0  0
    9.7919   11.4443   21.3095 H   0  0  0  0  0  0  0  0  0  0  0  0
   11.2345   11.9085   20.3450 H   0  0  0  0  0  0  0  0  0  0  0  0
  1  2  1  0  0  0  0
  1 12  2  0  0  0  0
  2  3  2  0  0  0  0
  2  7  1  0  0  0  0
  3 13  1  0  0  0  0
  3 14  1  0  0  0  0
  4  5  2  0  0  0  0
  4  6  1  0  0  0  0
  5 14  1  0  0  0  0
  6 13  2  0  0  0  0
  7 15  1  0  0  0  0
  7 16  2  0  0  0  0
  8 10  1  0  0  0  0
  9 11  1  0  0  0  0
 10 15  1  0  0  0  0
 11 15  1  0  0  0  0
 12 14  1  0  0  0  0
  1 17  1  0  0  0  0
  4 18  1  0  0  0  0
  5 19  1  0  0  0  0
  6 20  1  0  0  0  0
  8 21  1  0  0  0  0
  8 22  1  0  0  0  0
  8 23  1  0  0  0  0
  9 24  1  0  0  0  0
  9 25  1  0  0  0  0
  9 26  1  0  0  0  0
 10 27  1  0  0  0  0
 10 28  1  0  0  0  0
 11 29  1  0  0  0  0
 11 30  1  0  0  0  0
M  END
> <Catalog ID>
Z316418256

> <PlateID>
1337959-R-10

> <Well>
B07

> <MW (desalted)>
218.255

> <CLogP>
0.197

> <HBD>
0

> <TPSA>
50.500

> <RotBonds>
3

> <ROCS_ShapeQuery>
A71EV2A-x0451_0A_A71EV2A-x0310_0A_A71EV2A-x0416_0A_peptide

> <ROCS_TanimotoCombo>
0.452 

> <ROCS_ShapeTanimoto>
0.295 

> <ROCS_ColorTanimoto>
0.157 

> <ROCS_RefTversky>
0.262 

> <ROCS_RefColorTversky>
0.164 

> <ROCS_RefTverskyCombo>
0.427 

> <ROCS_FitTversky>
1.729 

> <ROCS_FitColorTversky>
0.784 

> <ROCS_FitTverskyCombo>
2.514 

> <ROCS_ColorScore>
-4.988

> <ROCS_Overlap>
1818.820

> <ROCS_Rank>
64                  

$$$$
untitled-dbase-197_73
  -OEChem-11112309163D

 32 33  0     1  0  0  0  0  0999 V2000
    7.3748   11.2206   24.4575 C   0  0  0  0  0  0  0  0  0  0  0  0
    7.6587    9.8661   24.2839 C   0  0  0  0  0  0  0  0  0  0  0  0
    8.3779   12.1725   24.2745 C   0  0  0  0  0  0  0  0  0  0  0  0
    9.9488   10.4152   23.7444 C   0  0  0  0  0  0  0  0  0  0  0  0
    8.9457    9.4633   23.9273 C   0  0  0  0  0  0  0  0  0  0  0  0
    9.6649   11.7698   23.9180 C   0  0  0  0  0  0  0  0  0  0  0  0
    9.9880   14.8949   19.1191 C   0  0  0  0  0  0  0  0  0  0  0  0
    9.2932   14.0917   20.2137 C   0  0  0  0  0  0  0  0  0  0  0  0
    9.9051   16.4000   19.3994 C   0  0  0  0  0  0  0  0  0  0  0  0
   10.6630   15.7422   21.6064 C   0  0  0  0  0  0  0  0  0  0  0  0
    9.8733   14.4271   21.5949 C   0  0  2  0  0  0  0  0  0  0  0  0
    9.9864   16.7701   20.8179 N   0  0  0  0  0  0  0  0  0  0  0  0
   10.7798   13.3336   22.0317 N   0  0  0  0  0  0  0  0  0  0  0  0
   10.5899   14.1476   24.4663 O   0  0  0  0  0  0  0  0  0  0  0  0
   12.2022   12.3033   23.8979 O   0  0  0  0  0  0  0  0  0  0  0  0
    9.2181    8.1624   23.7609 F   0  0  0  0  0  0  0  0  0  0  0  0
   10.9354   12.9763   23.6837 S   0  0  0  0  0  0  0  0  0  0  0  0
    6.3727   11.5336   24.7353 H   0  0  0  0  0  0  0  0  0  0  0  0
    6.8778    9.1248   24.4264 H   0  0  0  0  0  0  0  0  0  0  0  0
    8.1455   13.2253   24.4117 H   0  0  0  0  0  0  0  0  0  0  0  0
   10.9478   10.0895   23.4671 H   0  0  0  0  0  0  0  0  0  0  0  0
   11.0371   14.5914   19.0439 H   0  0  0  0  0  0  0  0  0  0  0  0
    9.5196   14.6773   18.1518 H   0  0  0  0  0  0  0  0  0  0  0  0
    8.2127   14.2908   20.1984 H   0  0  0  0  0  0  0  0  0  0  0  0
    9.4105   13.0170   20.0095 H   0  0  0  0  0  0  0  0  0  0  0  0
   10.6974   16.9319   18.8307 H   0  0  0  0  0  0  0  0  0  0  0  0
    8.9486   16.7851   18.9919 H   0  0  0  0  0  0  0  0  0  0  0  0
   10.7640   16.0968   22.6384 H   0  0  0  0  0  0  0  0  0  0  0  0
   11.6816   15.5861   21.2293 H   0  0  0  0  0  0  0  0  0  0  0  0
    9.0541   14.4865   22.3322 H   0  0  0  0  0  0  0  0  0  0  0  0
   10.4942   17.6510   20.9039 H   0  0  0  0  0  0  0  0  0  0  0  0
   10.9506   12.6048   21.3371 H   0  0  0  0  0  0  0  0  0  0  0  0
  1  2  1  0  0  0  0
  1  3  2  0  0  0  0
  2  5  2  0  0  0  0
  3  6  1  0  0  0  0
  4  5  1  0  0  0  0
  4  6  2  0  0  0  0
  5 16  1  0  0  0  0
  6 17  1  0  0  0  0
  7  8  1  0  0  0  0
  7  9  1  0  0  0  0
  8 11  1  0  0  0  0
  9 12  1  0  0  0  0
 10 11  1  0  0  0  0
 10 12  1  0  0  0  0
 11 13  1  0  0  0  0
 13 17  1  0  0  0  0
 14 17  2  0  0  0  0
 15 17  2  0  0  0  0
  1 18  1  0  0  0  0
  2 19  1  0  0  0  0
  3 20  1  0  0  0  0
  4 21  1  0  0  0  0
  7 22  1  0  0  0  0
  7 23  1  0  0  0  0
  8 24  1  0  0  0  0
  8 25  1  0  0  0  0
  9 26  1  0  0  0  0
  9 27  1  0  0  0  0
 10 28  1  0  0  0  0
 10 29  1  0  0  0  0
 11 30  1  0  0  0  0
 12 31  1  0  0  0  0
 13 32  1  0  0  0  0
M  END
> <Catalog ID>
Z285141580

> <PlateID>
1337959-R-03

> <Well>
D09

> <MW (desalted)>
258.312

> <CLogP>
1.788

> <HBD>
2

> <TPSA>
58.200

> <RotBonds>
2

> <ROCS_ShapeQuery>
A71EV2A-x0451_0A_A71EV2A-x0310_0A_A71EV2A-x0416_0A_peptide

> <ROCS_TanimotoCombo>
0.452 

> <ROCS_ShapeTanimoto>
0.265 

> <ROCS_ColorTanimoto>
0.187 

> <ROCS_RefTversky>
0.241 

> <ROCS_RefColorTversky>
0.200 

> <ROCS_RefTverskyCombo>
0.441 

> <ROCS_FitTversky>
1.597 

> <ROCS_FitColorTversky>
0.740 

> <ROCS_FitTverskyCombo>
2.337 

> <ROCS_ColorScore>
-6.098

> <ROCS_Overlap>
1672.053

> <ROCS_Rank>
65                  

$$$$
untitled-dbase-853_214
  -OEChem-11112309163D

 37 38  0     1  0  0  0  0  0999 V2000
   11.3461   15.1983   22.4514 C   0  0  0  0  0  0  0  0  0  0  0  0
   11.1750   13.2891   23.3125 C   0  0  0  0  0  0  0  0  0  0  0  0
    9.4602    9.5650   23.0905 C   0  0  0  0  0  0  0  0  0  0  0  0
    8.0977   12.3027   24.3873 C   0  0  0  0  0  0  0  0  0  0  0  0
    7.5081   11.1125   25.1324 C   0  0  0  0  0  0  0  0  0  0  0  0
    8.5444   11.9745   22.9669 C   0  0  0  0  0  0  0  0  0  0  0  0
    8.5256   10.0231   25.4172 C   0  0  0  0  0  0  0  0  0  0  0  0
    9.7328   11.0283   22.7943 C   0  0  1  0  0  0  0  0  0  0  0  0
   12.7043   17.2732   22.0086 C   0  0  0  0  0  0  0  0  0  0  0  0
   10.4914   16.9487   20.8537 C   0  0  0  0  0  0  0  0  0  0  0  0
   12.4765   15.6190   20.1665 C   0  0  0  0  0  0  0  0  0  0  0  0
   11.7322   16.1839   21.4343 C   0  0  0  0  0  0  0  0  0  0  0  0
   10.7235   15.3736   23.5935 N   0  0  0  0  0  0  0  0  0  0  0  0
   10.6110   14.1176   24.1600 N   0  0  0  0  0  0  0  0  0  0  0  0
    8.8479    9.2047   24.2629 N   0  0  0  0  0  0  0  0  0  0  0  0
    9.7961    8.7045   22.2682 O   0  0  0  0  0  0  0  0  0  0  0  0
   11.6673   13.8997   22.2001 O   0  0  0  0  0  0  0  0  0  0  0  0
   11.2908   11.5490   23.5754 S   0  0  0  0  0  0  0  0  0  0  0  0
    7.3713   13.1185   24.3649 H   0  0  0  0  0  0  0  0  0  0  0  0
    8.9632   12.6638   24.9484 H   0  0  0  0  0  0  0  0  0  0  0  0
    7.0300   11.4438   26.0619 H   0  0  0  0  0  0  0  0  0  0  0  0
    6.7111   10.6866   24.5105 H   0  0  0  0  0  0  0  0  0  0  0  0
    7.6444   11.5515   22.4535 H   0  0  0  0  0  0  0  0  0  0  0  0
    8.7369   12.9345   22.4214 H   0  0  0  0  0  0  0  0  0  0  0  0
    9.4745   10.4826   25.7380 H   0  0  0  0  0  0  0  0  0  0  0  0
    8.1981    9.3655   26.2390 H   0  0  0  0  0  0  0  0  0  0  0  0
   10.0140   11.0325   21.6402 H   0  0  0  0  0  0  0  0  0  0  0  0
   13.0084   18.0225   21.2685 H   0  0  0  0  0  0  0  0  0  0  0  0
   12.2421   17.8151   22.8410 H   0  0  0  0  0  0  0  0  0  0  0  0
   13.6134   16.7947   22.3920 H   0  0  0  0  0  0  0  0  0  0  0  0
   10.7970   17.6795   20.0970 H   0  0  0  0  0  0  0  0  0  0  0  0
    9.7524   16.2900   20.3826 H   0  0  0  0  0  0  0  0  0  0  0  0
    9.9849   17.4981   21.6561 H   0  0  0  0  0  0  0  0  0  0  0  0
   12.7438   16.3928   19.4367 H   0  0  0  0  0  0  0  0  0  0  0  0
   13.4068   15.1185   20.4597 H   0  0  0  0  0  0  0  0  0  0  0  0
   11.8456   14.8894   19.6454 H   0  0  0  0  0  0  0  0  0  0  0  0
    8.5548    8.2143   24.3258 H   0  0  0  0  0  0  0  0  0  0  0  0
  1 12  1  0  0  0  0
  1 13  2  0  0  0  0
  1 17  1  0  0  0  0
  2 14  2  0  0  0  0
  2 17  1  0  0  0  0
  2 18  1  0  0  0  0
  3  8  1  0  0  0  0
  3 15  1  0  0  0  0
  3 16  2  0  0  0  0
  4  5  1  0  0  0  0
  4  6  1  0  0  0  0
  5  7  1  0  0  0  0
  6  8  1  0  0  0  0
  7 15  1  0  0  0  0
  8 18  1  0  0  0  0
  9 12  1  0  0  0  0
 10 12  1  0  0  0  0
 11 12  1  0  0  0  0
 13 14  1  0  0  0  0
  4 19  1  0  0  0  0
  4 20  1  0  0  0  0
  5 21  1  0  0  0  0
  5 22  1  0  0  0  0
  6 23  1  0  0  0  0
  6 24  1  0  0  0  0
  7 25  1  0  0  0  0
  7 26  1  0  0  0  0
  8 27  1  0  0  0  0
  9 28  1  0  0  0  0
  9 29  1  0  0  0  0
  9 30  1  0  0  0  0
 10 31  1  0  0  0  0
 10 32  1  0  0  0  0
 10 33  1  0  0  0  0
 11 34  1  0  0  0  0
 11 35  1  0  0  0  0
 11 36  1  0  0  0  0
 15 37  1  0  0  0  0
M  END
> <Catalog ID>
Z666150792

> <PlateID>
1337959-R-11

> <Well>
F07

> <MW (desalted)>
269.363

> <CLogP>
0.651

> <HBD>
1

> <TPSA>
68.020

> <RotBonds>
3

> <ROCS_ShapeQuery>
A71EV2A-x0451_0A_A71EV2A-x0310_0A_A71EV2A-x0416_0A_peptide

> <ROCS_TanimotoCombo>
0.452 

> <ROCS_ShapeTanimoto>
0.293 

> <ROCS_ColorTanimoto>
0.159 

> <ROCS_RefTversky>
0.262 

> <ROCS_RefColorTversky>
0.175 

> <ROCS_RefTverskyCombo>
0.438 

> <ROCS_FitTversky>
1.665 

> <ROCS_FitColorTversky>
0.627 

> <ROCS_FitTverskyCombo>
2.292 

> <ROCS_ColorScore>
-5.338

> <ROCS_Overlap>
1819.780

> <ROCS_Rank>
66                  

$$$$
untitled-dbase-340_4
  -OEChem-11112309163D

 27 28  0     1  0  0  0  0  0999 V2000
    7.7314   10.4801   24.8935 C   0  0  0  0  0  0  0  0  0  0  0  0
    8.7444   11.5368   23.2702 C   0  0  0  0  0  0  0  0  0  0  0  0
    6.9082   10.3924   26.0506 C   0  0  0  0  0  0  0  0  0  0  0  0
    6.3678   11.5156   26.5634 C   0  0  0  0  0  0  0  0  0  0  0  0
    6.6060   12.8202   25.9616 C   0  0  0  0  0  0  0  0  0  0  0  0
    7.3833   12.9041   24.8689 C   0  0  0  0  0  0  0  0  0  0  0  0
   11.2879   13.6059   23.3579 C   0  0  0  0  0  0  0  0  0  0  0  0
   12.7744   13.6286   23.2241 C   0  0  0  0  0  0  0  0  0  0  0  0
    8.7780   12.4718   20.9215 C   0  0  0  0  0  0  0  0  0  0  0  0
    9.2180   12.6235   22.3918 C   0  0  2  0  0  0  0  0  0  0  0  0
    8.3830    9.5887   24.1774 N   0  0  0  0  0  0  0  0  0  0  0  0
    9.0224   10.2574   23.1523 N   0  0  0  0  0  0  0  0  0  0  0  0
    7.9338   11.7392   24.3502 N   0  0  0  0  0  0  0  0  0  0  0  0
   10.6664   12.7943   22.4393 N   0  0  0  0  0  0  0  0  0  0  0  0
   10.7496   14.2753   24.2318 O   0  0  0  0  0  0  0  0  0  0  0  0
    6.7244    9.4255   26.5051 H   0  0  0  0  0  0  0  0  0  0  0  0
    5.7359   11.4751   27.4441 H   0  0  0  0  0  0  0  0  0  0  0  0
    6.1518   13.6954   26.4099 H   0  0  0  0  0  0  0  0  0  0  0  0
    7.5996   13.8433   24.3752 H   0  0  0  0  0  0  0  0  0  0  0  0
   13.1231   14.4195   22.5408 H   0  0  0  0  0  0  0  0  0  0  0  0
   13.2798   13.8285   24.1827 H   0  0  0  0  0  0  0  0  0  0  0  0
   13.2279   12.6984   22.8462 H   0  0  0  0  0  0  0  0  0  0  0  0
    9.1303   11.5177   20.5145 H   0  0  0  0  0  0  0  0  0  0  0  0
    7.6876   12.5031   20.8175 H   0  0  0  0  0  0  0  0  0  0  0  0
    9.1839   13.2759   20.2973 H   0  0  0  0  0  0  0  0  0  0  0  0
    8.8261   13.6060   22.7283 H   0  0  0  0  0  0  0  0  0  0  0  0
   11.2349   12.2963   21.7704 H   0  0  0  0  0  0  0  0  0  0  0  0
  1  3  1  0  0  0  0
  1 11  2  0  0  0  0
  1 13  1  0  0  0  0
  2 10  1  0  0  0  0
  2 12  2  0  0  0  0
  2 13  1  0  0  0  0
  3  4  2  0  0  0  0
  4  5  1  0  0  0  0
  5  6  2  0  0  0  0
  6 13  1  0  0  0  0
  7  8  1  0  0  0  0
  7 14  1  0  0  0  0
  7 15  2  0  0  0  0
  9 10  1  0  0  0  0
 10 14  1  0  0  0  0
 11 12  1  0  0  0  0
  3 16  1  0  0  0  0
  4 17  1  0  0  0  0
  5 18  1  0  0  0  0
  6 19  1  0  0  0  0
  8 20  1  0  0  0  0
  8 21  1  0  0  0  0
  8 22  1  0  0  0  0
  9 23  1  0  0  0  0
  9 24  1  0  0  0  0
  9 25  1  0  0  0  0
 10 26  1  0  0  0  0
 14 27  1  0  0  0  0
M  END
> <Catalog ID>
Z131516158

> <PlateID>
1337959-R-05

> <Well>
C02

> <MW (desalted)>
204.228

> <CLogP>
-0.573

> <HBD>
1

> <TPSA>
59.290

> <RotBonds>
2

> <ROCS_ShapeQuery>
A71EV2A-x0451_0A_A71EV2A-x0310_0A_A71EV2A-x0416_0A_peptide

> <ROCS_TanimotoCombo>
0.451 

> <ROCS_ShapeTanimoto>
0.273 

> <ROCS_ColorTanimoto>
0.178 

> <ROCS_RefTversky>
0.246 

> <ROCS_RefColorTversky>
0.189 

> <ROCS_RefTverskyCombo>
0.435 

> <ROCS_FitTversky>
1.686 

> <ROCS_FitColorTversky>
0.757 

> <ROCS_FitTverskyCombo>
2.443 

> <ROCS_ColorScore>
-5.745

> <ROCS_Overlap>
1705.085

> <ROCS_Rank>
67                  

$$$$
untitled-dbase-369_280
  -OEChem-11112309163D

 33 33  0     1  0  0  0  0  0999 V2000
    8.6099   12.1160   24.6880 C   0  0  0  0  0  0  0  0  0  0  0  0
    8.7492    9.6548   23.3821 C   0  0  0  0  0  0  0  0  0  0  0  0
    7.5884   11.1806   24.8523 C   0  0  0  0  0  0  0  0  0  0  0  0
    9.7707   10.5903   23.2178 C   0  0  0  0  0  0  0  0  0  0  0  0
    9.7011   11.8209   23.8707 C   0  0  0  0  0  0  0  0  0  0  0  0
    7.6580    9.9500   24.1993 C   0  0  0  0  0  0  0  0  0  0  0  0
    6.4364   11.5346   25.7366 C   0  0  0  0  0  0  0  0  0  0  0  0
   10.9255   10.2432   22.3360 C   0  0  0  0  0  0  0  0  0  0  0  0
   11.0481   15.0878   19.3813 C   0  0  0  0  0  0  0  0  0  0  0  0
    9.9698   14.4808   21.5720 C   0  0  0  0  0  0  0  0  0  0  0  0
   10.7802   15.5292   20.8139 C   0  0  2  0  0  0  0  0  0  0  0  0
   10.8395   13.4159   22.0179 N   0  0  0  0  0  0  0  0  0  0  0  0
   10.6081   14.1942   24.4667 O   0  0  0  0  0  0  0  0  0  0  0  0
   12.2377   12.3549   23.9321 O   0  0  0  0  0  0  0  0  0  0  0  0
   10.0370   16.7463   20.7846 O   0  0  0  0  0  0  0  0  0  0  0  0
   10.9777   13.0295   23.6852 S   0  0  0  0  0  0  0  0  0  0  0  0
    6.4126    8.7683   24.3788 Cl  0  0  0  0  0  0  0  0  0  0  0  0
    8.5544   13.0751   25.1979 H   0  0  0  0  0  0  0  0  0  0  0  0
    8.8090    8.6966   22.8705 H   0  0  0  0  0  0  0  0  0  0  0  0
    5.6484   12.0246   25.1539 H   0  0  0  0  0  0  0  0  0  0  0  0
    6.0158   10.6416   26.2140 H   0  0  0  0  0  0  0  0  0  0  0  0
    6.7494   12.2107   26.5413 H   0  0  0  0  0  0  0  0  0  0  0  0
   10.7228   10.5549   21.3049 H   0  0  0  0  0  0  0  0  0  0  0  0
   11.8452   10.7349   22.6758 H   0  0  0  0  0  0  0  0  0  0  0  0
   11.1189    9.1634   22.3435 H   0  0  0  0  0  0  0  0  0  0  0  0
   10.1153   14.8850   18.8464 H   0  0  0  0  0  0  0  0  0  0  0  0
   11.6094   15.8531   18.8337 H   0  0  0  0  0  0  0  0  0  0  0  0
   11.6603   14.1795   19.3682 H   0  0  0  0  0  0  0  0  0  0  0  0
    9.4830   14.9238   22.4475 H   0  0  0  0  0  0  0  0  0  0  0  0
    9.1948   14.0514   20.9287 H   0  0  0  0  0  0  0  0  0  0  0  0
   11.7295   15.7252   21.3256 H   0  0  0  0  0  0  0  0  0  0  0  0
   11.0495   12.6585   21.3395 H   0  0  0  0  0  0  0  0  0  0  0  0
   10.5853   17.3922   20.3135 H   0  0  0  0  0  0  0  0  0  0  0  0
  1  3  1  0  0  0  0
  1  5  2  0  0  0  0
  2  4  2  0  0  0  0
  2  6  1  0  0  0  0
  3  6  2  0  0  0  0
  3  7  1  0  0  0  0
  4  5  1  0  0  0  0
  4  8  1  0  0  0  0
  5 16  1  0  0  0  0
  6 17  1  0  0  0  0
  9 11  1  0  0  0  0
 10 11  1  0  0  0  0
 10 12  1  0  0  0  0
 11 15  1  0  0  0  0
 12 16  1  0  0  0  0
 13 16  2  0  0  0  0
 14 16  2  0  0  0  0
  1 18  1  0  0  0  0
  2 19  1  0  0  0  0
  7 20  1  0  0  0  0
  7 21  1  0  0  0  0
  7 22  1  0  0  0  0
  8 23  1  0  0  0  0
  8 24  1  0  0  0  0
  8 25  1  0  0  0  0
  9 26  1  0  0  0  0
  9 27  1  0  0  0  0
  9 28  1  0  0  0  0
 10 29  1  0  0  0  0
 10 30  1  0  0  0  0
 11 31  1  0  0  0  0
 12 32  1  0  0  0  0
 15 33  1  0  0  0  0
M  END
> <Catalog ID>
Z1551629912

> <PlateID>
1337959-R-05

> <Well>
E11

> <MW (desalted)>
277.768

> <CLogP>
2.667

> <HBD>
2

> <TPSA>
66.400

> <RotBonds>
3

> <ROCS_ShapeQuery>
A71EV2A-x0451_0A_A71EV2A-x0310_0A_A71EV2A-x0416_0A_peptide

> <ROCS_TanimotoCombo>
0.451 

> <ROCS_ShapeTanimoto>
0.291 

> <ROCS_ColorTanimoto>
0.160 

> <ROCS_RefTversky>
0.259 

> <ROCS_RefColorTversky>
0.171 

> <ROCS_RefTverskyCombo>
0.430 

> <ROCS_FitTversky>
1.754 

> <ROCS_FitColorTversky>
0.713 

> <ROCS_FitTverskyCombo>
2.467 

> <ROCS_ColorScore>
-5.194

> <ROCS_Overlap>
1794.875

> <ROCS_Rank>
68                  

$$$$
untitled-dbase-1079_847
  -OEChem-11112309163D

 47 49  0     1  0  0  0  0  0999 V2000
   10.6713   13.1563   23.7053 C   0  0  0  0  0  0  0  0  0  0  0  0
    5.2443   12.8373   26.1186 C   0  0  0  0  0  0  0  0  0  0  0  0
    5.6982   11.9456   27.2675 C   0  0  0  0  0  0  0  0  0  0  0  0
    6.3708   13.4471   25.2922 C   0  0  0  0  0  0  0  0  0  0  0  0
    6.9245   11.0731   27.0234 C   0  0  0  0  0  0  0  0  0  0  0  0
    9.1341    9.7283   23.0864 C   0  0  0  0  0  0  0  0  0  0  0  0
    6.8300   12.5338   24.1524 C   0  0  0  0  0  0  0  0  0  0  0  0
    7.0039   10.4340   25.6365 C   0  0  0  0  0  0  0  0  0  0  0  0
    7.7713   10.3989   23.2353 C   0  0  0  0  0  0  0  0  0  0  0  0
   10.2254   10.7876   22.9555 C   0  0  0  0  0  0  0  0  0  0  0  0
    9.1066   11.7129   24.9728 C   0  0  0  0  0  0  0  0  0  0  0  0
   13.7155   15.0581   23.1699 C   0  0  0  0  0  0  0  0  0  0  0  0
   12.3022   15.5217   22.8716 C   0  0  0  0  0  0  0  0  0  0  0  0
   13.0462   12.8137   22.9683 C   0  0  0  0  0  0  0  0  0  0  0  0
   11.6444   13.2562   22.5668 C   0  0  2  0  0  0  0  0  0  0  0  0
    7.6777   11.2878   24.5228 C   0  0  0  0  0  0  0  0  0  0  0  0
   10.0077   11.9355   23.8413 N   0  0  0  0  0  0  0  0  0  0  0  0
   10.4973   14.1288   24.4432 O   0  0  0  0  0  0  0  0  0  0  0  0
   13.6677   13.7849   23.8132 O   0  0  0  0  0  0  0  0  0  0  0  0
   11.6399   14.5738   22.0332 O   0  0  0  0  0  0  0  0  0  0  0  0
    4.5715   12.2701   25.4644 H   0  0  0  0  0  0  0  0  0  0  0  0
    4.6424   13.6512   26.5403 H   0  0  0  0  0  0  0  0  0  0  0  0
    5.8664   12.5716   28.1635 H   0  0  0  0  0  0  0  0  0  0  0  0
    4.8524   11.2870   27.5373 H   0  0  0  0  0  0  0  0  0  0  0  0
    5.9789   14.3683   24.8399 H   0  0  0  0  0  0  0  0  0  0  0  0
    7.2078   13.7538   25.9299 H   0  0  0  0  0  0  0  0  0  0  0  0
    7.8137   11.7256   27.1395 H   0  0  0  0  0  0  0  0  0  0  0  0
    7.0288   10.3137   27.8247 H   0  0  0  0  0  0  0  0  0  0  0  0
    9.3332    9.1073   23.9601 H   0  0  0  0  0  0  0  0  0  0  0  0
    9.1445    9.0763   22.2127 H   0  0  0  0  0  0  0  0  0  0  0  0
    5.9393   12.2208   23.5742 H   0  0  0  0  0  0  0  0  0  0  0  0
    7.3960   13.1612   23.4391 H   0  0  0  0  0  0  0  0  0  0  0  0
    7.5102    9.4612   25.7195 H   0  0  0  0  0  0  0  0  0  0  0  0
    5.9810   10.1870   25.3158 H   0  0  0  0  0  0  0  0  0  0  0  0
    7.5583   10.9952   22.3441 H   0  0  0  0  0  0  0  0  0  0  0  0
    7.0074    9.6154   23.2793 H   0  0  0  0  0  0  0  0  0  0  0  0
   11.2054   10.3593   23.2200 H   0  0  0  0  0  0  0  0  0  0  0  0
   10.2992   11.1121   21.9070 H   0  0  0  0  0  0  0  0  0  0  0  0
    9.0470   12.5915   25.6196 H   0  0  0  0  0  0  0  0  0  0  0  0
    9.5623   10.9167   25.5773 H   0  0  0  0  0  0  0  0  0  0  0  0
   14.3103   14.9728   22.2532 H   0  0  0  0  0  0  0  0  0  0  0  0
   14.2168   15.7618   23.8410 H   0  0  0  0  0  0  0  0  0  0  0  0
   11.7247   15.6464   23.7944 H   0  0  0  0  0  0  0  0  0  0  0  0
   12.3169   16.4833   22.3498 H   0  0  0  0  0  0  0  0  0  0  0  0
   13.0279   11.8608   23.5058 H   0  0  0  0  0  0  0  0  0  0  0  0
   13.6719   12.6856   22.0775 H   0  0  0  0  0  0  0  0  0  0  0  0
   11.2644   12.5845   21.7895 H   0  0  0  0  0  0  0  0  0  0  0  0
  1 15  1  0  0  0  0
  1 17  1  0  0  0  0
  1 18  2  0  0  0  0
  2  3  1  0  0  0  0
  2  4  1  0  0  0  0
  3  5  1  0  0  0  0
  4  7  1  0  0  0  0
  5  8  1  0  0  0  0
  6  9  1  0  0  0  0
  6 10  1  0  0  0  0
  7 16  1  0  0  0  0
  8 16  1  0  0  0  0
  9 16  1  0  0  0  0
 10 17  1  0  0  0  0
 11 16  1  0  0  0  0
 11 17  1  0  0  0  0
 12 13  1  0  0  0  0
 12 19  1  0  0  0  0
 13 20  1  0  0  0  0
 14 15  1  0  0  0  0
 14 19  1  0  0  0  0
 15 20  1  0  0  0  0
  2 21  1  0  0  0  0
  2 22  1  0  0  0  0
  3 23  1  0  0  0  0
  3 24  1  0  0  0  0
  4 25  1  0  0  0  0
  4 26  1  0  0  0  0
  5 27  1  0  0  0  0
  5 28  1  0  0  0  0
  6 29  1  0  0  0  0
  6 30  1  0  0  0  0
  7 31  1  0  0  0  0
  7 32  1  0  0  0  0
  8 33  1  0  0  0  0
  8 34  1  0  0  0  0
  9 35  1  0  0  0  0
  9 36  1  0  0  0  0
 10 37  1  0  0  0  0
 10 38  1  0  0  0  0
 11 39  1  0  0  0  0
 11 40  1  0  0  0  0
 12 41  1  0  0  0  0
 12 42  1  0  0  0  0
 13 43  1  0  0  0  0
 13 44  1  0  0  0  0
 14 45  1  0  0  0  0
 14 46  1  0  0  0  0
 15 47  1  0  0  0  0
M  END
> <Catalog ID>
Z1275600569

> <PlateID>
1337959-R-14

> <Well>
E05

> <MW (desalted)>
281.390

> <CLogP>
2.879

> <HBD>
0

> <TPSA>
38.770

> <RotBonds>
1

> <ROCS_ShapeQuery>
A71EV2A-x0451_0A_A71EV2A-x0310_0A_A71EV2A-x0416_0A_peptide

> <ROCS_TanimotoCombo>
0.450 

> <ROCS_ShapeTanimoto>
0.317 

> <ROCS_ColorTanimoto>
0.133 

> <ROCS_RefTversky>
0.282 

> <ROCS_RefColorTversky>
0.145 

> <ROCS_RefTverskyCombo>
0.428 

> <ROCS_FitTversky>
1.644 

> <ROCS_FitColorTversky>
0.607 

> <ROCS_FitTverskyCombo>
2.251 

> <ROCS_ColorScore>
-4.426

> <ROCS_Overlap>
1957.091

> <ROCS_Rank>
69                  

$$$$
untitled-dbase-930_669
  -OEChem-11112309163D

 40 42  0     0  0  0  0  0  0999 V2000
   11.4319   15.6133   23.0507 C   0  0  0  0  0  0  0  0  0  0  0  0
   10.7364   15.3415   24.2058 C   0  0  0  0  0  0  0  0  0  0  0  0
   11.6860   14.3615   22.4411 C   0  0  0  0  0  0  0  0  0  0  0  0
   11.1280   13.4140   23.2673 C   0  0  0  0  0  0  0  0  0  0  0  0
   11.0650   11.9469   23.1732 C   0  0  0  0  0  0  0  0  0  0  0  0
    8.0745    7.9071   23.6827 C   0  0  0  0  0  0  0  0  0  0  0  0
    7.1807    8.9191   23.0368 C   0  0  0  0  0  0  0  0  0  0  0  0
    8.6147   12.1900   23.1619 C   0  0  0  0  0  0  0  0  0  0  0  0
    9.6021    9.8765   23.0569 C   0  0  0  0  0  0  0  0  0  0  0  0
    8.0851   12.3430   24.5838 C   0  0  0  0  0  0  0  0  0  0  0  0
    8.1587   10.0233   25.1684 C   0  0  0  0  0  0  0  0  0  0  0  0
    8.3928    9.3826   23.8212 C   0  0  0  0  0  0  0  0  0  0  0  0
   12.3066   15.3217   20.1946 C   0  0  0  0  0  0  0  0  0  0  0  0
   11.9563   12.8385   20.4508 C   0  0  0  0  0  0  0  0  0  0  0  0
   12.4056   14.1294   21.1752 C   0  0  0  0  0  0  0  0  0  0  0  0
    9.8035   11.3337   23.1252 N   0  0  0  0  0  0  0  0  0  0  0  0
   12.1439   11.3552   23.1505 O   0  0  0  0  0  0  0  0  0  0  0  0
   10.5472   14.0031   24.3454 O   0  0  0  0  0  0  0  0  0  0  0  0
    7.3609   11.1992   25.0254 O   0  0  0  0  0  0  0  0  0  0  0  0
   11.7179   16.5934   22.6954 H   0  0  0  0  0  0  0  0  0  0  0  0
   10.3272   15.9564   24.9944 H   0  0  0  0  0  0  0  0  0  0  0  0
    7.6894    7.3761   24.5455 H   0  0  0  0  0  0  0  0  0  0  0  0
    8.6979    7.2991   23.0378 H   0  0  0  0  0  0  0  0  0  0  0  0
    7.2045    8.9918   21.9557 H   0  0  0  0  0  0  0  0  0  0  0  0
    6.1946    9.0628   23.4617 H   0  0  0  0  0  0  0  0  0  0  0  0
    7.8326   11.7369   22.5430 H   0  0  0  0  0  0  0  0  0  0  0  0
    8.8671   13.1576   22.7148 H   0  0  0  0  0  0  0  0  0  0  0  0
   10.5239    9.4188   23.4359 H   0  0  0  0  0  0  0  0  0  0  0  0
    9.4939    9.5660   22.0128 H   0  0  0  0  0  0  0  0  0  0  0  0
    8.9378   12.4480   25.2634 H   0  0  0  0  0  0  0  0  0  0  0  0
    7.4745   13.2462   24.7015 H   0  0  0  0  0  0  0  0  0  0  0  0
    7.7047    9.3270   25.8838 H   0  0  0  0  0  0  0  0  0  0  0  0
    9.1090   10.3471   25.6072 H   0  0  0  0  0  0  0  0  0  0  0  0
   11.2643   15.5432   19.9402 H   0  0  0  0  0  0  0  0  0  0  0  0
   12.8434   15.1302   19.2592 H   0  0  0  0  0  0  0  0  0  0  0  0
   12.7371   16.2205   20.6502 H   0  0  0  0  0  0  0  0  0  0  0  0
   10.8848   12.8862   20.2263 H   0  0  0  0  0  0  0  0  0  0  0  0
   12.1318   11.9441   21.0584 H   0  0  0  0  0  0  0  0  0  0  0  0
   12.4904   12.7063   19.5035 H   0  0  0  0  0  0  0  0  0  0  0  0
   13.4941   13.9949   21.3619 H   0  0  0  0  0  0  0  0  0  0  0  0
  1  2  2  0  0  0  0
  1  3  1  0  0  0  0
  2 18  1  0  0  0  0
  3  4  2  0  0  0  0
  3 15  1  0  0  0  0
  4  5  1  0  0  0  0
  4 18  1  0  0  0  0
  5 16  1  0  0  0  0
  5 17  2  0  0  0  0
  6  7  1  0  0  0  0
  6 12  1  0  0  0  0
  7 12  1  0  0  0  0
  8 10  1  0  0  0  0
  8 16  1  0  0  0  0
  9 12  1  0  0  0  0
  9 16  1  0  0  0  0
 10 19  1  0  0  0  0
 11 12  1  0  0  0  0
 11 19  1  0  0  0  0
 13 15  1  0  0  0  0
 14 15  1  0  0  0  0
  1 20  1  0  0  0  0
  2 21  1  0  0  0  0
  6 22  1  0  0  0  0
  6 23  1  0  0  0  0
  7 24  1  0  0  0  0
  7 25  1  0  0  0  0
  8 26  1  0  0  0  0
  8 27  1  0  0  0  0
  9 28  1  0  0  0  0
  9 29  1  0  0  0  0
 10 30  1  0  0  0  0
 10 31  1  0  0  0  0
 11 32  1  0  0  0  0
 11 33  1  0  0  0  0
 13 34  1  0  0  0  0
 13 35  1  0  0  0  0
 13 36  1  0  0  0  0
 14 37  1  0  0  0  0
 14 38  1  0  0  0  0
 14 39  1  0  0  0  0
 15 40  1  0  0  0  0
M  END
> <Catalog ID>
Z2044225387

> <PlateID>
1337959-R-12

> <Well>
F04

> <MW (desalted)>
263.332

> <CLogP>
2.019

> <HBD>
0

> <TPSA>
42.680

> <RotBonds>
2

> <ROCS_ShapeQuery>
A71EV2A-x0451_0A_A71EV2A-x0310_0A_A71EV2A-x0416_0A_peptide

> <ROCS_TanimotoCombo>
0.450 

> <ROCS_ShapeTanimoto>
0.322 

> <ROCS_ColorTanimoto>
0.128 

> <ROCS_RefTversky>
0.284 

> <ROCS_RefColorTversky>
0.140 

> <ROCS_RefTverskyCombo>
0.425 

> <ROCS_FitTversky>
1.695 

> <ROCS_FitColorTversky>
0.585 

> <ROCS_FitTverskyCombo>
2.280 

> <ROCS_ColorScore>
-4.265

> <ROCS_Overlap>
1973.602

> <ROCS_Rank>
70                  

$$$$
untitled-dbase-863_302
  -OEChem-11112309163D

 29 30  0     0  0  0  0  0  0999 V2000
   13.8882   15.0755   19.6148 C   0  0  0  0  0  0  0  0  0  0  0  0
   13.0195   15.9144   18.9168 C   0  0  0  0  0  0  0  0  0  0  0  0
   13.5196   14.5721   20.8623 C   0  0  0  0  0  0  0  0  0  0  0  0
   11.7822   16.2501   19.4665 C   0  0  0  0  0  0  0  0  0  0  0  0
    8.1840   12.0811   24.4427 C   0  0  0  0  0  0  0  0  0  0  0  0
   12.2823   14.9077   21.4120 C   0  0  0  0  0  0  0  0  0  0  0  0
   11.4136   15.7467   20.7141 C   0  0  0  0  0  0  0  0  0  0  0  0
    7.8487   10.7896   24.8845 C   0  0  0  0  0  0  0  0  0  0  0  0
    8.9465   11.8561   23.3273 C   0  0  0  0  0  0  0  0  0  0  0  0
    7.0359   10.4191   26.0540 C   0  0  0  0  0  0  0  0  0  0  0  0
    9.6448   12.7538   22.3471 C   0  0  0  0  0  0  0  0  0  0  0  0
    8.3638    9.8364   24.1028 N   0  0  0  0  0  0  0  0  0  0  0  0
   11.0983   12.7802   22.5643 N   0  0  0  0  0  0  0  0  0  0  0  0
   13.1055   13.9376   23.6905 O   0  0  0  0  0  0  0  0  0  0  0  0
   10.8953   15.1333   23.5911 O   0  0  0  0  0  0  0  0  0  0  0  0
    9.0610   10.5202   23.1141 O   0  0  0  0  0  0  0  0  0  0  0  0
   11.8723   14.2443   22.9812 S   0  0  0  0  0  0  0  0  0  0  0  0
    9.8711   16.1930   21.3497 Cl  0  0  0  0  0  0  0  0  0  0  0  0
   14.8512   14.8136   19.1863 H   0  0  0  0  0  0  0  0  0  0  0  0
   13.3063   16.3059   17.9453 H   0  0  0  0  0  0  0  0  0  0  0  0
   14.2060   13.9191   21.3948 H   0  0  0  0  0  0  0  0  0  0  0  0
   11.1174   16.9050   18.9089 H   0  0  0  0  0  0  0  0  0  0  0  0
    7.9126   13.0348   24.8711 H   0  0  0  0  0  0  0  0  0  0  0  0
    5.9668   10.3388   25.7911 H   0  0  0  0  0  0  0  0  0  0  0  0
    7.3442    9.4505   26.4877 H   0  0  0  0  0  0  0  0  0  0  0  0
    7.1214   11.1562   26.8731 H   0  0  0  0  0  0  0  0  0  0  0  0
    9.4632   12.4192   21.3199 H   0  0  0  0  0  0  0  0  0  0  0  0
    9.2760   13.7820   22.4242 H   0  0  0  0  0  0  0  0  0  0  0  0
   11.5262   11.8937   22.8585 H   0  0  0  0  0  0  0  0  0  0  0  0
  1  2  2  0  0  0  0
  1  3  1  0  0  0  0
  2  4  1  0  0  0  0
  3  6  2  0  0  0  0
  4  7  2  0  0  0  0
  5  8  1  0  0  0  0
  5  9  2  0  0  0  0
  6  7  1  0  0  0  0
  6 17  1  0  0  0  0
  7 18  1  0  0  0  0
  8 10  1  0  0  0  0
  8 12  2  0  0  0  0
  9 11  1  0  0  0  0
  9 16  1  0  0  0  0
 11 13  1  0  0  0  0
 12 16  1  0  0  0  0
 13 17  1  0  0  0  0
 14 17  2  0  0  0  0
 15 17  2  0  0  0  0
  1 19  1  0  0  0  0
  2 20  1  0  0  0  0
  3 21  1  0  0  0  0
  4 22  1  0  0  0  0
  5 23  1  0  0  0  0
 10 24  1  0  0  0  0
 10 25  1  0  0  0  0
 10 26  1  0  0  0  0
 11 27  1  0  0  0  0
 11 28  1  0  0  0  0
 13 29  1  0  0  0  0
M  END
> <Catalog ID>
Z857753866

> <PlateID>
1337959-R-11

> <Well>
G07

> <MW (desalted)>
286.735

> <CLogP>
1.652

> <HBD>
1

> <TPSA>
72.200

> <RotBonds>
3

> <ROCS_ShapeQuery>
A71EV2A-x0451_0A_A71EV2A-x0310_0A_A71EV2A-x0416_0A_peptide

> <ROCS_TanimotoCombo>
0.450 

> <ROCS_ShapeTanimoto>
0.275 

> <ROCS_ColorTanimoto>
0.175 

> <ROCS_RefTversky>
0.250 

> <ROCS_RefColorTversky>
0.184 

> <ROCS_RefTverskyCombo>
0.434 

> <ROCS_FitTversky>
1.577 

> <ROCS_FitColorTversky>
0.770 

> <ROCS_FitTverskyCombo>
2.347 

> <ROCS_ColorScore>
-5.611

> <ROCS_Overlap>
1730.924

> <ROCS_Rank>
71                  

$$$$
untitled-dbase-936_55
  -OEChem-11112309163D

 35 36  0     1  0  0  0  0  0999 V2000
    7.4754   11.3792   24.8022 C   0  0  0  0  0  0  0  0  0  0  0  0
    8.5261   12.2598   24.5448 C   0  0  0  0  0  0  0  0  0  0  0  0
    8.6396    9.6381   23.5979 C   0  0  0  0  0  0  0  0  0  0  0  0
    7.5322   10.0683   24.3288 C   0  0  0  0  0  0  0  0  0  0  0  0
    9.6335   11.8295   23.8139 C   0  0  0  0  0  0  0  0  0  0  0  0
    9.6903   10.5187   23.3404 C   0  0  0  0  0  0  0  0  0  0  0  0
    9.9131   14.5302   19.8732 C   0  0  0  0  0  0  0  0  0  0  0  0
   10.2042   16.0051   19.6327 C   0  0  0  0  0  0  0  0  0  0  0  0
   10.3967   15.7141   21.9217 C   0  0  0  0  0  0  0  0  0  0  0  0
    9.9410   14.3620   21.3923 C   0  0  2  0  0  0  0  0  0  0  0  0
    6.4086    9.1274   24.6047 C   0  0  0  0  0  0  0  0  0  0  0  0
   12.0363   13.1961   21.0055 C   0  0  0  0  0  0  0  0  0  0  0  0
    9.9055   16.6468   20.9107 N   0  0  0  0  0  0  0  0  0  0  0  0
   10.7957   13.2901   21.8221 N   0  0  1  0  0  0  0  0  0  0  0  0
   10.6114   14.1996   24.2556 O   0  0  0  0  0  0  0  0  0  0  0  0
   12.1900   12.3104   23.7834 O   0  0  0  0  0  0  0  0  0  0  0  0
   10.9364   12.9922   23.5188 S   0  0  0  0  0  0  0  0  0  0  0  0
   11.0388    9.9366   22.4320 Cl  0  0  0  0  0  0  0  0  0  0  0  0
    6.6170   11.7219   25.3734 H   0  0  0  0  0  0  0  0  0  0  0  0
    8.4699   13.2779   24.9208 H   0  0  0  0  0  0  0  0  0  0  0  0
    8.6762    8.6141   23.2322 H   0  0  0  0  0  0  0  0  0  0  0  0
    8.9144   14.2760   19.4979 H   0  0  0  0  0  0  0  0  0  0  0  0
   10.6360   13.8949   19.3501 H   0  0  0  0  0  0  0  0  0  0  0  0
   11.2608   16.1470   19.3763 H   0  0  0  0  0  0  0  0  0  0  0  0
    9.5960   16.4172   18.8224 H   0  0  0  0  0  0  0  0  0  0  0  0
    9.9687   15.9301   22.9054 H   0  0  0  0  0  0  0  0  0  0  0  0
   11.4889   15.7787   22.0041 H   0  0  0  0  0  0  0  0  0  0  0  0
    8.8947   14.1573   21.7465 H   0  0  0  0  0  0  0  0  0  0  0  0
    5.6602    9.1809   23.8045 H   0  0  0  0  0  0  0  0  0  0  0  0
    6.7650    8.0918   24.6789 H   0  0  0  0  0  0  0  0  0  0  0  0
    5.9166    9.3628   25.5575 H   0  0  0  0  0  0  0  0  0  0  0  0
   12.6550   12.3638   21.3720 H   0  0  0  0  0  0  0  0  0  0  0  0
   11.7698   13.0189   19.9530 H   0  0  0  0  0  0  0  0  0  0  0  0
   12.6011   14.1365   21.0874 H   0  0  0  0  0  0  0  0  0  0  0  0
   10.3814   17.5442   20.9843 H   0  0  0  0  0  0  0  0  0  0  0  0
  1  2  1  0  0  0  0
  1  4  2  0  0  0  0
  2  5  2  0  0  0  0
  3  4  1  0  0  0  0
  3  6  2  0  0  0  0
  4 11  1  0  0  0  0
  5  6  1  0  0  0  0
  5 17  1  0  0  0  0
  6 18  1  0  0  0  0
  7  8  1  0  0  0  0
  7 10  1  0  0  0  0
  8 13  1  0  0  0  0
  9 10  1  0  0  0  0
  9 13  1  0  0  0  0
 10 14  1  0  0  0  0
 12 14  1  0  0  0  0
 14 17  1  0  0  0  0
 15 17  2  0  0  0  0
 16 17  2  0  0  0  0
  1 19  1  0  0  0  0
  2 20  1  0  0  0  0
  3 21  1  0  0  0  0
  7 22  1  0  0  0  0
  7 23  1  0  0  0  0
  8 24  1  0  0  0  0
  8 25  1  0  0  0  0
  9 26  1  0  0  0  0
  9 27  1  0  0  0  0
 10 28  1  0  0  0  0
 11 29  1  0  0  0  0
 11 30  1  0  0  0  0
 11 31  1  0  0  0  0
 12 32  1  0  0  0  0
 12 33  1  0  0  0  0
 12 34  1  0  0  0  0
 13 35  1  0  0  0  0
M  END
> <Catalog ID>
Z1123687522

> <PlateID>
1337959-R-12

> <Well>
F10

> <MW (desalted)>
288.794

> <CLogP>
2.190

> <HBD>
1

> <TPSA>
49.410

> <RotBonds>
2

> <ROCS_ShapeQuery>
A71EV2A-x0451_0A_A71EV2A-x0310_0A_A71EV2A-x0416_0A_peptide

> <ROCS_TanimotoCombo>
0.449 

> <ROCS_ShapeTanimoto>
0.284 

> <ROCS_ColorTanimoto>
0.166 

> <ROCS_RefTversky>
0.256 

> <ROCS_RefColorTversky>
0.176 

> <ROCS_RefTverskyCombo>
0.432 

> <ROCS_FitTversky>
1.631 

> <ROCS_FitColorTversky>
0.736 

> <ROCS_FitTverskyCombo>
2.367 

> <ROCS_ColorScore>
-5.366

> <ROCS_Overlap>
1772.052

> <ROCS_Rank>
72                  

$$$$
untitled-dbase-1069_32
  -OEChem-11112309163D

 32 33  0     1  0  0  0  0  0999 V2000
    8.4156   12.3241   24.3998 C   0  0  0  0  0  0  0  0  0  0  0  0
    8.8575    9.6218   23.8656 C   0  0  0  0  0  0  0  0  0  0  0  0
    7.5127   11.3655   24.8597 C   0  0  0  0  0  0  0  0  0  0  0  0
    7.7336   10.0144   24.5926 C   0  0  0  0  0  0  0  0  0  0  0  0
    9.5395   11.9315   23.6728 C   0  0  0  0  0  0  0  0  0  0  0  0
    9.7604   10.5804   23.4058 C   0  0  0  0  0  0  0  0  0  0  0  0
    8.4798   14.8262   20.2664 C   0  0  0  0  0  0  0  0  0  0  0  0
    8.5677   14.0401   21.5666 C   0  0  0  0  0  0  0  0  0  0  0  0
   10.7857   14.3617   20.6435 C   0  0  0  0  0  0  0  0  0  0  0  0
    9.8540   15.4698   20.1563 C   0  0  2  0  0  0  0  0  0  0  0  0
    6.3116   11.7883   25.6365 C   0  0  0  0  0  0  0  0  0  0  0  0
    9.9734   13.5491   21.5989 N   0  0  1  0  0  0  0  0  0  0  0  0
    9.9563   16.6483   20.9843 N   0  0  0  0  0  0  0  0  0  0  0  0
   10.4927   14.3310   24.0001 O   0  0  0  0  0  0  0  0  0  0  0  0
   11.9519   12.5765   22.9322 O   0  0  0  0  0  0  0  0  0  0  0  0
    6.8718    9.0859   25.0305 F   0  0  0  0  0  0  0  0  0  0  0  0
   10.6490   13.1901   23.1158 S   0  0  0  0  0  0  0  0  0  0  0  0
   11.1353   10.0413   22.5102 Cl  0  0  0  0  0  0  0  0  0  0  0  0
    8.2393   13.3764   24.6100 H   0  0  0  0  0  0  0  0  0  0  0  0
    9.0133    8.5646   23.6664 H   0  0  0  0  0  0  0  0  0  0  0  0
    8.2349   14.1891   19.4094 H   0  0  0  0  0  0  0  0  0  0  0  0
    7.6950   15.5908   20.3500 H   0  0  0  0  0  0  0  0  0  0  0  0
    8.3255   14.6662   22.4255 H   0  0  0  0  0  0  0  0  0  0  0  0
    7.9018   13.1752   21.5501 H   0  0  0  0  0  0  0  0  0  0  0  0
   11.1427   13.7346   19.8121 H   0  0  0  0  0  0  0  0  0  0  0  0
   11.6633   14.7768   21.1681 H   0  0  0  0  0  0  0  0  0  0  0  0
   10.0705   15.7179   19.1225 H   0  0  0  0  0  0  0  0  0  0  0  0
    5.4689   11.9816   24.9615 H   0  0  0  0  0  0  0  0  0  0  0  0
    6.0109   11.0163   26.3565 H   0  0  0  0  0  0  0  0  0  0  0  0
    6.5115   12.7004   26.2138 H   0  0  0  0  0  0  0  0  0  0  0  0
    9.0760   16.8107   21.4194 H   0  0  0  0  0  0  0  0  0  0  0  0
   10.6576   16.4940   21.6736 H   0  0  0  0  0  0  0  0  0  0  0  0
  1  3  2  0  0  0  0
  1  5  1  0  0  0  0
  2  4  2  0  0  0  0
  2  6  1  0  0  0  0
  3  4  1  0  0  0  0
  3 11  1  0  0  0  0
  4 16  1  0  0  0  0
  5  6  2  0  0  0  0
  5 17  1  0  0  0  0
  6 18  1  0  0  0  0
  7  8  1  0  0  0  0
  7 10  1  0  0  0  0
  8 12  1  0  0  0  0
  9 10  1  0  0  0  0
  9 12  1  0  0  0  0
 10 13  1  0  0  0  0
 12 17  1  0  0  0  0
 14 17  2  0  0  0  0
 15 17  2  0  0  0  0
  1 19  1  0  0  0  0
  2 20  1  0  0  0  0
  7 21  1  0  0  0  0
  7 22  1  0  0  0  0
  8 23  1  0  0  0  0
  8 24  1  0  0  0  0
  9 25  1  0  0  0  0
  9 26  1  0  0  0  0
 10 27  1  0  0  0  0
 11 28  1  0  0  0  0
 11 29  1  0  0  0  0
 11 30  1  0  0  0  0
 13 31  1  0  0  0  0
 13 32  1  0  0  0  0
M  END
> <Catalog ID>
Z2242929873

> <PlateID>
1337959-R-14

> <Well>
D05

> <MW (desalted)>
292.757

> <CLogP>
1.874

> <HBD>
1

> <TPSA>
63.400

> <RotBonds>
1

> <ROCS_ShapeQuery>
A71EV2A-x0451_0A_A71EV2A-x0310_0A_A71EV2A-x0416_0A_peptide

> <ROCS_TanimotoCombo>
0.449 

> <ROCS_ShapeTanimoto>
0.288 

> <ROCS_ColorTanimoto>
0.161 

> <ROCS_RefTversky>
0.259 

> <ROCS_RefColorTversky>
0.172 

> <ROCS_RefTverskyCombo>
0.431 

> <ROCS_FitTversky>
1.649 

> <ROCS_FitColorTversky>
0.716 

> <ROCS_FitTverskyCombo>
2.365 

> <ROCS_ColorScore>
-5.219

> <ROCS_Overlap>
1796.334

> <ROCS_Rank>
73                  

$$$$
untitled-dbase-793_10
  -OEChem-11112309163D

 34 35  0     1  0  0  0  0  0999 V2000
    7.3164   13.0619   26.3448 C   0  0  0  0  0  0  0  0  0  0  0  0
    6.1805   12.0806   26.0741 C   0  0  0  0  0  0  0  0  0  0  0  0
    8.2751   13.1779   25.1590 C   0  0  0  0  0  0  0  0  0  0  0  0
    6.7092   10.7230   25.6270 C   0  0  0  0  0  0  0  0  0  0  0  0
   10.1291   10.5139   23.0948 C   0  0  0  0  0  0  0  0  0  0  0  0
    8.9185    9.6168   22.8901 C   0  0  0  0  0  0  0  0  0  0  0  0
    8.8106   11.8077   24.7306 C   0  0  1  0  0  0  0  0  0  0  0  0
    7.6364   10.8618   24.4211 C   0  0  1  0  0  0  0  0  0  0  0  0
   11.7112   14.7056   21.4307 C   0  0  0  0  0  0  0  0  0  0  0  0
   10.7185   13.6185   21.7770 C   0  0  0  0  0  0  0  0  0  0  0  0
    9.6702   11.8845   23.4932 N   0  0  1  0  0  0  0  0  0  0  0  0
   12.1878   12.4071   23.5661 O   0  0  0  0  0  0  0  0  0  0  0  0
   10.5338   14.1597   24.3266 O   0  0  0  0  0  0  0  0  0  0  0  0
    8.1324    9.5630   24.0813 O   0  0  0  0  0  0  0  0  0  0  0  0
   10.9104   13.0724   23.4531 S   0  0  0  0  0  0  0  0  0  0  0  0
    6.9019   14.0487   26.5801 H   0  0  0  0  0  0  0  0  0  0  0  0
    7.8756   12.7329   27.2296 H   0  0  0  0  0  0  0  0  0  0  0  0
    5.5715   11.9617   26.9772 H   0  0  0  0  0  0  0  0  0  0  0  0
    5.5234   12.4902   25.2971 H   0  0  0  0  0  0  0  0  0  0  0  0
    7.7626   13.6612   24.3175 H   0  0  0  0  0  0  0  0  0  0  0  0
    9.0973   13.8404   25.4507 H   0  0  0  0  0  0  0  0  0  0  0  0
    7.2431   10.2354   26.4530 H   0  0  0  0  0  0  0  0  0  0  0  0
    5.8739   10.0573   25.3787 H   0  0  0  0  0  0  0  0  0  0  0  0
   10.7720   10.1128   23.8870 H   0  0  0  0  0  0  0  0  0  0  0  0
   10.7015   10.5704   22.1634 H   0  0  0  0  0  0  0  0  0  0  0  0
    8.2952    9.9650   22.0578 H   0  0  0  0  0  0  0  0  0  0  0  0
    9.2435    8.5977   22.6583 H   0  0  0  0  0  0  0  0  0  0  0  0
    9.4262   11.3817   25.5352 H   0  0  0  0  0  0  0  0  0  0  0  0
    7.0508   11.2416   23.5717 H   0  0  0  0  0  0  0  0  0  0  0  0
   11.5661   15.5762   22.0772 H   0  0  0  0  0  0  0  0  0  0  0  0
   12.7398   14.3521   21.5565 H   0  0  0  0  0  0  0  0  0  0  0  0
   11.5947   15.0269   20.3907 H   0  0  0  0  0  0  0  0  0  0  0  0
   10.8563   12.7439   21.1353 H   0  0  0  0  0  0  0  0  0  0  0  0
    9.6914   13.9780   21.6705 H   0  0  0  0  0  0  0  0  0  0  0  0
  1  2  1  0  0  0  0
  1  3  1  0  0  0  0
  2  4  1  0  0  0  0
  3  7  1  0  0  0  0
  4  8  1  0  0  0  0
  5  6  1  0  0  0  0
  5 11  1  0  0  0  0
  6 14  1  0  0  0  0
  7  8  1  0  0  0  0
  7 11  1  0  0  0  0
  8 14  1  0  0  0  0
  9 10  1  0  0  0  0
 10 15  1  0  0  0  0
 11 15  1  0  0  0  0
 12 15  2  0  0  0  0
 13 15  2  0  0  0  0
  1 16  1  0  0  0  0
  1 17  1  0  0  0  0
  2 18  1  0  0  0  0
  2 19  1  0  0  0  0
  3 20  1  0  0  0  0
  3 21  1  0  0  0  0
  4 22  1  0  0  0  0
  4 23  1  0  0  0  0
  5 24  1  0  0  0  0
  5 25  1  0  0  0  0
  6 26  1  0  0  0  0
  6 27  1  0  0  0  0
  7 28  1  0  0  0  0
  8 29  1  0  0  0  0
  9 30  1  0  0  0  0
  9 31  1  0  0  0  0
  9 32  1  0  0  0  0
 10 33  1  0  0  0  0
 10 34  1  0  0  0  0
M  END
> <Catalog ID>
Z805633698

> <PlateID>
1337959-R-10

> <Well>
H06

> <MW (desalted)>
233.328

> <CLogP>
1.568

> <HBD>
0

> <TPSA>
46.610

> <RotBonds>
1

> <ROCS_ShapeQuery>
A71EV2A-x0451_0A_A71EV2A-x0310_0A_A71EV2A-x0416_0A_peptide

> <ROCS_TanimotoCombo>
0.449 

> <ROCS_ShapeTanimoto>
0.296 

> <ROCS_ColorTanimoto>
0.153 

> <ROCS_RefTversky>
0.260 

> <ROCS_RefColorTversky>
0.161 

> <ROCS_RefTverskyCombo>
0.420 

> <ROCS_FitTversky>
1.883 

> <ROCS_FitColorTversky>
0.770 

> <ROCS_FitTverskyCombo>
2.653 

> <ROCS_ColorScore>
-4.884

> <ROCS_Overlap>
1798.245

> <ROCS_Rank>
74                  

$$$$
untitled-dbase-585_446
  -OEChem-11112309163D

 34 35  0     1  0  0  0  0  0999 V2000
    7.5089    9.9492   24.2143 C   0  0  0  0  0  0  0  0  0  0  0  0
    7.3199   11.1703   24.7329 C   0  0  0  0  0  0  0  0  0  0  0  0
   10.4426   13.0110   23.5569 C   0  0  0  0  0  0  0  0  0  0  0  0
   11.5366   15.5380   22.8117 C   0  0  0  0  0  0  0  0  0  0  0  0
    8.7203    9.5771   23.4126 C   0  0  0  0  0  0  0  0  0  0  0  0
    8.2827   12.3039   24.5370 C   0  0  0  0  0  0  0  0  0  0  0  0
    9.8528   10.6007   23.5260 C   0  0  0  0  0  0  0  0  0  0  0  0
   13.3452   13.8078   23.0197 C   0  0  0  0  0  0  0  0  0  0  0  0
   14.4986   14.7253   22.6379 C   0  0  0  0  0  0  0  0  0  0  0  0
   12.5603   14.4538   20.7881 C   0  0  0  0  0  0  0  0  0  0  0  0
    9.3169   12.0302   23.4374 C   0  0  2  0  0  0  0  0  0  0  0  0
   12.1211   14.2765   22.2370 C   0  0  2  0  0  0  0  0  0  0  0  0
   11.0246   13.3493   22.3501 N   0  0  0  0  0  0  0  0  0  0  0  0
   10.7614   13.4331   24.6623 O   0  0  0  0  0  0  0  0  0  0  0  0
   10.3989   15.6513   23.2430 O   0  0  0  0  0  0  0  0  0  0  0  0
   12.4464   16.5424   22.7852 O   0  0  0  0  0  0  0  0  0  0  0  0
   14.2692   15.0752   20.8737 S   0  0  0  0  0  0  0  0  0  0  0  0
    6.7571    9.1827   24.3737 H   0  0  0  0  0  0  0  0  0  0  0  0
    6.4343   11.3614   25.3290 H   0  0  0  0  0  0  0  0  0  0  0  0
    9.0686    8.5943   23.7485 H   0  0  0  0  0  0  0  0  0  0  0  0
    8.4390    9.4738   22.3594 H   0  0  0  0  0  0  0  0  0  0  0  0
    7.7013   13.1892   24.2686 H   0  0  0  0  0  0  0  0  0  0  0  0
    8.7782   12.5159   25.4864 H   0  0  0  0  0  0  0  0  0  0  0  0
   10.3947   10.4414   24.4578 H   0  0  0  0  0  0  0  0  0  0  0  0
   10.5571   10.4407   22.7073 H   0  0  0  0  0  0  0  0  0  0  0  0
   13.5975   12.7725   22.7525 H   0  0  0  0  0  0  0  0  0  0  0  0
   13.1873   13.8339   24.1042 H   0  0  0  0  0  0  0  0  0  0  0  0
   14.4567   15.6672   23.1937 H   0  0  0  0  0  0  0  0  0  0  0  0
   15.4689   14.2558   22.8215 H   0  0  0  0  0  0  0  0  0  0  0  0
   12.5836   13.4987   20.2524 H   0  0  0  0  0  0  0  0  0  0  0  0
   11.9371   15.1565   20.2268 H   0  0  0  0  0  0  0  0  0  0  0  0
    8.8655   12.1998   22.4690 H   0  0  0  0  0  0  0  0  0  0  0  0
   10.6618   12.9238   21.5023 H   0  0  0  0  0  0  0  0  0  0  0  0
   12.0833   17.3755   23.1546 H   0  0  0  0  0  0  0  0  0  0  0  0
  1  2  2  0  0  0  0
  1  5  1  0  0  0  0
  2  6  1  0  0  0  0
  3 11  1  0  0  0  0
  3 13  1  0  0  0  0
  3 14  2  0  0  0  0
  4 12  1  0  0  0  0
  4 15  2  0  0  0  0
  4 16  1  0  0  0  0
  5  7  1  0  0  0  0
  6 11  1  0  0  0  0
  7 11  1  0  0  0  0
  8  9  1  0  0  0  0
  8 12  1  0  0  0  0
  9 17  1  0  0  0  0
 10 12  1  0  0  0  0
 10 17  1  0  0  0  0
 12 13  1  0  0  0  0
  1 18  1  0  0  0  0
  2 19  1  0  0  0  0
  5 20  1  0  0  0  0
  5 21  1  0  0  0  0
  6 22  1  0  0  0  0
  6 23  1  0  0  0  0
  7 24  1  0  0  0  0
  7 25  1  0  0  0  0
  8 26  1  0  0  0  0
  8 27  1  0  0  0  0
  9 28  1  0  0  0  0
  9 29  1  0  0  0  0
 10 30  1  0  0  0  0
 10 31  1  0  0  0  0
 11 32  1  0  0  0  0
 13 33  1  0  0  0  0
 16 34  1  0  0  0  0
M  END
> <Catalog ID>
Z839882768

> <PlateID>
1337959-R-08

> <Well>
C07

> <MW (desalted)>
255.333

> <CLogP>
1.258

> <HBD>
2

> <TPSA>
66.400

> <RotBonds>
3

> <ROCS_ShapeQuery>
A71EV2A-x0451_0A_A71EV2A-x0310_0A_A71EV2A-x0416_0A_peptide

> <ROCS_TanimotoCombo>
0.449 

> <ROCS_ShapeTanimoto>
0.277 

> <ROCS_ColorTanimoto>
0.172 

> <ROCS_RefTversky>
0.250 

> <ROCS_RefColorTversky>
0.186 

> <ROCS_RefTverskyCombo>
0.436 

> <ROCS_FitTversky>
1.638 

> <ROCS_FitColorTversky>
0.688 

> <ROCS_FitTverskyCombo>
2.325 

> <ROCS_ColorScore>
-5.669

> <ROCS_Overlap>
1734.401

> <ROCS_Rank>
75                  

$$$$
untitled-dbase-1040_191
  -OEChem-11112309163D

 32 33  0     1  0  0  0  0  0999 V2000
    7.5775   10.0098   24.4415 C   0  0  0  0  0  0  0  0  0  0  0  0
    9.8628   10.4705   23.8075 C   0  0  0  0  0  0  0  0  0  0  0  0
    8.3232   12.2936   24.1856 C   0  0  0  0  0  0  0  0  0  0  0  0
    8.8525    9.5557   24.1041 C   0  0  0  0  0  0  0  0  0  0  0  0
    7.3128   11.3787   24.4821 C   0  0  0  0  0  0  0  0  0  0  0  0
    9.5982   11.8395   23.8482 C   0  0  0  0  0  0  0  0  0  0  0  0
   11.6856   13.8032   19.7403 C   0  0  0  0  0  0  0  0  0  0  0  0
   10.2240   14.2155   19.7370 C   0  0  0  0  0  0  0  0  0  0  0  0
   11.7766   12.8050   20.8873 C   0  0  0  0  0  0  0  0  0  0  0  0
    9.8706   14.2835   21.2242 C   0  0  2  0  0  0  0  0  0  0  0  0
   10.2377   15.6279   21.8439 C   0  0  0  0  0  0  0  0  0  0  0  0
   10.6621   13.1612   21.8057 N   0  0  2  0  0  0  0  0  0  0  0  0
    9.9381   16.6864   20.9344 N   0  0  0  0  0  0  0  0  0  0  0  0
   10.5424   14.2486   24.1274 O   0  0  0  0  0  0  0  0  0  0  0  0
   12.1498   12.3494   23.7309 O   0  0  0  0  0  0  0  0  0  0  0  0
    9.1060    8.2410   24.0642 F   0  0  0  0  0  0  0  0  0  0  0  0
    6.0882   11.8147   24.8052 F   0  0  0  0  0  0  0  0  0  0  0  0
   10.8783   12.9984   23.4729 S   0  0  0  0  0  0  0  0  0  0  0  0
    6.7912    9.2968   24.6709 H   0  0  0  0  0  0  0  0  0  0  0  0
   10.8526   10.1055   23.5465 H   0  0  0  0  0  0  0  0  0  0  0  0
    8.1056   13.3574   24.2210 H   0  0  0  0  0  0  0  0  0  0  0  0
   11.9386   13.3110   18.7912 H   0  0  0  0  0  0  0  0  0  0  0  0
   12.3667   14.6515   19.8712 H   0  0  0  0  0  0  0  0  0  0  0  0
   10.1144   15.1989   19.2548 H   0  0  0  0  0  0  0  0  0  0  0  0
    9.5896   13.5040   19.1924 H   0  0  0  0  0  0  0  0  0  0  0  0
   11.7058   11.7760   20.5199 H   0  0  0  0  0  0  0  0  0  0  0  0
   12.7213   12.9166   21.4316 H   0  0  0  0  0  0  0  0  0  0  0  0
    8.7978   14.0808   21.3491 H   0  0  0  0  0  0  0  0  0  0  0  0
    9.6554   15.7413   22.7601 H   0  0  0  0  0  0  0  0  0  0  0  0
   11.3065   15.6111   22.0646 H   0  0  0  0  0  0  0  0  0  0  0  0
    8.9622   16.6736   20.7016 H   0  0  0  0  0  0  0  0  0  0  0  0
   10.1614   17.5710   21.3519 H   0  0  0  0  0  0  0  0  0  0  0  0
  1  4  2  0  0  0  0
  1  5  1  0  0  0  0
  2  4  1  0  0  0  0
  2  6  2  0  0  0  0
  3  5  2  0  0  0  0
  3  6  1  0  0  0  0
  4 16  1  0  0  0  0
  5 17  1  0  0  0  0
  6 18  1  0  0  0  0
  7  8  1  0  0  0  0
  7  9  1  0  0  0  0
  8 10  1  0  0  0  0
  9 12  1  0  0  0  0
 10 11  1  0  0  0  0
 10 12  1  0  0  0  0
 11 13  1  0  0  0  0
 12 18  1  0  0  0  0
 14 18  2  0  0  0  0
 15 18  2  0  0  0  0
  1 19  1  0  0  0  0
  2 20  1  0  0  0  0
  3 21  1  0  0  0  0
  7 22  1  0  0  0  0
  7 23  1  0  0  0  0
  8 24  1  0  0  0  0
  8 25  1  0  0  0  0
  9 26  1  0  0  0  0
  9 27  1  0  0  0  0
 10 28  1  0  0  0  0
 11 29  1  0  0  0  0
 11 30  1  0  0  0  0
 13 31  1  0  0  0  0
 13 32  1  0  0  0  0
M  END
> <Catalog ID>
Z1480897521

> <PlateID>
1337959-R-14

> <Well>
A06

> <MW (desalted)>
276.303

> <CLogP>
1.724

> <HBD>
1

> <TPSA>
63.400

> <RotBonds>
2

> <ROCS_ShapeQuery>
A71EV2A-x0451_0A_A71EV2A-x0310_0A_A71EV2A-x0416_0A_peptide

> <ROCS_TanimotoCombo>
0.448 

> <ROCS_ShapeTanimoto>
0.285 

> <ROCS_ColorTanimoto>
0.163 

> <ROCS_RefTversky>
0.257 

> <ROCS_RefColorTversky>
0.174 

> <ROCS_RefTverskyCombo>
0.431 

> <ROCS_FitTversky>
1.622 

> <ROCS_FitColorTversky>
0.727 

> <ROCS_FitTverskyCombo>
2.349 

> <ROCS_ColorScore>
-5.299

> <ROCS_Overlap>
1781.076

> <ROCS_Rank>
76                  

$$$$
untitled-dbase-1089_207
  -OEChem-11112309163D

 34 35  0     1  0  0  0  0  0999 V2000
    7.5412   11.7619   24.7034 C   0  0  0  0  0  0  0  0  0  0  0  0
    7.1344   10.5232   24.2078 C   0  0  0  0  0  0  0  0  0  0  0  0
    8.8857   12.1290   24.6453 C   0  0  0  0  0  0  0  0  0  0  0  0
    8.0721    9.6514   23.6542 C   0  0  0  0  0  0  0  0  0  0  0  0
    9.8233   11.2572   24.0917 C   0  0  0  0  0  0  0  0  0  0  0  0
    9.4166   10.0184   23.5961 C   0  0  0  0  0  0  0  0  0  0  0  0
   10.9313   13.8988   22.9741 C   0  0  0  0  0  0  0  0  0  0  0  0
   11.8593   15.3760   21.1855 C   0  0  0  0  0  0  0  0  0  0  0  0
   11.3390   16.8014   21.2458 C   0  0  0  0  0  0  0  0  0  0  0  0
    9.4911   15.4739   21.7020 C   0  0  0  0  0  0  0  0  0  0  0  0
   10.6788   14.5190   21.6357 C   0  0  2  0  0  0  0  0  0  0  0  0
   12.4360   12.1996   21.9278 C   0  0  0  0  0  0  0  0  0  0  0  0
   11.2695   11.6560   24.0308 C   0  0  0  0  0  0  0  0  0  0  0  0
    9.9201   16.6459   20.9402 N   0  0  0  0  0  0  0  0  0  0  0  0
   11.5227   12.6349   22.9767 N   0  0  0  0  0  0  0  0  0  0  0  0
   10.6133   14.5169   23.9936 O   0  0  0  0  0  0  0  0  0  0  0  0
   10.3102    9.1742   23.0622 F   0  0  0  0  0  0  0  0  0  0  0  0
    6.8111   12.4407   25.1350 H   0  0  0  0  0  0  0  0  0  0  0  0
    6.0877   10.2371   24.2536 H   0  0  0  0  0  0  0  0  0  0  0  0
    9.1934   13.0959   25.0345 H   0  0  0  0  0  0  0  0  0  0  0  0
    7.7556    8.6869   23.2679 H   0  0  0  0  0  0  0  0  0  0  0  0
   12.1186   15.1208   20.1502 H   0  0  0  0  0  0  0  0  0  0  0  0
   12.7588   15.2473   21.7964 H   0  0  0  0  0  0  0  0  0  0  0  0
   11.4720   17.2224   22.2494 H   0  0  0  0  0  0  0  0  0  0  0  0
   11.8404   17.4528   20.5246 H   0  0  0  0  0  0  0  0  0  0  0  0
    8.5959   15.0318   21.2535 H   0  0  0  0  0  0  0  0  0  0  0  0
    9.2453   15.7587   22.7323 H   0  0  0  0  0  0  0  0  0  0  0  0
   10.5013   13.7122   20.9157 H   0  0  0  0  0  0  0  0  0  0  0  0
   13.4668   12.4656   22.2047 H   0  0  0  0  0  0  0  0  0  0  0  0
   12.3594   11.1092   21.8044 H   0  0  0  0  0  0  0  0  0  0  0  0
   12.1710   12.6951   20.9821 H   0  0  0  0  0  0  0  0  0  0  0  0
   11.5895   12.0946   24.9823 H   0  0  0  0  0  0  0  0  0  0  0  0
   11.9090   10.7874   23.8417 H   0  0  0  0  0  0  0  0  0  0  0  0
    9.3950   17.4719   21.2214 H   0  0  0  0  0  0  0  0  0  0  0  0
  1  2  2  0  0  0  0
  1  3  1  0  0  0  0
  2  4  1  0  0  0  0
  3  5  2  0  0  0  0
  4  6  2  0  0  0  0
  5  6  1  0  0  0  0
  5 13  1  0  0  0  0
  6 17  1  0  0  0  0
  7 11  1  0  0  0  0
  7 15  1  0  0  0  0
  7 16  2  0  0  0  0
  8  9  1  0  0  0  0
  8 11  1  0  0  0  0
  9 14  1  0  0  0  0
 10 11  1  0  0  0  0
 10 14  1  0  0  0  0
 12 15  1  0  0  0  0
 13 15  1  0  0  0  0
  1 18  1  0  0  0  0
  2 19  1  0  0  0  0
  3 20  1  0  0  0  0
  4 21  1  0  0  0  0
  8 22  1  0  0  0  0
  8 23  1  0  0  0  0
  9 24  1  0  0  0  0
  9 25  1  0  0  0  0
 10 26  1  0  0  0  0
 10 27  1  0  0  0  0
 11 28  1  0  0  0  0
 12 29  1  0  0  0  0
 12 30  1  0  0  0  0
 12 31  1  0  0  0  0
 13 32  1  0  0  0  0
 13 33  1  0  0  0  0
 14 34  1  0  0  0  0
M  END
> <Catalog ID>
Z1078595434

> <PlateID>
1337959-R-14

> <Well>
F05

> <MW (desalted)>
236.285

> <CLogP>
1.257

> <HBD>
1

> <TPSA>
32.340

> <RotBonds>
3

> <ROCS_ShapeQuery>
A71EV2A-x0451_0A_A71EV2A-x0310_0A_A71EV2A-x0416_0A_peptide

> <ROCS_TanimotoCombo>
0.448 

> <ROCS_ShapeTanimoto>
0.286 

> <ROCS_ColorTanimoto>
0.162 

> <ROCS_RefTversky>
0.257 

> <ROCS_RefColorTversky>
0.169 

> <ROCS_RefTverskyCombo>
0.426 

> <ROCS_FitTversky>
1.659 

> <ROCS_FitColorTversky>
0.808 

> <ROCS_FitTverskyCombo>
2.467 

> <ROCS_ColorScore>
-5.119

> <ROCS_Overlap>
1781.827

> <ROCS_Rank>
77                  

$$$$
untitled-dbase-226_1
  -OEChem-11112309163D

 30 32  0     0  0  0  0  0  0999 V2000
   10.4194   13.3782   23.4729 C   0  0  0  0  0  0  0  0  0  0  0  0
    7.6033   10.8835   25.5855 C   0  0  0  0  0  0  0  0  0  0  0  0
    7.0440   10.6942   23.1477 C   0  0  0  0  0  0  0  0  0  0  0  0
    8.9419    9.3637   24.1054 C   0  0  0  0  0  0  0  0  0  0  0  0
    8.0692   12.8020   24.0389 C   0  0  0  0  0  0  0  0  0  0  0  0
    9.9703   11.4691   24.9983 C   0  0  0  0  0  0  0  0  0  0  0  0
    9.4104   11.2809   22.5570 C   0  0  0  0  0  0  0  0  0  0  0  0
    7.0975   11.6508   24.3517 C   0  0  0  0  0  0  0  0  0  0  0  0
    9.0061   10.3126   25.3150 C   0  0  0  0  0  0  0  0  0  0  0  0
    8.4441   10.1229   22.8631 C   0  0  0  0  0  0  0  0  0  0  0  0
    9.4787   12.2433   23.7590 C   0  0  0  0  0  0  0  0  0  0  0  0
   10.9844   13.3279   22.2205 N   0  0  0  0  0  0  0  0  0  0  0  0
   10.6362   14.2685   24.2913 O   0  0  0  0  0  0  0  0  0  0  0  0
    7.6322   11.5509   26.4555 H   0  0  0  0  0  0  0  0  0  0  0  0
    6.9095   10.0701   25.8302 H   0  0  0  0  0  0  0  0  0  0  0  0
    6.3404    9.8773   23.3499 H   0  0  0  0  0  0  0  0  0  0  0  0
    6.6698   11.2254   22.2639 H   0  0  0  0  0  0  0  0  0  0  0  0
    9.9336    8.9369   23.9110 H   0  0  0  0  0  0  0  0  0  0  0  0
    8.2715    8.5235   24.3241 H   0  0  0  0  0  0  0  0  0  0  0  0
    7.7068   13.3737   23.1745 H   0  0  0  0  0  0  0  0  0  0  0  0
    8.0966   13.5053   24.8818 H   0  0  0  0  0  0  0  0  0  0  0  0
   10.0447   12.1398   25.8645 H   0  0  0  0  0  0  0  0  0  0  0  0
   10.9814   11.0772   24.8268 H   0  0  0  0  0  0  0  0  0  0  0  0
   10.4080   10.8837   22.3277 H   0  0  0  0  0  0  0  0  0  0  0  0
    9.0786   11.8157   21.6574 H   0  0  0  0  0  0  0  0  0  0  0  0
    6.0980   12.0531   24.5498 H   0  0  0  0  0  0  0  0  0  0  0  0
    9.3599    9.7660   26.1961 H   0  0  0  0  0  0  0  0  0  0  0  0
    8.3992    9.4420   22.0061 H   0  0  0  0  0  0  0  0  0  0  0  0
   11.6327   14.0597   21.9490 H   0  0  0  0  0  0  0  0  0  0  0  0
   10.7790   12.5882   21.5567 H   0  0  0  0  0  0  0  0  0  0  0  0
  1 11  1  0  0  0  0
  1 12  1  0  0  0  0
  1 13  2  0  0  0  0
  2  8  1  0  0  0  0
  2  9  1  0  0  0  0
  3  8  1  0  0  0  0
  3 10  1  0  0  0  0
  4  9  1  0  0  0  0
  4 10  1  0  0  0  0
  5  8  1  0  0  0  0
  5 11  1  0  0  0  0
  6  9  1  0  0  0  0
  6 11  1  0  0  0  0
  7 10  1  0  0  0  0
  7 11  1  0  0  0  0
  2 14  1  0  0  0  0
  2 15  1  0  0  0  0
  3 16  1  0  0  0  0
  3 17  1  0  0  0  0
  4 18  1  0  0  0  0
  4 19  1  0  0  0  0
  5 20  1  0  0  0  0
  5 21  1  0  0  0  0
  6 22  1  0  0  0  0
  6 23  1  0  0  0  0
  7 24  1  0  0  0  0
  7 25  1  0  0  0  0
  8 26  1  0  0  0  0
  9 27  1  0  0  0  0
 10 28  1  0  0  0  0
 12 29  1  0  0  0  0
 12 30  1  0  0  0  0
M  END
> <Catalog ID>
Z56757306

> <PlateID>
1337959-R-03

> <Well>
G08

> <MW (desalted)>
179.259

> <CLogP>
1.545

> <HBD>
1

> <TPSA>
43.090

> <RotBonds>
1

> <ROCS_ShapeQuery>
A71EV2A-x0451_0A_A71EV2A-x0310_0A_A71EV2A-x0416_0A_peptide

> <ROCS_TanimotoCombo>
0.448 

> <ROCS_ShapeTanimoto>
0.240 

> <ROCS_ColorTanimoto>
0.208 

> <ROCS_RefTversky>
0.219 

> <ROCS_RefColorTversky>
0.226 

> <ROCS_RefTverskyCombo>
0.446 

> <ROCS_FitTversky>
1.650 

> <ROCS_FitColorTversky>
0.718 

> <ROCS_FitTverskyCombo>
2.367 

> <ROCS_ColorScore>
-6.917

> <ROCS_Overlap>
1519.295

> <ROCS_Rank>
78                  

$$$$
untitled-dbase-794_156
  -OEChem-11112309163D

 41 43  0     1  0  0  0  0  0999 V2000
   11.9578   15.5236   19.3543 C   0  0  0  0  0  0  0  0  0  0  0  0
   11.2670   14.3143   19.2778 C   0  0  0  0  0  0  0  0  0  0  0  0
   12.6591   15.8540   20.5140 C   0  0  0  0  0  0  0  0  0  0  0  0
   11.2773   13.4354   20.3608 C   0  0  0  0  0  0  0  0  0  0  0  0
   12.6694   14.9751   21.5971 C   0  0  0  0  0  0  0  0  0  0  0  0
   11.9786   13.7658   21.5205 C   0  0  0  0  0  0  0  0  0  0  0  0
   10.8357   13.1167   23.6176 C   0  0  0  0  0  0  0  0  0  0  0  0
    6.3513   11.2122   25.8315 C   0  0  0  0  0  0  0  0  0  0  0  0
    7.8171   10.7460   25.9349 C   0  0  0  0  0  0  0  0  0  0  0  0
    6.4029   10.8456   24.3353 C   0  0  0  0  0  0  0  0  0  0  0  0
    8.7988   10.0213   23.6315 C   0  0  0  0  0  0  0  0  0  0  0  0
   10.1699   10.6711   23.6758 C   0  0  0  0  0  0  0  0  0  0  0  0
    8.5024   12.3970   24.0452 C   0  0  0  0  0  0  0  0  0  0  0  0
    7.9456   11.0200   24.4034 C   0  0  0  0  0  0  0  0  0  0  0  0
   13.2945   12.8305   23.5042 C   0  0  0  0  0  0  0  0  0  0  0  0
   11.9900   12.8127   22.6962 C   0  0  2  0  0  0  0  0  0  0  0  0
    9.9021   12.1034   23.7642 N   0  0  0  0  0  0  0  0  0  0  0  0
   13.4491   11.6091   24.2891 N   0  0  0  0  0  0  0  0  0  0  0  0
   10.7601   14.2101   24.1809 O   0  0  0  0  0  0  0  0  0  0  0  0
   11.9508   16.2072   18.5104 H   0  0  0  0  0  0  0  0  0  0  0  0
   10.7218   14.0564   18.3745 H   0  0  0  0  0  0  0  0  0  0  0  0
   13.1980   16.7950   20.5735 H   0  0  0  0  0  0  0  0  0  0  0  0
   10.7360   12.4954   20.2923 H   0  0  0  0  0  0  0  0  0  0  0  0
   13.2184   15.2410   22.4965 H   0  0  0  0  0  0  0  0  0  0  0  0
    5.6313   10.6519   26.4332 H   0  0  0  0  0  0  0  0  0  0  0  0
    6.2142   12.2830   26.0204 H   0  0  0  0  0  0  0  0  0  0  0  0
    8.4563   11.3434   26.5873 H   0  0  0  0  0  0  0  0  0  0  0  0
    7.9202    9.6904   26.2064 H   0  0  0  0  0  0  0  0  0  0  0  0
    6.0666    9.8193   24.1336 H   0  0  0  0  0  0  0  0  0  0  0  0
    5.8582   11.5217   23.6669 H   0  0  0  0  0  0  0  0  0  0  0  0
    8.4524    9.8476   22.6082 H   0  0  0  0  0  0  0  0  0  0  0  0
    8.8245    9.0581   24.1557 H   0  0  0  0  0  0  0  0  0  0  0  0
   10.7825   10.3319   24.5155 H   0  0  0  0  0  0  0  0  0  0  0  0
   10.7229   10.5013   22.7457 H   0  0  0  0  0  0  0  0  0  0  0  0
    8.0182   12.8642   23.1820 H   0  0  0  0  0  0  0  0  0  0  0  0
    8.4705   13.0835   24.8987 H   0  0  0  0  0  0  0  0  0  0  0  0
   13.2980   13.6901   24.1857 H   0  0  0  0  0  0  0  0  0  0  0  0
   14.1672   12.9472   22.8514 H   0  0  0  0  0  0  0  0  0  0  0  0
   11.8094   11.7912   22.3395 H   0  0  0  0  0  0  0  0  0  0  0  0
   14.3114   11.6606   24.7780 H   0  0  0  0  0  0  0  0  0  0  0  0
   12.6888   11.5502   24.9245 H   0  0  0  0  0  0  0  0  0  0  0  0
  1  2  2  0  0  0  0
  1  3  1  0  0  0  0
  2  4  1  0  0  0  0
  3  5  2  0  0  0  0
  4  6  2  0  0  0  0
  5  6  1  0  0  0  0
  6 16  1  0  0  0  0
  7 16  1  0  0  0  0
  7 17  1  0  0  0  0
  7 19  2  0  0  0  0
  8  9  1  0  0  0  0
  8 10  1  0  0  0  0
  9 14  1  0  0  0  0
 10 14  1  0  0  0  0
 11 12  1  0  0  0  0
 11 14  1  0  0  0  0
 12 17  1  0  0  0  0
 13 14  1  0  0  0  0
 13 17  1  0  0  0  0
 15 16  1  0  0  0  0
 15 18  1  0  0  0  0
  1 20  1  0  0  0  0
  2 21  1  0  0  0  0
  3 22  1  0  0  0  0
  4 23  1  0  0  0  0
  5 24  1  0  0  0  0
  8 25  1  0  0  0  0
  8 26  1  0  0  0  0
  9 27  1  0  0  0  0
  9 28  1  0  0  0  0
 10 29  1  0  0  0  0
 10 30  1  0  0  0  0
 11 31  1  0  0  0  0
 11 32  1  0  0  0  0
 12 33  1  0  0  0  0
 12 34  1  0  0  0  0
 13 35  1  0  0  0  0
 13 36  1  0  0  0  0
 15 37  1  0  0  0  0
 15 38  1  0  0  0  0
 16 39  1  0  0  0  0
 18 40  1  0  0  0  0
 18 41  1  0  0  0  0
M  END
> <Catalog ID>
Z1459086096

> <PlateID>
1337959-R-10

> <Well>
H07

> <MW (desalted)>
258.359

> <CLogP>
2.139

> <HBD>
1

> <TPSA>
46.330

> <RotBonds>
3

> <ROCS_ShapeQuery>
A71EV2A-x0451_0A_A71EV2A-x0310_0A_A71EV2A-x0416_0A_peptide

> <ROCS_TanimotoCombo>
0.448 

> <ROCS_ShapeTanimoto>
0.299 

> <ROCS_ColorTanimoto>
0.149 

> <ROCS_RefTversky>
0.269 

> <ROCS_RefColorTversky>
0.160 

> <ROCS_RefTverskyCombo>
0.429 

> <ROCS_FitTversky>
1.606 

> <ROCS_FitColorTversky>
0.669 

> <ROCS_FitTverskyCombo>
2.275 

> <ROCS_ColorScore>
-4.880

> <ROCS_Overlap>
1865.267

> <ROCS_Rank>
79                  

$$$$
untitled-dbase-539_24
  -OEChem-11112309163D

 35 36  0     1  0  0  0  0  0999 V2000
    8.5609   12.2207   24.6376 C   0  0  0  0  0  0  0  0  0  0  0  0
    7.5184   11.3291   24.8903 C   0  0  0  0  0  0  0  0  0  0  0  0
    8.6017    9.6706   23.5071 C   0  0  0  0  0  0  0  0  0  0  0  0
    9.6442   10.5622   23.2545 C   0  0  0  0  0  0  0  0  0  0  0  0
    9.6238   11.8372   23.8197 C   0  0  0  0  0  0  0  0  0  0  0  0
    7.5388   10.0540   24.3250 C   0  0  0  0  0  0  0  0  0  0  0  0
    9.9059   14.5301   19.8738 C   0  0  0  0  0  0  0  0  0  0  0  0
   10.2016   16.0036   19.6303 C   0  0  0  0  0  0  0  0  0  0  0  0
   10.3969   15.7159   21.9194 C   0  0  0  0  0  0  0  0  0  0  0  0
    9.9358   14.3645   21.3932 C   0  0  2  0  0  0  0  0  0  0  0  0
   10.7677   10.1202   22.3752 C   0  0  0  0  0  0  0  0  0  0  0  0
   12.0265   13.1908   21.0049 C   0  0  0  0  0  0  0  0  0  0  0  0
    9.9072   16.6485   20.9076 N   0  0  0  0  0  0  0  0  0  0  0  0
   10.7875   13.2904   21.8234 N   0  0  1  0  0  0  0  0  0  0  0  0
   10.6104   14.2048   24.2556 O   0  0  0  0  0  0  0  0  0  0  0  0
   12.1818   12.3094   23.7841 O   0  0  0  0  0  0  0  0  0  0  0  0
   10.9301   12.9950   23.5204 S   0  0  0  0  0  0  0  0  0  0  0  0
    6.2515    8.9544   24.6364 Cl  0  0  0  0  0  0  0  0  0  0  0  0
    8.5340   13.2113   25.0839 H   0  0  0  0  0  0  0  0  0  0  0  0
    6.6967   11.6412   25.5295 H   0  0  0  0  0  0  0  0  0  0  0  0
    8.6210    8.6771   23.0645 H   0  0  0  0  0  0  0  0  0  0  0  0
    8.9058   14.2786   19.5006 H   0  0  0  0  0  0  0  0  0  0  0  0
   10.6259   13.8914   19.3506 H   0  0  0  0  0  0  0  0  0  0  0  0
   11.2583   16.1414   19.3718 H   0  0  0  0  0  0  0  0  0  0  0  0
    9.5935   16.4163   18.8202 H   0  0  0  0  0  0  0  0  0  0  0  0
    9.9713   15.9351   22.9034 H   0  0  0  0  0  0  0  0  0  0  0  0
   11.4895   15.7769   21.9999 H   0  0  0  0  0  0  0  0  0  0  0  0
    8.8894   14.1639   21.7494 H   0  0  0  0  0  0  0  0  0  0  0  0
   10.5496   10.3637   21.3290 H   0  0  0  0  0  0  0  0  0  0  0  0
   11.7084   10.6078   22.6590 H   0  0  0  0  0  0  0  0  0  0  0  0
   10.9318    9.0384   22.4557 H   0  0  0  0  0  0  0  0  0  0  0  0
   12.6430   12.3570   21.3719 H   0  0  0  0  0  0  0  0  0  0  0  0
   11.7576   13.0127   19.9532 H   0  0  0  0  0  0  0  0  0  0  0  0
   12.5946   14.1294   21.0842 H   0  0  0  0  0  0  0  0  0  0  0  0
   10.3862   17.5444   20.9788 H   0  0  0  0  0  0  0  0  0  0  0  0
  1  2  1  0  0  0  0
  1  5  2  0  0  0  0
  2  6  2  0  0  0  0
  3  4  2  0  0  0  0
  3  6  1  0  0  0  0
  4  5  1  0  0  0  0
  4 11  1  0  0  0  0
  5 17  1  0  0  0  0
  6 18  1  0  0  0  0
  7  8  1  0  0  0  0
  7 10  1  0  0  0  0
  8 13  1  0  0  0  0
  9 10  1  0  0  0  0
  9 13  1  0  0  0  0
 10 14  1  0  0  0  0
 12 14  1  0  0  0  0
 14 17  1  0  0  0  0
 15 17  2  0  0  0  0
 16 17  2  0  0  0  0
  1 19  1  0  0  0  0
  2 20  1  0  0  0  0
  3 21  1  0  0  0  0
  7 22  1  0  0  0  0
  7 23  1  0  0  0  0
  8 24  1  0  0  0  0
  8 25  1  0  0  0  0
  9 26  1  0  0  0  0
  9 27  1  0  0  0  0
 10 28  1  0  0  0  0
 11 29  1  0  0  0  0
 11 30  1  0  0  0  0
 11 31  1  0  0  0  0
 12 32  1  0  0  0  0
 12 33  1  0  0  0  0
 12 34  1  0  0  0  0
 13 35  1  0  0  0  0
M  END
> <Catalog ID>
Z1123687533

> <PlateID>
1337959-R-07

> <Well>
F11

> <MW (desalted)>
288.794

> <CLogP>
2.490

> <HBD>
1

> <TPSA>
49.410

> <RotBonds>
2

> <ROCS_ShapeQuery>
A71EV2A-x0451_0A_A71EV2A-x0310_0A_A71EV2A-x0416_0A_peptide

> <ROCS_TanimotoCombo>
0.448 

> <ROCS_ShapeTanimoto>
0.282 

> <ROCS_ColorTanimoto>
0.166 

> <ROCS_RefTversky>
0.254 

> <ROCS_RefColorTversky>
0.176 

> <ROCS_RefTverskyCombo>
0.430 

> <ROCS_FitTversky>
1.625 

> <ROCS_FitColorTversky>
0.736 

> <ROCS_FitTverskyCombo>
2.361 

> <ROCS_ColorScore>
-5.362

> <ROCS_Overlap>
1762.854

> <ROCS_Rank>
80                  

$$$$
untitled-dbase-1013_7
  -OEChem-11112309163D

 37 38  0     1  0  0  0  0  0999 V2000
    7.4687   11.3399   24.3955 C   0  0  0  0  0  0  0  0  0  0  0  0
    7.9624   10.0659   24.1148 C   0  0  0  0  0  0  0  0  0  0  0  0
   10.0147   11.0418   23.2947 C   0  0  0  0  0  0  0  0  0  0  0  0
    9.5210   12.3159   23.5753 C   0  0  0  0  0  0  0  0  0  0  0  0
    8.2480   12.4649   24.1256 C   0  0  0  0  0  0  0  0  0  0  0  0
    9.2354    9.9168   23.5645 C   0  0  0  0  0  0  0  0  0  0  0  0
   10.3616   13.4829   23.2800 C   0  0  0  0  0  0  0  0  0  0  0  0
    9.7472   13.6275   19.7194 C   0  0  0  0  0  0  0  0  0  0  0  0
   10.5908   14.8407   19.3171 C   0  0  0  0  0  0  0  0  0  0  0  0
   10.4320   12.8222   20.8193 C   0  0  0  0  0  0  0  0  0  0  0  0
   11.6226   14.8279   21.6299 C   0  0  0  0  0  0  0  0  0  0  0  0
   10.9961   15.6898   20.5287 C   0  0  2  0  0  0  0  0  0  0  0  0
    7.6951   13.8177   24.4358 C   0  0  0  0  0  0  0  0  0  0  0  0
   10.3072   17.5601   21.8367 C   0  0  0  0  0  0  0  0  0  0  0  0
   10.7636   13.6876   21.9581 N   0  0  0  0  0  0  0  0  0  0  0  0
    9.8632   16.4292   21.0389 N   0  0  0  0  0  0  0  0  0  0  0  0
   10.6393   14.2077   24.2343 O   0  0  0  0  0  0  0  0  0  0  0  0
    9.7093    8.6934   23.2946 F   0  0  0  0  0  0  0  0  0  0  0  0
    6.4755   11.4459   24.8236 H   0  0  0  0  0  0  0  0  0  0  0  0
    7.3558    9.1900   24.3247 H   0  0  0  0  0  0  0  0  0  0  0  0
   11.0053   10.9111   22.8667 H   0  0  0  0  0  0  0  0  0  0  0  0
    8.7573   13.9537   20.0605 H   0  0  0  0  0  0  0  0  0  0  0  0
    9.5865   12.9896   18.8429 H   0  0  0  0  0  0  0  0  0  0  0  0
   11.5006   14.4867   18.8149 H   0  0  0  0  0  0  0  0  0  0  0  0
   10.0458   15.4446   18.5814 H   0  0  0  0  0  0  0  0  0  0  0  0
    9.7892   11.9903   21.1176 H   0  0  0  0  0  0  0  0  0  0  0  0
   11.3714   12.3919   20.4523 H   0  0  0  0  0  0  0  0  0  0  0  0
   12.5814   14.4197   21.2872 H   0  0  0  0  0  0  0  0  0  0  0  0
   11.8319   15.4261   22.5239 H   0  0  0  0  0  0  0  0  0  0  0  0
   11.7550   16.4223   20.1914 H   0  0  0  0  0  0  0  0  0  0  0  0
    7.9571   14.1091   25.4594 H   0  0  0  0  0  0  0  0  0  0  0  0
    8.0879   14.5738   23.7452 H   0  0  0  0  0  0  0  0  0  0  0  0
    6.6027   13.8311   24.3367 H   0  0  0  0  0  0  0  0  0  0  0  0
   10.9174   18.2313   21.2146 H   0  0  0  0  0  0  0  0  0  0  0  0
    9.4317   18.1072   22.2163 H   0  0  0  0  0  0  0  0  0  0  0  0
   10.9085   17.1976   22.6835 H   0  0  0  0  0  0  0  0  0  0  0  0
    9.2988   15.8074   21.6122 H   0  0  0  0  0  0  0  0  0  0  0  0
  1  2  1  0  0  0  0
  1  5  2  0  0  0  0
  2  6  2  0  0  0  0
  3  4  2  0  0  0  0
  3  6  1  0  0  0  0
  4  5  1  0  0  0  0
  4  7  1  0  0  0  0
  5 13  1  0  0  0  0
  6 18  1  0  0  0  0
  7 15  1  0  0  0  0
  7 17  2  0  0  0  0
  8  9  1  0  0  0  0
  8 10  1  0  0  0  0
  9 12  1  0  0  0  0
 10 15  1  0  0  0  0
 11 12  1  0  0  0  0
 11 15  1  0  0  0  0
 12 16  1  0  0  0  0
 14 16  1  0  0  0  0
  1 19  1  0  0  0  0
  2 20  1  0  0  0  0
  3 21  1  0  0  0  0
  8 22  1  0  0  0  0
  8 23  1  0  0  0  0
  9 24  1  0  0  0  0
  9 25  1  0  0  0  0
 10 26  1  0  0  0  0
 10 27  1  0  0  0  0
 11 28  1  0  0  0  0
 11 29  1  0  0  0  0
 12 30  1  0  0  0  0
 13 31  1  0  0  0  0
 13 32  1  0  0  0  0
 13 33  1  0  0  0  0
 14 34  1  0  0  0  0
 14 35  1  0  0  0  0
 14 36  1  0  0  0  0
 16 37  1  0  0  0  0
M  END
> <Catalog ID>
Z1456660101

> <PlateID>
1337959-R-13

> <Well>
F08

> <MW (desalted)>
250.312

> <CLogP>
1.820

> <HBD>
1

> <TPSA>
32.340

> <RotBonds>
2

> <ROCS_ShapeQuery>
A71EV2A-x0451_0A_A71EV2A-x0310_0A_A71EV2A-x0416_0A_peptide

> <ROCS_TanimotoCombo>
0.447 

> <ROCS_ShapeTanimoto>
0.282 

> <ROCS_ColorTanimoto>
0.166 

> <ROCS_RefTversky>
0.255 

> <ROCS_RefColorTversky>
0.172 

> <ROCS_RefTverskyCombo>
0.427 

> <ROCS_FitTversky>
1.588 

> <ROCS_FitColorTversky>
0.824 

> <ROCS_FitTverskyCombo>
2.412 

> <ROCS_ColorScore>
-5.221

> <ROCS_Overlap>
1768.351

> <ROCS_Rank>
81                  

$$$$
untitled-dbase-988_68
  -OEChem-11112309163D

 33 35  0     0  0  0  0  0  0999 V2000
   11.1686   15.4430   24.1632 C   0  0  0  0  0  0  0  0  0  0  0  0
   11.7153   15.7165   22.9340 C   0  0  0  0  0  0  0  0  0  0  0  0
   10.9918   13.7042   22.9934 C   0  0  0  0  0  0  0  0  0  0  0  0
    8.7553   12.1518   23.9466 C   0  0  0  0  0  0  0  0  0  0  0  0
    9.8428   10.1861   23.3209 C   0  0  0  0  0  0  0  0  0  0  0  0
    6.3389   11.4269   25.8746 C   0  0  0  0  0  0  0  0  0  0  0  0
    7.7872   10.9864   26.1661 C   0  0  0  0  0  0  0  0  0  0  0  0
    6.4885   10.8077   24.4708 C   0  0  0  0  0  0  0  0  0  0  0  0
    8.0167   10.9489   24.6398 C   0  0  0  0  0  0  0  0  0  0  0  0
   11.0472   16.3199   25.3364 C   0  0  0  0  0  0  0  0  0  0  0  0
   12.3499   16.8869   22.3186 C   0  0  0  0  0  0  0  0  0  0  0  0
   10.7294   12.3434   22.4159 C   0  0  0  0  0  0  0  0  0  0  0  0
   10.7064   14.1521   24.1951 N   0  0  0  0  0  0  0  0  0  0  0  0
    8.7933    9.7901   24.1663 N   0  0  0  0  0  0  0  0  0  0  0  0
    9.7908   11.5848   23.2195 N   0  0  0  0  0  0  0  0  0  0  0  0
    8.4837   13.3453   24.0203 O   0  0  0  0  0  0  0  0  0  0  0  0
   10.6431    9.4332   22.7799 O   0  0  0  0  0  0  0  0  0  0  0  0
   11.6057   14.5956   22.1678 O   0  0  0  0  0  0  0  0  0  0  0  0
    5.5702   10.9802   26.5103 H   0  0  0  0  0  0  0  0  0  0  0  0
    6.2041   12.5144   25.8630 H   0  0  0  0  0  0  0  0  0  0  0  0
    8.3860   11.7118   26.7242 H   0  0  0  0  0  0  0  0  0  0  0  0
    7.8600   10.0120   26.6632 H   0  0  0  0  0  0  0  0  0  0  0  0
    6.1297    9.7736   24.4060 H   0  0  0  0  0  0  0  0  0  0  0  0
    6.0385   11.3875   23.6602 H   0  0  0  0  0  0  0  0  0  0  0  0
   10.0971   16.8832   25.3227 H   0  0  0  0  0  0  0  0  0  0  0  0
   11.0828   15.7567   26.2874 H   0  0  0  0  0  0  0  0  0  0  0  0
   11.8679   17.0587   25.3954 H   0  0  0  0  0  0  0  0  0  0  0  0
   13.4430   16.8911   22.4847 H   0  0  0  0  0  0  0  0  0  0  0  0
   12.1849   16.9316   21.2249 H   0  0  0  0  0  0  0  0  0  0  0  0
   11.9547   17.8410   22.7173 H   0  0  0  0  0  0  0  0  0  0  0  0
   10.3174   12.4262   21.4043 H   0  0  0  0  0  0  0  0  0  0  0  0
   11.6546   11.7621   22.3437 H   0  0  0  0  0  0  0  0  0  0  0  0
    8.6178    8.8187   24.3991 H   0  0  0  0  0  0  0  0  0  0  0  0
  1  2  2  0  0  0  0
  1 10  1  0  0  0  0
  1 13  1  0  0  0  0
  2 11  1  0  0  0  0
  2 18  1  0  0  0  0
  3 12  1  0  0  0  0
  3 13  2  0  0  0  0
  3 18  1  0  0  0  0
  4  9  1  0  0  0  0
  4 15  1  0  0  0  0
  4 16  2  0  0  0  0
  5 14  1  0  0  0  0
  5 15  1  0  0  0  0
  5 17  2  0  0  0  0
  6  7  1  0  0  0  0
  6  8  1  0  0  0  0
  7  9  1  0  0  0  0
  8  9  1  0  0  0  0
  9 14  1  0  0  0  0
 12 15  1  0  0  0  0
  6 19  1  0  0  0  0
  6 20  1  0  0  0  0
  7 21  1  0  0  0  0
  7 22  1  0  0  0  0
  8 23  1  0  0  0  0
  8 24  1  0  0  0  0
 10 25  1  0  0  0  0
 10 26  1  0  0  0  0
 10 27  1  0  0  0  0
 11 28  1  0  0  0  0
 11 29  1  0  0  0  0
 11 30  1  0  0  0  0
 12 31  1  0  0  0  0
 12 32  1  0  0  0  0
 14 33  1  0  0  0  0
M  END
> <Catalog ID>
Z995472128

> <PlateID>
1337959-R-13

> <Well>
D03

> <MW (desalted)>
249.266

> <CLogP>
-0.257

> <HBD>
1

> <TPSA>
75.440

> <RotBonds>
2

> <ROCS_ShapeQuery>
A71EV2A-x0451_0A_A71EV2A-x0310_0A_A71EV2A-x0416_0A_peptide

> <ROCS_TanimotoCombo>
0.447 

> <ROCS_ShapeTanimoto>
0.313 

> <ROCS_ColorTanimoto>
0.134 

> <ROCS_RefTversky>
0.278 

> <ROCS_RefColorTversky>
0.150 

> <ROCS_RefTverskyCombo>
0.428 

> <ROCS_FitTversky>
1.679 

> <ROCS_FitColorTversky>
0.556 

> <ROCS_FitTverskyCombo>
2.235 

> <ROCS_ColorScore>
-4.584

> <ROCS_Overlap>
1927.794

> <ROCS_Rank>
82                  

$$$$
untitled-dbase-597_10
  -OEChem-11112309163D

 30 32  0     1  0  0  0  0  0999 V2000
   11.8122   15.3627   19.2360 C   0  0  0  0  0  0  0  0  0  0  0  0
   10.8110   14.4453   19.5545 C   0  0  0  0  0  0  0  0  0  0  0  0
   12.7515   15.7322   20.1988 C   0  0  0  0  0  0  0  0  0  0  0  0
   10.7489   13.8974   20.8358 C   0  0  0  0  0  0  0  0  0  0  0  0
   12.6894   15.1844   21.4801 C   0  0  0  0  0  0  0  0  0  0  0  0
    8.5881   12.5630   23.9230 C   0  0  0  0  0  0  0  0  0  0  0  0
    7.4674   11.9545   24.4697 C   0  0  0  0  0  0  0  0  0  0  0  0
    8.4439    9.8569   24.4795 C   0  0  0  0  0  0  0  0  0  0  0  0
    9.6016   10.3741   23.9477 C   0  0  0  0  0  0  0  0  0  0  0  0
    9.6706   11.7374   23.6934 C   0  0  0  0  0  0  0  0  0  0  0  0
   11.6882   14.2670   21.7986 C   0  0  0  0  0  0  0  0  0  0  0  0
   10.8426    9.6713   23.5163 C   0  0  0  0  0  0  0  0  0  0  0  0
   11.8007   10.8450   23.2394 C   0  0  0  0  0  0  0  0  0  0  0  0
    7.3684   10.6286   24.7596 N   0  0  0  0  0  0  0  0  0  0  0  0
   10.9261   12.0583   23.0815 N   0  0  2  0  0  0  0  0  0  0  0  0
   12.9712   13.4026   23.8914 O   0  0  0  0  0  0  0  0  0  0  0  0
   10.6636   14.3684   24.1912 O   0  0  0  0  0  0  0  0  0  0  0  0
   11.6072   13.5748   23.4235 S   0  0  0  0  0  0  0  0  0  0  0  0
   11.8607   15.7902   18.2387 H   0  0  0  0  0  0  0  0  0  0  0  0
   10.0788   14.1581   18.8056 H   0  0  0  0  0  0  0  0  0  0  0  0
   13.5304   16.4471   19.9507 H   0  0  0  0  0  0  0  0  0  0  0  0
    9.9642   13.1842   21.0736 H   0  0  0  0  0  0  0  0  0  0  0  0
   13.4255   15.4803   22.2226 H   0  0  0  0  0  0  0  0  0  0  0  0
    8.5957   13.6209   23.6961 H   0  0  0  0  0  0  0  0  0  0  0  0
    6.5777   12.5356   24.6922 H   0  0  0  0  0  0  0  0  0  0  0  0
    8.3313    8.8002   24.6912 H   0  0  0  0  0  0  0  0  0  0  0  0
   11.2405    9.0057   24.2874 H   0  0  0  0  0  0  0  0  0  0  0  0
   10.6524    9.1025   22.6001 H   0  0  0  0  0  0  0  0  0  0  0  0
   12.4759   10.9846   24.0926 H   0  0  0  0  0  0  0  0  0  0  0  0
   12.3958   10.6760   22.3373 H   0  0  0  0  0  0  0  0  0  0  0  0
  1  2  2  0  0  0  0
  1  3  1  0  0  0  0
  2  4  1  0  0  0  0
  3  5  2  0  0  0  0
  4 11  2  0  0  0  0
  5 11  1  0  0  0  0
  6  7  1  0  0  0  0
  6 10  2  0  0  0  0
  7 14  2  0  0  0  0
  8  9  2  0  0  0  0
  8 14  1  0  0  0  0
  9 10  1  0  0  0  0
  9 12  1  0  0  0  0
 10 15  1  0  0  0  0
 11 18  1  0  0  0  0
 12 13  1  0  0  0  0
 13 15  1  0  0  0  0
 15 18  1  0  0  0  0
 16 18  2  0  0  0  0
 17 18  2  0  0  0  0
  1 19  1  0  0  0  0
  2 20  1  0  0  0  0
  3 21  1  0  0  0  0
  4 22  1  0  0  0  0
  5 23  1  0  0  0  0
  6 24  1  0  0  0  0
  7 25  1  0  0  0  0
  8 26  1  0  0  0  0
 12 27  1  0  0  0  0
 12 28  1  0  0  0  0
 13 29  1  0  0  0  0
 13 30  1  0  0  0  0
M  END
> <Catalog ID>
Z1343519270

> <PlateID>
1337959-R-08

> <Well>
D09

> <MW (desalted)>
260.312

> <CLogP>
2.103

> <HBD>
0

> <TPSA>
50.270

> <RotBonds>
1

> <ROCS_ShapeQuery>
A71EV2A-x0451_0A_A71EV2A-x0310_0A_A71EV2A-x0416_0A_peptide

> <ROCS_TanimotoCombo>
0.447 

> <ROCS_ShapeTanimoto>
0.305 

> <ROCS_ColorTanimoto>
0.143 

> <ROCS_RefTversky>
0.272 

> <ROCS_RefColorTversky>
0.159 

> <ROCS_RefTverskyCombo>
0.430 

> <ROCS_FitTversky>
1.667 

> <ROCS_FitColorTversky>
0.586 

> <ROCS_FitTverskyCombo>
2.253 

> <ROCS_ColorScore>
-4.835

> <ROCS_Overlap>
1883.373

> <ROCS_Rank>
83                  

$$$$
untitled-dbase-586_343
  -OEChem-11112309163D

 35 36  0     1  0  0  0  0  0999 V2000
    7.5774   10.0094   24.4445 C   0  0  0  0  0  0  0  0  0  0  0  0
    8.3215   12.2932   24.1849 C   0  0  0  0  0  0  0  0  0  0  0  0
    9.8623   10.4706   23.8094 C   0  0  0  0  0  0  0  0  0  0  0  0
    7.3118   11.3781   24.4832 C   0  0  0  0  0  0  0  0  0  0  0  0
    8.8527    9.5556   24.1077 C   0  0  0  0  0  0  0  0  0  0  0  0
    9.5968   11.8394   23.8480 C   0  0  0  0  0  0  0  0  0  0  0  0
   11.6855   13.8029   19.7406 C   0  0  0  0  0  0  0  0  0  0  0  0
   10.2241   14.2157   19.7371 C   0  0  0  0  0  0  0  0  0  0  0  0
   11.7760   12.8046   20.8875 C   0  0  0  0  0  0  0  0  0  0  0  0
    9.8705   14.2837   21.2243 C   0  0  2  0  0  0  0  0  0  0  0  0
    5.9486   11.8636   24.8438 C   0  0  0  0  0  0  0  0  0  0  0  0
   10.2378   15.6279   21.8441 C   0  0  0  0  0  0  0  0  0  0  0  0
   10.6614   13.1610   21.8057 N   0  0  2  0  0  0  0  0  0  0  0  0
    9.9387   16.6866   20.9347 N   0  0  0  0  0  0  0  0  0  0  0  0
   10.5417   14.2482   24.1275 O   0  0  0  0  0  0  0  0  0  0  0  0
   12.1485   12.3485   23.7311 O   0  0  0  0  0  0  0  0  0  0  0  0
    9.1075    8.2411   24.0713 F   0  0  0  0  0  0  0  0  0  0  0  0
   10.8774   12.9980   23.4729 S   0  0  0  0  0  0  0  0  0  0  0  0
    6.7978    9.2885   24.6758 H   0  0  0  0  0  0  0  0  0  0  0  0
    8.1120   13.3596   24.2159 H   0  0  0  0  0  0  0  0  0  0  0  0
   10.8522   10.1061   23.5483 H   0  0  0  0  0  0  0  0  0  0  0  0
   11.9386   13.3107   18.7915 H   0  0  0  0  0  0  0  0  0  0  0  0
   12.3669   14.6510   19.8717 H   0  0  0  0  0  0  0  0  0  0  0  0
   10.1149   15.1992   19.2550 H   0  0  0  0  0  0  0  0  0  0  0  0
    9.5895   13.5045   19.1923 H   0  0  0  0  0  0  0  0  0  0  0  0
   11.7049   11.7757   20.5200 H   0  0  0  0  0  0  0  0  0  0  0  0
   12.7207   12.9158   21.4320 H   0  0  0  0  0  0  0  0  0  0  0  0
    8.7975   14.0813   21.3489 H   0  0  0  0  0  0  0  0  0  0  0  0
    5.8704   12.0125   25.9277 H   0  0  0  0  0  0  0  0  0  0  0  0
    5.7190   12.8139   24.3446 H   0  0  0  0  0  0  0  0  0  0  0  0
    5.1759   11.1476   24.5343 H   0  0  0  0  0  0  0  0  0  0  0  0
    9.6554   15.7413   22.7602 H   0  0  0  0  0  0  0  0  0  0  0  0
   11.3066   15.6107   22.0651 H   0  0  0  0  0  0  0  0  0  0  0  0
    8.9629   16.6741   20.7017 H   0  0  0  0  0  0  0  0  0  0  0  0
   10.1623   17.5710   21.3524 H   0  0  0  0  0  0  0  0  0  0  0  0
  1  4  2  0  0  0  0
  1  5  1  0  0  0  0
  2  4  1  0  0  0  0
  2  6  2  0  0  0  0
  3  5  2  0  0  0  0
  3  6  1  0  0  0  0
  4 11  1  0  0  0  0
  5 17  1  0  0  0  0
  6 18  1  0  0  0  0
  7  8  1  0  0  0  0
  7  9  1  0  0  0  0
  8 10  1  0  0  0  0
  9 13  1  0  0  0  0
 10 12  1  0  0  0  0
 10 13  1  0  0  0  0
 12 14  1  0  0  0  0
 13 18  1  0  0  0  0
 15 18  2  0  0  0  0
 16 18  2  0  0  0  0
  1 19  1  0  0  0  0
  2 20  1  0  0  0  0
  3 21  1  0  0  0  0
  7 22  1  0  0  0  0
  7 23  1  0  0  0  0
  8 24  1  0  0  0  0
  8 25  1  0  0  0  0
  9 26  1  0  0  0  0
  9 27  1  0  0  0  0
 10 28  1  0  0  0  0
 11 29  1  0  0  0  0
 11 30  1  0  0  0  0
 11 31  1  0  0  0  0
 12 32  1  0  0  0  0
 12 33  1  0  0  0  0
 14 34  1  0  0  0  0
 14 35  1  0  0  0  0
M  END
> <Catalog ID>
Z1491335396

> <PlateID>
1337959-R-08

> <Well>
C08

> <MW (desalted)>
272.339

> <CLogP>
2.080

> <HBD>
1

> <TPSA>
63.400

> <RotBonds>
2

> <ROCS_ShapeQuery>
A71EV2A-x0451_0A_A71EV2A-x0310_0A_A71EV2A-x0416_0A_peptide

> <ROCS_TanimotoCombo>
0.447 

> <ROCS_ShapeTanimoto>
0.283 

> <ROCS_ColorTanimoto>
0.163 

> <ROCS_RefTversky>
0.256 

> <ROCS_RefColorTversky>
0.174 

> <ROCS_RefTverskyCombo>
0.430 

> <ROCS_FitTversky>
1.621 

> <ROCS_FitColorTversky>
0.727 

> <ROCS_FitTverskyCombo>
2.348 

> <ROCS_ColorScore>
-5.298

> <ROCS_Overlap>
1773.202

> <ROCS_Rank>
84                  

$$$$
untitled-dbase-992_44
  -OEChem-11112309163D

 38 40  0     1  0  0  0  0  0999 V2000
   12.5238   15.7603   19.9281 C   0  0  0  0  0  0  0  0  0  0  0  0
   13.3109   14.9322   20.7283 C   0  0  0  0  0  0  0  0  0  0  0  0
   11.1548   15.8695   20.1720 C   0  0  0  0  0  0  0  0  0  0  0  0
   12.7290   14.2132   21.7724 C   0  0  0  0  0  0  0  0  0  0  0  0
   10.5728   15.1505   21.2161 C   0  0  0  0  0  0  0  0  0  0  0  0
   11.3600   14.3224   22.0163 C   0  0  0  0  0  0  0  0  0  0  0  0
   10.7403   13.5565   23.1283 C   0  0  0  0  0  0  0  0  0  0  0  0
    9.5393    7.7190   22.6150 C   0  0  0  0  0  0  0  0  0  0  0  0
    8.4350    7.3541   23.6127 C   0  0  0  0  0  0  0  0  0  0  0  0
   10.2059    9.0479   22.9824 C   0  0  0  0  0  0  0  0  0  0  0  0
    8.3477   12.0502   24.3528 C   0  0  0  0  0  0  0  0  0  0  0  0
    7.4511    8.5094   23.8389 C   0  0  0  0  0  0  0  0  0  0  0  0
    7.3675   10.8793   24.4896 C   0  0  0  0  0  0  0  0  0  0  0  0
    9.1394   10.1185   23.1823 C   0  0  2  0  0  0  0  0  0  0  0  0
    9.6253   11.4352   23.7710 C   0  0  1  0  0  0  0  0  0  0  0  0
    8.1918    9.7041   24.2234 N   0  0  2  0  0  0  0  0  0  0  0  0
   10.2697   12.2860   22.8118 N   0  0  0  0  0  0  0  0  0  0  0  0
   10.6557   14.0738   24.2390 O   0  0  0  0  0  0  0  0  0  0  0  0
   12.9769   16.3201   19.1152 H   0  0  0  0  0  0  0  0  0  0  0  0
   14.3769   14.8472   20.5381 H   0  0  0  0  0  0  0  0  0  0  0  0
   10.5419   16.5145   19.5492 H   0  0  0  0  0  0  0  0  0  0  0  0
   13.3517   13.5709   22.3898 H   0  0  0  0  0  0  0  0  0  0  0  0
    9.5050   15.2432   21.3969 H   0  0  0  0  0  0  0  0  0  0  0  0
   10.2894    6.9213   22.5790 H   0  0  0  0  0  0  0  0  0  0  0  0
    9.1051    7.7976   21.6106 H   0  0  0  0  0  0  0  0  0  0  0  0
    7.8921    6.4722   23.2540 H   0  0  0  0  0  0  0  0  0  0  0  0
    8.8954    7.0771   24.5699 H   0  0  0  0  0  0  0  0  0  0  0  0
   10.7969    8.9162   23.8978 H   0  0  0  0  0  0  0  0  0  0  0  0
   10.9026    9.3462   22.1910 H   0  0  0  0  0  0  0  0  0  0  0  0
    7.9221   12.8152   23.6927 H   0  0  0  0  0  0  0  0  0  0  0  0
    8.5554   12.5169   25.3220 H   0  0  0  0  0  0  0  0  0  0  0  0
    6.8624    8.6799   22.9285 H   0  0  0  0  0  0  0  0  0  0  0  0
    6.7525    8.2276   24.6351 H   0  0  0  0  0  0  0  0  0  0  0  0
    6.9226   10.8427   25.4888 H   0  0  0  0  0  0  0  0  0  0  0  0
    6.5610   10.9885   23.7538 H   0  0  0  0  0  0  0  0  0  0  0  0
    8.6113   10.2969   22.2331 H   0  0  0  0  0  0  0  0  0  0  0  0
   10.3482   11.2614   24.5786 H   0  0  0  0  0  0  0  0  0  0  0  0
   10.3227   11.9558   21.8487 H   0  0  0  0  0  0  0  0  0  0  0  0
  1  2  2  0  0  0  0
  1  3  1  0  0  0  0
  2  4  1  0  0  0  0
  3  5  2  0  0  0  0
  4  6  2  0  0  0  0
  5  6  1  0  0  0  0
  6  7  1  0  0  0  0
  7 17  1  0  0  0  0
  7 18  2  0  0  0  0
  8  9  1  0  0  0  0
  8 10  1  0  0  0  0
  9 12  1  0  0  0  0
 10 14  1  0  0  0  0
 11 13  1  0  0  0  0
 11 15  1  0  0  0  0
 12 16  1  0  0  0  0
 13 16  1  0  0  0  0
 14 15  1  0  0  0  0
 14 16  1  0  0  0  0
 15 17  1  0  0  0  0
  1 19  1  0  0  0  0
  2 20  1  0  0  0  0
  3 21  1  0  0  0  0
  4 22  1  0  0  0  0
  5 23  1  0  0  0  0
  8 24  1  0  0  0  0
  8 25  1  0  0  0  0
  9 26  1  0  0  0  0
  9 27  1  0  0  0  0
 10 28  1  0  0  0  0
 10 29  1  0  0  0  0
 11 30  1  0  0  0  0
 11 31  1  0  0  0  0
 12 32  1  0  0  0  0
 12 33  1  0  0  0  0
 13 34  1  0  0  0  0
 13 35  1  0  0  0  0
 14 36  1  0  0  0  0
 15 37  1  0  0  0  0
 17 38  1  0  0  0  0
M  END
> <Catalog ID>
Z423020538

> <PlateID>
1337959-R-13

> <Well>
D07

> <MW (desalted)>
244.332

> <CLogP>
2.064

> <HBD>
1

> <TPSA>
32.340

> <RotBonds>
2

> <ROCS_ShapeQuery>
A71EV2A-x0451_0A_A71EV2A-x0310_0A_A71EV2A-x0416_0A_peptide

> <ROCS_TanimotoCombo>
0.447 

> <ROCS_ShapeTanimoto>
0.312 

> <ROCS_ColorTanimoto>
0.135 

> <ROCS_RefTversky>
0.276 

> <ROCS_RefColorTversky>
0.147 

> <ROCS_RefTverskyCombo>
0.423 

> <ROCS_FitTversky>
1.703 

> <ROCS_FitColorTversky>
0.613 

> <ROCS_FitTverskyCombo>
2.317 

> <ROCS_ColorScore>
-4.478

> <ROCS_Overlap>
1916.249

> <ROCS_Rank>
85                  

$$$$
untitled-dbase-329_53
  -OEChem-11112309163D

 35 36  0     0  0  0  0  0  0999 V2000
   10.1617   10.9479   22.9002 C   0  0  0  0  0  0  0  0  0  0  0  0
    8.6646   12.1645   24.3547 C   0  0  0  0  0  0  0  0  0  0  0  0
    8.2605    9.8292   23.8857 C   0  0  0  0  0  0  0  0  0  0  0  0
    9.7973   12.1319   23.5413 C   0  0  0  0  0  0  0  0  0  0  0  0
    9.3932    9.7965   23.0724 C   0  0  0  0  0  0  0  0  0  0  0  0
    7.8962   11.0132   24.5269 C   0  0  0  0  0  0  0  0  0  0  0  0
   10.6062   13.3429   23.3599 C   0  0  0  0  0  0  0  0  0  0  0  0
   10.8517   12.9757   20.8499 C   0  0  0  0  0  0  0  0  0  0  0  0
   12.5069   14.3118   22.1116 C   0  0  0  0  0  0  0  0  0  0  0  0
   10.4511   14.0976   19.8995 C   0  0  0  0  0  0  0  0  0  0  0  0
   12.3022   15.5903   21.3075 C   0  0  0  0  0  0  0  0  0  0  0  0
    8.9181    7.5021   22.6654 C   0  0  0  0  0  0  0  0  0  0  0  0
    6.4755   12.2884   25.9451 C   0  0  0  0  0  0  0  0  0  0  0  0
   11.2862   13.5058   22.1493 N   0  0  0  0  0  0  0  0  0  0  0  0
   10.6150   14.1342   24.3016 O   0  0  0  0  0  0  0  0  0  0  0  0
    9.7482    8.6414   22.4456 O   0  0  0  0  0  0  0  0  0  0  0  0
    6.7906   11.0451   25.3202 O   0  0  0  0  0  0  0  0  0  0  0  0
   11.8448   15.2271   19.5821 S   0  0  0  0  0  0  0  0  0  0  0  0
   11.0437   10.9176   22.2647 H   0  0  0  0  0  0  0  0  0  0  0  0
    8.3769   13.0855   24.8566 H   0  0  0  0  0  0  0  0  0  0  0  0
    7.6617    8.9320   24.0197 H   0  0  0  0  0  0  0  0  0  0  0  0
   10.0060   12.2934   20.9710 H   0  0  0  0  0  0  0  0  0  0  0  0
   11.6763   12.3814   20.4367 H   0  0  0  0  0  0  0  0  0  0  0  0
   13.3100   13.6969   21.6876 H   0  0  0  0  0  0  0  0  0  0  0  0
   12.8111   14.5766   23.1301 H   0  0  0  0  0  0  0  0  0  0  0  0
   10.1337   13.6754   18.9409 H   0  0  0  0  0  0  0  0  0  0  0  0
    9.6093   14.6713   20.3018 H   0  0  0  0  0  0  0  0  0  0  0  0
   11.5253   16.2170   21.7588 H   0  0  0  0  0  0  0  0  0  0  0  0
   13.2287   16.1731   21.2965 H   0  0  0  0  0  0  0  0  0  0  0  0
    9.3135    6.6493   22.1081 H   0  0  0  0  0  0  0  0  0  0  0  0
    7.8992    7.7240   22.3384 H   0  0  0  0  0  0  0  0  0  0  0  0
    8.9131    7.2665   23.7323 H   0  0  0  0  0  0  0  0  0  0  0  0
    5.5716   12.1750   26.5486 H   0  0  0  0  0  0  0  0  0  0  0  0
    6.3219   13.0533   25.1797 H   0  0  0  0  0  0  0  0  0  0  0  0
    7.3069   12.5829   26.5899 H   0  0  0  0  0  0  0  0  0  0  0  0
  1  4  1  0  0  0  0
  1  5  2  0  0  0  0
  2  4  2  0  0  0  0
  2  6  1  0  0  0  0
  3  5  1  0  0  0  0
  3  6  2  0  0  0  0
  4  7  1  0  0  0  0
  5 16  1  0  0  0  0
  6 17  1  0  0  0  0
  7 14  1  0  0  0  0
  7 15  2  0  0  0  0
  8 10  1  0  0  0  0
  8 14  1  0  0  0  0
  9 11  1  0  0  0  0
  9 14  1  0  0  0  0
 10 18  1  0  0  0  0
 11 18  1  0  0  0  0
 12 16  1  0  0  0  0
 13 17  1  0  0  0  0
  1 19  1  0  0  0  0
  2 20  1  0  0  0  0
  3 21  1  0  0  0  0
  8 22  1  0  0  0  0
  8 23  1  0  0  0  0
  9 24  1  0  0  0  0
  9 25  1  0  0  0  0
 10 26  1  0  0  0  0
 10 27  1  0  0  0  0
 11 28  1  0  0  0  0
 11 29  1  0  0  0  0
 12 30  1  0  0  0  0
 12 31  1  0  0  0  0
 12 32  1  0  0  0  0
 13 33  1  0  0  0  0
 13 34  1  0  0  0  0
 13 35  1  0  0  0  0
M  END
> <Catalog ID>
Z437581300

> <PlateID>
1337959-R-05

> <Well>
A11

> <MW (desalted)>
267.344

> <CLogP>
1.755

> <HBD>
0

> <TPSA>
38.770

> <RotBonds>
3

> <ROCS_ShapeQuery>
A71EV2A-x0451_0A_A71EV2A-x0310_0A_A71EV2A-x0416_0A_peptide

> <ROCS_TanimotoCombo>
0.447 

> <ROCS_ShapeTanimoto>
0.323 

> <ROCS_ColorTanimoto>
0.123 

> <ROCS_RefTversky>
0.283 

> <ROCS_RefColorTversky>
0.133 

> <ROCS_RefTverskyCombo>
0.416 

> <ROCS_FitTversky>
1.783 

> <ROCS_FitColorTversky>
0.636 

> <ROCS_FitTverskyCombo>
2.419 

> <ROCS_ColorScore>
-4.029

> <ROCS_Overlap>
1963.009

> <ROCS_Rank>
86                  

$$$$
untitled-dbase-560_734
  -OEChem-11112309163D

 34 35  0     0  0  0  0  0  0999 V2000
    7.2217    9.9396   24.2552 C   0  0  0  0  0  0  0  0  0  0  0  0
    9.0803   11.0456   24.0777 C   0  0  0  0  0  0  0  0  0  0  0  0
   10.5651   13.8223   23.0413 C   0  0  0  0  0  0  0  0  0  0  0  0
    9.7979   14.4154   20.7609 C   0  0  0  0  0  0  0  0  0  0  0  0
   11.2962   16.0007   21.9046 C   0  0  0  0  0  0  0  0  0  0  0  0
   10.7562   14.1057   19.6150 C   0  0  0  0  0  0  0  0  0  0  0  0
   12.4516   15.8722   20.9206 C   0  0  0  0  0  0  0  0  0  0  0  0
    9.3816    7.6556   23.4768 C   0  0  0  0  0  0  0  0  0  0  0  0
   10.4695   11.4162   23.6452 C   0  0  0  0  0  0  0  0  0  0  0  0
    8.9376    8.9122   22.7479 C   0  0  0  0  0  0  0  0  0  0  0  0
    7.1165   11.0116   25.0077 N   0  0  0  0  0  0  0  0  0  0  0  0
    8.2990   11.7152   24.8947 N   0  0  0  0  0  0  0  0  0  0  0  0
    8.4421    9.9206   23.6510 N   0  0  0  0  0  0  0  0  0  0  0  0
   10.5365   14.7457   21.9816 N   0  0  0  0  0  0  0  0  0  0  0  0
   10.4661   12.4857   22.6723 N   0  0  0  0  0  0  0  0  0  0  0  0
   10.6613   14.1639   24.2247 O   0  0  0  0  0  0  0  0  0  0  0  0
   11.8410   15.5228   19.2367 S   0  0  0  0  0  0  0  0  0  0  0  0
    6.4724    9.1733   24.1167 H   0  0  0  0  0  0  0  0  0  0  0  0
    9.1399   15.2580   20.5163 H   0  0  0  0  0  0  0  0  0  0  0  0
    9.1534   13.5464   20.9291 H   0  0  0  0  0  0  0  0  0  0  0  0
   11.6701   16.3040   22.8844 H   0  0  0  0  0  0  0  0  0  0  0  0
   10.6031   16.7932   21.5942 H   0  0  0  0  0  0  0  0  0  0  0  0
   11.3786   13.2359   19.8509 H   0  0  0  0  0  0  0  0  0  0  0  0
   10.1870   13.8659   18.7113 H   0  0  0  0  0  0  0  0  0  0  0  0
   13.0159   16.8093   20.8859 H   0  0  0  0  0  0  0  0  0  0  0  0
   13.1441   15.0804   21.2249 H   0  0  0  0  0  0  0  0  0  0  0  0
   10.1769    7.8759   24.1968 H   0  0  0  0  0  0  0  0  0  0  0  0
    9.7617    6.9176   22.7637 H   0  0  0  0  0  0  0  0  0  0  0  0
    8.5499    7.2026   24.0266 H   0  0  0  0  0  0  0  0  0  0  0  0
   11.0668   11.7428   24.5035 H   0  0  0  0  0  0  0  0  0  0  0  0
   10.9838   10.5588   23.1985 H   0  0  0  0  0  0  0  0  0  0  0  0
    8.1421    8.6817   22.0301 H   0  0  0  0  0  0  0  0  0  0  0  0
    9.7703    9.3454   22.1824 H   0  0  0  0  0  0  0  0  0  0  0  0
   10.3891   12.2535   21.6904 H   0  0  0  0  0  0  0  0  0  0  0  0
  1 11  2  0  0  0  0
  1 13  1  0  0  0  0
  2  9  1  0  0  0  0
  2 12  2  0  0  0  0
  2 13  1  0  0  0  0
  3 14  1  0  0  0  0
  3 15  1  0  0  0  0
  3 16  2  0  0  0  0
  4  6  1  0  0  0  0
  4 14  1  0  0  0  0
  5  7  1  0  0  0  0
  5 14  1  0  0  0  0
  6 17  1  0  0  0  0
  7 17  1  0  0  0  0
  8 10  1  0  0  0  0
  9 15  1  0  0  0  0
 10 13  1  0  0  0  0
 11 12  1  0  0  0  0
  1 18  1  0  0  0  0
  4 19  1  0  0  0  0
  4 20  1  0  0  0  0
  5 21  1  0  0  0  0
  5 22  1  0  0  0  0
  6 23  1  0  0  0  0
  6 24  1  0  0  0  0
  7 25  1  0  0  0  0
  7 26  1  0  0  0  0
  8 27  1  0  0  0  0
  8 28  1  0  0  0  0
  8 29  1  0  0  0  0
  9 30  1  0  0  0  0
  9 31  1  0  0  0  0
 10 32  1  0  0  0  0
 10 33  1  0  0  0  0
 15 34  1  0  0  0  0
M  END
> <Catalog ID>
Z534201548

> <PlateID>
1337959-R-08

> <Well>
A02

> <MW (desalted)>
255.340

> <CLogP>
-0.584

> <HBD>
1

> <TPSA>
63.050

> <RotBonds>
3

> <ROCS_ShapeQuery>
A71EV2A-x0451_0A_A71EV2A-x0310_0A_A71EV2A-x0416_0A_peptide

> <ROCS_TanimotoCombo>
0.447 

> <ROCS_ShapeTanimoto>
0.294 

> <ROCS_ColorTanimoto>
0.153 

> <ROCS_RefTversky>
0.262 

> <ROCS_RefColorTversky>
0.166 

> <ROCS_RefTverskyCombo>
0.427 

> <ROCS_FitTversky>
1.713 

> <ROCS_FitColorTversky>
0.666 

> <ROCS_FitTverskyCombo>
2.380 

> <ROCS_ColorScore>
-5.043

> <ROCS_Overlap>
1813.252

> <ROCS_Rank>
87                  

$$$$
untitled-dbase-513_12
  -OEChem-11112309163D

 36 37  0     1  0  0  0  0  0999 V2000
    9.0652    9.8517   23.7005 C   0  0  0  0  0  0  0  0  0  0  0  0
    9.8772   10.9339   23.3799 C   0  0  0  0  0  0  0  0  0  0  0  0
    7.8479   10.1121   24.3090 C   0  0  0  0  0  0  0  0  0  0  0  0
    9.4531   12.2252   23.6733 C   0  0  0  0  0  0  0  0  0  0  0  0
    8.2184   12.3793   24.2828 C   0  0  0  0  0  0  0  0  0  0  0  0
   10.3092   13.3691   23.3355 C   0  0  0  0  0  0  0  0  0  0  0  0
    9.5239   13.5310   19.8094 C   0  0  0  0  0  0  0  0  0  0  0  0
   10.3790   14.7211   19.3646 C   0  0  0  0  0  0  0  0  0  0  0  0
   10.2402   12.7073   20.8751 C   0  0  0  0  0  0  0  0  0  0  0  0
   11.5229   14.6800   21.6236 C   0  0  0  0  0  0  0  0  0  0  0  0
   10.8663   15.5587   20.5537 C   0  0  2  0  0  0  0  0  0  0  0  0
    7.7092   13.7426   24.6219 C   0  0  0  0  0  0  0  0  0  0  0  0
   10.2934   17.4466   21.8920 C   0  0  0  0  0  0  0  0  0  0  0  0
    7.4020   11.3525   24.6095 N   0  0  0  0  0  0  0  0  0  0  0  0
   10.6508   13.5632   21.9952 N   0  0  0  0  0  0  0  0  0  0  0  0
    9.7802   16.3283   21.1184 N   0  0  0  0  0  0  0  0  0  0  0  0
   10.6531   14.0860   24.2742 O   0  0  0  0  0  0  0  0  0  0  0  0
    9.3758    8.8363   23.4816 H   0  0  0  0  0  0  0  0  0  0  0  0
   10.8378   10.7587   22.9023 H   0  0  0  0  0  0  0  0  0  0  0  0
    7.1781    9.3027   24.5802 H   0  0  0  0  0  0  0  0  0  0  0  0
    8.5611   13.8836   20.1986 H   0  0  0  0  0  0  0  0  0  0  0  0
    9.3030   12.8978   18.9426 H   0  0  0  0  0  0  0  0  0  0  0  0
   11.2529   14.3427   18.8185 H   0  0  0  0  0  0  0  0  0  0  0  0
    9.8148   15.3395   18.6560 H   0  0  0  0  0  0  0  0  0  0  0  0
    9.5908   11.8929   21.2057 H   0  0  0  0  0  0  0  0  0  0  0  0
   11.1485   12.2519   20.4626 H   0  0  0  0  0  0  0  0  0  0  0  0
   12.4524   14.2462   21.2345 H   0  0  0  0  0  0  0  0  0  0  0  0
   11.7921   15.2722   22.5056 H   0  0  0  0  0  0  0  0  0  0  0  0
   11.6271   16.2705   20.1786 H   0  0  0  0  0  0  0  0  0  0  0  0
    7.1320   14.1508   23.7846 H   0  0  0  0  0  0  0  0  0  0  0  0
    7.0664   13.7153   25.5101 H   0  0  0  0  0  0  0  0  0  0  0  0
    8.5350   14.4289   24.8457 H   0  0  0  0  0  0  0  0  0  0  0  0
   10.8901   18.1012   21.2397 H   0  0  0  0  0  0  0  0  0  0  0  0
    9.4527   18.0170   22.3137 H   0  0  0  0  0  0  0  0  0  0  0  0
   10.9258   17.0679   22.7085 H   0  0  0  0  0  0  0  0  0  0  0  0
    9.2283   15.7218   21.7195 H   0  0  0  0  0  0  0  0  0  0  0  0
  1  2  1  0  0  0  0
  1  3  2  0  0  0  0
  2  4  2  0  0  0  0
  3 14  1  0  0  0  0
  4  5  1  0  0  0  0
  4  6  1  0  0  0  0
  5 12  1  0  0  0  0
  5 14  2  0  0  0  0
  6 15  1  0  0  0  0
  6 17  2  0  0  0  0
  7  8  1  0  0  0  0
  7  9  1  0  0  0  0
  8 11  1  0  0  0  0
  9 15  1  0  0  0  0
 10 11  1  0  0  0  0
 10 15  1  0  0  0  0
 11 16  1  0  0  0  0
 13 16  1  0  0  0  0
  1 18  1  0  0  0  0
  2 19  1  0  0  0  0
  3 20  1  0  0  0  0
  7 21  1  0  0  0  0
  7 22  1  0  0  0  0
  8 23  1  0  0  0  0
  8 24  1  0  0  0  0
  9 25  1  0  0  0  0
  9 26  1  0  0  0  0
 10 27  1  0  0  0  0
 10 28  1  0  0  0  0
 11 29  1  0  0  0  0
 12 30  1  0  0  0  0
 12 31  1  0  0  0  0
 12 32  1  0  0  0  0
 13 33  1  0  0  0  0
 13 34  1  0  0  0  0
 13 35  1  0  0  0  0
 16 36  1  0  0  0  0
M  END
> <Catalog ID>
Z1375698090

> <PlateID>
1337959-R-07

> <Well>
D05

> <MW (desalted)>
233.309

> <CLogP>
0.500

> <HBD>
1

> <TPSA>
45.230

> <RotBonds>
2

> <ROCS_ShapeQuery>
A71EV2A-x0451_0A_A71EV2A-x0310_0A_A71EV2A-x0416_0A_peptide

> <ROCS_TanimotoCombo>
0.446 

> <ROCS_ShapeTanimoto>
0.264 

> <ROCS_ColorTanimoto>
0.183 

> <ROCS_RefTversky>
0.241 

> <ROCS_RefColorTversky>
0.191 

> <ROCS_RefTverskyCombo>
0.433 

> <ROCS_FitTversky>
1.557 

> <ROCS_FitColorTversky>
0.799 

> <ROCS_FitTverskyCombo>
2.356 

> <ROCS_ColorScore>
-5.824

> <ROCS_Overlap>
1671.304

> <ROCS_Rank>
88                  

$$$$
untitled-dbase-623_114
  -OEChem-11112309163D

 35 36  0     1  0  0  0  0  0999 V2000
    7.3688   11.2913   24.7389 C   0  0  0  0  0  0  0  0  0  0  0  0
    8.2741   12.2808   24.3555 C   0  0  0  0  0  0  0  0  0  0  0  0
    8.7876    9.6077   23.7441 C   0  0  0  0  0  0  0  0  0  0  0  0
    7.6256    9.9547   24.4332 C   0  0  0  0  0  0  0  0  0  0  0  0
    9.4361   11.9337   23.6663 C   0  0  0  0  0  0  0  0  0  0  0  0
    9.6929   10.5972   23.3606 C   0  0  0  0  0  0  0  0  0  0  0  0
    9.4006   16.4362   22.2549 C   0  0  0  0  0  0  0  0  0  0  0  0
    8.7057   15.0903   22.4050 C   0  0  0  0  0  0  0  0  0  0  0  0
   10.1964   14.1746   20.6494 C   0  0  0  0  0  0  0  0  0  0  0  0
   10.7994   15.5716   20.4525 C   0  0  2  0  0  0  0  0  0  0  0  0
    6.6573    8.8974   24.8438 C   0  0  0  0  0  0  0  0  0  0  0  0
   12.1835   15.7229   21.0873 C   0  0  0  0  0  0  0  0  0  0  0  0
    9.8875   16.6402   20.8877 N   0  0  0  0  0  0  0  0  0  0  0  0
    9.6220   13.9962   22.0066 N   0  0  1  0  0  0  0  0  0  0  0  0
   10.6785   14.1190   24.3405 O   0  0  0  0  0  0  0  0  0  0  0  0
   11.7063   12.6242   22.5922 O   0  0  0  0  0  0  0  0  0  0  0  0
   10.5443   13.2289   23.2073 S   0  0  0  0  0  0  0  0  0  0  0  0
   11.1169   10.1153   22.5105 Cl  0  0  0  0  0  0  0  0  0  0  0  0
    6.4666   11.5700   25.2766 H   0  0  0  0  0  0  0  0  0  0  0  0
    8.0627   13.3180   24.6013 H   0  0  0  0  0  0  0  0  0  0  0  0
    8.9805    8.5630   23.5096 H   0  0  0  0  0  0  0  0  0  0  0  0
    8.7189   17.2524   22.5307 H   0  0  0  0  0  0  0  0  0  0  0  0
   10.2519   16.4838   22.9446 H   0  0  0  0  0  0  0  0  0  0  0  0
    8.3737   14.9378   23.4435 H   0  0  0  0  0  0  0  0  0  0  0  0
    7.8148   15.0748   21.7606 H   0  0  0  0  0  0  0  0  0  0  0  0
    9.3965   14.0185   19.8979 H   0  0  0  0  0  0  0  0  0  0  0  0
   10.9579   13.3873   20.4676 H   0  0  0  0  0  0  0  0  0  0  0  0
   10.9512   15.7143   19.3289 H   0  0  0  0  0  0  0  0  0  0  0  0
    5.9118    8.7353   24.0557 H   0  0  0  0  0  0  0  0  0  0  0  0
    7.1669    7.9455   25.0418 H   0  0  0  0  0  0  0  0  0  0  0  0
    6.1326    9.1746   25.7675 H   0  0  0  0  0  0  0  0  0  0  0  0
   12.1106   15.5973   22.1665 H   0  0  0  0  0  0  0  0  0  0  0  0
   12.5834   16.7120   20.8699 H   0  0  0  0  0  0  0  0  0  0  0  0
   12.8586   14.9690   20.6855 H   0  0  0  0  0  0  0  0  0  0  0  0
    9.0873   16.6877   20.2487 H   0  0  0  0  0  0  0  0  0  0  0  0
  1  2  1  0  0  0  0
  1  4  2  0  0  0  0
  2  5  2  0  0  0  0
  3  4  1  0  0  0  0
  3  6  2  0  0  0  0
  4 11  1  0  0  0  0
  5  6  1  0  0  0  0
  5 17  1  0  0  0  0
  6 18  1  0  0  0  0
  7  8  1  0  0  0  0
  7 13  1  0  0  0  0
  8 14  1  0  0  0  0
  9 10  1  0  0  0  0
  9 14  1  0  0  0  0
 10 12  1  0  0  0  0
 10 13  1  0  0  0  0
 14 17  1  0  0  0  0
 15 17  2  0  0  0  0
 16 17  2  0  0  0  0
  1 19  1  0  0  0  0
  2 20  1  0  0  0  0
  3 21  1  0  0  0  0
  7 22  1  0  0  0  0
  7 23  1  0  0  0  0
  8 24  1  0  0  0  0
  8 25  1  0  0  0  0
  9 26  1  0  0  0  0
  9 27  1  0  0  0  0
 10 28  1  0  0  0  0
 11 29  1  0  0  0  0
 11 30  1  0  0  0  0
 11 31  1  0  0  0  0
 12 32  1  0  0  0  0
 12 33  1  0  0  0  0
 12 34  1  0  0  0  0
 13 35  1  0  0  0  0
M  END
> <Catalog ID>
Z1491313181

> <PlateID>
1337959-R-08

> <Well>
G06

> <MW (desalted)>
288.794

> <CLogP>
2.700

> <HBD>
1

> <TPSA>
49.410

> <RotBonds>
1

> <ROCS_ShapeQuery>
A71EV2A-x0451_0A_A71EV2A-x0310_0A_A71EV2A-x0416_0A_peptide

> <ROCS_TanimotoCombo>
0.446 

> <ROCS_ShapeTanimoto>
0.281 

> <ROCS_ColorTanimoto>
0.165 

> <ROCS_RefTversky>
0.254 

> <ROCS_RefColorTversky>
0.175 

> <ROCS_RefTverskyCombo>
0.429 

> <ROCS_FitTversky>
1.626 

> <ROCS_FitColorTversky>
0.732 

> <ROCS_FitTverskyCombo>
2.357 

> <ROCS_ColorScore>
-5.334

> <ROCS_Overlap>
1758.648

> <ROCS_Rank>
89                  

$$$$
untitled-dbase-967_33
  -OEChem-11112309163D

 33 35  0     1  0  0  0  0  0999 V2000
    7.0564   13.1213   25.6810 C   0  0  0  0  0  0  0  0  0  0  0  0
    6.3914   11.9676   26.2040 C   0  0  0  0  0  0  0  0  0  0  0  0
    8.0736   13.0683   24.7076 C   0  0  0  0  0  0  0  0  0  0  0  0
    6.6807   10.6450   25.8023 C   0  0  0  0  0  0  0  0  0  0  0  0
    8.3349   11.7563   24.3336 C   0  0  0  0  0  0  0  0  0  0  0  0
    7.6941   10.5618   24.8297 C   0  0  0  0  0  0  0  0  0  0  0  0
    9.2630   11.3602   23.4127 C   0  0  0  0  0  0  0  0  0  0  0  0
   10.1967   12.1272   22.5981 C   0  0  0  0  0  0  0  0  0  0  0  0
   11.6392   14.1436   22.6664 C   0  0  0  0  0  0  0  0  0  0  0  0
   11.7067   12.6357   24.5998 C   0  0  0  0  0  0  0  0  0  0  0  0
   13.1590   14.1188   22.6284 C   0  0  0  0  0  0  0  0  0  0  0  0
   13.2374   12.6825   24.5482 C   0  0  1  0  0  0  0  0  0  0  0  0
   13.8439   11.4502   23.8788 C   0  0  0  0  0  0  0  0  0  0  0  0
    8.2291    9.4901   24.2184 N   0  0  0  0  0  0  0  0  0  0  0  0
    9.1564   10.0003   23.3848 N   0  0  0  0  0  0  0  0  0  0  0  0
   11.1349   12.9163   23.2774 N   0  0  0  0  0  0  0  0  0  0  0  0
   10.1301   12.0499   21.3720 O   0  0  0  0  0  0  0  0  0  0  0  0
   13.6935   13.8956   23.9350 O   0  0  0  0  0  0  0  0  0  0  0  0
    6.7560   14.0978   26.0600 H   0  0  0  0  0  0  0  0  0  0  0  0
    5.6172   12.1214   26.9553 H   0  0  0  0  0  0  0  0  0  0  0  0
    8.5647   13.9514   24.3230 H   0  0  0  0  0  0  0  0  0  0  0  0
    6.1655    9.7855   26.2102 H   0  0  0  0  0  0  0  0  0  0  0  0
   11.2844   15.0273   23.2016 H   0  0  0  0  0  0  0  0  0  0  0  0
   11.2357   14.1735   21.6490 H   0  0  0  0  0  0  0  0  0  0  0  0
   11.3621   11.6283   24.8715 H   0  0  0  0  0  0  0  0  0  0  0  0
   11.3330   13.3294   25.3602 H   0  0  0  0  0  0  0  0  0  0  0  0
   13.5022   13.2984   21.9861 H   0  0  0  0  0  0  0  0  0  0  0  0
   13.5690   15.0511   22.2149 H   0  0  0  0  0  0  0  0  0  0  0  0
   13.6202   12.6937   25.6218 H   0  0  0  0  0  0  0  0  0  0  0  0
   13.5113   11.3859   22.8423 H   0  0  0  0  0  0  0  0  0  0  0  0
   13.5332   10.5475   24.4056 H   0  0  0  0  0  0  0  0  0  0  0  0
   14.9324   11.5126   23.8968 H   0  0  0  0  0  0  0  0  0  0  0  0
    9.6881    9.3520   22.8177 H   0  0  0  0  0  0  0  0  0  0  0  0
  1  2  1  0  0  0  0
  1  3  2  0  0  0  0
  2  4  2  0  0  0  0
  3  5  1  0  0  0  0
  4  6  1  0  0  0  0
  5  6  1  0  0  0  0
  5  7  2  0  0  0  0
  6 14  2  0  0  0  0
  7  8  1  0  0  0  0
  7 15  1  0  0  0  0
  8 16  1  0  0  0  0
  8 17  2  0  0  0  0
  9 11  1  0  0  0  0
  9 16  1  0  0  0  0
 10 12  1  0  0  0  0
 10 16  1  0  0  0  0
 11 18  1  0  0  0  0
 12 13  1  0  0  0  0
 12 18  1  0  0  0  0
 14 15  1  0  0  0  0
  1 19  1  0  0  0  0
  2 20  1  0  0  0  0
  3 21  1  0  0  0  0
  4 22  1  0  0  0  0
  9 23  1  0  0  0  0
  9 24  1  0  0  0  0
 10 25  1  0  0  0  0
 10 26  1  0  0  0  0
 11 27  1  0  0  0  0
 11 28  1  0  0  0  0
 12 29  1  0  0  0  0
 13 30  1  0  0  0  0
 13 31  1  0  0  0  0
 13 32  1  0  0  0  0
 15 33  1  0  0  0  0
M  END
> <Catalog ID>
Z212855692

> <PlateID>
1337959-R-13

> <Well>
B02

> <MW (desalted)>
245.277

> <CLogP>
1.411

> <HBD>
1

> <TPSA>
58.220

> <RotBonds>
1

> <ROCS_ShapeQuery>
A71EV2A-x0451_0A_A71EV2A-x0310_0A_A71EV2A-x0416_0A_peptide

> <ROCS_TanimotoCombo>
0.445 

> <ROCS_ShapeTanimoto>
0.315 

> <ROCS_ColorTanimoto>
0.130 

> <ROCS_RefTversky>
0.279 

> <ROCS_RefColorTversky>
0.146 

> <ROCS_RefTverskyCombo>
0.426 

> <ROCS_FitTversky>
1.687 

> <ROCS_FitColorTversky>
0.540 

> <ROCS_FitTverskyCombo>
2.228 

> <ROCS_ColorScore>
-4.461

> <ROCS_Overlap>
1937.057

> <ROCS_Rank>
90                  

$$$$
untitled-dbase-665_89
  -OEChem-11112309163D

 36 37  0     1  0  0  0  0  0999 V2000
   13.5255   15.6258   18.2549 C   0  0  0  0  0  0  0  0  0  0  0  0
   14.1262   16.2387   19.3545 C   0  0  0  0  0  0  0  0  0  0  0  0
   12.4664   14.7379   18.4436 C   0  0  0  0  0  0  0  0  0  0  0  0
   13.6678   15.9636   20.6429 C   0  0  0  0  0  0  0  0  0  0  0  0
   12.0080   14.4628   19.7319 C   0  0  0  0  0  0  0  0  0  0  0  0
   12.6087   15.0756   20.8316 C   0  0  0  0  0  0  0  0  0  0  0  0
    8.6205   10.2514   23.9111 C   0  0  0  0  0  0  0  0  0  0  0  0
   10.3680   13.4108   23.3953 C   0  0  0  0  0  0  0  0  0  0  0  0
    9.7589   10.9871   23.2509 C   0  0  0  0  0  0  0  0  0  0  0  0
    8.2026   12.5460   24.2357 C   0  0  0  0  0  0  0  0  0  0  0  0
    9.2652   12.4309   23.1555 C   0  0  1  0  0  0  0  0  0  0  0  0
   13.2371   14.1667   23.0977 C   0  0  0  0  0  0  0  0  0  0  0  0
   11.5980   16.0623   22.9202 C   0  0  0  0  0  0  0  0  0  0  0  0
   12.1041   14.7723   22.2487 C   0  0  0  0  0  0  0  0  0  0  0  0
    7.7562   11.1980   24.4391 N   0  0  0  0  0  0  0  0  0  0  0  0
   11.0110   13.8268   22.2451 N   0  0  0  0  0  0  0  0  0  0  0  0
    8.5145    9.0361   23.9793 O   0  0  0  0  0  0  0  0  0  0  0  0
   10.6203   13.7683   24.5399 O   0  0  0  0  0  0  0  0  0  0  0  0
   13.8816   15.8412   17.2517 H   0  0  0  0  0  0  0  0  0  0  0  0
   14.9501   16.9309   19.2077 H   0  0  0  0  0  0  0  0  0  0  0  0
   11.9977   14.2614   17.5876 H   0  0  0  0  0  0  0  0  0  0  0  0
   14.1420   16.4455   21.4938 H   0  0  0  0  0  0  0  0  0  0  0  0
   11.1824   13.7696   19.8694 H   0  0  0  0  0  0  0  0  0  0  0  0
   10.6733   10.8806   23.8430 H   0  0  0  0  0  0  0  0  0  0  0  0
    9.9102   10.5572   22.2546 H   0  0  0  0  0  0  0  0  0  0  0  0
    8.5684   12.9551   25.1825 H   0  0  0  0  0  0  0  0  0  0  0  0
    7.3422   13.1310   23.8935 H   0  0  0  0  0  0  0  0  0  0  0  0
    8.8503   12.6459   22.1647 H   0  0  0  0  0  0  0  0  0  0  0  0
   12.8909   13.9444   24.1143 H   0  0  0  0  0  0  0  0  0  0  0  0
   13.5957   13.2250   22.6641 H   0  0  0  0  0  0  0  0  0  0  0  0
   14.0972   14.8395   23.1848 H   0  0  0  0  0  0  0  0  0  0  0  0
   11.2338   15.8606   23.9349 H   0  0  0  0  0  0  0  0  0  0  0  0
   10.7641   16.4998   22.3575 H   0  0  0  0  0  0  0  0  0  0  0  0
   12.3801   16.8252   22.9989 H   0  0  0  0  0  0  0  0  0  0  0  0
    6.8692   10.9586   24.8722 H   0  0  0  0  0  0  0  0  0  0  0  0
   10.7006   13.4500   21.3545 H   0  0  0  0  0  0  0  0  0  0  0  0
  1  2  2  0  0  0  0
  1  3  1  0  0  0  0
  2  4  1  0  0  0  0
  3  5  2  0  0  0  0
  4  6  2  0  0  0  0
  5  6  1  0  0  0  0
  6 14  1  0  0  0  0
  7  9  1  0  0  0  0
  7 15  1  0  0  0  0
  7 17  2  0  0  0  0
  8 11  1  0  0  0  0
  8 16  1  0  0  0  0
  8 18  2  0  0  0  0
  9 11  1  0  0  0  0
 10 11  1  0  0  0  0
 10 15  1  0  0  0  0
 12 14  1  0  0  0  0
 13 14  1  0  0  0  0
 14 16  1  0  0  0  0
  1 19  1  0  0  0  0
  2 20  1  0  0  0  0
  3 21  1  0  0  0  0
  4 22  1  0  0  0  0
  5 23  1  0  0  0  0
  9 24  1  0  0  0  0
  9 25  1  0  0  0  0
 10 26  1  0  0  0  0
 10 27  1  0  0  0  0
 11 28  1  0  0  0  0
 12 29  1  0  0  0  0
 12 30  1  0  0  0  0
 12 31  1  0  0  0  0
 13 32  1  0  0  0  0
 13 33  1  0  0  0  0
 13 34  1  0  0  0  0
 15 35  1  0  0  0  0
 16 36  1  0  0  0  0
M  END
> <Catalog ID>
Z917426634

> <PlateID>
1337959-R-09

> <Well>
C08

> <MW (desalted)>
246.305

> <CLogP>
1.575

> <HBD>
2

> <TPSA>
58.200

> <RotBonds>
3

> <ROCS_ShapeQuery>
A71EV2A-x0451_0A_A71EV2A-x0310_0A_A71EV2A-x0416_0A_peptide

> <ROCS_TanimotoCombo>
0.445 

> <ROCS_ShapeTanimoto>
0.286 

> <ROCS_ColorTanimoto>
0.159 

> <ROCS_RefTversky>
0.258 

> <ROCS_RefColorTversky>
0.174 

> <ROCS_RefTverskyCombo>
0.433 

> <ROCS_FitTversky>
1.596 

> <ROCS_FitColorTversky>
0.645 

> <ROCS_FitTverskyCombo>
2.241 

> <ROCS_ColorScore>
-5.313

> <ROCS_Overlap>
1792.037

> <ROCS_Rank>
91                  

$$$$
untitled-dbase-814_57
  -OEChem-11112309163D

 37 39  0     1  0  0  0  0  0999 V2000
    8.5870    9.9160   23.4315 C   0  0  0  0  0  0  0  0  0  0  0  0
    9.5778   12.0992   23.6649 C   0  0  0  0  0  0  0  0  0  0  0  0
    8.4763   11.8515   24.4570 C   0  0  0  0  0  0  0  0  0  0  0  0
   10.4276   13.3121   23.5466 C   0  0  0  0  0  0  0  0  0  0  0  0
   12.2102   15.5466   18.2642 C   0  0  0  0  0  0  0  0  0  0  0  0
   13.7033   15.8698   18.3710 C   0  0  0  0  0  0  0  0  0  0  0  0
   11.5366   15.4028   19.6276 C   0  0  0  0  0  0  0  0  0  0  0  0
   13.1269   14.6533   22.9074 C   0  0  0  0  0  0  0  0  0  0  0  0
   14.1200   16.2726   19.7853 C   0  0  0  0  0  0  0  0  0  0  0  0
   14.0343   15.5896   22.1278 C   0  0  0  0  0  0  0  0  0  0  0  0
   12.4369   14.6551   20.6137 C   0  0  2  0  0  0  0  0  0  0  0  0
   11.8788   14.6469   22.0406 C   0  0  1  0  0  0  0  0  0  0  0  0
    7.8651   12.7937   25.4172 C   0  0  0  0  0  0  0  0  0  0  0  0
    7.9066   10.6003   24.3242 N   0  0  0  0  0  0  0  0  0  0  0  0
   13.7993   15.2098   20.7331 N   0  0  1  0  0  0  0  0  0  0  0  0
   11.0133   13.5331   22.3041 N   0  0  0  0  0  0  0  0  0  0  0  0
   10.5858   14.0319   24.5291 O   0  0  0  0  0  0  0  0  0  0  0  0
    9.9243   10.7157   22.7125 S   0  0  0  0  0  0  0  0  0  0  0  0
    8.3235    8.9029   23.1603 H   0  0  0  0  0  0  0  0  0  0  0  0
   11.7012   16.3274   17.6751 H   0  0  0  0  0  0  0  0  0  0  0  0
   12.0866   14.6072   17.6978 H   0  0  0  0  0  0  0  0  0  0  0  0
   14.2906   15.0007   18.0446 H   0  0  0  0  0  0  0  0  0  0  0  0
   13.9413   16.6872   17.6737 H   0  0  0  0  0  0  0  0  0  0  0  0
   11.2901   16.4046   20.0204 H   0  0  0  0  0  0  0  0  0  0  0  0
   10.5764   14.8728   19.5170 H   0  0  0  0  0  0  0  0  0  0  0  0
   13.5808   13.6706   22.9867 H   0  0  0  0  0  0  0  0  0  0  0  0
   12.9060   15.0335   23.8987 H   0  0  0  0  0  0  0  0  0  0  0  0
   15.1969   16.5092   19.8052 H   0  0  0  0  0  0  0  0  0  0  0  0
   13.5870   17.1947   20.0648 H   0  0  0  0  0  0  0  0  0  0  0  0
   13.7846   16.6408   22.3023 H   0  0  0  0  0  0  0  0  0  0  0  0
   15.0792   15.4275   22.4200 H   0  0  0  0  0  0  0  0  0  0  0  0
   12.4943   13.5770   20.2577 H   0  0  0  0  0  0  0  0  0  0  0  0
   11.2896   15.5562   22.2291 H   0  0  0  0  0  0  0  0  0  0  0  0
    7.0869   13.4041   24.9318 H   0  0  0  0  0  0  0  0  0  0  0  0
    7.3996   12.2702   26.2689 H   0  0  0  0  0  0  0  0  0  0  0  0
    8.6103   13.4814   25.8511 H   0  0  0  0  0  0  0  0  0  0  0  0
   10.8809   12.8515   21.5576 H   0  0  0  0  0  0  0  0  0  0  0  0
  1 14  2  0  0  0  0
  1 18  1  0  0  0  0
  2  3  2  0  0  0  0
  2  4  1  0  0  0  0
  2 18  1  0  0  0  0
  3 13  1  0  0  0  0
  3 14  1  0  0  0  0
  4 16  1  0  0  0  0
  4 17  2  0  0  0  0
  5  6  1  0  0  0  0
  5  7  1  0  0  0  0
  6  9  1  0  0  0  0
  7 11  1  0  0  0  0
  8 10  1  0  0  0  0
  8 12  1  0  0  0  0
  9 15  1  0  0  0  0
 10 15  1  0  0  0  0
 11 12  1  0  0  0  0
 11 15  1  0  0  0  0
 12 16  1  0  0  0  0
  1 19  1  0  0  0  0
  5 20  1  0  0  0  0
  5 21  1  0  0  0  0
  6 22  1  0  0  0  0
  6 23  1  0  0  0  0
  7 24  1  0  0  0  0
  7 25  1  0  0  0  0
  8 26  1  0  0  0  0
  8 27  1  0  0  0  0
  9 28  1  0  0  0  0
  9 29  1  0  0  0  0
 10 30  1  0  0  0  0
 10 31  1  0  0  0  0
 11 32  1  0  0  0  0
 12 33  1  0  0  0  0
 13 34  1  0  0  0  0
 13 35  1  0  0  0  0
 13 36  1  0  0  0  0
 16 37  1  0  0  0  0
M  END
> <Catalog ID>
Z423022130

> <PlateID>
1337959-R-11

> <Well>
B07

> <MW (desalted)>
265.374

> <CLogP>
1.328

> <HBD>
1

> <TPSA>
45.230

> <RotBonds>
2

> <ROCS_ShapeQuery>
A71EV2A-x0451_0A_A71EV2A-x0310_0A_A71EV2A-x0416_0A_peptide

> <ROCS_TanimotoCombo>
0.445 

> <ROCS_ShapeTanimoto>
0.275 

> <ROCS_ColorTanimoto>
0.170 

> <ROCS_RefTversky>
0.250 

> <ROCS_RefColorTversky>
0.184 

> <ROCS_RefTverskyCombo>
0.435 

> <ROCS_FitTversky>
1.562 

> <ROCS_FitColorTversky>
0.681 

> <ROCS_FitTverskyCombo>
2.243 

> <ROCS_ColorScore>
-5.619

> <ROCS_Overlap>
1737.114

> <ROCS_Rank>
92                  

$$$$
untitled-dbase-810_151
  -OEChem-11112309163D

 40 41  0     1  0  0  0  0  0999 V2000
    7.3602   10.3748   24.8202 C   0  0  0  0  0  0  0  0  0  0  0  0
    7.4116   11.7675   24.7642 C   0  0  0  0  0  0  0  0  0  0  0  0
    8.3455    9.6145   24.1902 C   0  0  0  0  0  0  0  0  0  0  0  0
    8.4482   12.4001   24.0780 C   0  0  0  0  0  0  0  0  0  0  0  0
    9.3821   10.2471   23.5040 C   0  0  0  0  0  0  0  0  0  0  0  0
    9.4335   11.6399   23.4479 C   0  0  0  0  0  0  0  0  0  0  0  0
   11.0244   13.5493   23.0384 C   0  0  0  0  0  0  0  0  0  0  0  0
   11.4529   15.5151   19.4736 C   0  0  0  0  0  0  0  0  0  0  0  0
   12.8434   15.9788   19.0508 C   0  0  0  0  0  0  0  0  0  0  0  0
   11.1842   15.8351   20.9456 C   0  0  0  0  0  0  0  0  0  0  0  0
   13.5532   15.7645   21.4634 C   0  0  0  0  0  0  0  0  0  0  0  0
   13.9135   15.4337   20.0036 C   0  0  2  0  0  0  0  0  0  0  0  0
   10.4238    9.4075   22.8384 C   0  0  0  0  0  0  0  0  0  0  0  0
   15.2889   15.9960   19.6471 C   0  0  0  0  0  0  0  0  0  0  0  0
   12.1247   13.8817   22.0492 C   0  0  0  0  0  0  0  0  0  0  0  0
   12.2091   15.3286   21.8666 N   0  0  2  0  0  0  0  0  0  0  0  0
   10.4769   12.3005   22.7566 N   0  0  0  0  0  0  0  0  0  0  0  0
   10.7110   14.3107   23.9480 O   0  0  0  0  0  0  0  0  0  0  0  0
    6.5530    9.8820   25.3539 H   0  0  0  0  0  0  0  0  0  0  0  0
    6.6439   12.3594   25.2542 H   0  0  0  0  0  0  0  0  0  0  0  0
    8.2962    8.5300   24.2395 H   0  0  0  0  0  0  0  0  0  0  0  0
    8.4773   13.4861   24.0419 H   0  0  0  0  0  0  0  0  0  0  0  0
   10.6960   15.9989   18.8465 H   0  0  0  0  0  0  0  0  0  0  0  0
   11.3616   14.4342   19.3094 H   0  0  0  0  0  0  0  0  0  0  0  0
   13.0453   15.6492   18.0235 H   0  0  0  0  0  0  0  0  0  0  0  0
   12.8712   17.0774   19.0434 H   0  0  0  0  0  0  0  0  0  0  0  0
   11.0638   16.9337   21.0641 H   0  0  0  0  0  0  0  0  0  0  0  0
   10.1993   15.3995   21.2124 H   0  0  0  0  0  0  0  0  0  0  0  0
   14.3040   15.2788   22.1214 H   0  0  0  0  0  0  0  0  0  0  0  0
   13.6718   16.8565   21.6386 H   0  0  0  0  0  0  0  0  0  0  0  0
   13.9548   14.3434   19.8933 H   0  0  0  0  0  0  0  0  0  0  0  0
   10.1264    9.1805   21.8084 H   0  0  0  0  0  0  0  0  0  0  0  0
   11.3925    9.9212   22.8183 H   0  0  0  0  0  0  0  0  0  0  0  0
   10.5735    8.4632   23.3760 H   0  0  0  0  0  0  0  0  0  0  0  0
   15.2814   17.0801   19.7469 H   0  0  0  0  0  0  0  0  0  0  0  0
   15.5398   15.7340   18.6207 H   0  0  0  0  0  0  0  0  0  0  0  0
   16.0415   15.5813   20.3156 H   0  0  0  0  0  0  0  0  0  0  0  0
   11.9142   13.4034   21.0875 H   0  0  0  0  0  0  0  0  0  0  0  0
   13.0758   13.4996   22.4331 H   0  0  0  0  0  0  0  0  0  0  0  0
   10.8627   11.7920   21.9638 H   0  0  0  0  0  0  0  0  0  0  0  0
  1  2  2  0  0  0  0
  1  3  1  0  0  0  0
  2  4  1  0  0  0  0
  3  5  2  0  0  0  0
  4  6  2  0  0  0  0
  5  6  1  0  0  0  0
  5 13  1  0  0  0  0
  6 17  1  0  0  0  0
  7 15  1  0  0  0  0
  7 17  1  0  0  0  0
  7 18  2  0  0  0  0
  8  9  1  0  0  0  0
  8 10  1  0  0  0  0
  9 12  1  0  0  0  0
 10 16  1  0  0  0  0
 11 12  1  0  0  0  0
 11 16  1  0  0  0  0
 12 14  1  0  0  0  0
 15 16  1  0  0  0  0
  1 19  1  0  0  0  0
  2 20  1  0  0  0  0
  3 21  1  0  0  0  0
  4 22  1  0  0  0  0
  8 23  1  0  0  0  0
  8 24  1  0  0  0  0
  9 25  1  0  0  0  0
  9 26  1  0  0  0  0
 10 27  1  0  0  0  0
 10 28  1  0  0  0  0
 11 29  1  0  0  0  0
 11 30  1  0  0  0  0
 12 31  1  0  0  0  0
 13 32  1  0  0  0  0
 13 33  1  0  0  0  0
 13 34  1  0  0  0  0
 14 35  1  0  0  0  0
 14 36  1  0  0  0  0
 14 37  1  0  0  0  0
 15 38  1  0  0  0  0
 15 39  1  0  0  0  0
 17 40  1  0  0  0  0
M  END
> <Catalog ID>
Z46177503

> <PlateID>
1337959-R-11

> <Well>
B03

> <MW (desalted)>
246.348

> <CLogP>
2.759

> <HBD>
1

> <TPSA>
32.340

> <RotBonds>
3

> <ROCS_ShapeQuery>
A71EV2A-x0451_0A_A71EV2A-x0310_0A_A71EV2A-x0416_0A_peptide

> <ROCS_TanimotoCombo>
0.445 

> <ROCS_ShapeTanimoto>
0.309 

> <ROCS_ColorTanimoto>
0.136 

> <ROCS_RefTversky>
0.274 

> <ROCS_RefColorTversky>
0.144 

> <ROCS_RefTverskyCombo>
0.418 

> <ROCS_FitTversky>
1.720 

> <ROCS_FitColorTversky>
0.692 

> <ROCS_FitTverskyCombo>
2.412 

> <ROCS_ColorScore>
-4.383

> <ROCS_Overlap>
1899.270

> <ROCS_Rank>
93                  

$$$$
untitled-dbase-1109_4
  -OEChem-11112309163D

 31 32  0     1  0  0  0  0  0999 V2000
    8.2667   12.4772   24.1108 C   0  0  0  0  0  0  0  0  0  0  0  0
    7.4734   11.3634   24.3860 C   0  0  0  0  0  0  0  0  0  0  0  0
    9.2268    9.9135   23.5733 C   0  0  0  0  0  0  0  0  0  0  0  0
    9.5401   12.3091   23.5666 C   0  0  0  0  0  0  0  0  0  0  0  0
    7.9534   10.0816   24.1173 C   0  0  0  0  0  0  0  0  0  0  0  0
   10.0201   11.0273   23.2979 C   0  0  0  0  0  0  0  0  0  0  0  0
   10.3727   13.4836   23.2783 C   0  0  0  0  0  0  0  0  0  0  0  0
    9.7792   13.6286   19.7142 C   0  0  0  0  0  0  0  0  0  0  0  0
   10.6150   14.8495   19.3189 C   0  0  0  0  0  0  0  0  0  0  0  0
   10.4638   12.8274   20.8171 C   0  0  0  0  0  0  0  0  0  0  0  0
   11.6325   14.8417   21.6381 C   0  0  0  0  0  0  0  0  0  0  0  0
   11.0057   15.7000   20.5343 C   0  0  2  0  0  0  0  0  0  0  0  0
   10.7811   13.6937   21.9593 N   0  0  0  0  0  0  0  0  0  0  0  0
    9.8634   16.4291   21.0386 N   0  0  0  0  0  0  0  0  0  0  0  0
   10.6384   14.2092   24.2354 O   0  0  0  0  0  0  0  0  0  0  0  0
    7.1916    9.0120   24.3815 F   0  0  0  0  0  0  0  0  0  0  0  0
   11.2421   10.8541   22.7751 F   0  0  0  0  0  0  0  0  0  0  0  0
    7.8820   13.4710   24.3245 H   0  0  0  0  0  0  0  0  0  0  0  0
    6.4819   11.4939   24.8096 H   0  0  0  0  0  0  0  0  0  0  0  0
    9.6002    8.9155   23.3641 H   0  0  0  0  0  0  0  0  0  0  0  0
    8.7844   13.9459   20.0496 H   0  0  0  0  0  0  0  0  0  0  0  0
    9.6292   12.9907   18.8357 H   0  0  0  0  0  0  0  0  0  0  0  0
   11.5308   14.5038   18.8219 H   0  0  0  0  0  0  0  0  0  0  0  0
   10.0696   15.4499   18.5808 H   0  0  0  0  0  0  0  0  0  0  0  0
    9.8263   11.9896   21.1102 H   0  0  0  0  0  0  0  0  0  0  0  0
   11.4091   12.4055   20.4553 H   0  0  0  0  0  0  0  0  0  0  0  0
   12.5969   14.4421   21.3008 H   0  0  0  0  0  0  0  0  0  0  0  0
   11.8312   15.4402   22.5343 H   0  0  0  0  0  0  0  0  0  0  0  0
   11.7605   16.4394   20.2029 H   0  0  0  0  0  0  0  0  0  0  0  0
   10.1691   16.9895   21.7966 H   0  0  0  0  0  0  0  0  0  0  0  0
    9.5108   16.9906   20.3022 H   0  0  0  0  0  0  0  0  0  0  0  0
  1  2  1  0  0  0  0
  1  4  2  0  0  0  0
  2  5  2  0  0  0  0
  3  5  1  0  0  0  0
  3  6  2  0  0  0  0
  4  6  1  0  0  0  0
  4  7  1  0  0  0  0
  5 16  1  0  0  0  0
  6 17  1  0  0  0  0
  7 13  1  0  0  0  0
  7 15  2  0  0  0  0
  8  9  1  0  0  0  0
  8 10  1  0  0  0  0
  9 12  1  0  0  0  0
 10 13  1  0  0  0  0
 11 12  1  0  0  0  0
 11 13  1  0  0  0  0
 12 14  1  0  0  0  0
  1 18  1  0  0  0  0
  2 19  1  0  0  0  0
  3 20  1  0  0  0  0
  8 21  1  0  0  0  0
  8 22  1  0  0  0  0
  9 23  1  0  0  0  0
  9 24  1  0  0  0  0
 10 25  1  0  0  0  0
 10 26  1  0  0  0  0
 11 27  1  0  0  0  0
 11 28  1  0  0  0  0
 12 29  1  0  0  0  0
 14 30  1  0  0  0  0
 14 31  1  0  0  0  0
M  END
> <Catalog ID>
Z802635360

> <PlateID>
1337959-R-14

> <Well>
H05

> <MW (desalted)>
240.249

> <CLogP>
1.204

> <HBD>
1

> <TPSA>
46.330

> <RotBonds>
1

> <ROCS_ShapeQuery>
A71EV2A-x0451_0A_A71EV2A-x0310_0A_A71EV2A-x0416_0A_peptide

> <ROCS_TanimotoCombo>
0.445 

> <ROCS_ShapeTanimoto>
0.279 

> <ROCS_ColorTanimoto>
0.166 

> <ROCS_RefTversky>
0.252 

> <ROCS_RefColorTversky>
0.172 

> <ROCS_RefTverskyCombo>
0.424 

> <ROCS_FitTversky>
1.620 

> <ROCS_FitColorTversky>
0.824 

> <ROCS_FitTverskyCombo>
2.444 

> <ROCS_ColorScore>
-5.218

> <ROCS_Overlap>
1748.867

> <ROCS_Rank>
94                  

$$$$
untitled-dbase-388_51
  -OEChem-11112309163D

 34 35  0     1  0  0  0  0  0999 V2000
    8.3870   12.2245   24.6417 C   0  0  0  0  0  0  0  0  0  0  0  0
    8.9406   10.0778   22.9481 C   0  0  0  0  0  0  0  0  0  0  0  0
    9.4352   12.3112   23.7255 C   0  0  0  0  0  0  0  0  0  0  0  0
    7.8924    9.9910   23.8643 C   0  0  0  0  0  0  0  0  0  0  0  0
    7.6156   11.0643   24.7111 C   0  0  0  0  0  0  0  0  0  0  0  0
    9.7120   11.2379   22.8787 C   0  0  0  0  0  0  0  0  0  0  0  0
   10.2456   13.5362   23.6551 C   0  0  0  0  0  0  0  0  0  0  0  0
    8.6934   15.7061   21.2560 C   0  0  0  0  0  0  0  0  0  0  0  0
    9.1520   14.2681   21.4955 C   0  0  0  0  0  0  0  0  0  0  0  0
   10.9030   16.5320   21.7880 C   0  0  0  0  0  0  0  0  0  0  0  0
   11.4091   15.0977   22.0220 C   0  0  1  0  0  0  0  0  0  0  0  0
    7.0699    8.7491   23.9362 C   0  0  0  0  0  0  0  0  0  0  0  0
   12.6448   15.1201   22.9212 C   0  0  0  0  0  0  0  0  0  0  0  0
    9.7987   16.5604   20.8271 N   0  0  0  0  0  0  0  0  0  0  0  0
   10.2785   14.2382   22.4423 N   0  0  0  0  0  0  0  0  0  0  0  0
   10.8406   13.8217   24.6920 O   0  0  0  0  0  0  0  0  0  0  0  0
    6.6110   10.9897   25.5949 F   0  0  0  0  0  0  0  0  0  0  0  0
   10.7170   11.3106   21.9942 F   0  0  0  0  0  0  0  0  0  0  0  0
    8.1627   13.0544   25.3068 H   0  0  0  0  0  0  0  0  0  0  0  0
    9.1639    9.2469   22.2841 H   0  0  0  0  0  0  0  0  0  0  0  0
    7.8900   15.7243   20.5105 H   0  0  0  0  0  0  0  0  0  0  0  0
    8.2763   16.1067   22.1854 H   0  0  0  0  0  0  0  0  0  0  0  0
    8.3486   13.6822   21.9379 H   0  0  0  0  0  0  0  0  0  0  0  0
    9.4223   13.8148   20.5480 H   0  0  0  0  0  0  0  0  0  0  0  0
   10.5617   16.9617   22.7330 H   0  0  0  0  0  0  0  0  0  0  0  0
   11.7241   17.1602   21.4297 H   0  0  0  0  0  0  0  0  0  0  0  0
   11.7479   14.7430   21.0165 H   0  0  0  0  0  0  0  0  0  0  0  0
    7.5041    8.0444   24.6558 H   0  0  0  0  0  0  0  0  0  0  0  0
    6.0398    8.9706   24.2444 H   0  0  0  0  0  0  0  0  0  0  0  0
    7.0091    8.2543   22.9580 H   0  0  0  0  0  0  0  0  0  0  0  0
   12.3654   15.4600   23.9152 H   0  0  0  0  0  0  0  0  0  0  0  0
   13.3862   15.7965   22.5038 H   0  0  0  0  0  0  0  0  0  0  0  0
   13.0652   14.1198   22.9869 H   0  0  0  0  0  0  0  0  0  0  0  0
   10.1389   16.2393   19.9156 H   0  0  0  0  0  0  0  0  0  0  0  0
  1  3  2  0  0  0  0
  1  5  1  0  0  0  0
  2  4  1  0  0  0  0
  2  6  2  0  0  0  0
  3  6  1  0  0  0  0
  3  7  1  0  0  0  0
  4  5  2  0  0  0  0
  4 12  1  0  0  0  0
  5 17  1  0  0  0  0
  6 18  1  0  0  0  0
  7 15  1  0  0  0  0
  7 16  2  0  0  0  0
  8  9  1  0  0  0  0
  8 14  1  0  0  0  0
  9 15  1  0  0  0  0
 10 11  1  0  0  0  0
 10 14  1  0  0  0  0
 11 13  1  0  0  0  0
 11 15  1  0  0  0  0
  1 19  1  0  0  0  0
  2 20  1  0  0  0  0
  8 21  1  0  0  0  0
  8 22  1  0  0  0  0
  9 23  1  0  0  0  0
  9 24  1  0  0  0  0
 10 25  1  0  0  0  0
 10 26  1  0  0  0  0
 11 27  1  0  0  0  0
 12 28  1  0  0  0  0
 12 29  1  0  0  0  0
 12 30  1  0  0  0  0
 13 31  1  0  0  0  0
 13 32  1  0  0  0  0
 13 33  1  0  0  0  0
 14 34  1  0  0  0  0
M  END
> <Catalog ID>
Z2242908308

> <PlateID>
1337959-R-05

> <Well>
G10

> <MW (desalted)>
254.276

> <CLogP>
2.164

> <HBD>
1

> <TPSA>
32.340

> <RotBonds>
1

> <ROCS_ShapeQuery>
A71EV2A-x0451_0A_A71EV2A-x0310_0A_A71EV2A-x0416_0A_peptide

> <ROCS_TanimotoCombo>
0.445 

> <ROCS_ShapeTanimoto>
0.287 

> <ROCS_ColorTanimoto>
0.158 

> <ROCS_RefTversky>
0.259 

> <ROCS_RefColorTversky>
0.165 

> <ROCS_RefTverskyCombo>
0.424 

> <ROCS_FitTversky>
1.601 

> <ROCS_FitColorTversky>
0.790 

> <ROCS_FitTverskyCombo>
2.391 

> <ROCS_ColorScore>
-5.004

> <ROCS_Overlap>
1796.910

> <ROCS_Rank>
95                  

$$$$
untitled-dbase-655_27
  -OEChem-11112309163D

 34 36  0     0  0  0  0  0  0999 V2000
    6.4457   12.3178   25.5630 C   0  0  0  0  0  0  0  0  0  0  0  0
    5.8028   11.2849   26.2090 C   0  0  0  0  0  0  0  0  0  0  0  0
    7.5167   11.8485   24.7505 C   0  0  0  0  0  0  0  0  0  0  0  0
    7.6547   10.4737   24.8038 C   0  0  0  0  0  0  0  0  0  0  0  0
    9.3842   10.4175   23.4052 C   0  0  0  0  0  0  0  0  0  0  0  0
    8.4290   12.6179   23.9175 C   0  0  0  0  0  0  0  0  0  0  0  0
   14.2564   13.8261   23.7321 C   0  0  0  0  0  0  0  0  0  0  0  0
   13.2984   14.8426   23.1196 C   0  0  0  0  0  0  0  0  0  0  0  0
   13.5207   12.8153   24.6058 C   0  0  0  0  0  0  0  0  0  0  0  0
   12.1670   14.1588   22.3498 C   0  0  0  0  0  0  0  0  0  0  0  0
   12.3919   12.1245   23.8390 C   0  0  0  0  0  0  0  0  0  0  0  0
   11.4151   13.1307   23.2092 C   0  0  0  0  0  0  0  0  0  0  0  0
   10.3574   12.4076   22.3735 C   0  0  0  0  0  0  0  0  0  0  0  0
    8.5768    9.7204   24.1458 N   0  0  0  0  0  0  0  0  0  0  0  0
    9.3877   11.8185   23.2327 N   0  0  0  0  0  0  0  0  0  0  0  0
    8.3549   13.8397   23.8332 O   0  0  0  0  0  0  0  0  0  0  0  0
   10.7381   13.8385   24.2521 O   0  0  0  0  0  0  0  0  0  0  0  0
    6.4908    9.7630   25.8343 S   0  0  0  0  0  0  0  0  0  0  0  0
    6.1573   13.3555   25.6721 H   0  0  0  0  0  0  0  0  0  0  0  0
    4.9612   11.3519   26.8839 H   0  0  0  0  0  0  0  0  0  0  0  0
   10.1745    9.9161   22.8236 H   0  0  0  0  0  0  0  0  0  0  0  0
   14.7877   13.2973   22.9311 H   0  0  0  0  0  0  0  0  0  0  0  0
   15.0145   14.3462   24.3286 H   0  0  0  0  0  0  0  0  0  0  0  0
   12.8780   15.4734   23.9123 H   0  0  0  0  0  0  0  0  0  0  0  0
   13.8503   15.5074   22.4455 H   0  0  0  0  0  0  0  0  0  0  0  0
   14.2280   12.0628   24.9725 H   0  0  0  0  0  0  0  0  0  0  0  0
   13.1123   13.3221   25.4885 H   0  0  0  0  0  0  0  0  0  0  0  0
   11.4748   14.9339   21.9981 H   0  0  0  0  0  0  0  0  0  0  0  0
   12.5863   13.6685   21.4621 H   0  0  0  0  0  0  0  0  0  0  0  0
   12.8283   11.4895   23.0574 H   0  0  0  0  0  0  0  0  0  0  0  0
   11.8587   11.4641   24.5341 H   0  0  0  0  0  0  0  0  0  0  0  0
    9.8975   13.1513   21.7260 H   0  0  0  0  0  0  0  0  0  0  0  0
   10.8734   11.6447   21.7944 H   0  0  0  0  0  0  0  0  0  0  0  0
   10.2743   13.1696   24.7764 H   0  0  0  0  0  0  0  0  0  0  0  0
  1  2  2  0  0  0  0
  1  3  1  0  0  0  0
  2 18  1  0  0  0  0
  3  4  2  0  0  0  0
  3  6  1  0  0  0  0
  4 14  1  0  0  0  0
  4 18  1  0  0  0  0
  5 14  2  0  0  0  0
  5 15  1  0  0  0  0
  6 15  1  0  0  0  0
  6 16  2  0  0  0  0
  7  8  1  0  0  0  0
  7  9  1  0  0  0  0
  8 10  1  0  0  0  0
  9 11  1  0  0  0  0
 10 12  1  0  0  0  0
 11 12  1  0  0  0  0
 12 13  1  0  0  0  0
 12 17  1  0  0  0  0
 13 15  1  0  0  0  0
  1 19  1  0  0  0  0
  2 20  1  0  0  0  0
  5 21  1  0  0  0  0
  7 22  1  0  0  0  0
  7 23  1  0  0  0  0
  8 24  1  0  0  0  0
  8 25  1  0  0  0  0
  9 26  1  0  0  0  0
  9 27  1  0  0  0  0
 10 28  1  0  0  0  0
 10 29  1  0  0  0  0
 11 30  1  0  0  0  0
 11 31  1  0  0  0  0
 13 32  1  0  0  0  0
 13 33  1  0  0  0  0
 17 34  1  0  0  0  0
M  END
> <Catalog ID>
Z822170624

> <PlateID>
1337959-R-09

> <Well>
B08

> <MW (desalted)>
264.343

> <CLogP>
1.916

> <HBD>
1

> <TPSA>
52.900

> <RotBonds>
2

> <ROCS_ShapeQuery>
A71EV2A-x0451_0A_A71EV2A-x0310_0A_A71EV2A-x0416_0A_peptide

> <ROCS_TanimotoCombo>
0.445 

> <ROCS_ShapeTanimoto>
0.309 

> <ROCS_ColorTanimoto>
0.136 

> <ROCS_RefTversky>
0.274 

> <ROCS_RefColorTversky>
0.152 

> <ROCS_RefTverskyCombo>
0.426 

> <ROCS_FitTversky>
1.688 

> <ROCS_FitColorTversky>
0.561 

> <ROCS_FitTverskyCombo>
2.249 

> <ROCS_ColorScore>
-4.627

> <ROCS_Overlap>
1902.986

> <ROCS_Rank>
96                  

$$$$
untitled-dbase-1106_1296
  -OEChem-11112309163D

 45 46  0     1  0  0  0  0  0999 V2000
   10.3677   12.8338   23.6007 C   0  0  0  0  0  0  0  0  0  0  0  0
   13.3678   11.9506   24.0305 C   0  0  0  0  0  0  0  0  0  0  0  0
   14.0380   13.1934   23.4595 C   0  0  0  0  0  0  0  0  0  0  0  0
    7.3554   11.8505   25.3103 C   0  0  0  0  0  0  0  0  0  0  0  0
   12.3331   11.3945   23.0538 C   0  0  0  0  0  0  0  0  0  0  0  0
    7.1930   10.3816   24.9214 C   0  0  0  0  0  0  0  0  0  0  0  0
    7.9658   12.6650   24.1737 C   0  0  0  0  0  0  0  0  0  0  0  0
   13.0094   14.2291   23.0065 C   0  0  0  0  0  0  0  0  0  0  0  0
    9.1016   10.6496   23.2862 C   0  0  0  0  0  0  0  0  0  0  0  0
   11.3623   12.4640   22.5385 C   0  0  2  0  0  0  0  0  0  0  0  0
    8.5176    9.8026   24.4195 C   0  0  2  0  0  0  0  0  0  0  0  0
   13.0238   15.7903   20.1467 C   0  0  0  0  0  0  0  0  0  0  0  0
   11.9098   15.9676   21.1687 C   0  0  0  0  0  0  0  0  0  0  0  0
   11.1821   14.6650   21.4786 C   0  0  0  0  0  0  0  0  0  0  0  0
    9.2078   12.0574   23.6933 N   0  0  0  0  0  0  0  0  0  0  0  0
   12.0705   13.6518   22.0409 N   0  0  1  0  0  0  0  0  0  0  0  0
    8.3053    8.4483   23.9564 N   0  0  0  0  0  0  0  0  0  0  0  0
   10.6296   13.7908   24.3247 O   0  0  0  0  0  0  0  0  0  0  0  0
   14.1267   11.1822   24.2370 H   0  0  0  0  0  0  0  0  0  0  0  0
   12.8877   12.1876   24.9893 H   0  0  0  0  0  0  0  0  0  0  0  0
   14.6995   13.6369   24.2180 H   0  0  0  0  0  0  0  0  0  0  0  0
   14.6765   12.9112   22.6116 H   0  0  0  0  0  0  0  0  0  0  0  0
    6.3799   12.2695   25.5815 H   0  0  0  0  0  0  0  0  0  0  0  0
    7.9948   11.9267   26.1984 H   0  0  0  0  0  0  0  0  0  0  0  0
   12.8532   10.9181   22.2052 H   0  0  0  0  0  0  0  0  0  0  0  0
   11.7773   10.5786   23.5504 H   0  0  0  0  0  0  0  0  0  0  0  0
    6.8301    9.8141   25.7871 H   0  0  0  0  0  0  0  0  0  0  0  0
    6.4235   10.3017   24.1419 H   0  0  0  0  0  0  0  0  0  0  0  0
    7.2760   12.7075   23.3225 H   0  0  0  0  0  0  0  0  0  0  0  0
    8.1351   13.6938   24.5068 H   0  0  0  0  0  0  0  0  0  0  0  0
   12.4682   14.5738   23.8926 H   0  0  0  0  0  0  0  0  0  0  0  0
   13.5301   15.0922   22.5786 H   0  0  0  0  0  0  0  0  0  0  0  0
   10.0677   10.2440   22.9779 H   0  0  0  0  0  0  0  0  0  0  0  0
    8.4490   10.6269   22.4038 H   0  0  0  0  0  0  0  0  0  0  0  0
   10.7670   12.0108   21.6868 H   0  0  0  0  0  0  0  0  0  0  0  0
    9.2333    9.7805   25.2492 H   0  0  0  0  0  0  0  0  0  0  0  0
   13.7699   15.0717   20.5005 H   0  0  0  0  0  0  0  0  0  0  0  0
   12.6134   15.4153   19.2036 H   0  0  0  0  0  0  0  0  0  0  0  0
   13.5293   16.7384   19.9390 H   0  0  0  0  0  0  0  0  0  0  0  0
   11.1869   16.6924   20.7766 H   0  0  0  0  0  0  0  0  0  0  0  0
   12.3291   16.3926   22.0884 H   0  0  0  0  0  0  0  0  0  0  0  0
   10.3930   14.8432   22.2159 H   0  0  0  0  0  0  0  0  0  0  0  0
   10.7201   14.2443   20.5799 H   0  0  0  0  0  0  0  0  0  0  0  0
    9.1775    8.0847   23.6546 H   0  0  0  0  0  0  0  0  0  0  0  0
    7.9450    7.9168   24.7125 H   0  0  0  0  0  0  0  0  0  0  0  0
  1 10  1  0  0  0  0
  1 15  1  0  0  0  0
  1 18  2  0  0  0  0
  2  3  1  0  0  0  0
  2  5  1  0  0  0  0
  3  8  1  0  0  0  0
  4  6  1  0  0  0  0
  4  7  1  0  0  0  0
  5 10  1  0  0  0  0
  6 11  1  0  0  0  0
  7 15  1  0  0  0  0
  8 16  1  0  0  0  0
  9 11  1  0  0  0  0
  9 15  1  0  0  0  0
 10 16  1  0  0  0  0
 11 17  1  0  0  0  0
 12 13  1  0  0  0  0
 13 14  1  0  0  0  0
 14 16  1  0  0  0  0
  2 19  1  0  0  0  0
  2 20  1  0  0  0  0
  3 21  1  0  0  0  0
  3 22  1  0  0  0  0
  4 23  1  0  0  0  0
  4 24  1  0  0  0  0
  5 25  1  0  0  0  0
  5 26  1  0  0  0  0
  6 27  1  0  0  0  0
  6 28  1  0  0  0  0
  7 29  1  0  0  0  0
  7 30  1  0  0  0  0
  8 31  1  0  0  0  0
  8 32  1  0  0  0  0
  9 33  1  0  0  0  0
  9 34  1  0  0  0  0
 10 35  1  0  0  0  0
 11 36  1  0  0  0  0
 12 37  1  0  0  0  0
 12 38  1  0  0  0  0
 12 39  1  0  0  0  0
 13 40  1  0  0  0  0
 13 41  1  0  0  0  0
 14 42  1  0  0  0  0
 14 43  1  0  0  0  0
 17 44  1  0  0  0  0
 17 45  1  0  0  0  0
M  END
> <Catalog ID>
Z2378870077

> <PlateID>
1337959-R-14

> <Well>
H02

> <MW (desalted)>
253.384

> <CLogP>
2.148

> <HBD>
1

> <TPSA>
49.570

> <RotBonds>
3

> <ROCS_ShapeQuery>
A71EV2A-x0451_0A_A71EV2A-x0310_0A_A71EV2A-x0416_0A_peptide

> <ROCS_TanimotoCombo>
0.444 

> <ROCS_ShapeTanimoto>
0.309 

> <ROCS_ColorTanimoto>
0.136 

> <ROCS_RefTversky>
0.273 

> <ROCS_RefColorTversky>
0.152 

> <ROCS_RefTverskyCombo>
0.425 

> <ROCS_FitTversky>
1.740 

> <ROCS_FitColorTversky>
0.561 

> <ROCS_FitTverskyCombo>
2.301 

> <ROCS_ColorScore>
-4.624

> <ROCS_Overlap>
1892.541

> <ROCS_Rank>
97                  

$$$$
untitled-dbase-1020_41
  -OEChem-11112309163D

 39 41  0     1  0  0  0  0  0999 V2000
   11.3283   14.4041   20.2138 C   0  0  0  0  0  0  0  0  0  0  0  0
   12.1360   15.1075   21.1074 C   0  0  0  0  0  0  0  0  0  0  0  0
   10.2747   13.6245   20.6911 C   0  0  0  0  0  0  0  0  0  0  0  0
   11.8902   15.0311   22.4783 C   0  0  0  0  0  0  0  0  0  0  0  0
   10.0289   13.5482   22.0620 C   0  0  0  0  0  0  0  0  0  0  0  0
   10.8366   14.2515   22.9556 C   0  0  0  0  0  0  0  0  0  0  0  0
    6.8788   12.5457   26.3157 C   0  0  0  0  0  0  0  0  0  0  0  0
    8.2122   11.7923   26.1332 C   0  0  0  0  0  0  0  0  0  0  0  0
    7.0372   13.0368   24.8622 C   0  0  0  0  0  0  0  0  0  0  0  0
   10.0302   10.9632   23.8071 C   0  0  0  0  0  0  0  0  0  0  0  0
    9.3143    9.7308   23.2562 C   0  0  0  0  0  0  0  0  0  0  0  0
    7.2379   10.5241   24.0534 C   0  0  0  0  0  0  0  0  0  0  0  0
    7.9140   11.7750   24.5978 C   0  0  0  0  0  0  0  0  0  0  0  0
   11.4845   14.9375   25.1386 C   0  0  0  0  0  0  0  0  0  0  0  0
    8.8907   12.7038   22.5577 C   0  0  0  0  0  0  0  0  0  0  0  0
    9.1581   12.1489   23.8873 N   0  0  2  0  0  0  0  0  0  0  0  0
    8.1648    9.4342   24.0489 O   0  0  0  0  0  0  0  0  0  0  0  0
   10.6106   14.1871   24.2977 O   0  0  0  0  0  0  0  0  0  0  0  0
   11.5196   14.4628   19.1461 H   0  0  0  0  0  0  0  0  0  0  0  0
   12.9567   15.7136   20.7354 H   0  0  0  0  0  0  0  0  0  0  0  0
    9.6521   13.0791   19.9868 H   0  0  0  0  0  0  0  0  0  0  0  0
   12.5229   15.5812   23.1695 H   0  0  0  0  0  0  0  0  0  0  0  0
    6.0148   11.8901   26.4728 H   0  0  0  0  0  0  0  0  0  0  0  0
    6.8750   13.3251   27.0819 H   0  0  0  0  0  0  0  0  0  0  0  0
    9.0731   12.3923   26.4491 H   0  0  0  0  0  0  0  0  0  0  0  0
    8.2659   10.8164   26.6212 H   0  0  0  0  0  0  0  0  0  0  0  0
    6.1030   13.1114   24.2947 H   0  0  0  0  0  0  0  0  0  0  0  0
    7.5555   14.0040   24.7982 H   0  0  0  0  0  0  0  0  0  0  0  0
   10.4663   10.7403   24.7882 H   0  0  0  0  0  0  0  0  0  0  0  0
   10.8756   11.2038   23.1501 H   0  0  0  0  0  0  0  0  0  0  0  0
    8.9675    9.9325   22.2374 H   0  0  0  0  0  0  0  0  0  0  0  0
    9.9669    8.8520   23.2095 H   0  0  0  0  0  0  0  0  0  0  0  0
    6.3517   10.2454   24.6351 H   0  0  0  0  0  0  0  0  0  0  0  0
    6.9047   10.6698   23.0205 H   0  0  0  0  0  0  0  0  0  0  0  0
   11.1946   14.7986   26.1830 H   0  0  0  0  0  0  0  0  0  0  0  0
   11.4288   15.9958   24.8715 H   0  0  0  0  0  0  0  0  0  0  0  0
   12.5075   14.5812   24.9963 H   0  0  0  0  0  0  0  0  0  0  0  0
    7.9697   13.2938   22.6175 H   0  0  0  0  0  0  0  0  0  0  0  0
    8.6973   11.8669   21.8784 H   0  0  0  0  0  0  0  0  0  0  0  0
  1  2  2  0  0  0  0
  1  3  1  0  0  0  0
  2  4  1  0  0  0  0
  3  5  2  0  0  0  0
  4  6  2  0  0  0  0
  5  6  1  0  0  0  0
  5 15  1  0  0  0  0
  6 18  1  0  0  0  0
  7  8  1  0  0  0  0
  7  9  1  0  0  0  0
  8 13  1  0  0  0  0
  9 13  1  0  0  0  0
 10 11  1  0  0  0  0
 10 16  1  0  0  0  0
 11 17  1  0  0  0  0
 12 13  1  0  0  0  0
 12 17  1  0  0  0  0
 13 16  1  0  0  0  0
 14 18  1  0  0  0  0
 15 16  1  0  0  0  0
  1 19  1  0  0  0  0
  2 20  1  0  0  0  0
  3 21  1  0  0  0  0
  4 22  1  0  0  0  0
  7 23  1  0  0  0  0
  7 24  1  0  0  0  0
  8 25  1  0  0  0  0
  8 26  1  0  0  0  0
  9 27  1  0  0  0  0
  9 28  1  0  0  0  0
 10 29  1  0  0  0  0
 10 30  1  0  0  0  0
 11 31  1  0  0  0  0
 11 32  1  0  0  0  0
 12 33  1  0  0  0  0
 12 34  1  0  0  0  0
 14 35  1  0  0  0  0
 14 36  1  0  0  0  0
 14 37  1  0  0  0  0
 15 38  1  0  0  0  0
 15 39  1  0  0  0  0
M  END
> <Catalog ID>
Z1569171509

> <PlateID>
1337959-R-13

> <Well>
G05

> <MW (desalted)>
247.333

> <CLogP>
2.681

> <HBD>
0

> <TPSA>
21.700

> <RotBonds>
3

> <ROCS_ShapeQuery>
A71EV2A-x0451_0A_A71EV2A-x0310_0A_A71EV2A-x0416_0A_peptide

> <ROCS_TanimotoCombo>
0.444 

> <ROCS_ShapeTanimoto>
0.304 

> <ROCS_ColorTanimoto>
0.141 

> <ROCS_RefTversky>
0.271 

> <ROCS_RefColorTversky>
0.153 

> <ROCS_RefTverskyCombo>
0.424 

> <ROCS_FitTversky>
1.668 

> <ROCS_FitColorTversky>
0.638 

> <ROCS_FitTverskyCombo>
2.305 

> <ROCS_ColorScore>
-4.648

> <ROCS_Overlap>
1877.953

> <ROCS_Rank>
98                  

$$$$
untitled-dbase-1019_72
  -OEChem-11112309163D

 31 32  0     1  0  0  0  0  0999 V2000
    5.8401    9.1094   24.9084 C   0  0  0  0  0  0  0  0  0  0  0  0
    5.5573   10.3469   25.4790 C   0  0  0  0  0  0  0  0  0  0  0  0
    7.0123    8.9307   24.1732 C   0  0  0  0  0  0  0  0  0  0  0  0
    6.4456   11.4104   25.3166 C   0  0  0  0  0  0  0  0  0  0  0  0
    9.1024    9.8281   23.2627 C   0  0  0  0  0  0  0  0  0  0  0  0
    9.9906   10.8916   23.1002 C   0  0  0  0  0  0  0  0  0  0  0  0
    8.5356   12.3079   24.4060 C   0  0  0  0  0  0  0  0  0  0  0  0
    7.9178    9.9901   23.9995 C   0  0  0  0  0  0  0  0  0  0  0  0
    7.6302   11.2485   24.5797 C   0  0  0  0  0  0  0  0  0  0  0  0
    9.7078   12.1291   23.6708 C   0  0  0  0  0  0  0  0  0  0  0  0
   10.8375   15.6731   21.8929 C   0  0  0  0  0  0  0  0  0  0  0  0
    8.7559   14.2948   21.9099 C   0  0  0  0  0  0  0  0  0  0  0  0
   10.2744   14.2671   21.9792 C   0  0  2  0  0  0  0  0  0  0  0  0
   10.0490   16.5215   21.1452 N   0  0  0  0  0  0  0  0  0  0  0  0
   11.8786   16.0258   22.4411 O   0  0  0  0  0  0  0  0  0  0  0  0
   10.6259   14.3816   24.5749 O   0  0  0  0  0  0  0  0  0  0  0  0
   12.1488   12.9247   23.1951 O   0  0  0  0  0  0  0  0  0  0  0  0
   10.8212   13.4588   23.4660 S   0  0  0  0  0  0  0  0  0  0  0  0
    5.1485    8.2817   25.0362 H   0  0  0  0  0  0  0  0  0  0  0  0
    4.6452   10.4848   26.0522 H   0  0  0  0  0  0  0  0  0  0  0  0
    7.2131    7.9546   23.7364 H   0  0  0  0  0  0  0  0  0  0  0  0
    6.2041   12.3687   25.7716 H   0  0  0  0  0  0  0  0  0  0  0  0
    9.3443    8.8694   22.8090 H   0  0  0  0  0  0  0  0  0  0  0  0
   10.9008   10.7421   22.5253 H   0  0  0  0  0  0  0  0  0  0  0  0
    8.3250   13.2800   24.8485 H   0  0  0  0  0  0  0  0  0  0  0  0
    8.3321   14.8903   22.7252 H   0  0  0  0  0  0  0  0  0  0  0  0
    8.4148   14.7251   20.9624 H   0  0  0  0  0  0  0  0  0  0  0  0
    8.3382   13.2846   21.9862 H   0  0  0  0  0  0  0  0  0  0  0  0
   10.6755   13.6664   21.1548 H   0  0  0  0  0  0  0  0  0  0  0  0
    9.1856   16.2169   20.7071 H   0  0  0  0  0  0  0  0  0  0  0  0
   10.3117   17.4918   21.0083 H   0  0  0  0  0  0  0  0  0  0  0  0
  1  2  1  0  0  0  0
  1  3  2  0  0  0  0
  2  4  2  0  0  0  0
  3  8  1  0  0  0  0
  4  9  1  0  0  0  0
  5  6  1  0  0  0  0
  5  8  2  0  0  0  0
  6 10  2  0  0  0  0
  7  9  2  0  0  0  0
  7 10  1  0  0  0  0
  8  9  1  0  0  0  0
 10 18  1  0  0  0  0
 11 13  1  0  0  0  0
 11 14  1  0  0  0  0
 11 15  2  0  0  0  0
 12 13  1  0  0  0  0
 13 18  1  0  0  0  0
 16 18  2  0  0  0  0
 17 18  2  0  0  0  0
  1 19  1  0  0  0  0
  2 20  1  0  0  0  0
  3 21  1  0  0  0  0
  4 22  1  0  0  0  0
  5 23  1  0  0  0  0
  6 24  1  0  0  0  0
  7 25  1  0  0  0  0
 12 26  1  0  0  0  0
 12 27  1  0  0  0  0
 12 28  1  0  0  0  0
 13 29  1  0  0  0  0
 14 30  1  0  0  0  0
 14 31  1  0  0  0  0
M  END
> <Catalog ID>
Z432527278

> <PlateID>
1337959-R-13

> <Well>
G04

> <MW (desalted)>
263.312

> <CLogP>
0.978

> <HBD>
1

> <TPSA>
77.230

> <RotBonds>
3

> <ROCS_ShapeQuery>
A71EV2A-x0451_0A_A71EV2A-x0310_0A_A71EV2A-x0416_0A_peptide

> <ROCS_TanimotoCombo>
0.444 

> <ROCS_ShapeTanimoto>
0.299 

> <ROCS_ColorTanimoto>
0.145 

> <ROCS_RefTversky>
0.267 

> <ROCS_RefColorTversky>
0.157 

> <ROCS_RefTverskyCombo>
0.424 

> <ROCS_FitTversky>
1.670 

> <ROCS_FitColorTversky>
0.657 

> <ROCS_FitTverskyCombo>
2.327 

> <ROCS_ColorScore>
-4.789

> <ROCS_Overlap>
1850.163

> <ROCS_Rank>
99                  

$$$$
untitled-dbase-819_108
  -OEChem-11112309163D

 34 35  0     0  0  0  0  0  0999 V2000
    9.3920    9.6757   23.0525 C   0  0  0  0  0  0  0  0  0  0  0  0
   10.2624   10.7581   22.9244 C   0  0  0  0  0  0  0  0  0  0  0  0
    8.8317   12.0780   24.3555 C   0  0  0  0  0  0  0  0  0  0  0  0
    7.9613   10.9956   24.4836 C   0  0  0  0  0  0  0  0  0  0  0  0
    8.2414    9.7944   23.8321 C   0  0  0  0  0  0  0  0  0  0  0  0
    9.9823   11.9592   23.5758 C   0  0  0  0  0  0  0  0  0  0  0  0
   11.4792   16.4064   20.8252 C   0  0  0  0  0  0  0  0  0  0  0  0
   10.2409   16.1531   21.6829 C   0  0  0  0  0  0  0  0  0  0  0  0
   12.5531   15.3511   21.0828 C   0  0  0  0  0  0  0  0  0  0  0  0
    9.7241   14.7304   21.5023 C   0  0  0  0  0  0  0  0  0  0  0  0
   11.9967   13.9421   20.9123 C   0  0  0  0  0  0  0  0  0  0  0  0
    6.6140   12.3685   25.8820 C   0  0  0  0  0  0  0  0  0  0  0  0
   10.8034   13.7427   21.7810 N   0  0  0  0  0  0  0  0  0  0  0  0
   10.5936   14.3947   24.2600 O   0  0  0  0  0  0  0  0  0  0  0  0
   12.4361   12.8322   23.5450 O   0  0  0  0  0  0  0  0  0  0  0  0
    6.8385   11.1122   25.2441 O   0  0  0  0  0  0  0  0  0  0  0  0
    7.4078    8.7518   23.9500 F   0  0  0  0  0  0  0  0  0  0  0  0
   11.0837   13.3289   23.4134 S   0  0  0  0  0  0  0  0  0  0  0  0
    9.6091    8.7404   22.5451 H   0  0  0  0  0  0  0  0  0  0  0  0
   11.1559   10.6542   22.3145 H   0  0  0  0  0  0  0  0  0  0  0  0
    8.6092   13.0124   24.8653 H   0  0  0  0  0  0  0  0  0  0  0  0
   11.1991   16.3934   19.7632 H   0  0  0  0  0  0  0  0  0  0  0  0
   11.8807   17.4051   21.0373 H   0  0  0  0  0  0  0  0  0  0  0  0
   10.4934   16.3207   22.7372 H   0  0  0  0  0  0  0  0  0  0  0  0
    9.4558   16.8703   21.4202 H   0  0  0  0  0  0  0  0  0  0  0  0
   13.3940   15.5042   20.3977 H   0  0  0  0  0  0  0  0  0  0  0  0
   12.9396   15.4724   22.1023 H   0  0  0  0  0  0  0  0  0  0  0  0
    8.8885   14.5649   22.1979 H   0  0  0  0  0  0  0  0  0  0  0  0
    9.3442   14.5841   20.4797 H   0  0  0  0  0  0  0  0  0  0  0  0
   11.7245   13.7581   19.8619 H   0  0  0  0  0  0  0  0  0  0  0  0
   12.7757   13.2168   21.1893 H   0  0  0  0  0  0  0  0  0  0  0  0
    5.6852   12.3256   26.4562 H   0  0  0  0  0  0  0  0  0  0  0  0
    6.5517   13.1558   25.1264 H   0  0  0  0  0  0  0  0  0  0  0  0
    7.4473   12.5787   26.5565 H   0  0  0  0  0  0  0  0  0  0  0  0
  1  2  1  0  0  0  0
  1  5  2  0  0  0  0
  2  6  2  0  0  0  0
  3  4  2  0  0  0  0
  3  6  1  0  0  0  0
  4  5  1  0  0  0  0
  4 16  1  0  0  0  0
  5 17  1  0  0  0  0
  6 18  1  0  0  0  0
  7  8  1  0  0  0  0
  7  9  1  0  0  0  0
  8 10  1  0  0  0  0
  9 11  1  0  0  0  0
 10 13  1  0  0  0  0
 11 13  1  0  0  0  0
 12 16  1  0  0  0  0
 13 18  1  0  0  0  0
 14 18  2  0  0  0  0
 15 18  2  0  0  0  0
  1 19  1  0  0  0  0
  2 20  1  0  0  0  0
  3 21  1  0  0  0  0
  7 22  1  0  0  0  0
  7 23  1  0  0  0  0
  8 24  1  0  0  0  0
  8 25  1  0  0  0  0
  9 26  1  0  0  0  0
  9 27  1  0  0  0  0
 10 28  1  0  0  0  0
 10 29  1  0  0  0  0
 11 30  1  0  0  0  0
 11 31  1  0  0  0  0
 12 32  1  0  0  0  0
 12 33  1  0  0  0  0
 12 34  1  0  0  0  0
M  END
> <Catalog ID>
Z57464510

> <PlateID>
1337959-R-11

> <Well>
C02

> <MW (desalted)>
273.324

> <CLogP>
2.691

> <HBD>
0

> <TPSA>
46.610

> <RotBonds>
2

> <ROCS_ShapeQuery>
A71EV2A-x0451_0A_A71EV2A-x0310_0A_A71EV2A-x0416_0A_peptide

> <ROCS_TanimotoCombo>
0.444 

> <ROCS_ShapeTanimoto>
0.323 

> <ROCS_ColorTanimoto>
0.121 

> <ROCS_RefTversky>
0.283 

> <ROCS_RefColorTversky>
0.131 

> <ROCS_RefTverskyCombo>
0.413 

> <ROCS_FitTversky>
1.791 

> <ROCS_FitColorTversky>
0.626 

> <ROCS_FitTverskyCombo>
2.417 

> <ROCS_ColorScore>
-3.966

> <ROCS_Overlap>
1960.426

> <ROCS_Rank>
100                 

$$$$
untitled-dbase-399_133
  -OEChem-11112309163D

 34 35  0     0  0  0  0  0  0999 V2000
    9.5724    9.4456   23.7354 C   0  0  0  0  0  0  0  0  0  0  0  0
   10.4516   10.5115   23.5441 C   0  0  0  0  0  0  0  0  0  0  0  0
    8.7344   12.0553   24.2547 C   0  0  0  0  0  0  0  0  0  0  0  0
    7.8552   10.9893   24.4459 C   0  0  0  0  0  0  0  0  0  0  0  0
    8.2742    9.6845   24.1862 C   0  0  0  0  0  0  0  0  0  0  0  0
   10.0326   11.8163   23.8038 C   0  0  0  0  0  0  0  0  0  0  0  0
   11.2074   16.5045   21.1997 C   0  0  0  0  0  0  0  0  0  0  0  0
   10.9563   15.7997   19.8650 C   0  0  0  0  0  0  0  0  0  0  0  0
   10.1784   15.9354   22.1750 C   0  0  0  0  0  0  0  0  0  0  0  0
    9.7902   14.8431   20.1081 C   0  0  0  0  0  0  0  0  0  0  0  0
    9.8167   14.5644   21.6091 C   0  0  0  0  0  0  0  0  0  0  0  0
    6.3807   11.2229   26.2972 C   0  0  0  0  0  0  0  0  0  0  0  0
   10.8449   13.5792   21.9367 N   0  0  0  0  0  0  0  0  0  0  0  0
   10.7217   14.2571   24.4185 O   0  0  0  0  0  0  0  0  0  0  0  0
   12.4903   12.6322   23.6727 O   0  0  0  0  0  0  0  0  0  0  0  0
    6.5885   11.2232   24.8856 O   0  0  0  0  0  0  0  0  0  0  0  0
    7.4333    8.6567   24.3664 F   0  0  0  0  0  0  0  0  0  0  0  0
   11.1468   13.1670   23.5611 S   0  0  0  0  0  0  0  0  0  0  0  0
    9.8977    8.4294   23.5328 H   0  0  0  0  0  0  0  0  0  0  0  0
   11.4607   10.3135   23.1926 H   0  0  0  0  0  0  0  0  0  0  0  0
    8.4033   13.0708   24.4587 H   0  0  0  0  0  0  0  0  0  0  0  0
   12.2280   16.3431   21.5598 H   0  0  0  0  0  0  0  0  0  0  0  0
   11.0651   17.5847   21.0836 H   0  0  0  0  0  0  0  0  0  0  0  0
   10.6902   16.5373   19.0996 H   0  0  0  0  0  0  0  0  0  0  0  0
   11.8428   15.2639   19.5124 H   0  0  0  0  0  0  0  0  0  0  0  0
   10.6252   15.8449   23.1783 H   0  0  0  0  0  0  0  0  0  0  0  0
    9.2993   16.5881   22.2756 H   0  0  0  0  0  0  0  0  0  0  0  0
    8.8309   15.2701   19.7819 H   0  0  0  0  0  0  0  0  0  0  0  0
    9.9392   13.9160   19.5314 H   0  0  0  0  0  0  0  0  0  0  0  0
    8.8435   14.2338   21.9675 H   0  0  0  0  0  0  0  0  0  0  0  0
    5.3277   11.4216   26.5112 H   0  0  0  0  0  0  0  0  0  0  0  0
    7.0084   11.9892   26.7589 H   0  0  0  0  0  0  0  0  0  0  0  0
    6.6526   10.2428   26.6963 H   0  0  0  0  0  0  0  0  0  0  0  0
   11.0596   12.8957   21.2024 H   0  0  0  0  0  0  0  0  0  0  0  0
  1  2  1  0  0  0  0
  1  5  2  0  0  0  0
  2  6  2  0  0  0  0
  3  4  2  0  0  0  0
  3  6  1  0  0  0  0
  4  5  1  0  0  0  0
  4 16  1  0  0  0  0
  5 17  1  0  0  0  0
  6 18  1  0  0  0  0
  7  8  1  0  0  0  0
  7  9  1  0  0  0  0
  8 10  1  0  0  0  0
  9 11  1  0  0  0  0
 10 11  1  0  0  0  0
 11 13  1  0  0  0  0
 12 16  1  0  0  0  0
 13 18  1  0  0  0  0
 14 18  2  0  0  0  0
 15 18  2  0  0  0  0
  1 19  1  0  0  0  0
  2 20  1  0  0  0  0
  3 21  1  0  0  0  0
  7 22  1  0  0  0  0
  7 23  1  0  0  0  0
  8 24  1  0  0  0  0
  8 25  1  0  0  0  0
  9 26  1  0  0  0  0
  9 27  1  0  0  0  0
 10 28  1  0  0  0  0
 10 29  1  0  0  0  0
 11 30  1  0  0  0  0
 12 31  1  0  0  0  0
 12 32  1  0  0  0  0
 12 33  1  0  0  0  0
 13 34  1  0  0  0  0
M  END
> <Catalog ID>
Z274526588

> <PlateID>
1337959-R-05

> <Well>
H11

> <MW (desalted)>
273.324

> <CLogP>
2.811

> <HBD>
1

> <TPSA>
55.400

> <RotBonds>
3

> <ROCS_ShapeQuery>
A71EV2A-x0451_0A_A71EV2A-x0310_0A_A71EV2A-x0416_0A_peptide

> <ROCS_TanimotoCombo>
0.444 

> <ROCS_ShapeTanimoto>
0.306 

> <ROCS_ColorTanimoto>
0.138 

> <ROCS_RefTversky>
0.271 

> <ROCS_RefColorTversky>
0.150 

> <ROCS_RefTverskyCombo>
0.422 

> <ROCS_FitTversky>
1.721 

> <ROCS_FitColorTversky>
0.627 

> <ROCS_FitTverskyCombo>
2.347 

> <ROCS_ColorScore>
-4.568

> <ROCS_Overlap>
1882.323

> <ROCS_Rank>
101                 

$$$$
untitled-dbase-1031_187
  -OEChem-11112309163D

 38 38  0     0  0  0  0  0  0999 V2000
    9.2745   11.5901   23.3107 C   0  0  0  0  0  0  0  0  0  0  0  0
    9.2585   10.1949   23.4978 C   0  0  0  0  0  0  0  0  0  0  0  0
    8.2112   12.0479   24.0498 C   0  0  0  0  0  0  0  0  0  0  0  0
   10.1817    9.1946   22.9324 C   0  0  0  0  0  0  0  0  0  0  0  0
    7.6913   13.4113   24.2682 C   0  0  0  0  0  0  0  0  0  0  0  0
    5.2275   11.3999   24.7762 C   0  0  0  0  0  0  0  0  0  0  0  0
    6.7367   11.6541   26.7921 C   0  0  0  0  0  0  0  0  0  0  0  0
   12.8685   15.4211   22.5365 C   0  0  0  0  0  0  0  0  0  0  0  0
   10.6166   15.1323   21.4561 C   0  0  0  0  0  0  0  0  0  0  0  0
    6.4914   10.9041   25.4814 C   0  0  0  0  0  0  0  0  0  0  0  0
   11.8336   14.4253   22.0341 C   0  0  0  0  0  0  0  0  0  0  0  0
    8.2639    9.7928   24.2934 N   0  0  0  0  0  0  0  0  0  0  0  0
    7.6451   10.9422   24.6129 N   0  0  0  0  0  0  0  0  0  0  0  0
   10.2064   12.3471   22.5179 N   0  0  0  0  0  0  0  0  0  0  0  0
   10.6231   14.1325   24.3180 O   0  0  0  0  0  0  0  0  0  0  0  0
   12.5081   12.5632   23.7445 O   0  0  0  0  0  0  0  0  0  0  0  0
   11.3455   13.3335   23.3433 S   0  0  0  0  0  0  0  0  0  0  0  0
   11.0448    9.0264   23.5984 H   0  0  0  0  0  0  0  0  0  0  0  0
    9.6900    8.2192   22.7710 H   0  0  0  0  0  0  0  0  0  0  0  0
   10.5754    9.5019   21.9475 H   0  0  0  0  0  0  0  0  0  0  0  0
    6.9377   13.6763   23.5082 H   0  0  0  0  0  0  0  0  0  0  0  0
    7.2193   13.5210   25.2598 H   0  0  0  0  0  0  0  0  0  0  0  0
    8.4906   14.1713   24.2262 H   0  0  0  0  0  0  0  0  0  0  0  0
    5.3084   12.4525   24.4846 H   0  0  0  0  0  0  0  0  0  0  0  0
    4.3570   11.3027   25.4337 H   0  0  0  0  0  0  0  0  0  0  0  0
    5.0320   10.8166   23.8695 H   0  0  0  0  0  0  0  0  0  0  0  0
    6.9089   12.7198   26.6057 H   0  0  0  0  0  0  0  0  0  0  0  0
    7.6185   11.2546   27.3044 H   0  0  0  0  0  0  0  0  0  0  0  0
    5.8865   11.5685   27.4772 H   0  0  0  0  0  0  0  0  0  0  0  0
   12.4429   16.0719   23.3072 H   0  0  0  0  0  0  0  0  0  0  0  0
   13.7388   14.9100   22.9628 H   0  0  0  0  0  0  0  0  0  0  0  0
   13.2272   16.0557   21.7190 H   0  0  0  0  0  0  0  0  0  0  0  0
   10.1467   15.7775   22.2055 H   0  0  0  0  0  0  0  0  0  0  0  0
    9.8678   14.4135   21.1055 H   0  0  0  0  0  0  0  0  0  0  0  0
   10.8987   15.7568   20.6017 H   0  0  0  0  0  0  0  0  0  0  0  0
    6.3271    9.8494   25.7373 H   0  0  0  0  0  0  0  0  0  0  0  0
   12.2840   13.7877   21.2656 H   0  0  0  0  0  0  0  0  0  0  0  0
   10.5799   11.8281   21.7116 H   0  0  0  0  0  0  0  0  0  0  0  0
  1  2  1  0  0  0  0
  1  3  2  0  0  0  0
  1 14  1  0  0  0  0
  2  4  1  0  0  0  0
  2 12  2  0  0  0  0
  3  5  1  0  0  0  0
  3 13  1  0  0  0  0
  6 10  1  0  0  0  0
  7 10  1  0  0  0  0
  8 11  1  0  0  0  0
  9 11  1  0  0  0  0
 10 13  1  0  0  0  0
 11 17  1  0  0  0  0
 12 13  1  0  0  0  0
 14 17  1  0  0  0  0
 15 17  2  0  0  0  0
 16 17  2  0  0  0  0
  4 18  1  0  0  0  0
  4 19  1  0  0  0  0
  4 20  1  0  0  0  0
  5 21  1  0  0  0  0
  5 22  1  0  0  0  0
  5 23  1  0  0  0  0
  6 24  1  0  0  0  0
  6 25  1  0  0  0  0
  6 26  1  0  0  0  0
  7 27  1  0  0  0  0
  7 28  1  0  0  0  0
  7 29  1  0  0  0  0
  8 30  1  0  0  0  0
  8 31  1  0  0  0  0
  8 32  1  0  0  0  0
  9 33  1  0  0  0  0
  9 34  1  0  0  0  0
  9 35  1  0  0  0  0
 10 36  1  0  0  0  0
 11 37  1  0  0  0  0
 14 38  1  0  0  0  0
M  END
> <Catalog ID>
Z1065887986

> <PlateID>
1337959-R-13

> <Well>
H06

> <MW (desalted)>
259.368

> <CLogP>
0.469

> <HBD>
1

> <TPSA>
63.990

> <RotBonds>
3

> <ROCS_ShapeQuery>
A71EV2A-x0451_0A_A71EV2A-x0310_0A_A71EV2A-x0416_0A_peptide

> <ROCS_TanimotoCombo>
0.444 

> <ROCS_ShapeTanimoto>
0.318 

> <ROCS_ColorTanimoto>
0.126 

> <ROCS_RefTversky>
0.277 

> <ROCS_RefColorTversky>
0.142 

> <ROCS_RefTverskyCombo>
0.420 

> <ROCS_FitTversky>
1.853 

> <ROCS_FitColorTversky>
0.526 

> <ROCS_FitTverskyCombo>
2.380 

> <ROCS_ColorScore>
-4.337

> <ROCS_Overlap>
1921.951

> <ROCS_Rank>
102                 

$$$$
untitled-dbase-4_184
  -OEChem-11112309163D

 37 38  0     1  0  0  0  0  0999 V2000
    8.1156   12.2508   24.1799 C   0  0  0  0  0  0  0  0  0  0  0  0
    9.5195   12.2548   23.7168 C   0  0  0  0  0  0  0  0  0  0  0  0
   10.0135   11.0563   23.3664 C   0  0  0  0  0  0  0  0  0  0  0  0
    7.9180    9.9696   24.3198 C   0  0  0  0  0  0  0  0  0  0  0  0
   10.2664   13.5248   23.6228 C   0  0  0  0  0  0  0  0  0  0  0  0
    9.1775    9.8099   23.4865 C   0  0  0  0  0  0  0  0  0  0  0  0
    9.1078   14.2324   21.4584 C   0  0  0  0  0  0  0  0  0  0  0  0
   11.3573   15.0163   21.9902 C   0  0  0  0  0  0  0  0  0  0  0  0
    8.6373   15.6642   21.1781 C   0  0  1  0  0  0  0  0  0  0  0  0
   10.9493   16.4681   21.7085 C   0  0  2  0  0  0  0  0  0  0  0  0
   11.3914   10.7970   22.8165 C   0  0  0  0  0  0  0  0  0  0  0  0
    7.7232   16.1903   22.2866 C   0  0  0  0  0  0  0  0  0  0  0  0
   10.8476   17.2880   22.9971 C   0  0  0  0  0  0  0  0  0  0  0  0
    7.3787   11.2271   24.4486 N   0  0  0  0  0  0  0  0  0  0  0  0
    9.7472   16.5741   20.8746 N   0  0  0  0  0  0  0  0  0  0  0  0
   10.2110   14.2216   22.4211 N   0  0  0  0  0  0  0  0  0  0  0  0
    7.3812    8.9703   24.7985 O   0  0  0  0  0  0  0  0  0  0  0  0
   10.8912   13.8942   24.6186 O   0  0  0  0  0  0  0  0  0  0  0  0
    7.6645   13.2492   24.3073 H   0  0  0  0  0  0  0  0  0  0  0  0
    8.8812    9.4647   22.4896 H   0  0  0  0  0  0  0  0  0  0  0  0
    9.7732    9.0222   23.9642 H   0  0  0  0  0  0  0  0  0  0  0  0
    8.3034   13.6299   21.8911 H   0  0  0  0  0  0  0  0  0  0  0  0
    9.4027   13.7759   20.5144 H   0  0  0  0  0  0  0  0  0  0  0  0
   11.8186   14.5804   21.1019 H   0  0  0  0  0  0  0  0  0  0  0  0
   12.0946   14.9710   22.7975 H   0  0  0  0  0  0  0  0  0  0  0  0
    7.9870   15.6108   20.2397 H   0  0  0  0  0  0  0  0  0  0  0  0
   11.8124   16.9384   21.1166 H   0  0  0  0  0  0  0  0  0  0  0  0
   12.0732   10.6035   23.6389 H   0  0  0  0  0  0  0  0  0  0  0  0
   11.7232   11.6676   22.2587 H   0  0  0  0  0  0  0  0  0  0  0  0
   11.3558    9.9361   22.1556 H   0  0  0  0  0  0  0  0  0  0  0  0
    8.2808   16.2676   23.2184 H   0  0  0  0  0  0  0  0  0  0  0  0
    6.8854   15.5097   22.4273 H   0  0  0  0  0  0  0  0  0  0  0  0
    7.3431   17.1736   22.0152 H   0  0  0  0  0  0  0  0  0  0  0  0
   10.0427   16.8995   23.6187 H   0  0  0  0  0  0  0  0  0  0  0  0
   10.6416   18.3294   22.7561 H   0  0  0  0  0  0  0  0  0  0  0  0
   11.7849   17.2274   23.5475 H   0  0  0  0  0  0  0  0  0  0  0  0
   10.0189   16.4546   19.8710 H   0  0  0  0  0  0  0  0  0  0  0  0
  1  2  1  0  0  0  0
  1 14  2  0  0  0  0
  2  3  2  0  0  0  0
  2  5  1  0  0  0  0
  3  6  1  0  0  0  0
  3 11  1  0  0  0  0
  4  6  1  0  0  0  0
  4 14  1  0  0  0  0
  4 17  2  0  0  0  0
  5 16  1  0  0  0  0
  5 18  2  0  0  0  0
  7  9  1  0  0  0  0
  7 16  1  0  0  0  0
  8 10  1  0  0  0  0
  8 16  1  0  0  0  0
  9 12  1  0  0  0  0
  9 15  1  0  0  0  0
 10 13  1  0  0  0  0
 10 15  1  0  0  0  0
  1 19  1  0  0  0  0
  6 20  1  0  0  0  0
  6 21  1  0  0  0  0
  7 22  1  0  0  0  0
  7 23  1  0  0  0  0
  8 24  1  0  0  0  0
  8 25  1  0  0  0  0
  9 26  1  0  0  0  0
 10 27  1  0  0  0  0
 11 28  1  0  0  0  0
 11 29  1  0  0  0  0
 11 30  1  0  0  0  0
 12 31  1  0  0  0  0
 12 32  1  0  0  0  0
 12 33  1  0  0  0  0
 13 34  1  0  0  0  0
 13 35  1  0  0  0  0
 13 36  1  0  0  0  0
 15 37  1  0  0  0  0
M  END
> <Catalog ID>
Z2242915106

> <PlateID>
1337959-R-01

> <Well>
A05

> <MW (desalted)>
249.309

> <CLogP>
0.073

> <HBD>
2

> <TPSA>
61.440

> <RotBonds>
1

> <ROCS_ShapeQuery>
A71EV2A-x0451_0A_A71EV2A-x0310_0A_A71EV2A-x0416_0A_peptide

> <ROCS_TanimotoCombo>
0.444 

> <ROCS_ShapeTanimoto>
0.265 

> <ROCS_ColorTanimoto>
0.179 

> <ROCS_RefTversky>
0.243 

> <ROCS_RefColorTversky>
0.198 

> <ROCS_RefTverskyCombo>
0.441 

> <ROCS_FitTversky>
1.516 

> <ROCS_FitColorTversky>
0.656 

> <ROCS_FitTverskyCombo>
2.172 

> <ROCS_ColorScore>
-6.037

> <ROCS_Overlap>
1684.021

> <ROCS_Rank>
103                 

$$$$
untitled-dbase-649_357
  -OEChem-11112309163D

 33 33  0     1  0  0  0  0  0999 V2000
    7.6421    9.9468   24.1870 C   0  0  0  0  0  0  0  0  0  0  0  0
    8.7171    9.6613   23.3453 C   0  0  0  0  0  0  0  0  0  0  0  0
    8.6207   12.0932   24.7088 C   0  0  0  0  0  0  0  0  0  0  0  0
    7.5939   11.1628   24.8687 C   0  0  0  0  0  0  0  0  0  0  0  0
    9.7439   10.5917   23.1854 C   0  0  0  0  0  0  0  0  0  0  0  0
    9.6958   11.8077   23.8671 C   0  0  0  0  0  0  0  0  0  0  0  0
    6.4435   11.4681   25.7675 C   0  0  0  0  0  0  0  0  0  0  0  0
   10.8807   10.2548   22.2767 C   0  0  0  0  0  0  0  0  0  0  0  0
   12.1248   15.6072   20.9970 C   0  0  0  0  0  0  0  0  0  0  0  0
    9.9459   14.5167   21.6243 C   0  0  0  0  0  0  0  0  0  0  0  0
   10.7331   15.8238   21.5759 C   0  0  2  0  0  0  0  0  0  0  0  0
   10.8145   13.4350   22.0306 N   0  0  0  0  0  0  0  0  0  0  0  0
   10.6328   14.1596   24.5000 O   0  0  0  0  0  0  0  0  0  0  0  0
   12.2374   12.3200   23.8952 O   0  0  0  0  0  0  0  0  0  0  0  0
   10.0323   16.7475   20.7451 O   0  0  0  0  0  0  0  0  0  0  0  0
   10.9789   13.0100   23.6860 S   0  0  0  0  0  0  0  0  0  0  0  0
    6.8461    9.2162   24.3045 H   0  0  0  0  0  0  0  0  0  0  0  0
    8.7433    8.7118   22.8171 H   0  0  0  0  0  0  0  0  0  0  0  0
    8.5800   13.0403   25.2416 H   0  0  0  0  0  0  0  0  0  0  0  0
    6.6538   11.1235   26.7874 H   0  0  0  0  0  0  0  0  0  0  0  0
    6.2382   12.5459   25.7998 H   0  0  0  0  0  0  0  0  0  0  0  0
    5.5244   10.9801   25.4178 H   0  0  0  0  0  0  0  0  0  0  0  0
   10.6638   10.5916   21.2565 H   0  0  0  0  0  0  0  0  0  0  0  0
   11.8103   10.7307   22.6121 H   0  0  0  0  0  0  0  0  0  0  0  0
   11.0645    9.1735   22.2566 H   0  0  0  0  0  0  0  0  0  0  0  0
   12.0754   15.1691   19.9955 H   0  0  0  0  0  0  0  0  0  0  0  0
   12.6779   16.5514   20.9419 H   0  0  0  0  0  0  0  0  0  0  0  0
   12.7076   14.9386   21.6399 H   0  0  0  0  0  0  0  0  0  0  0  0
    9.1185   14.5871   22.3386 H   0  0  0  0  0  0  0  0  0  0  0  0
    9.5303   14.2787   20.6397 H   0  0  0  0  0  0  0  0  0  0  0  0
   10.8118   16.2625   22.5773 H   0  0  0  0  0  0  0  0  0  0  0  0
   11.0062   12.6916   21.3317 H   0  0  0  0  0  0  0  0  0  0  0  0
   10.5480   17.5683   20.7505 H   0  0  0  0  0  0  0  0  0  0  0  0
  1  2  1  0  0  0  0
  1  4  2  0  0  0  0
  2  5  2  0  0  0  0
  3  4  1  0  0  0  0
  3  6  2  0  0  0  0
  4  7  1  0  0  0  0
  5  6  1  0  0  0  0
  5  8  1  0  0  0  0
  6 16  1  0  0  0  0
  9 11  1  0  0  0  0
 10 11  1  0  0  0  0
 10 12  1  0  0  0  0
 11 15  1  0  0  0  0
 12 16  1  0  0  0  0
 13 16  2  0  0  0  0
 14 16  2  0  0  0  0
  1 17  1  0  0  0  0
  2 18  1  0  0  0  0
  3 19  1  0  0  0  0
  7 20  1  0  0  0  0
  7 21  1  0  0  0  0
  7 22  1  0  0  0  0
  8 23  1  0  0  0  0
  8 24  1  0  0  0  0
  8 25  1  0  0  0  0
  9 26  1  0  0  0  0
  9 27  1  0  0  0  0
  9 28  1  0  0  0  0
 10 29  1  0  0  0  0
 10 30  1  0  0  0  0
 11 31  1  0  0  0  0
 12 32  1  0  0  0  0
 15 33  1  0  0  0  0
M  END
> <Catalog ID>
Z223278782

> <PlateID>
1337959-R-09

> <Well>
B02

> <MW (desalted)>
243.323

> <CLogP>
1.651

> <HBD>
2

> <TPSA>
66.400

> <RotBonds>
3

> <ROCS_ShapeQuery>
A71EV2A-x0451_0A_A71EV2A-x0310_0A_A71EV2A-x0416_0A_peptide

> <ROCS_TanimotoCombo>
0.444 

> <ROCS_ShapeTanimoto>
0.285 

> <ROCS_ColorTanimoto>
0.159 

> <ROCS_RefTversky>
0.254 

> <ROCS_RefColorTversky>
0.170 

> <ROCS_RefTverskyCombo>
0.423 

> <ROCS_FitTversky>
1.777 

> <ROCS_FitColorTversky>
0.708 

> <ROCS_FitTverskyCombo>
2.485 

> <ROCS_ColorScore>
-5.162

> <ROCS_Overlap>
1757.095

> <ROCS_Rank>
104                 

$$$$
untitled-dbase-1165_196
  -OEChem-11112309163D

 38 39  0     0  0  0  0  0  0999 V2000
   10.4650   13.2866   23.4388 C   0  0  0  0  0  0  0  0  0  0  0  0
   13.8937   15.8485   20.1309 C   0  0  0  0  0  0  0  0  0  0  0  0
   14.1269   15.5195   21.6027 C   0  0  0  0  0  0  0  0  0  0  0  0
   12.4176   16.1018   19.8375 C   0  0  0  0  0  0  0  0  0  0  0  0
   13.2550   14.3530   22.0645 C   0  0  0  0  0  0  0  0  0  0  0  0
   11.5440   14.9356   20.2967 C   0  0  0  0  0  0  0  0  0  0  0  0
    7.4112   11.3303   24.0302 C   0  0  0  0  0  0  0  0  0  0  0  0
    9.2671    9.6580   23.5044 C   0  0  0  0  0  0  0  0  0  0  0  0
    8.6156   12.0899   24.5805 C   0  0  0  0  0  0  0  0  0  0  0  0
    9.9647   10.8568   22.8749 C   0  0  0  0  0  0  0  0  0  0  0  0
   11.7726   14.6165   21.7781 C   0  0  0  0  0  0  0  0  0  0  0  0
    7.7622    9.8866   23.6543 C   0  0  0  0  0  0  0  0  0  0  0  0
    9.7186   12.1049   23.6137 N   0  0  0  0  0  0  0  0  0  0  0  0
   10.9857   13.4640   22.1600 N   0  0  0  0  0  0  0  0  0  0  0  0
   10.6399   14.1077   24.3439 O   0  0  0  0  0  0  0  0  0  0  0  0
    7.2601    9.0104   24.6612 O   0  0  0  0  0  0  0  0  0  0  0  0
   14.4815   16.7304   19.8526 H   0  0  0  0  0  0  0  0  0  0  0  0
   14.2508   15.0171   19.5108 H   0  0  0  0  0  0  0  0  0  0  0  0
   15.1832   15.2755   21.7628 H   0  0  0  0  0  0  0  0  0  0  0  0
   13.9065   16.4034   22.2139 H   0  0  0  0  0  0  0  0  0  0  0  0
   12.0967   17.0196   20.3454 H   0  0  0  0  0  0  0  0  0  0  0  0
   12.2783   16.2656   18.7630 H   0  0  0  0  0  0  0  0  0  0  0  0
   13.5792   13.4378   21.5523 H   0  0  0  0  0  0  0  0  0  0  0  0
   13.4088   14.1933   23.1384 H   0  0  0  0  0  0  0  0  0  0  0  0
   10.4904   15.1864   20.1233 H   0  0  0  0  0  0  0  0  0  0  0  0
   11.7711   14.0538   19.6835 H   0  0  0  0  0  0  0  0  0  0  0  0
    6.5922   11.3373   24.7673 H   0  0  0  0  0  0  0  0  0  0  0  0
    7.0096   11.8512   23.1476 H   0  0  0  0  0  0  0  0  0  0  0  0
    9.4431    8.7600   22.8984 H   0  0  0  0  0  0  0  0  0  0  0  0
    9.7079    9.4406   24.4873 H   0  0  0  0  0  0  0  0  0  0  0  0
    8.3478   13.1323   24.7803 H   0  0  0  0  0  0  0  0  0  0  0  0
    8.9276   11.6456   25.5283 H   0  0  0  0  0  0  0  0  0  0  0  0
   11.0339   10.6244   22.8044 H   0  0  0  0  0  0  0  0  0  0  0  0
    9.6035   11.0166   21.8462 H   0  0  0  0  0  0  0  0  0  0  0  0
   11.4186   15.4396   22.3921 H   0  0  0  0  0  0  0  0  0  0  0  0
    7.2488    9.6167   22.7108 H   0  0  0  0  0  0  0  0  0  0  0  0
   10.7992   12.7413   21.4628 H   0  0  0  0  0  0  0  0  0  0  0  0
    6.2986    9.1396   24.6894 H   0  0  0  0  0  0  0  0  0  0  0  0
  1 13  1  0  0  0  0
  1 14  1  0  0  0  0
  1 15  2  0  0  0  0
  2  3  1  0  0  0  0
  2  4  1  0  0  0  0
  3  5  1  0  0  0  0
  4  6  1  0  0  0  0
  5 11  1  0  0  0  0
  6 11  1  0  0  0  0
  7  9  1  0  0  0  0
  7 12  1  0  0  0  0
  8 10  1  0  0  0  0
  8 12  1  0  0  0  0
  9 13  1  0  0  0  0
 10 13  1  0  0  0  0
 11 14  1  0  0  0  0
 12 16  1  0  0  0  0
  2 17  1  0  0  0  0
  2 18  1  0  0  0  0
  3 19  1  0  0  0  0
  3 20  1  0  0  0  0
  4 21  1  0  0  0  0
  4 22  1  0  0  0  0
  5 23  1  0  0  0  0
  5 24  1  0  0  0  0
  6 25  1  0  0  0  0
  6 26  1  0  0  0  0
  7 27  1  0  0  0  0
  7 28  1  0  0  0  0
  8 29  1  0  0  0  0
  8 30  1  0  0  0  0
  9 31  1  0  0  0  0
  9 32  1  0  0  0  0
 10 33  1  0  0  0  0
 10 34  1  0  0  0  0
 11 35  1  0  0  0  0
 12 36  1  0  0  0  0
 14 37  1  0  0  0  0
 16 38  1  0  0  0  0
M  END
> <Catalog ID>
Z125403266

> <PlateID>
1337959-R-15

> <Well>
E11

> <MW (desalted)>
226.315

> <CLogP>
0.725

> <HBD>
2

> <TPSA>
52.570

> <RotBonds>
1

> <ROCS_ShapeQuery>
A71EV2A-x0451_0A_A71EV2A-x0310_0A_A71EV2A-x0416_0A_peptide

> <ROCS_TanimotoCombo>
0.443 

> <ROCS_ShapeTanimoto>
0.273 

> <ROCS_ColorTanimoto>
0.170 

> <ROCS_RefTversky>
0.246 

> <ROCS_RefColorTversky>
0.180 

> <ROCS_RefTverskyCombo>
0.426 

> <ROCS_FitTversky>
1.689 

> <ROCS_FitColorTversky>
0.752 

> <ROCS_FitTverskyCombo>
2.441 

> <ROCS_ColorScore>
-5.480

> <ROCS_Overlap>
1703.060

> <ROCS_Rank>
105                 

$$$$
untitled-dbase-875_39
  -OEChem-11112309163D

 34 34  0     0  0  0  0  0  0999 V2000
    7.5790   11.8708   24.6143 C   0  0  0  0  0  0  0  0  0  0  0  0
    9.0480   10.9026   23.3307 C   0  0  0  0  0  0  0  0  0  0  0  0
   10.2479   13.7317   23.2706 C   0  0  0  0  0  0  0  0  0  0  0  0
    6.7565   12.9597   25.2165 C   0  0  0  0  0  0  0  0  0  0  0  0
    9.7123    8.1703   23.2376 C   0  0  0  0  0  0  0  0  0  0  0  0
    9.0891    8.2052   25.6664 C   0  0  0  0  0  0  0  0  0  0  0  0
    7.3269    7.8297   23.9222 C   0  0  0  0  0  0  0  0  0  0  0  0
   12.4688   13.4257   22.1807 C   0  0  0  0  0  0  0  0  0  0  0  0
    8.7917   13.4110   23.0495 C   0  0  0  0  0  0  0  0  0  0  0  0
    8.6309    8.5663   24.2495 C   0  0  0  0  0  0  0  0  0  0  0  0
    7.4901   10.6219   24.9674 N   0  0  0  0  0  0  0  0  0  0  0  0
    8.4813   12.1241   23.6428 N   0  0  0  0  0  0  0  0  0  0  0  0
    8.4071    9.9846   24.1752 N   0  0  0  0  0  0  0  0  0  0  0  0
   11.0344   13.2564   22.2310 N   0  0  0  0  0  0  0  0  0  0  0  0
    9.9158   10.6619   22.5035 O   0  0  0  0  0  0  0  0  0  0  0  0
   10.6643   14.3403   24.2528 O   0  0  0  0  0  0  0  0  0  0  0  0
    7.2729   13.3810   26.0795 H   0  0  0  0  0  0  0  0  0  0  0  0
    5.7912   12.5638   25.5348 H   0  0  0  0  0  0  0  0  0  0  0  0
    6.5868   13.7471   24.4810 H   0  0  0  0  0  0  0  0  0  0  0  0
    9.4075    8.4190   22.2144 H   0  0  0  0  0  0  0  0  0  0  0  0
   10.6574    8.6856   23.4417 H   0  0  0  0  0  0  0  0  0  0  0  0
    9.9031    7.0911   23.2655 H   0  0  0  0  0  0  0  0  0  0  0  0
    8.3309    8.4794   26.4090 H   0  0  0  0  0  0  0  0  0  0  0  0
   10.0097    8.7378   25.9319 H   0  0  0  0  0  0  0  0  0  0  0  0
    9.2815    7.1308   25.7618 H   0  0  0  0  0  0  0  0  0  0  0  0
    6.5346    8.0949   24.6318 H   0  0  0  0  0  0  0  0  0  0  0  0
    6.9731    8.0737   22.9144 H   0  0  0  0  0  0  0  0  0  0  0  0
    7.4612    6.7431   23.9779 H   0  0  0  0  0  0  0  0  0  0  0  0
   12.7096   14.3664   21.6640 H   0  0  0  0  0  0  0  0  0  0  0  0
   12.8704   13.4565   23.2043 H   0  0  0  0  0  0  0  0  0  0  0  0
   12.9184   12.5826   21.6356 H   0  0  0  0  0  0  0  0  0  0  0  0
    8.1700   14.1815   23.5149 H   0  0  0  0  0  0  0  0  0  0  0  0
    8.5791   13.3728   21.9771 H   0  0  0  0  0  0  0  0  0  0  0  0
   10.5793   12.7651   21.4672 H   0  0  0  0  0  0  0  0  0  0  0  0
  1  4  1  0  0  0  0
  1 11  2  0  0  0  0
  1 12  1  0  0  0  0
  2 12  1  0  0  0  0
  2 13  1  0  0  0  0
  2 15  2  0  0  0  0
  3  9  1  0  0  0  0
  3 14  1  0  0  0  0
  3 16  2  0  0  0  0
  5 10  1  0  0  0  0
  6 10  1  0  0  0  0
  7 10  1  0  0  0  0
  8 14  1  0  0  0  0
  9 12  1  0  0  0  0
 10 13  1  0  0  0  0
 11 13  1  0  0  0  0
  4 17  1  0  0  0  0
  4 18  1  0  0  0  0
  4 19  1  0  0  0  0
  5 20  1  0  0  0  0
  5 21  1  0  0  0  0
  5 22  1  0  0  0  0
  6 23  1  0  0  0  0
  6 24  1  0  0  0  0
  6 25  1  0  0  0  0
  7 26  1  0  0  0  0
  7 27  1  0  0  0  0
  7 28  1  0  0  0  0
  8 29  1  0  0  0  0
  8 30  1  0  0  0  0
  8 31  1  0  0  0  0
  9 32  1  0  0  0  0
  9 33  1  0  0  0  0
 14 34  1  0  0  0  0
M  END
> <Catalog ID>
Z1624949930

> <PlateID>
1337959-R-11

> <Well>
H09

> <MW (desalted)>
226.276

> <CLogP>
0.368

> <HBD>
1

> <TPSA>
65.010

> <RotBonds>
3

> <ROCS_ShapeQuery>
A71EV2A-x0451_0A_A71EV2A-x0310_0A_A71EV2A-x0416_0A_peptide

> <ROCS_TanimotoCombo>
0.443 

> <ROCS_ShapeTanimoto>
0.289 

> <ROCS_ColorTanimoto>
0.154 

> <ROCS_RefTversky>
0.258 

> <ROCS_RefColorTversky>
0.165 

> <ROCS_RefTverskyCombo>
0.423 

> <ROCS_FitTversky>
1.729 

> <ROCS_FitColorTversky>
0.689 

> <ROCS_FitTverskyCombo>
2.418 

> <ROCS_ColorScore>
-5.023

> <ROCS_Overlap>
1788.069

> <ROCS_Rank>
106                 

$$$$
untitled-dbase-805_6
  -OEChem-11112309163D

 32 33  0     1  0  0  0  0  0999 V2000
   13.0181   16.2473   19.0023 C   0  0  0  0  0  0  0  0  0  0  0  0
   11.7588   16.4734   19.5577 C   0  0  0  0  0  0  0  0  0  0  0  0
   13.9337   15.4264   19.6608 C   0  0  0  0  0  0  0  0  0  0  0  0
    8.7594    9.5465   23.9674 C   0  0  0  0  0  0  0  0  0  0  0  0
    9.3981   10.4209   23.0950 C   0  0  0  0  0  0  0  0  0  0  0  0
   11.4150   15.8788   20.7717 C   0  0  0  0  0  0  0  0  0  0  0  0
   13.5899   14.8317   20.8748 C   0  0  0  0  0  0  0  0  0  0  0  0
    7.8260   10.0732   24.8456 C   0  0  0  0  0  0  0  0  0  0  0  0
    8.1400   12.2028   24.0428 C   0  0  0  0  0  0  0  0  0  0  0  0
    9.0882   11.7760   23.1271 C   0  0  0  0  0  0  0  0  0  0  0  0
   12.3305   15.0579   21.4303 C   0  0  0  0  0  0  0  0  0  0  0  0
    9.5073   12.4277   20.7205 C   0  0  0  0  0  0  0  0  0  0  0  0
    9.7653   12.7530   22.1903 C   0  0  2  0  0  0  0  0  0  0  0  0
    7.4987   11.3835   24.9060 N   0  0  0  0  0  0  0  0  0  0  0  0
   11.2087   12.8343   22.4564 N   0  0  0  0  0  0  0  0  0  0  0  0
   13.1210   14.0346   23.6971 O   0  0  0  0  0  0  0  0  0  0  0  0
   10.8622   15.1324   23.5662 O   0  0  0  0  0  0  0  0  0  0  0  0
   11.9009   14.3164   22.9516 S   0  0  0  0  0  0  0  0  0  0  0  0
   13.2867   16.7105   18.0573 H   0  0  0  0  0  0  0  0  0  0  0  0
   11.0461   17.1133   19.0459 H   0  0  0  0  0  0  0  0  0  0  0  0
   14.9143   15.2511   19.2284 H   0  0  0  0  0  0  0  0  0  0  0  0
    8.9849    8.4863   23.9599 H   0  0  0  0  0  0  0  0  0  0  0  0
   10.1349   10.0378   22.3943 H   0  0  0  0  0  0  0  0  0  0  0  0
   10.4315   16.0624   21.1961 H   0  0  0  0  0  0  0  0  0  0  0  0
   14.3113   14.1951   21.3799 H   0  0  0  0  0  0  0  0  0  0  0  0
    7.3006    9.4328   25.5464 H   0  0  0  0  0  0  0  0  0  0  0  0
    7.8572   13.2485   24.1140 H   0  0  0  0  0  0  0  0  0  0  0  0
    9.8744   11.4270   20.4675 H   0  0  0  0  0  0  0  0  0  0  0  0
    8.4338   12.4605   20.5028 H   0  0  0  0  0  0  0  0  0  0  0  0
    9.9936   13.1454   20.0503 H   0  0  0  0  0  0  0  0  0  0  0  0
    9.3781   13.7614   22.3813 H   0  0  0  0  0  0  0  0  0  0  0  0
   11.6654   11.9575   22.7358 H   0  0  0  0  0  0  0  0  0  0  0  0
  1  2  2  0  0  0  0
  1  3  1  0  0  0  0
  2  6  1  0  0  0  0
  3  7  2  0  0  0  0
  4  5  1  0  0  0  0
  4  8  2  0  0  0  0
  5 10  2  0  0  0  0
  6 11  2  0  0  0  0
  7 11  1  0  0  0  0
  8 14  1  0  0  0  0
  9 10  1  0  0  0  0
  9 14  2  0  0  0  0
 10 13  1  0  0  0  0
 11 18  1  0  0  0  0
 12 13  1  0  0  0  0
 13 15  1  0  0  0  0
 15 18  1  0  0  0  0
 16 18  2  0  0  0  0
 17 18  2  0  0  0  0
  1 19  1  0  0  0  0
  2 20  1  0  0  0  0
  3 21  1  0  0  0  0
  4 22  1  0  0  0  0
  5 23  1  0  0  0  0
  6 24  1  0  0  0  0
  7 25  1  0  0  0  0
  8 26  1  0  0  0  0
  9 27  1  0  0  0  0
 12 28  1  0  0  0  0
 12 29  1  0  0  0  0
 12 30  1  0  0  0  0
 13 31  1  0  0  0  0
 15 32  1  0  0  0  0
M  END
> <Catalog ID>
Z74745338

> <PlateID>
1337959-R-11

> <Well>
A08

> <MW (desalted)>
262.327

> <CLogP>
1.501

> <HBD>
1

> <TPSA>
59.060

> <RotBonds>
3

> <ROCS_ShapeQuery>
A71EV2A-x0451_0A_A71EV2A-x0310_0A_A71EV2A-x0416_0A_peptide

> <ROCS_TanimotoCombo>
0.443 

> <ROCS_ShapeTanimoto>
0.273 

> <ROCS_ColorTanimoto>
0.170 

> <ROCS_RefTversky>
0.248 

> <ROCS_RefColorTversky>
0.180 

> <ROCS_RefTverskyCombo>
0.429 

> <ROCS_FitTversky>
1.567 

> <ROCS_FitColorTversky>
0.752 

> <ROCS_FitTverskyCombo>
2.319 

> <ROCS_ColorScore>
-5.484

> <ROCS_Overlap>
1722.661

> <ROCS_Rank>
107                 

$$$$
untitled-dbase-795_467
  -OEChem-11112309163D

 40 41  0     0  0  0  0  0  0999 V2000
    9.4912   11.6969   23.2741 C   0  0  0  0  0  0  0  0  0  0  0  0
    9.4144   10.2970   23.3755 C   0  0  0  0  0  0  0  0  0  0  0  0
    8.4068   12.1350   23.9870 C   0  0  0  0  0  0  0  0  0  0  0  0
   10.7799   13.8758   23.2084 C   0  0  0  0  0  0  0  0  0  0  0  0
   13.3357   15.5930   18.6904 C   0  0  0  0  0  0  0  0  0  0  0  0
   11.9756   14.9054   18.6121 C   0  0  0  0  0  0  0  0  0  0  0  0
   14.1234   15.1449   19.9183 C   0  0  0  0  0  0  0  0  0  0  0  0
   11.1711   15.0996   19.8962 C   0  0  0  0  0  0  0  0  0  0  0  0
   13.3215   15.3402   21.2039 C   0  0  0  0  0  0  0  0  0  0  0  0
   11.9615   14.6379   21.1255 C   0  0  0  0  0  0  0  0  0  0  0  0
   10.3254    9.2937   22.7992 C   0  0  0  0  0  0  0  0  0  0  0  0
    7.8638   13.4622   24.3046 C   0  0  0  0  0  0  0  0  0  0  0  0
   10.8796   16.3143   22.5961 C   0  0  0  0  0  0  0  0  0  0  0  0
   10.5230   12.5277   22.5514 C   0  0  0  0  0  0  0  0  0  0  0  0
    8.3628    9.8975   24.0962 N   0  0  0  0  0  0  0  0  0  0  0  0
   11.1931   14.9062   22.3396 N   0  0  0  0  0  0  0  0  0  0  0  0
   10.6270   14.0231   24.4242 O   0  0  0  0  0  0  0  0  0  0  0  0
    7.7254   11.0705   24.4826 O   0  0  0  0  0  0  0  0  0  0  0  0
   13.9114   15.3759   17.7837 H   0  0  0  0  0  0  0  0  0  0  0  0
   13.1928   16.6800   18.7261 H   0  0  0  0  0  0  0  0  0  0  0  0
   11.4111   15.3014   17.7604 H   0  0  0  0  0  0  0  0  0  0  0  0
   12.1186   13.8330   18.4303 H   0  0  0  0  0  0  0  0  0  0  0  0
   14.3920   14.0865   19.8136 H   0  0  0  0  0  0  0  0  0  0  0  0
   15.0614   15.7081   19.9801 H   0  0  0  0  0  0  0  0  0  0  0  0
   10.9063   16.1601   19.9970 H   0  0  0  0  0  0  0  0  0  0  0  0
   10.2319   14.5386   19.8196 H   0  0  0  0  0  0  0  0  0  0  0  0
   13.8993   14.9493   22.0503 H   0  0  0  0  0  0  0  0  0  0  0  0
   13.1795   16.4146   21.3787 H   0  0  0  0  0  0  0  0  0  0  0  0
   12.1027   13.5617   21.0913 H   0  0  0  0  0  0  0  0  0  0  0  0
   11.1464    9.0510   23.4956 H   0  0  0  0  0  0  0  0  0  0  0  0
    9.8061    8.3495   22.5560 H   0  0  0  0  0  0  0  0  0  0  0  0
   10.7821    9.6388   21.8543 H   0  0  0  0  0  0  0  0  0  0  0  0
    7.1411   13.7975   23.5389 H   0  0  0  0  0  0  0  0  0  0  0  0
    7.3423   13.4815   25.2799 H   0  0  0  0  0  0  0  0  0  0  0  0
    8.6528   14.2346   24.3730 H   0  0  0  0  0  0  0  0  0  0  0  0
   11.6829   16.7658   23.1968 H   0  0  0  0  0  0  0  0  0  0  0  0
   10.7916   16.8504   21.6396 H   0  0  0  0  0  0  0  0  0  0  0  0
    9.9285   16.3841   23.1444 H   0  0  0  0  0  0  0  0  0  0  0  0
   10.1869   12.6922   21.5207 H   0  0  0  0  0  0  0  0  0  0  0  0
   11.4633   11.9650   22.5091 H   0  0  0  0  0  0  0  0  0  0  0  0
  1  2  1  0  0  0  0
  1  3  2  0  0  0  0
  1 14  1  0  0  0  0
  2 11  1  0  0  0  0
  2 15  2  0  0  0  0
  3 12  1  0  0  0  0
  3 18  1  0  0  0  0
  4 14  1  0  0  0  0
  4 16  1  0  0  0  0
  4 17  2  0  0  0  0
  5  6  1  0  0  0  0
  5  7  1  0  0  0  0
  6  8  1  0  0  0  0
  7  9  1  0  0  0  0
  8 10  1  0  0  0  0
  9 10  1  0  0  0  0
 10 16  1  0  0  0  0
 13 16  1  0  0  0  0
 15 18  1  0  0  0  0
  5 19  1  0  0  0  0
  5 20  1  0  0  0  0
  6 21  1  0  0  0  0
  6 22  1  0  0  0  0
  7 23  1  0  0  0  0
  7 24  1  0  0  0  0
  8 25  1  0  0  0  0
  8 26  1  0  0  0  0
  9 27  1  0  0  0  0
  9 28  1  0  0  0  0
 10 29  1  0  0  0  0
 11 30  1  0  0  0  0
 11 31  1  0  0  0  0
 11 32  1  0  0  0  0
 12 33  1  0  0  0  0
 12 34  1  0  0  0  0
 12 35  1  0  0  0  0
 13 36  1  0  0  0  0
 13 37  1  0  0  0  0
 13 38  1  0  0  0  0
 14 39  1  0  0  0  0
 14 40  1  0  0  0  0
M  END
> <Catalog ID>
Z79409640

> <PlateID>
1337959-R-10

> <Well>
H08

> <MW (desalted)>
250.337

> <CLogP>
1.414

> <HBD>
0

> <TPSA>
46.340

> <RotBonds>
3

> <ROCS_ShapeQuery>
A71EV2A-x0451_0A_A71EV2A-x0310_0A_A71EV2A-x0416_0A_peptide

> <ROCS_TanimotoCombo>
0.443 

> <ROCS_ShapeTanimoto>
0.297 

> <ROCS_ColorTanimoto>
0.146 

> <ROCS_RefTversky>
0.266 

> <ROCS_RefColorTversky>
0.150 

> <ROCS_RefTverskyCombo>
0.415 

> <ROCS_FitTversky>
1.667 

> <ROCS_FitColorTversky>
0.843 

> <ROCS_FitTverskyCombo>
2.510 

> <ROCS_ColorScore>
-4.542

> <ROCS_Overlap>
1841.412

> <ROCS_Rank>
108                 

$$$$
untitled-dbase-738_113
  -OEChem-11112309163D

 31 32  0     1  0  0  0  0  0999 V2000
    9.0940   10.0431   23.1046 C   0  0  0  0  0  0  0  0  0  0  0  0
    7.4519   11.4164   24.2246 C   0  0  0  0  0  0  0  0  0  0  0  0
    9.5956   12.3503   23.6168 C   0  0  0  0  0  0  0  0  0  0  0  0
    7.8321   10.1895   23.6806 C   0  0  0  0  0  0  0  0  0  0  0  0
    9.9758   11.1235   23.0728 C   0  0  0  0  0  0  0  0  0  0  0  0
    8.3336   12.4968   24.1927 C   0  0  0  0  0  0  0  0  0  0  0  0
   10.5259   13.4898   23.5816 C   0  0  0  0  0  0  0  0  0  0  0  0
   12.2062   15.1137   20.7252 C   0  0  0  0  0  0  0  0  0  0  0  0
   11.8609   15.0594   22.2056 C   0  0  0  0  0  0  0  0  0  0  0  0
   10.5339   13.4319   21.0297 C   0  0  0  0  0  0  0  0  0  0  0  0
   10.9804   14.5049   20.0358 C   0  0  1  0  0  0  0  0  0  0  0  0
    9.8858   15.5417   19.7909 C   0  0  0  0  0  0  0  0  0  0  0  0
   10.9521   13.9319   22.3384 N   0  0  0  0  0  0  0  0  0  0  0  0
    9.7747   16.4135   20.9154 N   0  0  0  0  0  0  0  0  0  0  0  0
   10.8566   13.9823   24.6585 O   0  0  0  0  0  0  0  0  0  0  0  0
    6.9854    9.1522   23.7108 F   0  0  0  0  0  0  0  0  0  0  0  0
   11.1858   10.9715   22.5162 F   0  0  0  0  0  0  0  0  0  0  0  0
    7.9572   13.6710   24.7186 F   0  0  0  0  0  0  0  0  0  0  0  0
    9.3895    9.0878   22.6810 H   0  0  0  0  0  0  0  0  0  0  0  0
    6.4687   11.5301   24.6714 H   0  0  0  0  0  0  0  0  0  0  0  0
   12.3527   16.1587   20.4121 H   0  0  0  0  0  0  0  0  0  0  0  0
   13.1272   14.5618   20.4942 H   0  0  0  0  0  0  0  0  0  0  0  0
   12.7458   14.8467   22.8165 H   0  0  0  0  0  0  0  0  0  0  0  0
   11.3957   15.9798   22.5729 H   0  0  0  0  0  0  0  0  0  0  0  0
    9.4425   13.3117   21.0531 H   0  0  0  0  0  0  0  0  0  0  0  0
   10.9895   12.4558   20.8233 H   0  0  0  0  0  0  0  0  0  0  0  0
   11.2683   14.0491   19.1001 H   0  0  0  0  0  0  0  0  0  0  0  0
   10.1593   16.1084   18.8992 H   0  0  0  0  0  0  0  0  0  0  0  0
    8.9487   15.0043   19.6355 H   0  0  0  0  0  0  0  0  0  0  0  0
   10.6504   16.8745   21.0809 H   0  0  0  0  0  0  0  0  0  0  0  0
    9.0695   17.1064   20.7442 H   0  0  0  0  0  0  0  0  0  0  0  0
  1  4  2  0  0  0  0
  1  5  1  0  0  0  0
  2  4  1  0  0  0  0
  2  6  2  0  0  0  0
  3  5  2  0  0  0  0
  3  6  1  0  0  0  0
  3  7  1  0  0  0  0
  4 16  1  0  0  0  0
  5 17  1  0  0  0  0
  6 18  1  0  0  0  0
  7 13  1  0  0  0  0
  7 15  2  0  0  0  0
  8  9  1  0  0  0  0
  8 11  1  0  0  0  0
  9 13  1  0  0  0  0
 10 11  1  0  0  0  0
 10 13  1  0  0  0  0
 11 12  1  0  0  0  0
 12 14  1  0  0  0  0
  1 19  1  0  0  0  0
  2 20  1  0  0  0  0
  8 21  1  0  0  0  0
  8 22  1  0  0  0  0
  9 23  1  0  0  0  0
  9 24  1  0  0  0  0
 10 25  1  0  0  0  0
 10 26  1  0  0  0  0
 11 27  1  0  0  0  0
 12 28  1  0  0  0  0
 12 29  1  0  0  0  0
 14 30  1  0  0  0  0
 14 31  1  0  0  0  0
M  END
> <Catalog ID>
Z1456624854

> <PlateID>
1337959-R-10

> <Well>
B11

> <MW (desalted)>
258.240

> <CLogP>
0.413

> <HBD>
1

> <TPSA>
46.330

> <RotBonds>
2

> <ROCS_ShapeQuery>
A71EV2A-x0451_0A_A71EV2A-x0310_0A_A71EV2A-x0416_0A_peptide

> <ROCS_TanimotoCombo>
0.443 

> <ROCS_ShapeTanimoto>
0.291 

> <ROCS_ColorTanimoto>
0.151 

> <ROCS_RefTversky>
0.262 

> <ROCS_RefColorTversky>
0.159 

> <ROCS_RefTverskyCombo>
0.421 

> <ROCS_FitTversky>
1.615 

> <ROCS_FitColorTversky>
0.760 

> <ROCS_FitTverskyCombo>
2.375 

> <ROCS_ColorScore>
-4.817

> <ROCS_Overlap>
1819.785

> <ROCS_Rank>
109                 

$$$$
untitled-dbase-327_1
  -OEChem-11112309163D

 19 20  0     0  0  0  0  0  0999 V2000
    8.9276   12.3144   24.2187 C   0  0  0  0  0  0  0  0  0  0  0  0
    9.7373    9.5455   23.7429 C   0  0  0  0  0  0  0  0  0  0  0  0
   10.1504   11.9716   23.7796 C   0  0  0  0  0  0  0  0  0  0  0  0
   10.5656   10.5865   23.5383 C   0  0  0  0  0  0  0  0  0  0  0  0
    7.9752   11.2324   24.4623 C   0  0  0  0  0  0  0  0  0  0  0  0
    8.3854    9.8298   24.2213 C   0  0  0  0  0  0  0  0  0  0  0  0
    6.3866    9.9099   24.9039 C   0  0  0  0  0  0  0  0  0  0  0  0
    6.7564   11.2532   24.8763 N   0  0  0  0  0  0  0  0  0  0  0  0
    7.4019    9.0464   24.4972 N   0  0  0  0  0  0  0  0  0  0  0  0
   10.9416   13.7465   21.8802 N   0  0  0  0  0  0  0  0  0  0  0  0
    5.2762    9.5253   25.2523 O   0  0  0  0  0  0  0  0  0  0  0  0
   10.7713   14.4140   24.3461 O   0  0  0  0  0  0  0  0  0  0  0  0
   12.5821   12.8274   23.6208 O   0  0  0  0  0  0  0  0  0  0  0  0
   11.2182   13.3110   23.5156 S   0  0  0  0  0  0  0  0  0  0  0  0
   12.3074   10.2281   22.9233 Br  0  0  0  0  0  0  0  0  0  0  0  0
    8.6058   13.3318   24.4021 H   0  0  0  0  0  0  0  0  0  0  0  0
   10.0164    8.5125   23.5736 H   0  0  0  0  0  0  0  0  0  0  0  0
   10.0253   14.1582   21.6622 H   0  0  0  0  0  0  0  0  0  0  0  0
   11.2539   13.0786   21.1637 H   0  0  0  0  0  0  0  0  0  0  0  0
  1  3  2  0  0  0  0
  1  5  1  0  0  0  0
  2  4  2  0  0  0  0
  2  6  1  0  0  0  0
  3  4  1  0  0  0  0
  3 14  1  0  0  0  0
  4 15  1  0  0  0  0
  5  6  1  0  0  0  0
  5  8  2  0  0  0  0
  6  9  2  0  0  0  0
  7  8  1  0  0  0  0
  7  9  1  0  0  0  0
  7 11  2  0  0  0  0
 10 14  1  0  0  0  0
 12 14  2  0  0  0  0
 13 14  2  0  0  0  0
  1 16  1  0  0  0  0
  2 17  1  0  0  0  0
 10 18  1  0  0  0  0
 10 19  1  0  0  0  0
M  END
> <Catalog ID>
Z1160860493

> <PlateID>
1337959-R-05

> <Well>
A09

> <MW (desalted)>
292.110

> <CLogP>
0.154

> <HBD>
3

> <TPSA>
101.290

> <RotBonds>
1

> <ROCS_ShapeQuery>
A71EV2A-x0451_0A_A71EV2A-x0310_0A_A71EV2A-x0416_0A_peptide

> <ROCS_TanimotoCombo>
0.442 

> <ROCS_ShapeTanimoto>
0.276 

> <ROCS_ColorTanimoto>
0.167 

> <ROCS_RefTversky>
0.247 

> <ROCS_RefColorTversky>
0.199 

> <ROCS_RefTverskyCombo>
0.446 

> <ROCS_FitTversky>
1.731 

> <ROCS_FitColorTversky>
0.505 

> <ROCS_FitTverskyCombo>
2.236 

> <ROCS_ColorScore>
-6.106

> <ROCS_Overlap>
1711.127

> <ROCS_Rank>
110                 

$$$$
untitled-dbase-163_187
  -OEChem-11112309163D

 32 33  0     1  0  0  0  0  0999 V2000
    7.4483   11.5902   24.2852 C   0  0  0  0  0  0  0  0  0  0  0  0
    8.5339   12.4609   24.1903 C   0  0  0  0  0  0  0  0  0  0  0  0
    8.8634    9.7522   23.6097 C   0  0  0  0  0  0  0  0  0  0  0  0
    7.6131   10.2359   23.9950 C   0  0  0  0  0  0  0  0  0  0  0  0
    9.7842   11.9773   23.8051 C   0  0  0  0  0  0  0  0  0  0  0  0
    9.9490   10.6229   23.5148 C   0  0  0  0  0  0  0  0  0  0  0  0
   12.6010   13.2324   20.0238 C   0  0  0  0  0  0  0  0  0  0  0  0
   11.8521   14.5476   20.1253 C   0  0  0  0  0  0  0  0  0  0  0  0
   12.6647   12.7819   21.4740 C   0  0  0  0  0  0  0  0  0  0  0  0
   10.7602   14.2575   21.1618 C   0  0  2  0  0  0  0  0  0  0  0  0
   10.3567   15.5167   21.9104 C   0  0  0  0  0  0  0  0  0  0  0  0
   11.3459   13.1826   22.0269 N   0  0  2  0  0  0  0  0  0  0  0  0
    9.8599   16.4939   20.9964 N   0  0  0  0  0  0  0  0  0  0  0  0
   10.6302   14.4122   24.1638 O   0  0  0  0  0  0  0  0  0  0  0  0
   12.2801   12.5146   24.3209 O   0  0  0  0  0  0  0  0  0  0  0  0
    6.5701    9.4000   24.0855 F   0  0  0  0  0  0  0  0  0  0  0  0
   11.1212   13.1282   23.7008 S   0  0  0  0  0  0  0  0  0  0  0  0
   11.4749    9.9744   23.0322 Cl  0  0  0  0  0  0  0  0  0  0  0  0
    6.4750   11.9662   24.5861 H   0  0  0  0  0  0  0  0  0  0  0  0
    8.3919   13.5137   24.4197 H   0  0  0  0  0  0  0  0  0  0  0  0
    8.9737    8.6940   23.3870 H   0  0  0  0  0  0  0  0  0  0  0  0
   12.0236   12.5169   19.4308 H   0  0  0  0  0  0  0  0  0  0  0  0
   13.5892   13.3384   19.5749 H   0  0  0  0  0  0  0  0  0  0  0  0
   12.5315   15.3401   20.4744 H   0  0  0  0  0  0  0  0  0  0  0  0
   11.4325   14.8676   19.1626 H   0  0  0  0  0  0  0  0  0  0  0  0
   12.8438   11.7099   21.5470 H   0  0  0  0  0  0  0  0  0  0  0  0
   13.4446   13.3163   22.0184 H   0  0  0  0  0  0  0  0  0  0  0  0
    9.8760   13.8431   20.6199 H   0  0  0  0  0  0  0  0  0  0  0  0
    9.5814   15.2424   22.6281 H   0  0  0  0  0  0  0  0  0  0  0  0
   11.2421   15.8958   22.4239 H   0  0  0  0  0  0  0  0  0  0  0  0
    9.0710   16.1272   20.4964 H   0  0  0  0  0  0  0  0  0  0  0  0
    9.5752   17.3168   21.4951 H   0  0  0  0  0  0  0  0  0  0  0  0
  1  2  1  0  0  0  0
  1  4  2  0  0  0  0
  2  5  2  0  0  0  0
  3  4  1  0  0  0  0
  3  6  2  0  0  0  0
  4 16  1  0  0  0  0
  5  6  1  0  0  0  0
  5 17  1  0  0  0  0
  6 18  1  0  0  0  0
  7  8  1  0  0  0  0
  7  9  1  0  0  0  0
  8 10  1  0  0  0  0
  9 12  1  0  0  0  0
 10 11  1  0  0  0  0
 10 12  1  0  0  0  0
 11 13  1  0  0  0  0
 12 17  1  0  0  0  0
 14 17  2  0  0  0  0
 15 17  2  0  0  0  0
  1 19  1  0  0  0  0
  2 20  1  0  0  0  0
  3 21  1  0  0  0  0
  7 22  1  0  0  0  0
  7 23  1  0  0  0  0
  8 24  1  0  0  0  0
  8 25  1  0  0  0  0
  9 26  1  0  0  0  0
  9 27  1  0  0  0  0
 10 28  1  0  0  0  0
 11 29  1  0  0  0  0
 11 30  1  0  0  0  0
 13 31  1  0  0  0  0
 13 32  1  0  0  0  0
M  END
> <Catalog ID>
Z5030655174

> <PlateID>
1337959-R-03

> <Well>
A05

> <MW (desalted)>
292.757

> <CLogP>
1.994

> <HBD>
1

> <TPSA>
63.400

> <RotBonds>
3

> <ROCS_ShapeQuery>
A71EV2A-x0451_0A_A71EV2A-x0310_0A_A71EV2A-x0416_0A_peptide

> <ROCS_TanimotoCombo>
0.442 

> <ROCS_ShapeTanimoto>
0.279 

> <ROCS_ColorTanimoto>
0.163 

> <ROCS_RefTversky>
0.253 

> <ROCS_RefColorTversky>
0.174 

> <ROCS_RefTverskyCombo>
0.426 

> <ROCS_FitTversky>
1.611 

> <ROCS_FitColorTversky>
0.725 

> <ROCS_FitTverskyCombo>
2.336 

> <ROCS_ColorScore>
-5.284

> <ROCS_Overlap>
1750.895

> <ROCS_Rank>
111                 

$$$$
untitled-dbase-906_23
  -OEChem-11112309163D

 40 41  0     1  0  0  0  0  0999 V2000
   13.1537   16.0729   21.2830 C   0  0  0  0  0  0  0  0  0  0  0  0
   12.4942   15.3853   22.3017 C   0  0  0  0  0  0  0  0  0  0  0  0
   12.8615   15.7909   19.9485 C   0  0  0  0  0  0  0  0  0  0  0  0
   11.2504   14.1335   20.6515 C   0  0  0  0  0  0  0  0  0  0  0  0
   11.5426   14.4156   21.9860 C   0  0  0  0  0  0  0  0  0  0  0  0
   11.9099   14.8212   19.6328 C   0  0  0  0  0  0  0  0  0  0  0  0
   10.8399   13.6839   23.0713 C   0  0  0  0  0  0  0  0  0  0  0  0
    8.4047   12.3126   24.1710 C   0  0  0  0  0  0  0  0  0  0  0  0
    7.5828   11.4311   25.1120 C   0  0  0  0  0  0  0  0  0  0  0  0
    8.4314    9.4142   24.0725 C   0  0  0  0  0  0  0  0  0  0  0  0
    9.2974   10.2198   23.0843 C   0  0  1  0  0  0  0  0  0  0  0  0
    9.6638   11.5883   23.6892 C   0  0  1  0  0  0  0  0  0  0  0  0
   11.5975   14.5194   18.2058 C   0  0  0  0  0  0  0  0  0  0  0  0
   10.5402    9.4103   22.7035 C   0  0  0  0  0  0  0  0  0  0  0  0
    6.3913    9.3532   25.3530 C   0  0  0  0  0  0  0  0  0  0  0  0
    7.2285   10.1613   24.4662 N   0  0  1  0  0  0  0  0  0  0  0  0
   10.3855   12.4136   22.7501 N   0  0  0  0  0  0  0  0  0  0  0  0
   10.6825   14.2310   24.1596 O   0  0  0  0  0  0  0  0  0  0  0  0
   13.8956   16.8272   21.5288 H   0  0  0  0  0  0  0  0  0  0  0  0
   12.7293   15.6134   23.3383 H   0  0  0  0  0  0  0  0  0  0  0  0
   13.3799   16.3320   19.1613 H   0  0  0  0  0  0  0  0  0  0  0  0
   10.5094   13.3769   20.4036 H   0  0  0  0  0  0  0  0  0  0  0  0
    7.7842   12.6004   23.3116 H   0  0  0  0  0  0  0  0  0  0  0  0
    8.6798   13.2376   24.6922 H   0  0  0  0  0  0  0  0  0  0  0  0
    8.1441   11.2570   26.0395 H   0  0  0  0  0  0  0  0  0  0  0  0
    6.6711   11.9782   25.3813 H   0  0  0  0  0  0  0  0  0  0  0  0
    8.1317    8.4775   23.5851 H   0  0  0  0  0  0  0  0  0  0  0  0
    9.0248    9.1428   24.9565 H   0  0  0  0  0  0  0  0  0  0  0  0
    8.7077   10.3814   22.1705 H   0  0  0  0  0  0  0  0  0  0  0  0
   10.3371   11.4390   24.5431 H   0  0  0  0  0  0  0  0  0  0  0  0
   12.2529   13.7235   17.8316 H   0  0  0  0  0  0  0  0  0  0  0  0
   10.5551   14.1972   18.0859 H   0  0  0  0  0  0  0  0  0  0  0  0
   11.7306   15.4064   17.5729 H   0  0  0  0  0  0  0  0  0  0  0  0
   11.1463    9.2332   23.5889 H   0  0  0  0  0  0  0  0  0  0  0  0
   11.1254    9.9621   21.9716 H   0  0  0  0  0  0  0  0  0  0  0  0
   10.2384    8.4563   22.2775 H   0  0  0  0  0  0  0  0  0  0  0  0
    6.1352    8.4066   24.8545 H   0  0  0  0  0  0  0  0  0  0  0  0
    6.9401    9.1411   26.2825 H   0  0  0  0  0  0  0  0  0  0  0  0
    5.4691    9.9042   25.5893 H   0  0  0  0  0  0  0  0  0  0  0  0
   10.4986   12.0527   21.8076 H   0  0  0  0  0  0  0  0  0  0  0  0
  1  2  1  0  0  0  0
  1  3  2  0  0  0  0
  2  5  2  0  0  0  0
  3  6  1  0  0  0  0
  4  5  1  0  0  0  0
  4  6  2  0  0  0  0
  5  7  1  0  0  0  0
  6 13  1  0  0  0  0
  7 17  1  0  0  0  0
  7 18  2  0  0  0  0
  8  9  1  0  0  0  0
  8 12  1  0  0  0  0
  9 16  1  0  0  0  0
 10 11  1  0  0  0  0
 10 16  1  0  0  0  0
 11 12  1  0  0  0  0
 11 14  1  0  0  0  0
 12 17  1  0  0  0  0
 15 16  1  0  0  0  0
  1 19  1  0  0  0  0
  2 20  1  0  0  0  0
  3 21  1  0  0  0  0
  4 22  1  0  0  0  0
  8 23  1  0  0  0  0
  8 24  1  0  0  0  0
  9 25  1  0  0  0  0
  9 26  1  0  0  0  0
 10 27  1  0  0  0  0
 10 28  1  0  0  0  0
 11 29  1  0  0  0  0
 12 30  1  0  0  0  0
 13 31  1  0  0  0  0
 13 32  1  0  0  0  0
 13 33  1  0  0  0  0
 14 34  1  0  0  0  0
 14 35  1  0  0  0  0
 14 36  1  0  0  0  0
 15 37  1  0  0  0  0
 15 38  1  0  0  0  0
 15 39  1  0  0  0  0
 17 40  1  0  0  0  0
M  END
> <Catalog ID>
Z963963616

> <PlateID>
1337959-R-12

> <Well>
C10

> <MW (desalted)>
246.348

> <CLogP>
1.767

> <HBD>
1

> <TPSA>
32.340

> <RotBonds>
2

> <ROCS_ShapeQuery>
A71EV2A-x0451_0A_A71EV2A-x0310_0A_A71EV2A-x0416_0A_peptide

> <ROCS_TanimotoCombo>
0.441 

> <ROCS_ShapeTanimoto>
0.310 

> <ROCS_ColorTanimoto>
0.131 

> <ROCS_RefTversky>
0.274 

> <ROCS_RefColorTversky>
0.140 

> <ROCS_RefTverskyCombo>
0.414 

> <ROCS_FitTversky>
1.724 

> <ROCS_FitColorTversky>
0.671 

> <ROCS_FitTverskyCombo>
2.395 

> <ROCS_ColorScore>
-4.249

> <ROCS_Overlap>
1903.552

> <ROCS_Rank>
112                 

$$$$
untitled-dbase-1184_41
  -OEChem-11112309163D

 36 38  0     0  0  0  0  0  0999 V2000
   10.3405   11.9140   22.3557 C   0  0  0  0  0  0  0  0  0  0  0  0
    9.7959   10.7205   22.8298 C   0  0  0  0  0  0  0  0  0  0  0  0
    8.8167   13.1714   23.7496 C   0  0  0  0  0  0  0  0  0  0  0  0
    9.8479   13.1376   22.8107 C   0  0  0  0  0  0  0  0  0  0  0  0
    8.7547   10.7535   23.7579 C   0  0  0  0  0  0  0  0  0  0  0  0
    8.2804   11.9782   24.2342 C   0  0  0  0  0  0  0  0  0  0  0  0
   12.4243   14.6947   23.6619 C   0  0  0  0  0  0  0  0  0  0  0  0
   12.8588   14.0902   22.3282 C   0  0  0  0  0  0  0  0  0  0  0  0
   11.0460   15.3048   23.4111 C   0  0  0  0  0  0  0  0  0  0  0  0
   11.6884   14.3128   21.3710 C   0  0  0  0  0  0  0  0  0  0  0  0
    6.9871    9.7001   24.8309 C   0  0  0  0  0  0  0  0  0  0  0  0
    7.0553   10.8318   25.8378 C   0  0  0  0  0  0  0  0  0  0  0  0
   10.4392   14.4503   22.2734 C   0  0  0  0  0  0  0  0  0  0  0  0
    9.3415   15.2204   21.5203 C   0  0  0  0  0  0  0  0  0  0  0  0
    9.8715   16.4427   21.0207 N   0  0  0  0  0  0  0  0  0  0  0  0
    8.2463    9.5492   24.1696 O   0  0  0  0  0  0  0  0  0  0  0  0
    7.2840   12.0757   25.1699 O   0  0  0  0  0  0  0  0  0  0  0  0
   11.1524   11.8812   21.6338 H   0  0  0  0  0  0  0  0  0  0  0  0
   10.1942    9.7721   22.4796 H   0  0  0  0  0  0  0  0  0  0  0  0
    8.4246   14.1248   24.0956 H   0  0  0  0  0  0  0  0  0  0  0  0
   12.3872   13.9439   24.4549 H   0  0  0  0  0  0  0  0  0  0  0  0
   13.1348   15.4671   23.9707 H   0  0  0  0  0  0  0  0  0  0  0  0
   13.7550   14.5996   21.9620 H   0  0  0  0  0  0  0  0  0  0  0  0
   13.0977   13.0280   22.4224 H   0  0  0  0  0  0  0  0  0  0  0  0
   10.4463   15.2143   24.3208 H   0  0  0  0  0  0  0  0  0  0  0  0
   11.1088   16.3629   23.1578 H   0  0  0  0  0  0  0  0  0  0  0  0
   11.8460   15.1852   20.7320 H   0  0  0  0  0  0  0  0  0  0  0  0
   11.5946   13.4398   20.7152 H   0  0  0  0  0  0  0  0  0  0  0  0
    6.7262    8.7481   25.3096 H   0  0  0  0  0  0  0  0  0  0  0  0
    6.2335    9.9153   24.0671 H   0  0  0  0  0  0  0  0  0  0  0  0
    6.1288   10.9115   26.4199 H   0  0  0  0  0  0  0  0  0  0  0  0
    7.8834   10.6711   26.5349 H   0  0  0  0  0  0  0  0  0  0  0  0
    9.0066   14.5829   20.7052 H   0  0  0  0  0  0  0  0  0  0  0  0
    8.5396   15.4088   22.2305 H   0  0  0  0  0  0  0  0  0  0  0  0
   10.6542   16.2618   20.4170 H   0  0  0  0  0  0  0  0  0  0  0  0
    9.1701   16.9380   20.4986 H   0  0  0  0  0  0  0  0  0  0  0  0
  1  2  1  0  0  0  0
  1  4  2  0  0  0  0
  2  5  2  0  0  0  0
  3  4  1  0  0  0  0
  3  6  2  0  0  0  0
  4 13  1  0  0  0  0
  5  6  1  0  0  0  0
  5 16  1  0  0  0  0
  6 17  1  0  0  0  0
  7  8  1  0  0  0  0
  7  9  1  0  0  0  0
  8 10  1  0  0  0  0
  9 13  1  0  0  0  0
 10 13  1  0  0  0  0
 11 12  1  0  0  0  0
 11 16  1  0  0  0  0
 12 17  1  0  0  0  0
 13 14  1  0  0  0  0
 14 15  1  0  0  0  0
  1 18  1  0  0  0  0
  2 19  1  0  0  0  0
  3 20  1  0  0  0  0
  7 21  1  0  0  0  0
  7 22  1  0  0  0  0
  8 23  1  0  0  0  0
  8 24  1  0  0  0  0
  9 25  1  0  0  0  0
  9 26  1  0  0  0  0
 10 27  1  0  0  0  0
 10 28  1  0  0  0  0
 11 29  1  0  0  0  0
 11 30  1  0  0  0  0
 12 31  1  0  0  0  0
 12 32  1  0  0  0  0
 14 33  1  0  0  0  0
 14 34  1  0  0  0  0
 15 35  1  0  0  0  0
 15 36  1  0  0  0  0
M  END
> <Catalog ID>
Z372854014

> <PlateID>
1337959-R-15

> <Well>
G10

> <MW (desalted)>
233.306

> <CLogP>
2.909

> <HBD>
1

> <TPSA>
44.480

> <RotBonds>
2

> <ROCS_ShapeQuery>
A71EV2A-x0451_0A_A71EV2A-x0310_0A_A71EV2A-x0416_0A_peptide

> <ROCS_TanimotoCombo>
0.441 

> <ROCS_ShapeTanimoto>
0.298 

> <ROCS_ColorTanimoto>
0.143 

> <ROCS_RefTversky>
0.265 

> <ROCS_RefColorTversky>
0.159 

> <ROCS_RefTverskyCombo>
0.424 

> <ROCS_FitTversky>
1.686 

> <ROCS_FitColorTversky>
0.587 

> <ROCS_FitTverskyCombo>
2.273 

> <ROCS_ColorScore>
-4.842

> <ROCS_Overlap>
1840.514

> <ROCS_Rank>
113                 

$$$$
untitled-dbase-194_62
  -OEChem-11112309163D

 34 35  0     1  0  0  0  0  0999 V2000
    6.2554   11.7815   26.0039 C   0  0  0  0  0  0  0  0  0  0  0  0
    7.1575   12.8228   26.1497 C   0  0  0  0  0  0  0  0  0  0  0  0
    6.5549   10.7428   25.1333 C   0  0  0  0  0  0  0  0  0  0  0  0
    8.3450   12.8399   25.4074 C   0  0  0  0  0  0  0  0  0  0  0  0
    7.7548   10.7403   24.3952 C   0  0  0  0  0  0  0  0  0  0  0  0
    8.6617   11.8240   24.4862 C   0  0  0  0  0  0  0  0  0  0  0  0
   10.7671   12.9453   23.6757 C   0  0  0  0  0  0  0  0  0  0  0  0
    8.0101    9.5453   23.5173 C   0  0  0  0  0  0  0  0  0  0  0  0
    9.4926    9.4035   23.2441 C   0  0  0  0  0  0  0  0  0  0  0  0
   10.0755   10.7174   22.7293 C   0  0  1  0  0  0  0  0  0  0  0  0
    9.5285   11.0896   21.3429 C   0  0  0  0  0  0  0  0  0  0  0  0
   11.8931   12.8898   22.6649 C   0  0  0  0  0  0  0  0  0  0  0  0
   13.2323   12.9311   23.3720 C   0  0  0  0  0  0  0  0  0  0  0  0
    9.8793   11.8436   23.6833 N   0  0  0  0  0  0  0  0  0  0  0  0
   13.3807   11.8041   24.2638 N   0  0  0  0  0  0  0  0  0  0  0  0
   10.7152   13.9347   24.4088 O   0  0  0  0  0  0  0  0  0  0  0  0
    5.3203   11.7840   26.5533 H   0  0  0  0  0  0  0  0  0  0  0  0
    6.9387   13.6402   26.8325 H   0  0  0  0  0  0  0  0  0  0  0  0
    5.8469    9.9239   25.0246 H   0  0  0  0  0  0  0  0  0  0  0  0
    8.9848   13.7072   25.5518 H   0  0  0  0  0  0  0  0  0  0  0  0
    7.6512    8.6374   24.0032 H   0  0  0  0  0  0  0  0  0  0  0  0
    7.4628    9.6722   22.5829 H   0  0  0  0  0  0  0  0  0  0  0  0
   10.0139    9.1184   24.1659 H   0  0  0  0  0  0  0  0  0  0  0  0
    9.6626    8.5963   22.5246 H   0  0  0  0  0  0  0  0  0  0  0  0
   11.1479   10.5386   22.5993 H   0  0  0  0  0  0  0  0  0  0  0  0
    8.4607   11.2792   21.4126 H   0  0  0  0  0  0  0  0  0  0  0  0
    9.7056   10.2707   20.6508 H   0  0  0  0  0  0  0  0  0  0  0  0
   10.0314   11.9830   20.9820 H   0  0  0  0  0  0  0  0  0  0  0  0
   11.7745   13.7616   22.0225 H   0  0  0  0  0  0  0  0  0  0  0  0
   11.7648   11.9822   22.0770 H   0  0  0  0  0  0  0  0  0  0  0  0
   14.0283   12.8899   22.6213 H   0  0  0  0  0  0  0  0  0  0  0  0
   13.3571   13.8579   23.9419 H   0  0  0  0  0  0  0  0  0  0  0  0
   13.3119   10.9599   23.7369 H   0  0  0  0  0  0  0  0  0  0  0  0
   14.2727   11.8552   24.7074 H   0  0  0  0  0  0  0  0  0  0  0  0
  1  2  2  0  0  0  0
  1  3  1  0  0  0  0
  2  4  1  0  0  0  0
  3  5  2  0  0  0  0
  4  6  2  0  0  0  0
  5  6  1  0  0  0  0
  5  8  1  0  0  0  0
  6 14  1  0  0  0  0
  7 12  1  0  0  0  0
  7 14  1  0  0  0  0
  7 16  2  0  0  0  0
  8  9  1  0  0  0  0
  9 10  1  0  0  0  0
 10 11  1  0  0  0  0
 10 14  1  0  0  0  0
 12 13  1  0  0  0  0
 13 15  1  0  0  0  0
  1 17  1  0  0  0  0
  2 18  1  0  0  0  0
  3 19  1  0  0  0  0
  4 20  1  0  0  0  0
  8 21  1  0  0  0  0
  8 22  1  0  0  0  0
  9 23  1  0  0  0  0
  9 24  1  0  0  0  0
 10 25  1  0  0  0  0
 11 26  1  0  0  0  0
 11 27  1  0  0  0  0
 11 28  1  0  0  0  0
 12 29  1  0  0  0  0
 12 30  1  0  0  0  0
 13 31  1  0  0  0  0
 13 32  1  0  0  0  0
 15 33  1  0  0  0  0
 15 34  1  0  0  0  0
M  END
> <Catalog ID>
Z1889872503

> <PlateID>
1337959-R-03

> <Well>
D06

> <MW (desalted)>
218.295

> <CLogP>
1.936

> <HBD>
1

> <TPSA>
46.330

> <RotBonds>
2

> <ROCS_ShapeQuery>
A71EV2A-x0451_0A_A71EV2A-x0310_0A_A71EV2A-x0416_0A_peptide

> <ROCS_TanimotoCombo>
0.440 

> <ROCS_ShapeTanimoto>
0.290 

> <ROCS_ColorTanimoto>
0.150 

> <ROCS_RefTversky>
0.258 

> <ROCS_RefColorTversky>
0.157 

> <ROCS_RefTverskyCombo>
0.416 

> <ROCS_FitTversky>
1.742 

> <ROCS_FitColorTversky>
0.754 

> <ROCS_FitTverskyCombo>
2.497 

> <ROCS_ColorScore>
-4.783

> <ROCS_Overlap>
1789.551

> <ROCS_Rank>
114                 

$$$$
untitled-dbase-747_246
  -OEChem-11112309163D

 35 37  0     1  0  0  0  0  0999 V2000
   10.4536   14.7358   21.2176 C   0  0  0  0  0  0  0  0  0  0  0  0
   10.7143   15.7253   20.2954 C   0  0  0  0  0  0  0  0  0  0  0  0
   12.7561   14.5331   20.9732 C   0  0  0  0  0  0  0  0  0  0  0  0
   11.6364   14.0452   21.6104 C   0  0  0  0  0  0  0  0  0  0  0  0
   10.5714   13.0614   23.6413 C   0  0  0  0  0  0  0  0  0  0  0  0
    8.7985   12.0444   26.0857 C   0  0  0  0  0  0  0  0  0  0  0  0
   10.1026   10.6288   23.4085 C   0  0  0  0  0  0  0  0  0  0  0  0
    7.6126   12.7076   26.7630 C   0  0  0  0  0  0  0  0  0  0  0  0
    8.9737    9.6592   23.1272 C   0  0  0  0  0  0  0  0  0  0  0  0
    7.6612   13.4194   24.5364 C   0  0  0  0  0  0  0  0  0  0  0  0
    7.4198   10.9736   24.2471 C   0  0  0  0  0  0  0  0  0  0  0  0
    8.4371   12.0936   24.6020 C   0  0  2  0  0  0  0  0  0  0  0  0
   11.6574   12.9200   22.5997 C   0  0  0  0  0  0  0  0  0  0  0  0
    9.6542   11.9928   23.7423 N   0  0  0  0  0  0  0  0  0  0  0  0
   10.5556   14.0852   24.3275 O   0  0  0  0  0  0  0  0  0  0  0  0
    6.9702   13.5455   25.7930 O   0  0  0  0  0  0  0  0  0  0  0  0
    8.0365    9.6930   24.1927 O   0  0  0  0  0  0  0  0  0  0  0  0
   12.3794   15.8188   19.9067 S   0  0  0  0  0  0  0  0  0  0  0  0
    9.4599   14.5206   21.5897 H   0  0  0  0  0  0  0  0  0  0  0  0
   10.0067   16.3974   19.8308 H   0  0  0  0  0  0  0  0  0  0  0  0
   13.7787   14.1983   21.0792 H   0  0  0  0  0  0  0  0  0  0  0  0
    9.7467   12.5197   26.3491 H   0  0  0  0  0  0  0  0  0  0  0  0
    8.8603   11.0046   26.4293 H   0  0  0  0  0  0  0  0  0  0  0  0
   10.6873   10.2812   24.2749 H   0  0  0  0  0  0  0  0  0  0  0  0
   10.7828   10.6207   22.5479 H   0  0  0  0  0  0  0  0  0  0  0  0
    6.8930   11.9758   27.1462 H   0  0  0  0  0  0  0  0  0  0  0  0
    7.9322   13.3372   27.6015 H   0  0  0  0  0  0  0  0  0  0  0  0
    8.4744    9.8861   22.1796 H   0  0  0  0  0  0  0  0  0  0  0  0
    9.3660    8.6410   23.0597 H   0  0  0  0  0  0  0  0  0  0  0  0
    8.2807   14.2913   24.3456 H   0  0  0  0  0  0  0  0  0  0  0  0
    6.8904   13.3922   23.7655 H   0  0  0  0  0  0  0  0  0  0  0  0
    6.6301   10.9183   25.0054 H   0  0  0  0  0  0  0  0  0  0  0  0
    6.9228   11.1865   23.2914 H   0  0  0  0  0  0  0  0  0  0  0  0
   11.5236   11.9652   22.0908 H   0  0  0  0  0  0  0  0  0  0  0  0
   12.6175   12.8702   23.1131 H   0  0  0  0  0  0  0  0  0  0  0  0
  1  2  2  0  0  0  0
  1  4  1  0  0  0  0
  2 18  1  0  0  0  0
  3  4  2  0  0  0  0
  3 18  1  0  0  0  0
  4 13  1  0  0  0  0
  5 13  1  0  0  0  0
  5 14  1  0  0  0  0
  5 15  2  0  0  0  0
  6  8  1  0  0  0  0
  6 12  1  0  0  0  0
  7  9  1  0  0  0  0
  7 14  1  0  0  0  0
  8 16  1  0  0  0  0
  9 17  1  0  0  0  0
 10 12  1  0  0  0  0
 10 16  1  0  0  0  0
 11 12  1  0  0  0  0
 11 17  1  0  0  0  0
 12 14  1  0  0  0  0
  1 19  1  0  0  0  0
  2 20  1  0  0  0  0
  3 21  1  0  0  0  0
  6 22  1  0  0  0  0
  6 23  1  0  0  0  0
  7 24  1  0  0  0  0
  7 25  1  0  0  0  0
  8 26  1  0  0  0  0
  8 27  1  0  0  0  0
  9 28  1  0  0  0  0
  9 29  1  0  0  0  0
 10 30  1  0  0  0  0
 10 31  1  0  0  0  0
 11 32  1  0  0  0  0
 11 33  1  0  0  0  0
 13 34  1  0  0  0  0
 13 35  1  0  0  0  0
M  END
> <Catalog ID>
Z1995563449

> <PlateID>
1337959-R-10

> <Well>
C10

> <MW (desalted)>
267.344

> <CLogP>
0.751

> <HBD>
0

> <TPSA>
38.770

> <RotBonds>
2

> <ROCS_ShapeQuery>
A71EV2A-x0451_0A_A71EV2A-x0310_0A_A71EV2A-x0416_0A_peptide

> <ROCS_TanimotoCombo>
0.440 

> <ROCS_ShapeTanimoto>
0.306 

> <ROCS_ColorTanimoto>
0.133 

> <ROCS_RefTversky>
0.272 

> <ROCS_RefColorTversky>
0.146 

> <ROCS_RefTverskyCombo>
0.418 

> <ROCS_FitTversky>
1.689 

> <ROCS_FitColorTversky>
0.609 

> <ROCS_FitTverskyCombo>
2.298 

> <ROCS_ColorScore>
-4.439

> <ROCS_Overlap>
1889.218

> <ROCS_Rank>
115                 

$$$$
untitled-dbase-680_665
  -OEChem-11112309163D

 35 36  0     1  0  0  0  0  0999 V2000
    7.9723   11.8236   24.4550 C   0  0  0  0  0  0  0  0  0  0  0  0
    7.9988   10.4312   24.5339 C   0  0  0  0  0  0  0  0  0  0  0  0
    8.9939   12.5043   23.7928 C   0  0  0  0  0  0  0  0  0  0  0  0
   10.0689   10.4002   23.2884 C   0  0  0  0  0  0  0  0  0  0  0  0
    9.0472    9.7196   23.9506 C   0  0  0  0  0  0  0  0  0  0  0  0
   10.0422   11.7926   23.2095 C   0  0  0  0  0  0  0  0  0  0  0  0
   10.9510   12.7726   21.0594 C   0  0  0  0  0  0  0  0  0  0  0  0
   11.9428   14.8458   21.8783 C   0  0  0  0  0  0  0  0  0  0  0  0
   10.9000   14.2980   20.9081 C   0  0  1  0  0  0  0  0  0  0  0  0
   11.1531   14.7454   19.4773 C   0  0  0  0  0  0  0  0  0  0  0  0
    8.0349    7.5687   21.9765 C   0  0  0  0  0  0  0  0  0  0  0  0
    9.0755    8.2309   24.0356 C   0  0  0  0  0  0  0  0  0  0  0  0
   11.0989   12.4975   22.5235 N   0  0  1  0  0  0  0  0  0  0  0  0
    7.9151    7.6256   23.4328 N   0  0  0  0  0  0  0  0  0  0  0  0
   13.0247   13.5744   23.9234 O   0  0  0  0  0  0  0  0  0  0  0  0
   10.6845   14.5196   24.1571 O   0  0  0  0  0  0  0  0  0  0  0  0
   11.7250   13.8900   23.3684 S   0  0  0  0  0  0  0  0  0  0  0  0
    7.1559   12.3778   24.9088 H   0  0  0  0  0  0  0  0  0  0  0  0
    7.1985    9.9095   25.0523 H   0  0  0  0  0  0  0  0  0  0  0  0
    8.9639   13.5892   23.7367 H   0  0  0  0  0  0  0  0  0  0  0  0
   10.8861    9.8445   22.8340 H   0  0  0  0  0  0  0  0  0  0  0  0
   10.0208   12.3205   20.6855 H   0  0  0  0  0  0  0  0  0  0  0  0
   11.7955   12.3392   20.5076 H   0  0  0  0  0  0  0  0  0  0  0  0
   12.9647   14.7458   21.5258 H   0  0  0  0  0  0  0  0  0  0  0  0
   11.7230   15.8830   22.1264 H   0  0  0  0  0  0  0  0  0  0  0  0
    9.9019   14.6640   21.1964 H   0  0  0  0  0  0  0  0  0  0  0  0
   12.1333   14.4019   19.1540 H   0  0  0  0  0  0  0  0  0  0  0  0
   11.1169   15.8312   19.4212 H   0  0  0  0  0  0  0  0  0  0  0  0
   10.3920   14.3265   18.8225 H   0  0  0  0  0  0  0  0  0  0  0  0
    8.1668    8.5859   21.5789 H   0  0  0  0  0  0  0  0  0  0  0  0
    8.9048    6.9531   21.7040 H   0  0  0  0  0  0  0  0  0  0  0  0
    7.1232    7.1241   21.5508 H   0  0  0  0  0  0  0  0  0  0  0  0
    9.9613    7.8220   23.5295 H   0  0  0  0  0  0  0  0  0  0  0  0
    9.1195    7.8875   25.0783 H   0  0  0  0  0  0  0  0  0  0  0  0
    7.7931    6.6713   23.7861 H   0  0  0  0  0  0  0  0  0  0  0  0
  1  2  1  0  0  0  0
  1  3  2  0  0  0  0
  2  5  2  0  0  0  0
  3  6  1  0  0  0  0
  4  5  1  0  0  0  0
  4  6  2  0  0  0  0
  5 12  1  0  0  0  0
  6 13  1  0  0  0  0
  7  9  1  0  0  0  0
  7 13  1  0  0  0  0
  8  9  1  0  0  0  0
  8 17  1  0  0  0  0
  9 10  1  0  0  0  0
 11 14  1  0  0  0  0
 12 14  1  0  0  0  0
 13 17  1  0  0  0  0
 15 17  2  0  0  0  0
 16 17  2  0  0  0  0
  1 18  1  0  0  0  0
  2 19  1  0  0  0  0
  3 20  1  0  0  0  0
  4 21  1  0  0  0  0
  7 22  1  0  0  0  0
  7 23  1  0  0  0  0
  8 24  1  0  0  0  0
  8 25  1  0  0  0  0
  9 26  1  0  0  0  0
 10 27  1  0  0  0  0
 10 28  1  0  0  0  0
 10 29  1  0  0  0  0
 11 30  1  0  0  0  0
 11 31  1  0  0  0  0
 11 32  1  0  0  0  0
 12 33  1  0  0  0  0
 12 34  1  0  0  0  0
 14 35  1  0  0  0  0
M  END
> <Catalog ID>
Z1889902467

> <PlateID>
1337959-R-09

> <Well>
E03

> <MW (desalted)>
254.349

> <CLogP>
0.979

> <HBD>
1

> <TPSA>
49.410

> <RotBonds>
3

> <ROCS_ShapeQuery>
A71EV2A-x0451_0A_A71EV2A-x0310_0A_A71EV2A-x0416_0A_peptide

> <ROCS_TanimotoCombo>
0.439 

> <ROCS_ShapeTanimoto>
0.288 

> <ROCS_ColorTanimoto>
0.151 

> <ROCS_RefTversky>
0.257 

> <ROCS_RefColorTversky>
0.167 

> <ROCS_RefTverskyCombo>
0.424 

> <ROCS_FitTversky>
1.709 

> <ROCS_FitColorTversky>
0.617 

> <ROCS_FitTverskyCombo>
2.327 

> <ROCS_ColorScore>
-5.086

> <ROCS_Overlap>
1784.410

> <ROCS_Rank>
116                 

$$$$
untitled-dbase-902_166
  -OEChem-11112309163D

 34 35  0     1  0  0  0  0  0999 V2000
    7.3409   11.4394   24.9390 C   0  0  0  0  0  0  0  0  0  0  0  0
    7.1583   10.1621   24.4093 C   0  0  0  0  0  0  0  0  0  0  0  0
    8.5743   12.0780   24.8104 C   0  0  0  0  0  0  0  0  0  0  0  0
    8.2091    9.5232   23.7511 C   0  0  0  0  0  0  0  0  0  0  0  0
    9.6252   11.4391   24.1523 C   0  0  0  0  0  0  0  0  0  0  0  0
    9.4426   10.1617   23.6226 C   0  0  0  0  0  0  0  0  0  0  0  0
   10.8368   13.5007   23.3186 C   0  0  0  0  0  0  0  0  0  0  0  0
   11.9894   15.7024   21.5106 C   0  0  0  0  0  0  0  0  0  0  0  0
   11.1743   16.9794   21.6618 C   0  0  0  0  0  0  0  0  0  0  0  0
    9.6259   15.3235   21.1911 C   0  0  0  0  0  0  0  0  0  0  0  0
   10.9783   14.6316   21.1007 C   0  0  2  0  0  0  0  0  0  0  0  0
   11.3450   12.1975   21.2202 C   0  0  0  0  0  0  0  0  0  0  0  0
   10.9440   12.1634   24.0365 C   0  0  0  0  0  0  0  0  0  0  0  0
    9.9499   16.7194   20.9086 N   0  0  0  0  0  0  0  0  0  0  0  0
   11.0459   13.4536   21.9203 N   0  0  0  0  0  0  0  0  0  0  0  0
   10.5835   14.5333   23.9453 O   0  0  0  0  0  0  0  0  0  0  0  0
   10.7193    9.3400   22.8016 Cl  0  0  0  0  0  0  0  0  0  0  0  0
    6.5222   11.9371   25.4508 H   0  0  0  0  0  0  0  0  0  0  0  0
    6.1974    9.6657   24.5086 H   0  0  0  0  0  0  0  0  0  0  0  0
    8.7058   13.0735   25.2265 H   0  0  0  0  0  0  0  0  0  0  0  0
    8.0501    8.5283   23.3430 H   0  0  0  0  0  0  0  0  0  0  0  0
   12.7497   15.8133   20.7285 H   0  0  0  0  0  0  0  0  0  0  0  0
   12.5078   15.4642   22.4463 H   0  0  0  0  0  0  0  0  0  0  0  0
   10.9384   17.1582   22.7176 H   0  0  0  0  0  0  0  0  0  0  0  0
   11.7069   17.8531   21.2757 H   0  0  0  0  0  0  0  0  0  0  0  0
    8.9094   14.9231   20.4677 H   0  0  0  0  0  0  0  0  0  0  0  0
    9.1917   15.2367   22.1949 H   0  0  0  0  0  0  0  0  0  0  0  0
   11.1760   14.3160   20.0751 H   0  0  0  0  0  0  0  0  0  0  0  0
   10.4058   11.7235   20.8990 H   0  0  0  0  0  0  0  0  0  0  0  0
   11.9691   12.4085   20.3393 H   0  0  0  0  0  0  0  0  0  0  0  0
   11.8845   11.5196   21.8980 H   0  0  0  0  0  0  0  0  0  0  0  0
   11.6528   11.5249   23.4959 H   0  0  0  0  0  0  0  0  0  0  0  0
   11.3459   12.3288   25.0433 H   0  0  0  0  0  0  0  0  0  0  0  0
    9.1992   17.3348   21.2169 H   0  0  0  0  0  0  0  0  0  0  0  0
  1  2  2  0  0  0  0
  1  3  1  0  0  0  0
  2  4  1  0  0  0  0
  3  5  2  0  0  0  0
  4  6  2  0  0  0  0
  5  6  1  0  0  0  0
  5 13  1  0  0  0  0
  6 17  1  0  0  0  0
  7 13  1  0  0  0  0
  7 15  1  0  0  0  0
  7 16  2  0  0  0  0
  8  9  1  0  0  0  0
  8 11  1  0  0  0  0
  9 14  1  0  0  0  0
 10 11  1  0  0  0  0
 10 14  1  0  0  0  0
 11 15  1  0  0  0  0
 12 15  1  0  0  0  0
  1 18  1  0  0  0  0
  2 19  1  0  0  0  0
  3 20  1  0  0  0  0
  4 21  1  0  0  0  0
  8 22  1  0  0  0  0
  8 23  1  0  0  0  0
  9 24  1  0  0  0  0
  9 25  1  0  0  0  0
 10 26  1  0  0  0  0
 10 27  1  0  0  0  0
 11 28  1  0  0  0  0
 12 29  1  0  0  0  0
 12 30  1  0  0  0  0
 12 31  1  0  0  0  0
 13 32  1  0  0  0  0
 13 33  1  0  0  0  0
 14 34  1  0  0  0  0
M  END
> <Catalog ID>
Z1123687218

> <PlateID>
1337959-R-12

> <Well>
C06

> <MW (desalted)>
252.740

> <CLogP>
1.827

> <HBD>
1

> <TPSA>
32.340

> <RotBonds>
3

> <ROCS_ShapeQuery>
A71EV2A-x0451_0A_A71EV2A-x0310_0A_A71EV2A-x0416_0A_peptide

> <ROCS_TanimotoCombo>
0.439 

> <ROCS_ShapeTanimoto>
0.283 

> <ROCS_ColorTanimoto>
0.156 

> <ROCS_RefTversky>
0.254 

> <ROCS_RefColorTversky>
0.163 

> <ROCS_RefTverskyCombo>
0.418 

> <ROCS_FitTversky>
1.661 

> <ROCS_FitColorTversky>
0.783 

> <ROCS_FitTverskyCombo>
2.444 

> <ROCS_ColorScore>
-4.960

> <ROCS_Overlap>
1764.297

> <ROCS_Rank>
117                 

$$$$
untitled-dbase-751_2097
  -OEChem-11112309163D

 35 36  0     1  0  0  0  0  0999 V2000
   11.3818   15.0886   18.5639 C   0  0  0  0  0  0  0  0  0  0  0  0
   12.4838   15.8246   18.1286 C   0  0  0  0  0  0  0  0  0  0  0  0
   11.3249   14.6306   19.8802 C   0  0  0  0  0  0  0  0  0  0  0  0
   13.5290   16.1024   19.0095 C   0  0  0  0  0  0  0  0  0  0  0  0
   12.3701   14.9084   20.7611 C   0  0  0  0  0  0  0  0  0  0  0  0
   13.4722   15.6443   20.3258 C   0  0  0  0  0  0  0  0  0  0  0  0
   10.5784   13.2579   23.5426 C   0  0  0  0  0  0  0  0  0  0  0  0
    8.8341   10.0177   23.5022 C   0  0  0  0  0  0  0  0  0  0  0  0
    7.7492   10.8999   24.1019 C   0  0  0  0  0  0  0  0  0  0  0  0
    9.7030   11.0056   22.7430 C   0  0  0  0  0  0  0  0  0  0  0  0
    8.4812   12.2032   24.4443 C   0  0  2  0  0  0  0  0  0  0  0  0
   12.3052   14.4137   22.1772 C   0  0  0  0  0  0  0  0  0  0  0  0
    7.5490   13.4022   24.3072 C   0  0  0  0  0  0  0  0  0  0  0  0
    9.6248   12.2368   23.5259 N   0  0  0  0  0  0  0  0  0  0  0  0
   11.2828   13.4076   22.3522 N   0  0  0  0  0  0  0  0  0  0  0  0
   10.7800   13.9740   24.5269 O   0  0  0  0  0  0  0  0  0  0  0  0
    6.4565   13.2239   25.1888 O   0  0  0  0  0  0  0  0  0  0  0  0
   14.4812   15.9164   21.1650 F   0  0  0  0  0  0  0  0  0  0  0  0
   10.5680   14.8718   17.8778 H   0  0  0  0  0  0  0  0  0  0  0  0
   12.5283   16.1808   17.1036 H   0  0  0  0  0  0  0  0  0  0  0  0
   10.4626   14.0573   20.2102 H   0  0  0  0  0  0  0  0  0  0  0  0
   14.3871   16.6758   18.6709 H   0  0  0  0  0  0  0  0  0  0  0  0
    9.3934    9.4705   24.2655 H   0  0  0  0  0  0  0  0  0  0  0  0
    8.3932    9.2913   22.8106 H   0  0  0  0  0  0  0  0  0  0  0  0
    6.9052   11.0415   23.4187 H   0  0  0  0  0  0  0  0  0  0  0  0
    7.3672   10.4394   25.0224 H   0  0  0  0  0  0  0  0  0  0  0  0
   10.7477   10.6854   22.7218 H   0  0  0  0  0  0  0  0  0  0  0  0
    9.3511   11.1720   21.7237 H   0  0  0  0  0  0  0  0  0  0  0  0
    8.8524   12.1647   25.4868 H   0  0  0  0  0  0  0  0  0  0  0  0
   13.2636   13.9765   22.4778 H   0  0  0  0  0  0  0  0  0  0  0  0
   12.0901   15.2337   22.8704 H   0  0  0  0  0  0  0  0  0  0  0  0
    7.1812   13.4694   23.2841 H   0  0  0  0  0  0  0  0  0  0  0  0
    8.0805   14.3160   24.5698 H   0  0  0  0  0  0  0  0  0  0  0  0
   11.1182   12.7689   21.5801 H   0  0  0  0  0  0  0  0  0  0  0  0
    6.0090   12.4008   24.9273 H   0  0  0  0  0  0  0  0  0  0  0  0
  1  2  2  0  0  0  0
  1  3  1  0  0  0  0
  2  4  1  0  0  0  0
  3  5  2  0  0  0  0
  4  6  2  0  0  0  0
  5  6  1  0  0  0  0
  5 12  1  0  0  0  0
  6 18  1  0  0  0  0
  7 14  1  0  0  0  0
  7 15  1  0  0  0  0
  7 16  2  0  0  0  0
  8  9  1  0  0  0  0
  8 10  1  0  0  0  0
  9 11  1  0  0  0  0
 10 14  1  0  0  0  0
 11 13  1  1  0  0  0
 11 14  1  0  0  0  0
 12 15  1  0  0  0  0
 13 17  1  0  0  0  0
  1 19  1  0  0  0  0
  2 20  1  0  0  0  0
  3 21  1  0  0  0  0
  4 22  1  0  0  0  0
  8 23  1  0  0  0  0
  8 24  1  0  0  0  0
  9 25  1  0  0  0  0
  9 26  1  0  0  0  0
 10 27  1  0  0  0  0
 10 28  1  0  0  0  0
 11 29  1  0  0  0  0
 12 30  1  0  0  0  0
 12 31  1  0  0  0  0
 13 32  1  0  0  0  0
 13 33  1  0  0  0  0
 15 34  1  0  0  0  0
 17 35  1  0  0  0  0
M  END
> <Catalog ID>
Z933723030

> <PlateID>
1337959-R-10

> <Well>
D04

> <MW (desalted)>
252.285

> <CLogP>
1.560

> <HBD>
2

> <TPSA>
52.570

> <RotBonds>
3

> <ROCS_ShapeQuery>
A71EV2A-x0451_0A_A71EV2A-x0310_0A_A71EV2A-x0416_0A_peptide

> <ROCS_TanimotoCombo>
0.439 

> <ROCS_ShapeTanimoto>
0.273 

> <ROCS_ColorTanimoto>
0.167 

> <ROCS_RefTversky>
0.249 

> <ROCS_RefColorTversky>
0.177 

> <ROCS_RefTverskyCombo>
0.426 

> <ROCS_FitTversky>
1.547 

> <ROCS_FitColorTversky>
0.739 

> <ROCS_FitTverskyCombo>
2.286 

> <ROCS_ColorScore>
-5.383

> <ROCS_Overlap>
1725.039

> <ROCS_Rank>
118                 

$$$$
untitled-dbase-872_1485
  -OEChem-11112309163D

 41 43  0     1  0  0  0  0  0999 V2000
   12.1547   16.5329   21.0559 C   0  0  0  0  0  0  0  0  0  0  0  0
   12.6319   15.2188   21.2766 C   0  0  0  0  0  0  0  0  0  0  0  0
   11.6146   16.9488   22.2506 C   0  0  0  0  0  0  0  0  0  0  0  0
   12.3496   14.9255   22.5905 C   0  0  0  0  0  0  0  0  0  0  0  0
   12.5995   13.7245   23.3949 C   0  0  0  0  0  0  0  0  0  0  0  0
    9.8824   11.9022   24.9626 C   0  0  0  0  0  0  0  0  0  0  0  0
    9.2846   12.6205   22.6196 C   0  0  0  0  0  0  0  0  0  0  0  0
    7.2954   10.3717   23.1886 C   0  0  0  0  0  0  0  0  0  0  0  0
   11.3481   11.8241   24.5397 C   0  0  0  0  0  0  0  0  0  0  0  0
   10.7624   12.5394   22.2445 C   0  0  0  0  0  0  0  0  0  0  0  0
    8.8167   10.1425   23.3051 C   0  0  1  0  0  0  0  0  0  0  0  0
    7.4362   11.6041   24.1058 C   0  0  2  0  0  0  0  0  0  0  0  0
    8.9632   11.6358   23.7622 C   0  0  0  0  0  0  0  0  0  0  0  0
    6.4451   12.3172   27.5852 C   0  0  0  0  0  0  0  0  0  0  0  0
    6.8036   12.6023   26.1423 C   0  0  0  0  0  0  0  0  0  0  0  0
   11.6146   12.7339   23.4175 N   0  0  0  0  0  0  0  0  0  0  0  0
   13.6729   13.6869   23.9940 O   0  0  0  0  0  0  0  0  0  0  0  0
   11.7295   15.9748   23.1913 O   0  0  0  0  0  0  0  0  0  0  0  0
    9.2112    9.1335   24.2573 O   0  0  0  0  0  0  0  0  0  0  0  0
    7.0884   11.3800   25.4879 O   0  0  0  0  0  0  0  0  0  0  0  0
   12.1982   17.1050   20.1405 H   0  0  0  0  0  0  0  0  0  0  0  0
   13.1201   14.5696   20.5637 H   0  0  0  0  0  0  0  0  0  0  0  0
   11.1350   17.8599   22.5774 H   0  0  0  0  0  0  0  0  0  0  0  0
    9.7036   11.1536   25.7412 H   0  0  0  0  0  0  0  0  0  0  0  0
    9.6837   12.8817   25.4057 H   0  0  0  0  0  0  0  0  0  0  0  0
    9.0393   13.6490   22.9101 H   0  0  0  0  0  0  0  0  0  0  0  0
    8.6691   12.3848   21.7418 H   0  0  0  0  0  0  0  0  0  0  0  0
    6.9375   10.5871   22.1753 H   0  0  0  0  0  0  0  0  0  0  0  0
    6.6814    9.5622   23.6051 H   0  0  0  0  0  0  0  0  0  0  0  0
   12.0148   12.1220   25.3529 H   0  0  0  0  0  0  0  0  0  0  0  0
   11.5936   10.7905   24.2891 H   0  0  0  0  0  0  0  0  0  0  0  0
   10.9681   11.5738   21.7682 H   0  0  0  0  0  0  0  0  0  0  0  0
   11.0237   13.3209   21.5192 H   0  0  0  0  0  0  0  0  0  0  0  0
    9.2699    9.9327   22.3346 H   0  0  0  0  0  0  0  0  0  0  0  0
    6.8824   12.4636   23.7223 H   0  0  0  0  0  0  0  0  0  0  0  0
    5.5631   11.6738   27.6483 H   0  0  0  0  0  0  0  0  0  0  0  0
    7.2778   11.8271   28.1002 H   0  0  0  0  0  0  0  0  0  0  0  0
    6.2419   13.2489   28.1235 H   0  0  0  0  0  0  0  0  0  0  0  0
    7.6864   13.2462   26.0862 H   0  0  0  0  0  0  0  0  0  0  0  0
    5.9702   13.0912   25.6289 H   0  0  0  0  0  0  0  0  0  0  0  0
    8.7964    8.3136   23.9587 H   0  0  0  0  0  0  0  0  0  0  0  0
  1  2  1  0  0  0  0
  1  3  2  0  0  0  0
  2  4  2  0  0  0  0
  3 18  1  0  0  0  0
  4  5  1  0  0  0  0
  4 18  1  0  0  0  0
  5 16  1  0  0  0  0
  5 17  2  0  0  0  0
  6  9  1  0  0  0  0
  6 13  1  0  0  0  0
  7 10  1  0  0  0  0
  7 13  1  0  0  0  0
  8 11  1  0  0  0  0
  8 12  1  0  0  0  0
  9 16  1  0  0  0  0
 10 16  1  0  0  0  0
 11 13  1  0  0  0  0
 11 19  1  0  0  0  0
 12 13  1  0  0  0  0
 12 20  1  0  0  0  0
 14 15  1  0  0  0  0
 15 20  1  0  0  0  0
  1 21  1  0  0  0  0
  2 22  1  0  0  0  0
  3 23  1  0  0  0  0
  6 24  1  0  0  0  0
  6 25  1  0  0  0  0
  7 26  1  0  0  0  0
  7 27  1  0  0  0  0
  8 28  1  0  0  0  0
  8 29  1  0  0  0  0
  9 30  1  0  0  0  0
  9 31  1  0  0  0  0
 10 32  1  0  0  0  0
 10 33  1  0  0  0  0
 11 34  1  0  0  0  0
 12 35  1  0  0  0  0
 14 36  1  0  0  0  0
 14 37  1  0  0  0  0
 14 38  1  0  0  0  0
 15 39  1  0  0  0  0
 15 40  1  0  0  0  0
 19 41  1  0  0  0  0
M  END
> <Catalog ID>
Z1256512483

> <PlateID>
1337959-R-11

> <Well>
H06

> <MW (desalted)>
279.332

> <CLogP>
0.164

> <HBD>
1

> <TPSA>
62.910

> <RotBonds>
3

> <ROCS_ShapeQuery>
A71EV2A-x0451_0A_A71EV2A-x0310_0A_A71EV2A-x0416_0A_peptide

> <ROCS_TanimotoCombo>
0.439 

> <ROCS_ShapeTanimoto>
0.296 

> <ROCS_ColorTanimoto>
0.143 

> <ROCS_RefTversky>
0.268 

> <ROCS_RefColorTversky>
0.163 

> <ROCS_RefTverskyCombo>
0.431 

> <ROCS_FitTversky>
1.541 

> <ROCS_FitColorTversky>
0.542 

> <ROCS_FitTverskyCombo>
2.083 

> <ROCS_ColorScore>
-4.980

> <ROCS_Overlap>
1860.021

> <ROCS_Rank>
119                 

$$$$
untitled-dbase-1003_31
  -OEChem-11112309163D

 29 30  0     1  0  0  0  0  0999 V2000
    7.3373    9.9641   24.3385 C   0  0  0  0  0  0  0  0  0  0  0  0
    9.4947   10.4236   23.3531 C   0  0  0  0  0  0  0  0  0  0  0  0
    8.3758   12.1222   24.6568 C   0  0  0  0  0  0  0  0  0  0  0  0
    8.4294    9.5511   23.5755 C   0  0  0  0  0  0  0  0  0  0  0  0
    7.3105   11.2497   24.8792 C   0  0  0  0  0  0  0  0  0  0  0  0
    9.4679   11.7092   23.8938 C   0  0  0  0  0  0  0  0  0  0  0  0
   10.7903   14.6404   20.1170 C   0  0  0  0  0  0  0  0  0  0  0  0
   11.1726   13.4449   20.9782 C   0  0  0  0  0  0  0  0  0  0  0  0
    9.8179   14.9841   22.2694 C   0  0  0  0  0  0  0  0  0  0  0  0
   10.5637   15.7210   21.1605 C   0  0  2  0  0  0  0  0  0  0  0  0
   10.3042   13.5734   22.1822 N   0  0  2  0  0  0  0  0  0  0  0  0
    9.8464   16.8525   20.6510 N   0  0  0  0  0  0  0  0  0  0  0  0
   10.8262   13.7783   24.6982 O   0  0  0  0  0  0  0  0  0  0  0  0
   11.9946   12.0095   23.3367 O   0  0  0  0  0  0  0  0  0  0  0  0
    8.4543    8.3168   23.0556 F   0  0  0  0  0  0  0  0  0  0  0  0
    6.2613   11.6465   25.6112 F   0  0  0  0  0  0  0  0  0  0  0  0
   10.8184   12.8148   23.6122 S   0  0  0  0  0  0  0  0  0  0  0  0
    6.5078    9.2846   24.5101 H   0  0  0  0  0  0  0  0  0  0  0  0
   10.3407   10.0911   22.7574 H   0  0  0  0  0  0  0  0  0  0  0  0
    8.3443   13.1210   25.0833 H   0  0  0  0  0  0  0  0  0  0  0  0
   11.5644   14.8972   19.3929 H   0  0  0  0  0  0  0  0  0  0  0  0
    9.8667   14.4213   19.5722 H   0  0  0  0  0  0  0  0  0  0  0  0
   11.0120   12.5065   20.4475 H   0  0  0  0  0  0  0  0  0  0  0  0
   12.2144   13.5064   21.2979 H   0  0  0  0  0  0  0  0  0  0  0  0
   10.0371   15.4058   23.2591 H   0  0  0  0  0  0  0  0  0  0  0  0
    8.7296   15.0079   22.1067 H   0  0  0  0  0  0  0  0  0  0  0  0
   11.5474   16.0563   21.5479 H   0  0  0  0  0  0  0  0  0  0  0  0
    9.7161   17.5072   21.3893 H   0  0  0  0  0  0  0  0  0  0  0  0
   10.3784   17.2633   19.9168 H   0  0  0  0  0  0  0  0  0  0  0  0
  1  4  2  0  0  0  0
  1  5  1  0  0  0  0
  2  4  1  0  0  0  0
  2  6  2  0  0  0  0
  3  5  2  0  0  0  0
  3  6  1  0  0  0  0
  4 15  1  0  0  0  0
  5 16  1  0  0  0  0
  6 17  1  0  0  0  0
  7  8  1  0  0  0  0
  7 10  1  0  0  0  0
  8 11  1  0  0  0  0
  9 10  1  0  0  0  0
  9 11  1  0  0  0  0
 10 12  1  0  0  0  0
 11 17  1  0  0  0  0
 13 17  2  0  0  0  0
 14 17  2  0  0  0  0
  1 18  1  0  0  0  0
  2 19  1  0  0  0  0
  3 20  1  0  0  0  0
  7 21  1  0  0  0  0
  7 22  1  0  0  0  0
  8 23  1  0  0  0  0
  8 24  1  0  0  0  0
  9 25  1  0  0  0  0
  9 26  1  0  0  0  0
 10 27  1  0  0  0  0
 12 28  1  0  0  0  0
 12 29  1  0  0  0  0
M  END
> <Catalog ID>
Z1491270402

> <PlateID>
1337959-R-13

> <Well>
E08

> <MW (desalted)>
262.276

> <CLogP>
1.105

> <HBD>
1

> <TPSA>
63.400

> <RotBonds>
1

> <ROCS_ShapeQuery>
A71EV2A-x0451_0A_A71EV2A-x0310_0A_A71EV2A-x0416_0A_peptide

> <ROCS_TanimotoCombo>
0.439 

> <ROCS_ShapeTanimoto>
0.296 

> <ROCS_ColorTanimoto>
0.143 

> <ROCS_RefTversky>
0.263 

> <ROCS_RefColorTversky>
0.155 

> <ROCS_RefTverskyCombo>
0.418 

> <ROCS_FitTversky>
1.723 

> <ROCS_FitColorTversky>
0.649 

> <ROCS_FitTverskyCombo>
2.372 

> <ROCS_ColorScore>
-4.730

> <ROCS_Overlap>
1823.137

> <ROCS_Rank>
120                 

$$$$
untitled-dbase-850_11
  -OEChem-11112309163D

 28 29  0     0  0  0  0  0  0999 V2000
    9.4665    9.3216   23.5843 C   0  0  0  0  0  0  0  0  0  0  0  0
    8.1827    9.5313   24.0796 C   0  0  0  0  0  0  0  0  0  0  0  0
   10.3324   10.3992   23.4453 C   0  0  0  0  0  0  0  0  0  0  0  0
    6.4744   11.0624   24.9391 C   0  0  0  0  0  0  0  0  0  0  0  0
    7.0122   13.3604   25.1132 C   0  0  0  0  0  0  0  0  0  0  0  0
    7.7610   10.8230   24.4380 C   0  0  0  0  0  0  0  0  0  0  0  0
    6.0881   12.3496   25.2839 C   0  0  0  0  0  0  0  0  0  0  0  0
    8.6348   11.9217   24.2994 C   0  0  0  0  0  0  0  0  0  0  0  0
    9.9129   11.6833   23.8017 C   0  0  0  0  0  0  0  0  0  0  0  0
    4.7290   12.6291   25.8176 C   0  0  0  0  0  0  0  0  0  0  0  0
   11.8158   14.0476   21.1706 C   0  0  0  0  0  0  0  0  0  0  0  0
    8.2628   13.1720   24.6333 N   0  0  0  0  0  0  0  0  0  0  0  0
   10.7295   13.5199   22.0084 N   0  0  0  0  0  0  0  0  0  0  0  0
   10.6941   14.0656   24.5259 O   0  0  0  0  0  0  0  0  0  0  0  0
   12.3910   12.4307   23.6473 O   0  0  0  0  0  0  0  0  0  0  0  0
   11.0546   13.0018   23.6021 S   0  0  0  0  0  0  0  0  0  0  0  0
    9.7886    8.3222   23.3085 H   0  0  0  0  0  0  0  0  0  0  0  0
    7.5128    8.6808   24.1845 H   0  0  0  0  0  0  0  0  0  0  0  0
   11.3339   10.2308   23.0582 H   0  0  0  0  0  0  0  0  0  0  0  0
    5.7717   10.2403   25.0604 H   0  0  0  0  0  0  0  0  0  0  0  0
    6.7740   14.3897   25.3635 H   0  0  0  0  0  0  0  0  0  0  0  0
    4.7196   12.5488   26.9131 H   0  0  0  0  0  0  0  0  0  0  0  0
    4.3878   13.6378   25.5437 H   0  0  0  0  0  0  0  0  0  0  0  0
    3.9853   11.9264   25.4147 H   0  0  0  0  0  0  0  0  0  0  0  0
   12.7758   13.6297   21.5078 H   0  0  0  0  0  0  0  0  0  0  0  0
   11.6408   13.7644   20.1222 H   0  0  0  0  0  0  0  0  0  0  0  0
   11.8438   15.1441   21.2544 H   0  0  0  0  0  0  0  0  0  0  0  0
    9.7834   13.8477   21.7786 H   0  0  0  0  0  0  0  0  0  0  0  0
  1  2  2  0  0  0  0
  1  3  1  0  0  0  0
  2  6  1  0  0  0  0
  3  9  2  0  0  0  0
  4  6  2  0  0  0  0
  4  7  1  0  0  0  0
  5  7  2  0  0  0  0
  5 12  1  0  0  0  0
  6  8  1  0  0  0  0
  7 10  1  0  0  0  0
  8  9  1  0  0  0  0
  8 12  2  0  0  0  0
  9 16  1  0  0  0  0
 11 13  1  0  0  0  0
 13 16  1  0  0  0  0
 14 16  2  0  0  0  0
 15 16  2  0  0  0  0
  1 17  1  0  0  0  0
  2 18  1  0  0  0  0
  3 19  1  0  0  0  0
  4 20  1  0  0  0  0
  5 21  1  0  0  0  0
 10 22  1  0  0  0  0
 10 23  1  0  0  0  0
 10 24  1  0  0  0  0
 11 25  1  0  0  0  0
 11 26  1  0  0  0  0
 11 27  1  0  0  0  0
 13 28  1  0  0  0  0
M  END
> <Catalog ID>
Z271165436

> <PlateID>
1337959-R-11

> <Well>
F04

> <MW (desalted)>
236.290

> <CLogP>
2.115

> <HBD>
1

> <TPSA>
59.060

> <RotBonds>
1

> <ROCS_ShapeQuery>
A71EV2A-x0451_0A_A71EV2A-x0310_0A_A71EV2A-x0416_0A_peptide

> <ROCS_TanimotoCombo>
0.439 

> <ROCS_ShapeTanimoto>
0.306 

> <ROCS_ColorTanimoto>
0.133 

> <ROCS_RefTversky>
0.269 

> <ROCS_RefColorTversky>
0.145 

> <ROCS_RefTverskyCombo>
0.414 

> <ROCS_FitTversky>
1.812 

> <ROCS_FitColorTversky>
0.606 

> <ROCS_FitTverskyCombo>
2.418 

> <ROCS_ColorScore>
-4.422

> <ROCS_Overlap>
1865.109

> <ROCS_Rank>
121                 

$$$$
untitled-dbase-983_60
  -OEChem-11112309163D

 35 36  0     1  0  0  0  0  0999 V2000
    8.2647    9.4854   23.8024 C   0  0  0  0  0  0  0  0  0  0  0  0
    7.3009    9.9253   24.7097 C   0  0  0  0  0  0  0  0  0  0  0  0
    8.4778   12.0224   24.9430 C   0  0  0  0  0  0  0  0  0  0  0  0
    9.3351   10.3140   23.4654 C   0  0  0  0  0  0  0  0  0  0  0  0
    7.4075   11.1938   25.2800 C   0  0  0  0  0  0  0  0  0  0  0  0
    9.4416   11.5824   24.0357 C   0  0  0  0  0  0  0  0  0  0  0  0
    9.4381   14.2258   20.2787 C   0  0  0  0  0  0  0  0  0  0  0  0
    9.1726   13.5663   21.6236 C   0  0  0  0  0  0  0  0  0  0  0  0
   11.5532   13.5549   21.1592 C   0  0  0  0  0  0  0  0  0  0  0  0
   10.8839   14.6952   20.3891 C   0  0  2  0  0  0  0  0  0  0  0  0
   10.3496    9.8127   22.4902 C   0  0  0  0  0  0  0  0  0  0  0  0
   11.0086   16.0295   21.1237 C   0  0  0  0  0  0  0  0  0  0  0  0
   10.4719   12.9378   21.9846 N   0  0  1  0  0  0  0  0  0  0  0  0
    9.9542   16.9068   20.7300 N   0  0  0  0  0  0  0  0  0  0  0  0
   10.5958   13.8900   24.3771 O   0  0  0  0  0  0  0  0  0  0  0  0
   12.0132   11.8981   23.7681 O   0  0  0  0  0  0  0  0  0  0  0  0
    6.4813   11.6161   26.1507 F   0  0  0  0  0  0  0  0  0  0  0  0
   10.7842   12.6589   23.6308 S   0  0  0  0  0  0  0  0  0  0  0  0
    8.1714    8.4952   23.3640 H   0  0  0  0  0  0  0  0  0  0  0  0
    6.4680    9.2802   24.9729 H   0  0  0  0  0  0  0  0  0  0  0  0
    8.5498   13.0085   25.3939 H   0  0  0  0  0  0  0  0  0  0  0  0
    9.2808   13.5325   19.4403 H   0  0  0  0  0  0  0  0  0  0  0  0
    8.7581   15.0809   20.1352 H   0  0  0  0  0  0  0  0  0  0  0  0
    8.8716   14.2971   22.3803 H   0  0  0  0  0  0  0  0  0  0  0  0
    8.3957   12.7982   21.5275 H   0  0  0  0  0  0  0  0  0  0  0  0
   12.0053   12.8308   20.4708 H   0  0  0  0  0  0  0  0  0  0  0  0
   12.3341   13.9178   21.8397 H   0  0  0  0  0  0  0  0  0  0  0  0
   11.3223   14.7814   19.4023 H   0  0  0  0  0  0  0  0  0  0  0  0
   10.0580   10.0800   21.4681 H   0  0  0  0  0  0  0  0  0  0  0  0
   11.3395   10.2386   22.6945 H   0  0  0  0  0  0  0  0  0  0  0  0
   10.4522    8.7222   22.5510 H   0  0  0  0  0  0  0  0  0  0  0  0
   10.9504   15.8250   22.1941 H   0  0  0  0  0  0  0  0  0  0  0  0
   11.9765   16.4614   20.8641 H   0  0  0  0  0  0  0  0  0  0  0  0
    9.0649   16.4879   20.9314 H   0  0  0  0  0  0  0  0  0  0  0  0
   10.0253   17.7746   21.2288 H   0  0  0  0  0  0  0  0  0  0  0  0
  1  2  1  0  0  0  0
  1  4  2  0  0  0  0
  2  5  2  0  0  0  0
  3  5  1  0  0  0  0
  3  6  2  0  0  0  0
  4  6  1  0  0  0  0
  4 11  1  0  0  0  0
  5 17  1  0  0  0  0
  6 18  1  0  0  0  0
  7  8  1  0  0  0  0
  7 10  1  0  0  0  0
  8 13  1  0  0  0  0
  9 10  1  0  0  0  0
  9 13  1  0  0  0  0
 10 12  1  0  0  0  0
 12 14  1  0  0  0  0
 13 18  1  0  0  0  0
 15 18  2  0  0  0  0
 16 18  2  0  0  0  0
  1 19  1  0  0  0  0
  2 20  1  0  0  0  0
  3 21  1  0  0  0  0
  7 22  1  0  0  0  0
  7 23  1  0  0  0  0
  8 24  1  0  0  0  0
  8 25  1  0  0  0  0
  9 26  1  0  0  0  0
  9 27  1  0  0  0  0
 10 28  1  0  0  0  0
 11 29  1  0  0  0  0
 11 30  1  0  0  0  0
 11 31  1  0  0  0  0
 12 32  1  0  0  0  0
 12 33  1  0  0  0  0
 14 34  1  0  0  0  0
 14 35  1  0  0  0  0
M  END
> <Catalog ID>
Z1491272215

> <PlateID>
1337959-R-13

> <Well>
C08

> <MW (desalted)>
272.339

> <CLogP>
1.245

> <HBD>
1

> <TPSA>
63.400

> <RotBonds>
2

> <ROCS_ShapeQuery>
A71EV2A-x0451_0A_A71EV2A-x0310_0A_A71EV2A-x0416_0A_peptide

> <ROCS_TanimotoCombo>
0.439 

> <ROCS_ShapeTanimoto>
0.290 

> <ROCS_ColorTanimoto>
0.148 

> <ROCS_RefTversky>
0.260 

> <ROCS_RefColorTversky>
0.160 

> <ROCS_RefTverskyCombo>
0.421 

> <ROCS_FitTversky>
1.654 

> <ROCS_FitColorTversky>
0.669 

> <ROCS_FitTverskyCombo>
2.323 

> <ROCS_ColorScore>
-4.873

> <ROCS_Overlap>
1806.313

> <ROCS_Rank>
122                 

$$$$
untitled-dbase-409_16
  -OEChem-11112309163D

 40 43  0     0  0  0  0  0  0999 V2000
    6.4228   11.1462   26.0472 C   0  0  0  0  0  0  0  0  0  0  0  0
    6.8889   12.4687   26.0566 C   0  0  0  0  0  0  0  0  0  0  0  0
    7.0137   10.1938   25.2164 C   0  0  0  0  0  0  0  0  0  0  0  0
    7.9530   12.8571   25.2374 C   0  0  0  0  0  0  0  0  0  0  0  0
    8.0668   10.5878   24.4054 C   0  0  0  0  0  0  0  0  0  0  0  0
    8.5356   11.9017   24.4176 C   0  0  0  0  0  0  0  0  0  0  0  0
   10.4469   13.1532   23.4296 C   0  0  0  0  0  0  0  0  0  0  0  0
    8.8517    9.7314   23.4653 C   0  0  0  0  0  0  0  0  0  0  0  0
   14.5918   12.7987   23.1247 C   0  0  0  0  0  0  0  0  0  0  0  0
   13.4692   13.7300   23.6160 C   0  0  0  0  0  0  0  0  0  0  0  0
   13.5552   12.1456   22.1976 C   0  0  0  0  0  0  0  0  0  0  0  0
    9.8159   10.7448   22.8357 C   0  0  0  0  0  0  0  0  0  0  0  0
   10.7145   12.7286   21.0142 C   0  0  0  0  0  0  0  0  0  0  0  0
   11.1179   13.6854   19.8991 C   0  0  0  0  0  0  0  0  0  0  0  0
   13.0171   14.4448   21.1105 C   0  0  0  0  0  0  0  0  0  0  0  0
   12.7323   13.4817   22.2624 C   0  0  0  0  0  0  0  0  0  0  0  0
    9.5997   12.0470   23.5042 N   0  0  0  0  0  0  0  0  0  0  0  0
   11.2509   13.2204   22.2848 N   0  0  0  0  0  0  0  0  0  0  0  0
   10.5664   13.9821   24.3378 O   0  0  0  0  0  0  0  0  0  0  0  0
   12.5338   13.8826   19.8816 O   0  0  0  0  0  0  0  0  0  0  0  0
    5.5934   10.8634   26.6897 H   0  0  0  0  0  0  0  0  0  0  0  0
    6.4189   13.1983   26.7106 H   0  0  0  0  0  0  0  0  0  0  0  0
    6.6491    9.1721   25.2041 H   0  0  0  0  0  0  0  0  0  0  0  0
    8.3043   13.8811   25.2799 H   0  0  0  0  0  0  0  0  0  0  0  0
    9.3916    8.9389   23.9939 H   0  0  0  0  0  0  0  0  0  0  0  0
    8.1912    9.2960   22.7073 H   0  0  0  0  0  0  0  0  0  0  0  0
   15.4005   13.3167   22.5963 H   0  0  0  0  0  0  0  0  0  0  0  0
   15.0299   12.1447   23.8835 H   0  0  0  0  0  0  0  0  0  0  0  0
   12.9414   13.3425   24.4986 H   0  0  0  0  0  0  0  0  0  0  0  0
   13.7757   14.7608   23.8253 H   0  0  0  0  0  0  0  0  0  0  0  0
   13.9228   11.8595   21.2092 H   0  0  0  0  0  0  0  0  0  0  0  0
   13.0673   11.2791   22.6576 H   0  0  0  0  0  0  0  0  0  0  0  0
   10.8469   10.4208   23.0149 H   0  0  0  0  0  0  0  0  0  0  0  0
    9.6708   10.8434   21.7532 H   0  0  0  0  0  0  0  0  0  0  0  0
    9.6270   12.6821   21.1136 H   0  0  0  0  0  0  0  0  0  0  0  0
   11.1085   11.7423   20.7683 H   0  0  0  0  0  0  0  0  0  0  0  0
   10.7897   13.3190   18.9196 H   0  0  0  0  0  0  0  0  0  0  0  0
   10.6499   14.6613   20.0601 H   0  0  0  0  0  0  0  0  0  0  0  0
   12.5042   15.4018   21.2513 H   0  0  0  0  0  0  0  0  0  0  0  0
   14.0886   14.6606   21.0196 H   0  0  0  0  0  0  0  0  0  0  0  0
  1  2  2  0  0  0  0
  1  3  1  0  0  0  0
  2  4  1  0  0  0  0
  3  5  2  0  0  0  0
  4  6  2  0  0  0  0
  5  6  1  0  0  0  0
  5  8  1  0  0  0  0
  6 17  1  0  0  0  0
  7 17  1  0  0  0  0
  7 18  1  0  0  0  0
  7 19  2  0  0  0  0
  8 12  1  0  0  0  0
  9 10  1  0  0  0  0
  9 11  1  0  0  0  0
 10 16  1  0  0  0  0
 11 16  1  0  0  0  0
 12 17  1  0  0  0  0
 13 14  1  0  0  0  0
 13 18  1  0  0  0  0
 14 20  1  0  0  0  0
 15 16  1  0  0  0  0
 15 20  1  0  0  0  0
 16 18  1  0  0  0  0
  1 21  1  0  0  0  0
  2 22  1  0  0  0  0
  3 23  1  0  0  0  0
  4 24  1  0  0  0  0
  8 25  1  0  0  0  0
  8 26  1  0  0  0  0
  9 27  1  0  0  0  0
  9 28  1  0  0  0  0
 10 29  1  0  0  0  0
 10 30  1  0  0  0  0
 11 31  1  0  0  0  0
 11 32  1  0  0  0  0
 12 33  1  0  0  0  0
 12 34  1  0  0  0  0
 13 35  1  0  0  0  0
 13 36  1  0  0  0  0
 14 37  1  0  0  0  0
 14 38  1  0  0  0  0
 15 39  1  0  0  0  0
 15 40  1  0  0  0  0
M  END
> <Catalog ID>
Z1888799121

> <PlateID>
1337959-R-06

> <Well>
A11

> <MW (desalted)>
272.342

> <CLogP>
2.690

> <HBD>
0

> <TPSA>
32.780

> <RotBonds>
0

> <ROCS_ShapeQuery>
A71EV2A-x0451_0A_A71EV2A-x0310_0A_A71EV2A-x0416_0A_peptide

> <ROCS_TanimotoCombo>
0.438 

> <ROCS_ShapeTanimoto>
0.308 

> <ROCS_ColorTanimoto>
0.130 

> <ROCS_RefTversky>
0.278 

> <ROCS_RefColorTversky>
0.143 

> <ROCS_RefTverskyCombo>
0.420 

> <ROCS_FitTversky>
1.556 

> <ROCS_FitColorTversky>
0.595 

> <ROCS_FitTverskyCombo>
2.151 

> <ROCS_ColorScore>
-4.344

> <ROCS_Overlap>
1926.942

> <ROCS_Rank>
123                 

$$$$
untitled-dbase-1114_284
  -OEChem-11112309163D

 35 37  0     1  0  0  0  0  0999 V2000
   12.2880   15.6525   20.0696 C   0  0  0  0  0  0  0  0  0  0  0  0
   12.7032   14.5950   20.9295 C   0  0  0  0  0  0  0  0  0  0  0  0
   10.9281   15.8640   20.1290 C   0  0  0  0  0  0  0  0  0  0  0  0
   11.6448   14.0386   21.6136 C   0  0  0  0  0  0  0  0  0  0  0  0
   10.5734   13.0597   23.6435 C   0  0  0  0  0  0  0  0  0  0  0  0
    8.7929   12.0485   26.0848 C   0  0  0  0  0  0  0  0  0  0  0  0
   10.1052   10.6266   23.4150 C   0  0  0  0  0  0  0  0  0  0  0  0
    7.6049   12.7134   26.7568 C   0  0  0  0  0  0  0  0  0  0  0  0
    8.9771    9.6564   23.1325 C   0  0  0  0  0  0  0  0  0  0  0  0
    7.6605   13.4199   24.5287 C   0  0  0  0  0  0  0  0  0  0  0  0
    7.4198   10.9734   24.2444 C   0  0  0  0  0  0  0  0  0  0  0  0
    8.4361   12.0942   24.5998 C   0  0  2  0  0  0  0  0  0  0  0  0
   11.6626   12.9158   22.6056 C   0  0  0  0  0  0  0  0  0  0  0  0
    9.6559   11.9914   23.7441 N   0  0  0  0  0  0  0  0  0  0  0  0
   10.5555   14.0851   24.3273 O   0  0  0  0  0  0  0  0  0  0  0  0
    6.9656   13.5490   25.7828 O   0  0  0  0  0  0  0  0  0  0  0  0
    8.0366    9.6927   24.1949 O   0  0  0  0  0  0  0  0  0  0  0  0
   10.1579   14.7904   21.2182 S   0  0  0  0  0  0  0  0  0  0  0  0
   12.9523   16.2297   19.4399 H   0  0  0  0  0  0  0  0  0  0  0  0
   13.7283   14.2638   21.0383 H   0  0  0  0  0  0  0  0  0  0  0  0
   10.3500   16.5974   19.5847 H   0  0  0  0  0  0  0  0  0  0  0  0
    9.7403   12.5243   26.3500 H   0  0  0  0  0  0  0  0  0  0  0  0
    8.8535   11.0095   26.4310 H   0  0  0  0  0  0  0  0  0  0  0  0
   10.6872   10.2809   24.2840 H   0  0  0  0  0  0  0  0  0  0  0  0
   10.7881   10.6164   22.5565 H   0  0  0  0  0  0  0  0  0  0  0  0
    6.8841   11.9824   27.1395 H   0  0  0  0  0  0  0  0  0  0  0  0
    7.9220   13.3449   27.5948 H   0  0  0  0  0  0  0  0  0  0  0  0
    8.4808    9.8811   22.1827 H   0  0  0  0  0  0  0  0  0  0  0  0
    9.3696    8.6380   23.0685 H   0  0  0  0  0  0  0  0  0  0  0  0
    8.2806   14.2914   24.3378 H   0  0  0  0  0  0  0  0  0  0  0  0
    6.8921   13.3909   23.7555 H   0  0  0  0  0  0  0  0  0  0  0  0
    6.6278   10.9199   25.0003 H   0  0  0  0  0  0  0  0  0  0  0  0
    6.9258   11.1841   23.2867 H   0  0  0  0  0  0  0  0  0  0  0  0
   11.5303   11.9598   22.0985 H   0  0  0  0  0  0  0  0  0  0  0  0
   12.6212   12.8671   23.1221 H   0  0  0  0  0  0  0  0  0  0  0  0
  1  2  1  0  0  0  0
  1  3  2  0  0  0  0
  2  4  2  0  0  0  0
  3 18  1  0  0  0  0
  4 13  1  0  0  0  0
  4 18  1  0  0  0  0
  5 13  1  0  0  0  0
  5 14  1  0  0  0  0
  5 15  2  0  0  0  0
  6  8  1  0  0  0  0
  6 12  1  0  0  0  0
  7  9  1  0  0  0  0
  7 14  1  0  0  0  0
  8 16  1  0  0  0  0
  9 17  1  0  0  0  0
 10 12  1  0  0  0  0
 10 16  1  0  0  0  0
 11 12  1  0  0  0  0
 11 17  1  0  0  0  0
 12 14  1  0  0  0  0
  1 19  1  0  0  0  0
  2 20  1  0  0  0  0
  3 21  1  0  0  0  0
  6 22  1  0  0  0  0
  6 23  1  0  0  0  0
  7 24  1  0  0  0  0
  7 25  1  0  0  0  0
  8 26  1  0  0  0  0
  8 27  1  0  0  0  0
  9 28  1  0  0  0  0
  9 29  1  0  0  0  0
 10 30  1  0  0  0  0
 10 31  1  0  0  0  0
 11 32  1  0  0  0  0
 11 33  1  0  0  0  0
 13 34  1  0  0  0  0
 13 35  1  0  0  0  0
M  END
> <Catalog ID>
Z1995557148

> <PlateID>
1337959-R-14

> <Well>
H10

> <MW (desalted)>
267.344

> <CLogP>
0.751

> <HBD>
0

> <TPSA>
38.770

> <RotBonds>
2

> <ROCS_ShapeQuery>
A71EV2A-x0451_0A_A71EV2A-x0310_0A_A71EV2A-x0416_0A_peptide

> <ROCS_TanimotoCombo>
0.438 

> <ROCS_ShapeTanimoto>
0.305 

> <ROCS_ColorTanimoto>
0.133 

> <ROCS_RefTversky>
0.271 

> <ROCS_RefColorTversky>
0.146 

> <ROCS_RefTverskyCombo>
0.417 

> <ROCS_FitTversky>
1.682 

> <ROCS_FitColorTversky>
0.609 

> <ROCS_FitTverskyCombo>
2.291 

> <ROCS_ColorScore>
-4.439

> <ROCS_Overlap>
1881.680

> <ROCS_Rank>
124                 

$$$$
untitled-dbase-961_165
  -OEChem-11112309163D

 34 35  0     1  0  0  0  0  0999 V2000
    8.0612   12.3380   24.2067 C   0  0  0  0  0  0  0  0  0  0  0  0
    7.3325   11.1536   24.3141 C   0  0  0  0  0  0  0  0  0  0  0  0
    9.9535   11.0971   23.3603 C   0  0  0  0  0  0  0  0  0  0  0  0
    9.3718   12.3098   23.7297 C   0  0  0  0  0  0  0  0  0  0  0  0
    9.2248    9.9126   23.4678 C   0  0  0  0  0  0  0  0  0  0  0  0
    7.9142    9.9409   23.9447 C   0  0  0  0  0  0  0  0  0  0  0  0
   10.1380   13.5581   23.6149 C   0  0  0  0  0  0  0  0  0  0  0  0
    8.6635   15.6675   20.8803 C   0  0  0  0  0  0  0  0  0  0  0  0
    8.9104   14.2990   21.5199 C   0  0  0  0  0  0  0  0  0  0  0  0
   11.2887   14.9373   21.9473 C   0  0  0  0  0  0  0  0  0  0  0  0
   11.0984   15.8775   20.7518 C   0  0  1  0  0  0  0  0  0  0  0  0
    9.8485    8.6170   23.0708 C   0  0  0  0  0  0  0  0  0  0  0  0
   11.3003   15.1843   19.4022 C   0  0  0  0  0  0  0  0  0  0  0  0
    9.8147   16.5639   20.8514 N   0  0  0  0  0  0  0  0  0  0  0  0
   10.0703   14.2738   22.4124 N   0  0  0  0  0  0  0  0  0  0  0  0
   10.8018   13.8850   24.5983 O   0  0  0  0  0  0  0  0  0  0  0  0
    7.2062    8.8080   24.0522 F   0  0  0  0  0  0  0  0  0  0  0  0
    7.5976   13.2775   24.4964 H   0  0  0  0  0  0  0  0  0  0  0  0
    6.3114   11.1756   24.6833 H   0  0  0  0  0  0  0  0  0  0  0  0
   10.9752   11.0733   22.9874 H   0  0  0  0  0  0  0  0  0  0  0  0
    8.3061   15.5190   19.8385 H   0  0  0  0  0  0  0  0  0  0  0  0
    7.8151   16.1728   21.3944 H   0  0  0  0  0  0  0  0  0  0  0  0
    7.9955   13.9770   22.0439 H   0  0  0  0  0  0  0  0  0  0  0  0
    9.0968   13.5429   20.7356 H   0  0  0  0  0  0  0  0  0  0  0  0
   12.0100   14.1278   21.6998 H   0  0  0  0  0  0  0  0  0  0  0  0
   11.7561   15.4919   22.7892 H   0  0  0  0  0  0  0  0  0  0  0  0
   11.9085   16.6735   20.8256 H   0  0  0  0  0  0  0  0  0  0  0  0
   10.3555    8.1588   23.9286 H   0  0  0  0  0  0  0  0  0  0  0  0
    9.0964    7.9121   22.6936 H   0  0  0  0  0  0  0  0  0  0  0  0
   10.5827    8.7584   22.2671 H   0  0  0  0  0  0  0  0  0  0  0  0
   10.5501   14.4063   19.2710 H   0  0  0  0  0  0  0  0  0  0  0  0
   12.2911   14.7348   19.3628 H   0  0  0  0  0  0  0  0  0  0  0  0
   11.2057   15.9106   18.5965 H   0  0  0  0  0  0  0  0  0  0  0  0
    9.7126   17.2078   20.0493 H   0  0  0  0  0  0  0  0  0  0  0  0
  1  2  1  0  0  0  0
  1  4  2  0  0  0  0
  2  6  2  0  0  0  0
  3  4  1  0  0  0  0
  3  5  2  0  0  0  0
  4  7  1  0  0  0  0
  5  6  1  0  0  0  0
  5 12  1  0  0  0  0
  6 17  1  0  0  0  0
  7 15  1  0  0  0  0
  7 16  2  0  0  0  0
  8  9  1  0  0  0  0
  8 14  1  0  0  0  0
  9 15  1  0  0  0  0
 10 11  1  0  0  0  0
 10 15  1  0  0  0  0
 11 13  1  6  0  0  0
 11 14  1  0  0  0  0
  1 18  1  0  0  0  0
  2 19  1  0  0  0  0
  3 20  1  0  0  0  0
  8 21  1  0  0  0  0
  8 22  1  0  0  0  0
  9 23  1  0  0  0  0
  9 24  1  0  0  0  0
 10 25  1  0  0  0  0
 10 26  1  0  0  0  0
 11 27  1  0  0  0  0
 12 28  1  0  0  0  0
 12 29  1  0  0  0  0
 12 30  1  0  0  0  0
 13 31  1  0  0  0  0
 13 32  1  0  0  0  0
 13 33  1  0  0  0  0
 14 34  1  0  0  0  0
M  END
> <Catalog ID>
Z1449601486

> <PlateID>
1337959-R-13

> <Well>
A05

> <MW (desalted)>
236.285

> <CLogP>
1.995

> <HBD>
1

> <TPSA>
32.340

> <RotBonds>
1

> <ROCS_ShapeQuery>
A71EV2A-x0451_0A_A71EV2A-x0310_0A_A71EV2A-x0416_0A_peptide

> <ROCS_TanimotoCombo>
0.438 

> <ROCS_ShapeTanimoto>
0.275 

> <ROCS_ColorTanimoto>
0.163 

> <ROCS_RefTversky>
0.249 

> <ROCS_RefColorTversky>
0.170 

> <ROCS_RefTverskyCombo>
0.418 

> <ROCS_FitTversky>
1.607 

> <ROCS_FitColorTversky>
0.813 

> <ROCS_FitTverskyCombo>
2.419 

> <ROCS_ColorScore>
-5.149

> <ROCS_Overlap>
1726.293

> <ROCS_Rank>
125                 

$$$$
untitled-dbase-672_37
  -OEChem-11112309163D

 28 29  0     1  0  0  0  0  0999 V2000
    8.9702   10.0199   23.0182 C   0  0  0  0  0  0  0  0  0  0  0  0
    9.8128   11.1308   22.9830 C   0  0  0  0  0  0  0  0  0  0  0  0
    7.8146   10.0454   23.7991 C   0  0  0  0  0  0  0  0  0  0  0  0
    9.5001   12.2673   23.7288 C   0  0  0  0  0  0  0  0  0  0  0  0
    7.5019   11.1819   24.5449 C   0  0  0  0  0  0  0  0  0  0  0  0
    8.3446   12.2929   24.5098 C   0  0  0  0  0  0  0  0  0  0  0  0
   10.3912   13.4376   23.6891 C   0  0  0  0  0  0  0  0  0  0  0  0
   11.7527   15.0701   20.6758 C   0  0  0  0  0  0  0  0  0  0  0  0
   11.8495   14.7293   22.1558 C   0  0  0  0  0  0  0  0  0  0  0  0
    9.6526   14.1585   21.3525 C   0  0  0  0  0  0  0  0  0  0  0  0
   10.2489   15.2227   20.4307 C   0  0  1  0  0  0  0  0  0  0  0  0
   10.6034   14.0412   22.4591 N   0  0  0  0  0  0  0  0  0  0  0  0
    9.7861   16.5520   20.8232 N   0  0  0  0  0  0  0  0  0  0  0  0
   10.8820   13.8098   24.7531 O   0  0  0  0  0  0  0  0  0  0  0  0
    6.3928   11.2057   25.2954 F   0  0  0  0  0  0  0  0  0  0  0  0
    8.0342   13.3797   25.2305 F   0  0  0  0  0  0  0  0  0  0  0  0
    9.2131    9.1352   22.4369 H   0  0  0  0  0  0  0  0  0  0  0  0
   10.7101   11.0998   22.3702 H   0  0  0  0  0  0  0  0  0  0  0  0
    7.1585    9.1805   23.8260 H   0  0  0  0  0  0  0  0  0  0  0  0
   12.2850   16.0147   20.4765 H   0  0  0  0  0  0  0  0  0  0  0  0
   12.2025   14.2945   20.0389 H   0  0  0  0  0  0  0  0  0  0  0  0
   12.6760   14.0351   22.3537 H   0  0  0  0  0  0  0  0  0  0  0  0
   11.9750   15.6177   22.7852 H   0  0  0  0  0  0  0  0  0  0  0  0
    8.6917   14.4664   21.7860 H   0  0  0  0  0  0  0  0  0  0  0  0
    9.5122   13.1895   20.8593 H   0  0  0  0  0  0  0  0  0  0  0  0
   10.0025   15.0313   19.4134 H   0  0  0  0  0  0  0  0  0  0  0  0
   10.2283   17.2277   20.2418 H   0  0  0  0  0  0  0  0  0  0  0  0
    8.7986   16.5915   20.7084 H   0  0  0  0  0  0  0  0  0  0  0  0
  1  2  1  0  0  0  0
  1  3  2  0  0  0  0
  2  4  2  0  0  0  0
  3  5  1  0  0  0  0
  4  6  1  0  0  0  0
  4  7  1  0  0  0  0
  5  6  2  0  0  0  0
  5 15  1  0  0  0  0
  6 16  1  0  0  0  0
  7 12  1  0  0  0  0
  7 14  2  0  0  0  0
  8  9  1  0  0  0  0
  8 11  1  0  0  0  0
  9 12  1  0  0  0  0
 10 11  1  0  0  0  0
 10 12  1  0  0  0  0
 11 13  1  1  0  0  0
  1 17  1  0  0  0  0
  2 18  1  0  0  0  0
  3 19  1  0  0  0  0
  8 20  1  0  0  0  0
  8 21  1  0  0  0  0
  9 22  1  0  0  0  0
  9 23  1  0  0  0  0
 10 24  1  0  0  0  0
 10 25  1  0  0  0  0
 11 26  1  0  0  0  0
 13 27  1  0  0  0  0
 13 28  1  0  0  0  0
M  END
> <Catalog ID>
Z1460653484

> <PlateID>
1337959-R-09

> <Well>
D05

> <MW (desalted)>
226.223

> <CLogP>
0.575

> <HBD>
1

> <TPSA>
46.330

> <RotBonds>
1

> <ROCS_ShapeQuery>
A71EV2A-x0451_0A_A71EV2A-x0310_0A_A71EV2A-x0416_0A_peptide

> <ROCS_TanimotoCombo>
0.438 

> <ROCS_ShapeTanimoto>
0.284 

> <ROCS_ColorTanimoto>
0.154 

> <ROCS_RefTversky>
0.255 

> <ROCS_RefColorTversky>
0.161 

> <ROCS_RefTverskyCombo>
0.415 

> <ROCS_FitTversky>
1.691 

> <ROCS_FitColorTversky>
0.771 

> <ROCS_FitTverskyCombo>
2.462 

> <ROCS_ColorScore>
-4.885

> <ROCS_Overlap>
1765.228

> <ROCS_Rank>
126                 

$$$$
untitled-dbase-1072_645
  -OEChem-11112309163D

 43 45  0     0  0  0  0  0  0999 V2000
    7.8871    9.9448   24.2571 C   0  0  0  0  0  0  0  0  0  0  0  0
    9.1133    9.8340   23.6394 C   0  0  0  0  0  0  0  0  0  0  0  0
    8.1753   12.2072   24.4239 C   0  0  0  0  0  0  0  0  0  0  0  0
    9.4019   12.0965   23.8068 C   0  0  0  0  0  0  0  0  0  0  0  0
   10.2421   13.2755   23.5545 C   0  0  0  0  0  0  0  0  0  0  0  0
   14.5379   15.6670   18.7079 C   0  0  0  0  0  0  0  0  0  0  0  0
   13.9572   17.0735   18.6543 C   0  0  0  0  0  0  0  0  0  0  0  0
   13.5182   14.5387   18.6094 C   0  0  0  0  0  0  0  0  0  0  0  0
   12.5865   17.2844   19.2853 C   0  0  0  0  0  0  0  0  0  0  0  0
    9.8455   13.6420   19.8295 C   0  0  0  0  0  0  0  0  0  0  0  0
   12.9297   14.1569   19.9707 C   0  0  0  0  0  0  0  0  0  0  0  0
   12.3567   16.5722   20.6185 C   0  0  0  0  0  0  0  0  0  0  0  0
   10.5152   15.0141   19.7812 C   0  0  0  0  0  0  0  0  0  0  0  0
   10.1504   12.8079   21.0688 C   0  0  0  0  0  0  0  0  0  0  0  0
   11.5404   14.6788   22.0294 C   0  0  0  0  0  0  0  0  0  0  0  0
   11.8450   15.0981   20.5597 C   0  0  0  0  0  0  0  0  0  0  0  0
    7.3960   11.1333   24.6604 N   0  0  0  0  0  0  0  0  0  0  0  0
    9.8927   10.9079   23.4032 N   0  0  0  0  0  0  0  0  0  0  0  0
   10.5873   13.5835   22.2283 N   0  0  0  0  0  0  0  0  0  0  0  0
   10.5976   13.9131   24.5456 O   0  0  0  0  0  0  0  0  0  0  0  0
    7.2612    9.0816   24.4472 H   0  0  0  0  0  0  0  0  0  0  0  0
    9.5063    8.8786   23.3138 H   0  0  0  0  0  0  0  0  0  0  0  0
    7.7732   13.1592   24.7505 H   0  0  0  0  0  0  0  0  0  0  0  0
   15.2889   15.5555   17.9151 H   0  0  0  0  0  0  0  0  0  0  0  0
   15.0824   15.5617   19.6552 H   0  0  0  0  0  0  0  0  0  0  0  0
   14.6812   17.7783   19.1060 H   0  0  0  0  0  0  0  0  0  0  0  0
   13.8993   17.3733   17.5910 H   0  0  0  0  0  0  0  0  0  0  0  0
   12.6931   14.9013   17.9822 H   0  0  0  0  0  0  0  0  0  0  0  0
   13.9379   13.6706   18.0896 H   0  0  0  0  0  0  0  0  0  0  0  0
   12.4793   18.3744   19.4695 H   0  0  0  0  0  0  0  0  0  0  0  0
   11.7812   17.0477   18.5575 H   0  0  0  0  0  0  0  0  0  0  0  0
    8.7423   13.7755   19.7470 H   0  0  0  0  0  0  0  0  0  0  0  0
   10.1169   13.0588   18.9187 H   0  0  0  0  0  0  0  0  0  0  0  0
   12.5373   13.1270   19.9079 H   0  0  0  0  0  0  0  0  0  0  0  0
   13.7702   14.0800   20.6802 H   0  0  0  0  0  0  0  0  0  0  0  0
   13.2850   16.6187   21.2134 H   0  0  0  0  0  0  0  0  0  0  0  0
   11.6336   17.1664   21.2033 H   0  0  0  0  0  0  0  0  0  0  0  0
   10.6610   15.3029   18.7256 H   0  0  0  0  0  0  0  0  0  0  0  0
    9.7975   15.7503   20.1873 H   0  0  0  0  0  0  0  0  0  0  0  0
    9.2460   12.2454   21.3809 H   0  0  0  0  0  0  0  0  0  0  0  0
   10.9051   12.0354   20.8163 H   0  0  0  0  0  0  0  0  0  0  0  0
   12.4982   14.4629   22.5602 H   0  0  0  0  0  0  0  0  0  0  0  0
   11.1209   15.5511   22.5891 H   0  0  0  0  0  0  0  0  0  0  0  0
  1  2  1  0  0  0  0
  1 17  2  0  0  0  0
  2 18  2  0  0  0  0
  3  4  2  0  0  0  0
  3 17  1  0  0  0  0
  4  5  1  0  0  0  0
  4 18  1  0  0  0  0
  5 19  1  0  0  0  0
  5 20  2  0  0  0  0
  6  7  1  0  0  0  0
  6  8  1  0  0  0  0
  7  9  1  0  0  0  0
  8 11  1  0  0  0  0
  9 12  1  0  0  0  0
 10 13  1  0  0  0  0
 10 14  1  0  0  0  0
 11 16  1  0  0  0  0
 12 16  1  0  0  0  0
 13 16  1  0  0  0  0
 14 19  1  0  0  0  0
 15 16  1  0  0  0  0
 15 19  1  0  0  0  0
  1 21  1  0  0  0  0
  2 22  1  0  0  0  0
  3 23  1  0  0  0  0
  6 24  1  0  0  0  0
  6 25  1  0  0  0  0
  7 26  1  0  0  0  0
  7 27  1  0  0  0  0
  8 28  1  0  0  0  0
  8 29  1  0  0  0  0
  9 30  1  0  0  0  0
  9 31  1  0  0  0  0
 10 32  1  0  0  0  0
 10 33  1  0  0  0  0
 11 34  1  0  0  0  0
 11 35  1  0  0  0  0
 12 36  1  0  0  0  0
 12 37  1  0  0  0  0
 13 38  1  0  0  0  0
 13 39  1  0  0  0  0
 14 40  1  0  0  0  0
 14 41  1  0  0  0  0
 15 42  1  0  0  0  0
 15 43  1  0  0  0  0
M  END
> <Catalog ID>
Z1275601601

> <PlateID>
1337959-R-14

> <Well>
D08

> <MW (desalted)>
273.373

> <CLogP>
2.294

> <HBD>
0

> <TPSA>
46.090

> <RotBonds>
1

> <ROCS_ShapeQuery>
A71EV2A-x0451_0A_A71EV2A-x0310_0A_A71EV2A-x0416_0A_peptide

> <ROCS_TanimotoCombo>
0.438 

> <ROCS_ShapeTanimoto>
0.281 

> <ROCS_ColorTanimoto>
0.156 

> <ROCS_RefTversky>
0.257 

> <ROCS_RefColorTversky>
0.168 

> <ROCS_RefTverskyCombo>
0.425 

> <ROCS_FitTversky>
1.486 

> <ROCS_FitColorTversky>
0.700 

> <ROCS_FitTverskyCombo>
2.186 

> <ROCS_ColorScore>
-5.101

> <ROCS_Overlap>
1786.801

> <ROCS_Rank>
127                 

$$$$
untitled-dbase-904_53
  -OEChem-11112309163D

 38 40  0     1  0  0  0  0  0999 V2000
   11.3904   15.2583   22.5406 C   0  0  0  0  0  0  0  0  0  0  0  0
   10.4858   13.2921   23.0029 C   0  0  0  0  0  0  0  0  0  0  0  0
    9.9792   11.9076   22.9132 C   0  0  0  0  0  0  0  0  0  0  0  0
   11.1113   13.9723   21.8481 C   0  0  0  0  0  0  0  0  0  0  0  0
    7.3468   11.8739   25.4714 C   0  0  0  0  0  0  0  0  0  0  0  0
    7.1870    8.1699   21.7581 C   0  0  0  0  0  0  0  0  0  0  0  0
    7.4908   10.3826   25.2082 C   0  0  0  0  0  0  0  0  0  0  0  0
    7.8888    9.4628   22.1595 C   0  0  0  0  0  0  0  0  0  0  0  0
    7.8657   12.5024   24.1896 C   0  0  0  0  0  0  0  0  0  0  0  0
    7.6488    7.1363   22.7714 C   0  0  0  0  0  0  0  0  0  0  0  0
    8.7780   10.2783   24.3815 C   0  0  1  0  0  0  0  0  0  0  0  0
    8.7043    9.1107   23.4058 C   0  0  1  0  0  0  0  0  0  0  0  0
    8.7718    7.1833   24.9098 C   0  0  0  0  0  0  0  0  0  0  0  0
   11.0098   15.2760   23.7774 N   0  0  0  0  0  0  0  0  0  0  0  0
   10.4234   14.0042   24.0804 N   0  0  0  0  0  0  0  0  0  0  0  0
    8.9070   11.5861   23.7288 N   0  0  0  0  0  0  0  0  0  0  0  0
    7.9890    7.9454   23.9443 N   0  0  2  0  0  0  0  0  0  0  0  0
   10.5243   11.1340   22.1269 O   0  0  0  0  0  0  0  0  0  0  0  0
   11.8754   16.0976   22.0251 H   0  0  0  0  0  0  0  0  0  0  0  0
   10.4148   14.1129   21.0216 H   0  0  0  0  0  0  0  0  0  0  0  0
   12.0344   13.4866   21.5310 H   0  0  0  0  0  0  0  0  0  0  0  0
    6.2929   12.1329   25.6204 H   0  0  0  0  0  0  0  0  0  0  0  0
    7.9086   12.1965   26.3518 H   0  0  0  0  0  0  0  0  0  0  0  0
    6.1005    8.3071   21.8128 H   0  0  0  0  0  0  0  0  0  0  0  0
    7.4363    7.8721   20.7348 H   0  0  0  0  0  0  0  0  0  0  0  0
    7.6203    9.8513   26.1600 H   0  0  0  0  0  0  0  0  0  0  0  0
    6.6143    9.9642   24.7028 H   0  0  0  0  0  0  0  0  0  0  0  0
    8.5387    9.8264   21.3557 H   0  0  0  0  0  0  0  0  0  0  0  0
    7.1407   10.2402   22.3577 H   0  0  0  0  0  0  0  0  0  0  0  0
    7.0913   12.6200   23.4303 H   0  0  0  0  0  0  0  0  0  0  0  0
    8.3334   13.4711   24.3821 H   0  0  0  0  0  0  0  0  0  0  0  0
    6.8623    6.4065   22.9883 H   0  0  0  0  0  0  0  0  0  0  0  0
    8.5238    6.6008   22.3807 H   0  0  0  0  0  0  0  0  0  0  0  0
    9.6462   10.1209   25.0497 H   0  0  0  0  0  0  0  0  0  0  0  0
    9.7210    8.8337   23.0957 H   0  0  0  0  0  0  0  0  0  0  0  0
    9.0086    7.8201   25.7749 H   0  0  0  0  0  0  0  0  0  0  0  0
    8.1918    6.3107   25.2448 H   0  0  0  0  0  0  0  0  0  0  0  0
    9.7057    6.8437   24.4381 H   0  0  0  0  0  0  0  0  0  0  0  0
  1  4  1  0  0  0  0
  1 14  2  0  0  0  0
  2  3  1  0  0  0  0
  2  4  1  0  0  0  0
  2 15  2  0  0  0  0
  3 16  1  0  0  0  0
  3 18  2  0  0  0  0
  5  7  1  0  0  0  0
  5  9  1  0  0  0  0
  6  8  1  0  0  0  0
  6 10  1  0  0  0  0
  7 11  1  0  0  0  0
  8 12  1  0  0  0  0
  9 16  1  0  0  0  0
 10 17  1  0  0  0  0
 11 12  1  0  0  0  0
 11 16  1  0  0  0  0
 12 17  1  0  0  0  0
 13 17  1  0  0  0  0
 14 15  1  0  0  0  0
  1 19  1  0  0  0  0
  4 20  1  0  0  0  0
  4 21  1  0  0  0  0
  5 22  1  0  0  0  0
  5 23  1  0  0  0  0
  6 24  1  0  0  0  0
  6 25  1  0  0  0  0
  7 26  1  0  0  0  0
  7 27  1  0  0  0  0
  8 28  1  0  0  0  0
  8 29  1  0  0  0  0
  9 30  1  0  0  0  0
  9 31  1  0  0  0  0
 10 32  1  0  0  0  0
 10 33  1  0  0  0  0
 11 34  1  0  0  0  0
 12 35  1  0  0  0  0
 13 36  1  0  0  0  0
 13 37  1  0  0  0  0
 13 38  1  0  0  0  0
M  END
> <Catalog ID>
Z1139331173

> <PlateID>
1337959-R-12

> <Well>
C08

> <MW (desalted)>
248.324

> <CLogP>
0.748

> <HBD>
1

> <TPSA>
52.230

> <RotBonds>
2

> <ROCS_ShapeQuery>
A71EV2A-x0451_0A_A71EV2A-x0310_0A_A71EV2A-x0416_0A_peptide

> <ROCS_TanimotoCombo>
0.437 

> <ROCS_ShapeTanimoto>
0.297 

> <ROCS_ColorTanimoto>
0.141 

> <ROCS_RefTversky>
0.266 

> <ROCS_RefColorTversky>
0.158 

> <ROCS_RefTverskyCombo>
0.424 

> <ROCS_FitTversky>
1.628 

> <ROCS_FitColorTversky>
0.567 

> <ROCS_FitTverskyCombo>
2.195 

> <ROCS_ColorScore>
-4.807

> <ROCS_Overlap>
1846.644

> <ROCS_Rank>
128                 

$$$$
untitled-dbase-664_80
  -OEChem-11112309163D

 31 32  0     1  0  0  0  0  0999 V2000
   14.3390   11.9943   24.9193 C   0  0  0  0  0  0  0  0  0  0  0  0
   15.4323   12.4201   24.1650 C   0  0  0  0  0  0  0  0  0  0  0  0
   13.0564   12.4425   24.6031 C   0  0  0  0  0  0  0  0  0  0  0  0
   15.2431   13.2941   23.0945 C   0  0  0  0  0  0  0  0  0  0  0  0
   12.8673   13.3166   23.5326 C   0  0  0  0  0  0  0  0  0  0  0  0
   13.9606   13.7424   22.7783 C   0  0  0  0  0  0  0  0  0  0  0  0
    7.8211   10.9351   24.5413 C   0  0  0  0  0  0  0  0  0  0  0  0
    8.6887   12.1304   24.2186 C   0  0  0  0  0  0  0  0  0  0  0  0
    9.2638   10.3007   22.7780 C   0  0  0  0  0  0  0  0  0  0  0  0
    9.8675   11.5072   23.4752 C   0  0  1  0  0  0  0  0  0  0  0  0
    7.5570    8.6190   23.5734 C   0  0  0  0  0  0  0  0  0  0  0  0
    8.2043    9.9085   23.6802 N   0  0  0  0  0  0  0  0  0  0  0  0
   10.5134   12.4203   22.5789 N   0  0  0  0  0  0  0  0  0  0  0  0
    6.9282   10.9291   25.3755 O   0  0  0  0  0  0  0  0  0  0  0  0
   10.5854   14.2078   24.4320 O   0  0  0  0  0  0  0  0  0  0  0  0
   11.3110   14.8191   22.1030 O   0  0  0  0  0  0  0  0  0  0  0  0
   11.2196   13.8494   23.1777 S   0  0  0  0  0  0  0  0  0  0  0  0
   13.7811   14.8236   21.4438 Cl  0  0  0  0  0  0  0  0  0  0  0  0
   14.4862   11.3131   25.7522 H   0  0  0  0  0  0  0  0  0  0  0  0
   16.4307   12.0706   24.4109 H   0  0  0  0  0  0  0  0  0  0  0  0
   12.2136   12.1023   25.1989 H   0  0  0  0  0  0  0  0  0  0  0  0
   16.1063   13.6157   22.5172 H   0  0  0  0  0  0  0  0  0  0  0  0
    8.1144   12.8270   23.5988 H   0  0  0  0  0  0  0  0  0  0  0  0
    9.0110   12.6325   25.1349 H   0  0  0  0  0  0  0  0  0  0  0  0
    8.8215   10.5380   21.8043 H   0  0  0  0  0  0  0  0  0  0  0  0
    9.9886    9.4888   22.6646 H   0  0  0  0  0  0  0  0  0  0  0  0
   10.6155   11.1479   24.2352 H   0  0  0  0  0  0  0  0  0  0  0  0
    6.7615    8.6692   22.8153 H   0  0  0  0  0  0  0  0  0  0  0  0
    8.2972    7.8607   23.2783 H   0  0  0  0  0  0  0  0  0  0  0  0
    7.1203    8.3464   24.5455 H   0  0  0  0  0  0  0  0  0  0  0  0
   10.8757   12.0129   21.7101 H   0  0  0  0  0  0  0  0  0  0  0  0
  1  2  2  0  0  0  0
  1  3  1  0  0  0  0
  2  4  1  0  0  0  0
  3  5  2  0  0  0  0
  4  6  2  0  0  0  0
  5  6  1  0  0  0  0
  5 17  1  0  0  0  0
  6 18  1  0  0  0  0
  7  8  1  0  0  0  0
  7 12  1  0  0  0  0
  7 14  2  0  0  0  0
  8 10  1  0  0  0  0
  9 10  1  0  0  0  0
  9 12  1  0  0  0  0
 10 13  1  0  0  0  0
 11 12  1  0  0  0  0
 13 17  1  0  0  0  0
 15 17  2  0  0  0  0
 16 17  2  0  0  0  0
  1 19  1  0  0  0  0
  2 20  1  0  0  0  0
  3 21  1  0  0  0  0
  4 22  1  0  0  0  0
  8 23  1  0  0  0  0
  8 24  1  0  0  0  0
  9 25  1  0  0  0  0
  9 26  1  0  0  0  0
 10 27  1  0  0  0  0
 11 28  1  0  0  0  0
 11 29  1  0  0  0  0
 11 30  1  0  0  0  0
 13 31  1  0  0  0  0
M  END
> <Catalog ID>
Z1024822740

> <PlateID>
1337959-R-09

> <Well>
C07

> <MW (desalted)>
288.751

> <CLogP>
2.037

> <HBD>
1

> <TPSA>
66.480

> <RotBonds>
2

> <ROCS_ShapeQuery>
A71EV2A-x0451_0A_A71EV2A-x0310_0A_A71EV2A-x0416_0A_peptide

> <ROCS_TanimotoCombo>
0.437 

> <ROCS_ShapeTanimoto>
0.279 

> <ROCS_ColorTanimoto>
0.159 

> <ROCS_RefTversky>
0.252 

> <ROCS_RefColorTversky>
0.170 

> <ROCS_RefTverskyCombo>
0.422 

> <ROCS_FitTversky>
1.601 

> <ROCS_FitColorTversky>
0.708 

> <ROCS_FitTverskyCombo>
2.308 

> <ROCS_ColorScore>
-5.160

> <ROCS_Overlap>
1750.594

> <ROCS_Rank>
129                 

$$$$
untitled-dbase-790_116
  -OEChem-11112309163D

 34 35  0     1  0  0  0  0  0999 V2000
    9.6376   11.2876   22.8528 C   0  0  0  0  0  0  0  0  0  0  0  0
    7.6713   10.9539   24.8034 C   0  0  0  0  0  0  0  0  0  0  0  0
    9.3612   12.3207   23.7482 C   0  0  0  0  0  0  0  0  0  0  0  0
    8.9309   10.0876   22.9326 C   0  0  0  0  0  0  0  0  0  0  0  0
    7.9477    9.9208   23.9079 C   0  0  0  0  0  0  0  0  0  0  0  0
    8.3780   12.1539   24.7235 C   0  0  0  0  0  0  0  0  0  0  0  0
   10.1306   13.5665   23.6261 C   0  0  0  0  0  0  0  0  0  0  0  0
    8.6628   15.6651   20.8801 C   0  0  0  0  0  0  0  0  0  0  0  0
    8.9066   14.2989   21.5258 C   0  0  0  0  0  0  0  0  0  0  0  0
   11.2859   14.9334   21.9515 C   0  0  0  0  0  0  0  0  0  0  0  0
   11.0983   15.8694   20.7522 C   0  0  1  0  0  0  0  0  0  0  0  0
    9.2279    8.9851   21.9732 C   0  0  0  0  0  0  0  0  0  0  0  0
   11.2997   15.1705   19.4053 C   0  0  0  0  0  0  0  0  0  0  0  0
    9.8160   16.5589   20.8480 N   0  0  0  0  0  0  0  0  0  0  0  0
   10.0655   14.2755   22.4195 N   0  0  0  0  0  0  0  0  0  0  0  0
   10.7947   13.8976   24.6079 O   0  0  0  0  0  0  0  0  0  0  0  0
    7.2630    8.7716   23.9921 F   0  0  0  0  0  0  0  0  0  0  0  0
    8.0045   13.4078   25.8507 Cl  0  0  0  0  0  0  0  0  0  0  0  0
   10.4035   11.4141   22.0907 H   0  0  0  0  0  0  0  0  0  0  0  0
    6.9013   10.8073   25.5566 H   0  0  0  0  0  0  0  0  0  0  0  0
    8.3052   15.5114   19.8372 H   0  0  0  0  0  0  0  0  0  0  0  0
    7.8111   16.1747   21.3888 H   0  0  0  0  0  0  0  0  0  0  0  0
    8.0009   13.9787   22.0668 H   0  0  0  0  0  0  0  0  0  0  0  0
    9.0885   13.5363   20.7487 H   0  0  0  0  0  0  0  0  0  0  0  0
   12.0029   14.1184   21.7021 H   0  0  0  0  0  0  0  0  0  0  0  0
   11.7699   15.4952   22.7793 H   0  0  0  0  0  0  0  0  0  0  0  0
   11.9074   16.6634   20.8253 H   0  0  0  0  0  0  0  0  0  0  0  0
   10.0104    8.3297   22.3749 H   0  0  0  0  0  0  0  0  0  0  0  0
    8.3347    8.3789   21.7739 H   0  0  0  0  0  0  0  0  0  0  0  0
    9.5665    9.3790   21.0060 H   0  0  0  0  0  0  0  0  0  0  0  0
   10.5482   14.3933   19.2770 H   0  0  0  0  0  0  0  0  0  0  0  0
   12.2897   14.7191   19.3685 H   0  0  0  0  0  0  0  0  0  0  0  0
   11.2068   15.8938   18.5970 H   0  0  0  0  0  0  0  0  0  0  0  0
    9.7157   17.1990   20.0427 H   0  0  0  0  0  0  0  0  0  0  0  0
  1  3  2  0  0  0  0
  1  4  1  0  0  0  0
  2  5  1  0  0  0  0
  2  6  2  0  0  0  0
  3  6  1  0  0  0  0
  3  7  1  0  0  0  0
  4  5  2  0  0  0  0
  4 12  1  0  0  0  0
  5 17  1  0  0  0  0
  6 18  1  0  0  0  0
  7 15  1  0  0  0  0
  7 16  2  0  0  0  0
  8  9  1  0  0  0  0
  8 14  1  0  0  0  0
  9 15  1  0  0  0  0
 10 11  1  0  0  0  0
 10 15  1  0  0  0  0
 11 13  1  0  0  0  0
 11 14  1  0  0  0  0
  1 19  1  0  0  0  0
  2 20  1  0  0  0  0
  8 21  1  0  0  0  0
  8 22  1  0  0  0  0
  9 23  1  0  0  0  0
  9 24  1  0  0  0  0
 10 25  1  0  0  0  0
 10 26  1  0  0  0  0
 11 27  1  0  0  0  0
 12 28  1  0  0  0  0
 12 29  1  0  0  0  0
 12 30  1  0  0  0  0
 13 31  1  0  0  0  0
 13 32  1  0  0  0  0
 13 33  1  0  0  0  0
 14 34  1  0  0  0  0
M  END
> <Catalog ID>
Z2242913382

> <PlateID>
1337959-R-10

> <Well>
H03

> <MW (desalted)>
270.730

> <CLogP>
2.734

> <HBD>
1

> <TPSA>
32.340

> <RotBonds>
1

> <ROCS_ShapeQuery>
A71EV2A-x0451_0A_A71EV2A-x0310_0A_A71EV2A-x0416_0A_peptide

> <ROCS_TanimotoCombo>
0.437 

> <ROCS_ShapeTanimoto>
0.274 

> <ROCS_ColorTanimoto>
0.163 

> <ROCS_RefTversky>
0.250 

> <ROCS_RefColorTversky>
0.169 

> <ROCS_RefTverskyCombo>
0.419 

> <ROCS_FitTversky>
1.562 

> <ROCS_FitColorTversky>
0.812 

> <ROCS_FitTverskyCombo>
2.373 

> <ROCS_ColorScore>
-5.142

> <ROCS_Overlap>
1732.469

> <ROCS_Rank>
130                 

$$$$
untitled-dbase-632_74
  -OEChem-11112309163D

 39 40  0     1  0  0  0  0  0999 V2000
    5.8708   11.3744   25.8635 C   0  0  0  0  0  0  0  0  0  0  0  0
    6.5587   12.5505   26.1538 C   0  0  0  0  0  0  0  0  0  0  0  0
    6.4335   10.4303   25.0051 C   0  0  0  0  0  0  0  0  0  0  0  0
    7.8092   12.7870   25.5831 C   0  0  0  0  0  0  0  0  0  0  0  0
    7.6930   10.6547   24.4343 C   0  0  0  0  0  0  0  0  0  0  0  0
    8.3788   11.8500   24.7104 C   0  0  0  0  0  0  0  0  0  0  0  0
   10.7502   15.1522   22.3010 C   0  0  0  0  0  0  0  0  0  0  0  0
    8.2783    9.6479   23.4784 C   0  0  0  0  0  0  0  0  0  0  0  0
    9.7517   12.0990   24.1292 C   0  0  0  0  0  0  0  0  0  0  0  0
    9.7770    9.8569   23.2379 C   0  0  0  0  0  0  0  0  0  0  0  0
   11.5746   11.0169   21.0561 C   0  0  0  0  0  0  0  0  0  0  0  0
   12.3396   10.5899   23.3961 C   0  0  0  0  0  0  0  0  0  0  0  0
   11.8292   12.9382   22.6952 C   0  0  0  0  0  0  0  0  0  0  0  0
   11.4284   11.4614   22.5187 C   0  0  0  0  0  0  0  0  0  0  0  0
   10.0428   11.2708   22.9456 N   0  0  2  0  0  0  0  0  0  0  0  0
    9.9571   15.8104   21.3782 N   0  0  0  0  0  0  0  0  0  0  0  0
   11.0261   13.8440   21.9164 N   0  0  0  0  0  0  0  0  0  0  0  0
   11.1517   15.6843   23.3345 O   0  0  0  0  0  0  0  0  0  0  0  0
    4.8956   11.1926   26.3059 H   0  0  0  0  0  0  0  0  0  0  0  0
    6.1207   13.2842   26.8242 H   0  0  0  0  0  0  0  0  0  0  0  0
    5.8856    9.5177   24.7846 H   0  0  0  0  0  0  0  0  0  0  0  0
    8.3374   13.7067   25.8218 H   0  0  0  0  0  0  0  0  0  0  0  0
    8.1108    8.6463   23.8944 H   0  0  0  0  0  0  0  0  0  0  0  0
    7.7557    9.7019   22.5159 H   0  0  0  0  0  0  0  0  0  0  0  0
    9.8234   13.1673   23.8838 H   0  0  0  0  0  0  0  0  0  0  0  0
   10.5006   11.8771   24.8998 H   0  0  0  0  0  0  0  0  0  0  0  0
   10.3140    9.5420   24.1414 H   0  0  0  0  0  0  0  0  0  0  0  0
   10.1228    9.2163   22.4151 H   0  0  0  0  0  0  0  0  0  0  0  0
   10.9370   11.6181   20.3972 H   0  0  0  0  0  0  0  0  0  0  0  0
   11.2922    9.9659   20.9302 H   0  0  0  0  0  0  0  0  0  0  0  0
   12.6030   11.1364   20.6973 H   0  0  0  0  0  0  0  0  0  0  0  0
   12.2666   10.8738   24.4518 H   0  0  0  0  0  0  0  0  0  0  0  0
   13.3890   10.6840   23.0929 H   0  0  0  0  0  0  0  0  0  0  0  0
   12.0734    9.5296   23.3133 H   0  0  0  0  0  0  0  0  0  0  0  0
   11.7224   13.2484   23.7410 H   0  0  0  0  0  0  0  0  0  0  0  0
   12.8723   13.1007   22.4021 H   0  0  0  0  0  0  0  0  0  0  0  0
    9.6345   15.3545   20.5314 H   0  0  0  0  0  0  0  0  0  0  0  0
    9.6720   16.7733   21.5229 H   0  0  0  0  0  0  0  0  0  0  0  0
   10.6391   13.5093   21.0367 H   0  0  0  0  0  0  0  0  0  0  0  0
  1  2  2  0  0  0  0
  1  3  1  0  0  0  0
  2  4  1  0  0  0  0
  3  5  2  0  0  0  0
  4  6  2  0  0  0  0
  5  6  1  0  0  0  0
  5  8  1  0  0  0  0
  6  9  1  0  0  0  0
  7 16  1  0  0  0  0
  7 17  1  0  0  0  0
  7 18  2  0  0  0  0
  8 10  1  0  0  0  0
  9 15  1  0  0  0  0
 10 15  1  0  0  0  0
 11 14  1  0  0  0  0
 12 14  1  0  0  0  0
 13 14  1  0  0  0  0
 13 17  1  0  0  0  0
 14 15  1  0  0  0  0
  1 19  1  0  0  0  0
  2 20  1  0  0  0  0
  3 21  1  0  0  0  0
  4 22  1  0  0  0  0
  8 23  1  0  0  0  0
  8 24  1  0  0  0  0
  9 25  1  0  0  0  0
  9 26  1  0  0  0  0
 10 27  1  0  0  0  0
 10 28  1  0  0  0  0
 11 29  1  0  0  0  0
 11 30  1  0  0  0  0
 11 31  1  0  0  0  0
 12 32  1  0  0  0  0
 12 33  1  0  0  0  0
 12 34  1  0  0  0  0
 13 35  1  0  0  0  0
 13 36  1  0  0  0  0
 16 37  1  0  0  0  0
 16 38  1  0  0  0  0
 17 39  1  0  0  0  0
M  END
> <Catalog ID>
Z432838040

> <PlateID>
1337959-R-08

> <Well>
H05

> <MW (desalted)>
247.336

> <CLogP>
1.758

> <HBD>
2

> <TPSA>
58.360

> <RotBonds>
3

> <ROCS_ShapeQuery>
A71EV2A-x0451_0A_A71EV2A-x0310_0A_A71EV2A-x0416_0A_peptide

> <ROCS_TanimotoCombo>
0.437 

> <ROCS_ShapeTanimoto>
0.305 

> <ROCS_ColorTanimoto>
0.132 

> <ROCS_RefTversky>
0.271 

> <ROCS_RefColorTversky>
0.149 

> <ROCS_RefTverskyCombo>
0.420 

> <ROCS_FitTversky>
1.687 

> <ROCS_FitColorTversky>
0.549 

> <ROCS_FitTverskyCombo>
2.236 

> <ROCS_ColorScore>
-4.528

> <ROCS_Overlap>
1879.101

> <ROCS_Rank>
131                 

$$$$
untitled-dbase-715_83
  -OEChem-11112309163D

 29 30  0     0  0  0  0  0  0999 V2000
   13.4136   15.0842   20.4450 C   0  0  0  0  0  0  0  0  0  0  0  0
   12.5124   15.9987   19.9000 C   0  0  0  0  0  0  0  0  0  0  0  0
   13.0202   14.2619   21.5008 C   0  0  0  0  0  0  0  0  0  0  0  0
   11.2177   16.0911   20.4109 C   0  0  0  0  0  0  0  0  0  0  0  0
    9.2473   11.5059   23.4385 C   0  0  0  0  0  0  0  0  0  0  0  0
   11.7256   14.3543   22.0118 C   0  0  0  0  0  0  0  0  0  0  0  0
   10.8243   15.2689   21.4668 C   0  0  0  0  0  0  0  0  0  0  0  0
    8.1799   12.0545   24.1702 C   0  0  0  0  0  0  0  0  0  0  0  0
    9.1816   10.1672   23.7207 C   0  0  0  0  0  0  0  0  0  0  0  0
    7.7615   13.4644   24.2507 C   0  0  0  0  0  0  0  0  0  0  0  0
    9.9711    8.9981   23.3112 C   0  0  0  0  0  0  0  0  0  0  0  0
    7.5039   11.1270   24.8539 N   0  0  0  0  0  0  0  0  0  0  0  0
   10.1798   12.2048   22.5957 N   0  0  0  0  0  0  0  0  0  0  0  0
   10.5571   14.0931   24.3123 O   0  0  0  0  0  0  0  0  0  0  0  0
   12.4771   12.5730   23.7625 O   0  0  0  0  0  0  0  0  0  0  0  0
    8.1451    9.9285   24.5644 O   0  0  0  0  0  0  0  0  0  0  0  0
   11.2868   13.2951   23.3370 S   0  0  0  0  0  0  0  0  0  0  0  0
    9.2107   15.4233   22.0625 Cl  0  0  0  0  0  0  0  0  0  0  0  0
   14.4213   15.0118   20.0465 H   0  0  0  0  0  0  0  0  0  0  0  0
   12.8186   16.6385   19.0776 H   0  0  0  0  0  0  0  0  0  0  0  0
   13.7324   13.5535   21.9155 H   0  0  0  0  0  0  0  0  0  0  0  0
   10.5282   16.8093   19.9742 H   0  0  0  0  0  0  0  0  0  0  0  0
    7.0240   13.7087   23.4671 H   0  0  0  0  0  0  0  0  0  0  0  0
    7.3035   13.7084   25.2259 H   0  0  0  0  0  0  0  0  0  0  0  0
    8.6125   14.1592   24.1347 H   0  0  0  0  0  0  0  0  0  0  0  0
   10.8122    8.8154   24.0041 H   0  0  0  0  0  0  0  0  0  0  0  0
    9.3662    8.0727   23.2768 H   0  0  0  0  0  0  0  0  0  0  0  0
   10.3987    9.1131   22.2975 H   0  0  0  0  0  0  0  0  0  0  0  0
   10.5479   11.6524   21.8100 H   0  0  0  0  0  0  0  0  0  0  0  0
  1  2  2  0  0  0  0
  1  3  1  0  0  0  0
  2  4  1  0  0  0  0
  3  6  2  0  0  0  0
  4  7  2  0  0  0  0
  5  8  1  0  0  0  0
  5  9  2  0  0  0  0
  5 13  1  0  0  0  0
  6  7  1  0  0  0  0
  6 17  1  0  0  0  0
  7 18  1  0  0  0  0
  8 10  1  0  0  0  0
  8 12  2  0  0  0  0
  9 11  1  0  0  0  0
  9 16  1  0  0  0  0
 12 16  1  0  0  0  0
 13 17  1  0  0  0  0
 14 17  2  0  0  0  0
 15 17  2  0  0  0  0
  1 19  1  0  0  0  0
  2 20  1  0  0  0  0
  3 21  1  0  0  0  0
  4 22  1  0  0  0  0
 10 23  1  0  0  0  0
 10 24  1  0  0  0  0
 10 25  1  0  0  0  0
 11 26  1  0  0  0  0
 11 27  1  0  0  0  0
 11 28  1  0  0  0  0
 13 29  1  0  0  0  0
M  END
> <Catalog ID>
Z915546900

> <PlateID>
1337959-R-09

> <Well>
H08

> <MW (desalted)>
286.735

> <CLogP>
1.040

> <HBD>
1

> <TPSA>
72.200

> <RotBonds>
2

> <ROCS_ShapeQuery>
A71EV2A-x0451_0A_A71EV2A-x0310_0A_A71EV2A-x0416_0A_peptide

> <ROCS_TanimotoCombo>
0.437 

> <ROCS_ShapeTanimoto>
0.309 

> <ROCS_ColorTanimoto>
0.128 

> <ROCS_RefTversky>
0.274 

> <ROCS_RefColorTversky>
0.141 

> <ROCS_RefTverskyCombo>
0.414 

> <ROCS_FitTversky>
1.719 

> <ROCS_FitColorTversky>
0.587 

> <ROCS_FitTverskyCombo>
2.306 

> <ROCS_ColorScore>
-4.280

> <ROCS_Overlap>
1897.261

> <ROCS_Rank>
132                 

$$$$
untitled-dbase-1005_268
  -OEChem-11112309163D

 34 35  0     1  0  0  0  0  0999 V2000
    8.3350   12.5000   24.1990 C   0  0  0  0  0  0  0  0  0  0  0  0
    9.9701   11.1227   23.0740 C   0  0  0  0  0  0  0  0  0  0  0  0
    7.8272   10.1932   23.6913 C   0  0  0  0  0  0  0  0  0  0  0  0
    9.5943   12.3507   23.6183 C   0  0  0  0  0  0  0  0  0  0  0  0
    7.4514   11.4213   24.2356 C   0  0  0  0  0  0  0  0  0  0  0  0
    9.0866   10.0439   23.1105 C   0  0  0  0  0  0  0  0  0  0  0  0
   10.5268   13.4883   23.5799 C   0  0  0  0  0  0  0  0  0  0  0  0
   12.2017   15.1080   20.7179 C   0  0  0  0  0  0  0  0  0  0  0  0
   11.8608   15.0549   22.1994 C   0  0  0  0  0  0  0  0  0  0  0  0
   10.5270   13.4296   21.0280 C   0  0  0  0  0  0  0  0  0  0  0  0
   10.9726   14.5014   20.0324 C   0  0  1  0  0  0  0  0  0  0  0  0
    6.1046   11.5806   24.8560 C   0  0  0  0  0  0  0  0  0  0  0  0
    9.8793   15.5403   19.7904 C   0  0  0  0  0  0  0  0  0  0  0  0
   10.9501   13.9293   22.3353 N   0  0  0  0  0  0  0  0  0  0  0  0
    9.7734   16.4126   20.9150 N   0  0  0  0  0  0  0  0  0  0  0  0
   10.8617   13.9806   24.6556 O   0  0  0  0  0  0  0  0  0  0  0  0
    9.4474    8.8646   22.5876 F   0  0  0  0  0  0  0  0  0  0  0  0
    8.0401   13.4569   24.6239 H   0  0  0  0  0  0  0  0  0  0  0  0
   10.9486   10.9949   22.6184 H   0  0  0  0  0  0  0  0  0  0  0  0
    7.1459    9.3470   23.7153 H   0  0  0  0  0  0  0  0  0  0  0  0
   12.3494   16.1525   20.4040 H   0  0  0  0  0  0  0  0  0  0  0  0
   13.1209   14.5542   20.4843 H   0  0  0  0  0  0  0  0  0  0  0  0
   12.7471   14.8406   22.8077 H   0  0  0  0  0  0  0  0  0  0  0  0
   11.3986   15.9763   22.5678 H   0  0  0  0  0  0  0  0  0  0  0  0
    9.4354   13.3116   21.0547 H   0  0  0  0  0  0  0  0  0  0  0  0
   10.9801   12.4526   20.8206 H   0  0  0  0  0  0  0  0  0  0  0  0
   11.2568   14.0447   19.0960 H   0  0  0  0  0  0  0  0  0  0  0  0
    5.3743   11.9062   24.1051 H   0  0  0  0  0  0  0  0  0  0  0  0
    5.7545   10.6378   25.2959 H   0  0  0  0  0  0  0  0  0  0  0  0
    6.1243   12.3210   25.6663 H   0  0  0  0  0  0  0  0  0  0  0  0
   10.1513   16.1061   18.8977 H   0  0  0  0  0  0  0  0  0  0  0  0
    8.9407   15.0047   19.6380 H   0  0  0  0  0  0  0  0  0  0  0  0
   10.6505   16.8719   21.0778 H   0  0  0  0  0  0  0  0  0  0  0  0
    9.0690   17.1070   20.7457 H   0  0  0  0  0  0  0  0  0  0  0  0
  1  4  2  0  0  0  0
  1  5  1  0  0  0  0
  2  4  1  0  0  0  0
  2  6  2  0  0  0  0
  3  5  2  0  0  0  0
  3  6  1  0  0  0  0
  4  7  1  0  0  0  0
  5 12  1  0  0  0  0
  6 17  1  0  0  0  0
  7 14  1  0  0  0  0
  7 16  2  0  0  0  0
  8  9  1  0  0  0  0
  8 11  1  0  0  0  0
  9 14  1  0  0  0  0
 10 11  1  0  0  0  0
 10 14  1  0  0  0  0
 11 13  1  0  0  0  0
 13 15  1  0  0  0  0
  1 18  1  0  0  0  0
  2 19  1  0  0  0  0
  3 20  1  0  0  0  0
  8 21  1  0  0  0  0
  8 22  1  0  0  0  0
  9 23  1  0  0  0  0
  9 24  1  0  0  0  0
 10 25  1  0  0  0  0
 10 26  1  0  0  0  0
 11 27  1  0  0  0  0
 12 28  1  0  0  0  0
 12 29  1  0  0  0  0
 12 30  1  0  0  0  0
 13 31  1  0  0  0  0
 13 32  1  0  0  0  0
 15 33  1  0  0  0  0
 15 34  1  0  0  0  0
M  END
> <Catalog ID>
Z2242852305

> <PlateID>
1337959-R-13

> <Well>
E10

> <MW (desalted)>
236.285

> <CLogP>
0.591

> <HBD>
1

> <TPSA>
46.330

> <RotBonds>
2

> <ROCS_ShapeQuery>
A71EV2A-x0451_0A_A71EV2A-x0310_0A_A71EV2A-x0416_0A_peptide

> <ROCS_TanimotoCombo>
0.437 

> <ROCS_ShapeTanimoto>
0.286 

> <ROCS_ColorTanimoto>
0.151 

> <ROCS_RefTversky>
0.257 

> <ROCS_RefColorTversky>
0.159 

> <ROCS_RefTverskyCombo>
0.415 

> <ROCS_FitTversky>
1.658 

> <ROCS_FitColorTversky>
0.761 

> <ROCS_FitTverskyCombo>
2.419 

> <ROCS_ColorScore>
-4.819

> <ROCS_Overlap>
1779.616

> <ROCS_Rank>
133                 

$$$$
untitled-dbase-946_77
  -OEChem-11112309163D

 29 30  0     1  0  0  0  0  0999 V2000
    7.3247    9.9674   24.4401 C   0  0  0  0  0  0  0  0  0  0  0  0
    8.3990    9.5153   23.6739 C   0  0  0  0  0  0  0  0  0  0  0  0
    8.3844   12.1283   24.6508 C   0  0  0  0  0  0  0  0  0  0  0  0
    7.3174   11.2739   24.9285 C   0  0  0  0  0  0  0  0  0  0  0  0
    9.4587   11.6762   23.8846 C   0  0  0  0  0  0  0  0  0  0  0  0
    9.4660   10.3697   23.3962 C   0  0  0  0  0  0  0  0  0  0  0  0
   11.1924   14.7924   20.3314 C   0  0  0  0  0  0  0  0  0  0  0  0
   11.1017   13.3848   20.9093 C   0  0  0  0  0  0  0  0  0  0  0  0
    9.7325   14.9178   22.1920 C   0  0  0  0  0  0  0  0  0  0  0  0
    9.8720   15.4193   20.7574 C   0  0  1  0  0  0  0  0  0  0  0  0
   10.2431   13.5180   22.1247 N   0  0  2  0  0  0  0  0  0  0  0  0
    9.8644   16.8687   20.6611 N   0  0  0  0  0  0  0  0  0  0  0  0
   10.7781   13.7915   24.6315 O   0  0  0  0  0  0  0  0  0  0  0  0
   11.9745   12.0170   23.3021 O   0  0  0  0  0  0  0  0  0  0  0  0
    6.2863   11.7083   25.6653 F   0  0  0  0  0  0  0  0  0  0  0  0
   10.7833   12.8033   23.5680 S   0  0  0  0  0  0  0  0  0  0  0  0
   10.7726    9.7601   22.4457 Cl  0  0  0  0  0  0  0  0  0  0  0  0
    6.4942    9.3027   24.6583 H   0  0  0  0  0  0  0  0  0  0  0  0
    8.3877    8.4946   23.2998 H   0  0  0  0  0  0  0  0  0  0  0  0
    8.3663   13.1435   25.0384 H   0  0  0  0  0  0  0  0  0  0  0  0
   12.0466   15.3245   20.7770 H   0  0  0  0  0  0  0  0  0  0  0  0
   11.3325   14.7857   19.2427 H   0  0  0  0  0  0  0  0  0  0  0  0
   10.6283   12.7042   20.1875 H   0  0  0  0  0  0  0  0  0  0  0  0
   12.0902   12.9927   21.1774 H   0  0  0  0  0  0  0  0  0  0  0  0
   10.3649   15.4710   22.8902 H   0  0  0  0  0  0  0  0  0  0  0  0
    8.6980   14.9682   22.5323 H   0  0  0  0  0  0  0  0  0  0  0  0
    9.0620   15.0113   20.1476 H   0  0  0  0  0  0  0  0  0  0  0  0
    9.7312   17.2472   21.5715 H   0  0  0  0  0  0  0  0  0  0  0  0
   10.7369   17.1667   20.2876 H   0  0  0  0  0  0  0  0  0  0  0  0
  1  2  1  0  0  0  0
  1  4  2  0  0  0  0
  2  6  2  0  0  0  0
  3  4  1  0  0  0  0
  3  5  2  0  0  0  0
  4 15  1  0  0  0  0
  5  6  1  0  0  0  0
  5 16  1  0  0  0  0
  6 17  1  0  0  0  0
  7  8  1  0  0  0  0
  7 10  1  0  0  0  0
  8 11  1  0  0  0  0
  9 10  1  0  0  0  0
  9 11  1  0  0  0  0
 10 12  1  1  0  0  0
 11 16  1  0  0  0  0
 13 16  2  0  0  0  0
 14 16  2  0  0  0  0
  1 18  1  0  0  0  0
  2 19  1  0  0  0  0
  3 20  1  0  0  0  0
  7 21  1  0  0  0  0
  7 22  1  0  0  0  0
  8 23  1  0  0  0  0
  8 24  1  0  0  0  0
  9 25  1  0  0  0  0
  9 26  1  0  0  0  0
 10 27  1  0  0  0  0
 12 28  1  0  0  0  0
 12 29  1  0  0  0  0
M  END
> <Catalog ID>
Z2242852374

> <PlateID>
1337959-R-12

> <Well>
G10

> <MW (desalted)>
278.731

> <CLogP>
1.375

> <HBD>
1

> <TPSA>
63.400

> <RotBonds>
1

> <ROCS_ShapeQuery>
A71EV2A-x0451_0A_A71EV2A-x0310_0A_A71EV2A-x0416_0A_peptide

> <ROCS_TanimotoCombo>
0.437 

> <ROCS_ShapeTanimoto>
0.291 

> <ROCS_ColorTanimoto>
0.146 

> <ROCS_RefTversky>
0.260 

> <ROCS_RefColorTversky>
0.158 

> <ROCS_RefTverskyCombo>
0.417 

> <ROCS_FitTversky>
1.717 

> <ROCS_FitColorTversky>
0.658 

> <ROCS_FitTverskyCombo>
2.376 

> <ROCS_ColorScore>
-4.797

> <ROCS_Overlap>
1799.183

> <ROCS_Rank>
134                 

$$$$
untitled-dbase-576_39
  -OEChem-11112309163D

 32 33  0     1  0  0  0  0  0999 V2000
    7.5019   11.3282   24.8762 C   0  0  0  0  0  0  0  0  0  0  0  0
    8.3841   12.3098   24.4249 C   0  0  0  0  0  0  0  0  0  0  0  0
    9.7540   10.6058   23.3968 C   0  0  0  0  0  0  0  0  0  0  0  0
    7.7457    9.9854   24.5879 C   0  0  0  0  0  0  0  0  0  0  0  0
    8.8717    9.6242   23.8482 C   0  0  0  0  0  0  0  0  0  0  0  0
    9.5102   11.9486   23.6852 C   0  0  0  0  0  0  0  0  0  0  0  0
    8.4538   14.8474   20.2813 C   0  0  0  0  0  0  0  0  0  0  0  0
    8.5442   14.0634   21.5826 C   0  0  0  0  0  0  0  0  0  0  0  0
   10.7574   14.3570   20.6388 C   0  0  0  0  0  0  0  0  0  0  0  0
    9.8343   15.4747   20.1573 C   0  0  2  0  0  0  0  0  0  0  0  0
    6.7996    8.9386   25.0716 C   0  0  0  0  0  0  0  0  0  0  0  0
    9.9443   13.5561   21.6035 N   0  0  1  0  0  0  0  0  0  0  0  0
    9.9578   16.6539   20.9814 N   0  0  0  0  0  0  0  0  0  0  0  0
   10.4943   14.3376   23.9980 O   0  0  0  0  0  0  0  0  0  0  0  0
   11.9233   12.5637   22.9215 O   0  0  0  0  0  0  0  0  0  0  0  0
    9.1150    8.3366   23.5670 F   0  0  0  0  0  0  0  0  0  0  0  0
   10.6292   13.1929   23.1152 S   0  0  0  0  0  0  0  0  0  0  0  0
    6.6266   11.6197   25.4508 H   0  0  0  0  0  0  0  0  0  0  0  0
    8.1849   13.3529   24.6551 H   0  0  0  0  0  0  0  0  0  0  0  0
   10.6282   10.3132   22.8216 H   0  0  0  0  0  0  0  0  0  0  0  0
    8.1937   14.2113   19.4281 H   0  0  0  0  0  0  0  0  0  0  0  0
    7.6787   15.6214   20.3701 H   0  0  0  0  0  0  0  0  0  0  0  0
    8.3170   14.6943   22.4421 H   0  0  0  0  0  0  0  0  0  0  0  0
    7.8681   13.2064   21.5742 H   0  0  0  0  0  0  0  0  0  0  0  0
   11.0995   13.7237   19.8059 H   0  0  0  0  0  0  0  0  0  0  0  0
   11.6444   14.7630   21.1545 H   0  0  0  0  0  0  0  0  0  0  0  0
   10.0444   15.7178   19.1209 H   0  0  0  0  0  0  0  0  0  0  0  0
    6.0154    8.7589   24.3261 H   0  0  0  0  0  0  0  0  0  0  0  0
    7.3191    7.9913   25.2656 H   0  0  0  0  0  0  0  0  0  0  0  0
    6.3223    9.2380   26.0138 H   0  0  0  0  0  0  0  0  0  0  0  0
    9.0834   16.8276   21.4240 H   0  0  0  0  0  0  0  0  0  0  0  0
   10.6634   16.4931   21.6648 H   0  0  0  0  0  0  0  0  0  0  0  0
  1  2  1  0  0  0  0
  1  4  2  0  0  0  0
  2  6  2  0  0  0  0
  3  5  2  0  0  0  0
  3  6  1  0  0  0  0
  4  5  1  0  0  0  0
  4 11  1  0  0  0  0
  5 16  1  0  0  0  0
  6 17  1  0  0  0  0
  7  8  1  0  0  0  0
  7 10  1  0  0  0  0
  8 12  1  0  0  0  0
  9 10  1  0  0  0  0
  9 12  1  0  0  0  0
 10 13  1  0  0  0  0
 12 17  1  0  0  0  0
 14 17  2  0  0  0  0
 15 17  2  0  0  0  0
  1 18  1  0  0  0  0
  2 19  1  0  0  0  0
  3 20  1  0  0  0  0
  7 21  1  0  0  0  0
  7 22  1  0  0  0  0
  8 23  1  0  0  0  0
  8 24  1  0  0  0  0
  9 25  1  0  0  0  0
  9 26  1  0  0  0  0
 10 27  1  0  0  0  0
 11 28  1  0  0  0  0
 11 29  1  0  0  0  0
 11 30  1  0  0  0  0
 13 31  1  0  0  0  0
 13 32  1  0  0  0  0
M  END
> <Catalog ID>
Z934129960

> <PlateID>
1337959-R-08

> <Well>
B08

> <MW (desalted)>
258.312

> <CLogP>
1.461

> <HBD>
1

> <TPSA>
63.400

> <RotBonds>
1

> <ROCS_ShapeQuery>
A71EV2A-x0451_0A_A71EV2A-x0310_0A_A71EV2A-x0416_0A_peptide

> <ROCS_TanimotoCombo>
0.437 

> <ROCS_ShapeTanimoto>
0.276 

> <ROCS_ColorTanimoto>
0.160 

> <ROCS_RefTversky>
0.249 

> <ROCS_RefColorTversky>
0.171 

> <ROCS_RefTverskyCombo>
0.421 

> <ROCS_FitTversky>
1.640 

> <ROCS_FitColorTversky>
0.715 

> <ROCS_FitTverskyCombo>
2.355 

> <ROCS_ColorScore>
-5.213

> <ROCS_Overlap>
1729.434

> <ROCS_Rank>
135                 

$$$$
untitled-dbase-1174_229
  -OEChem-11112309163D

 30 31  0     0  0  0  0  0  0999 V2000
   13.3919   14.5772   23.0645 C   0  0  0  0  0  0  0  0  0  0  0  0
   12.2864   16.9134   20.3960 C   0  0  0  0  0  0  0  0  0  0  0  0
   11.1233   16.2905   19.9436 C   0  0  0  0  0  0  0  0  0  0  0  0
   13.0291   16.3392   21.4278 C   0  0  0  0  0  0  0  0  0  0  0  0
   10.7027   15.0934   20.5230 C   0  0  0  0  0  0  0  0  0  0  0  0
    6.7334   11.8362   24.5241 C   0  0  0  0  0  0  0  0  0  0  0  0
    7.8154   12.3585   23.8555 C   0  0  0  0  0  0  0  0  0  0  0  0
   12.6085   15.1422   22.0072 C   0  0  0  0  0  0  0  0  0  0  0  0
   11.4453   14.5192   21.5548 C   0  0  0  0  0  0  0  0  0  0  0  0
    8.3456   10.5049   24.9229 C   0  0  0  0  0  0  0  0  0  0  0  0
   10.6395   13.0666   23.4476 C   0  0  0  0  0  0  0  0  0  0  0  0
    9.1860    9.3912   25.4081 C   0  0  0  0  0  0  0  0  0  0  0  0
   10.2091   11.6225   23.6275 C   0  0  0  0  0  0  0  0  0  0  0  0
   14.0269   14.1193   23.9213 N   0  0  0  0  0  0  0  0  0  0  0  0
    7.0701   10.6825   25.1869 N   0  0  0  0  0  0  0  0  0  0  0  0
    8.8408   11.4951   24.1207 N   0  0  0  0  0  0  0  0  0  0  0  0
   10.9979   13.3185   22.1156 N   0  0  0  0  0  0  0  0  0  0  0  0
   10.6522   13.8673   24.3768 O   0  0  0  0  0  0  0  0  0  0  0  0
   12.6137   17.8455   19.9447 H   0  0  0  0  0  0  0  0  0  0  0  0
   10.5453   16.7375   19.1401 H   0  0  0  0  0  0  0  0  0  0  0  0
   13.9334   16.8381   21.7683 H   0  0  0  0  0  0  0  0  0  0  0  0
    9.7945   14.6178   20.1613 H   0  0  0  0  0  0  0  0  0  0  0  0
    5.7292   12.2323   24.5621 H   0  0  0  0  0  0  0  0  0  0  0  0
    7.9387   13.2370   23.2376 H   0  0  0  0  0  0  0  0  0  0  0  0
    9.1625    8.5421   24.7061 H   0  0  0  0  0  0  0  0  0  0  0  0
   10.2391    9.6936   25.5347 H   0  0  0  0  0  0  0  0  0  0  0  0
    8.8536    9.0222   26.3931 H   0  0  0  0  0  0  0  0  0  0  0  0
   10.2744   11.0937   22.6697 H   0  0  0  0  0  0  0  0  0  0  0  0
   10.8743   11.1222   24.3405 H   0  0  0  0  0  0  0  0  0  0  0  0
   10.9207   12.5221   21.4748 H   0  0  0  0  0  0  0  0  0  0  0  0
  1  8  1  0  0  0  0
  1 14  3  0  0  0  0
  2  3  2  0  0  0  0
  2  4  1  0  0  0  0
  3  5  1  0  0  0  0
  4  8  2  0  0  0  0
  5  9  2  0  0  0  0
  6  7  2  0  0  0  0
  6 15  1  0  0  0  0
  7 16  1  0  0  0  0
  8  9  1  0  0  0  0
  9 17  1  0  0  0  0
 10 12  1  0  0  0  0
 10 15  2  0  0  0  0
 10 16  1  0  0  0  0
 11 13  1  0  0  0  0
 11 17  1  0  0  0  0
 11 18  2  0  0  0  0
 13 16  1  0  0  0  0
  2 19  1  0  0  0  0
  3 20  1  0  0  0  0
  4 21  1  0  0  0  0
  5 22  1  0  0  0  0
  6 23  1  0  0  0  0
  7 24  1  0  0  0  0
 12 25  1  0  0  0  0
 12 26  1  0  0  0  0
 12 27  1  0  0  0  0
 13 28  1  0  0  0  0
 13 29  1  0  0  0  0
 17 30  1  0  0  0  0
M  END
> <Catalog ID>
Z283671196

> <PlateID>
1337959-R-15

> <Well>
F10

> <MW (desalted)>
240.261

> <CLogP>
0.357

> <HBD>
1

> <TPSA>
70.710

> <RotBonds>
3

> <ROCS_ShapeQuery>
A71EV2A-x0451_0A_A71EV2A-x0310_0A_A71EV2A-x0416_0A_peptide

> <ROCS_TanimotoCombo>
0.436 

> <ROCS_ShapeTanimoto>
0.266 

> <ROCS_ColorTanimoto>
0.170 

> <ROCS_RefTversky>
0.244 

> <ROCS_RefColorTversky>
0.185 

> <ROCS_RefTverskyCombo>
0.429 

> <ROCS_FitTversky>
1.494 

> <ROCS_FitColorTversky>
0.684 

> <ROCS_FitTverskyCombo>
2.179 

> <ROCS_ColorScore>
-5.635

> <ROCS_Overlap>
1695.562

> <ROCS_Rank>
136                 

$$$$
untitled-dbase-960_243
  -OEChem-11112309163D

 32 33  0     1  0  0  0  0  0999 V2000
    7.5389    9.9106   24.5111 C   0  0  0  0  0  0  0  0  0  0  0  0
    7.2669   11.2610   24.7301 C   0  0  0  0  0  0  0  0  0  0  0  0
    8.7426    9.5287   23.9188 C   0  0  0  0  0  0  0  0  0  0  0  0
    8.1985   12.2296   24.3566 C   0  0  0  0  0  0  0  0  0  0  0  0
    9.6743   10.4972   23.5453 C   0  0  0  0  0  0  0  0  0  0  0  0
    9.4023   11.8477   23.7642 C   0  0  0  0  0  0  0  0  0  0  0  0
   11.5468   14.7632   20.5618 C   0  0  0  0  0  0  0  0  0  0  0  0
   11.1226   16.1982   20.2316 C   0  0  0  0  0  0  0  0  0  0  0  0
   10.3973   13.7656   20.6443 C   0  0  0  0  0  0  0  0  0  0  0  0
    9.6586   16.2836   22.2098 C   0  0  0  0  0  0  0  0  0  0  0  0
    8.8913   14.9640   22.2629 C   0  0  0  0  0  0  0  0  0  0  0  0
    9.9019   16.7176   20.8379 N   0  0  0  0  0  0  0  0  0  0  0  0
    9.7543   13.7917   21.9836 N   0  0  2  0  0  0  0  0  0  0  0  0
   10.6704   14.0372   24.3736 O   0  0  0  0  0  0  0  0  0  0  0  0
   11.7562   12.4004   22.7958 O   0  0  0  0  0  0  0  0  0  0  0  0
   10.8273   10.1182   22.9764 F   0  0  0  0  0  0  0  0  0  0  0  0
   10.5780   13.0778   23.2937 S   0  0  0  0  0  0  0  0  0  0  0  0
    6.8135    9.1564   24.8020 H   0  0  0  0  0  0  0  0  0  0  0  0
    6.3299   11.5582   25.1920 H   0  0  0  0  0  0  0  0  0  0  0  0
    8.9546    8.4773   23.7482 H   0  0  0  0  0  0  0  0  0  0  0  0
    7.9762   13.2787   24.5320 H   0  0  0  0  0  0  0  0  0  0  0  0
   12.2416   14.4324   19.7798 H   0  0  0  0  0  0  0  0  0  0  0  0
   12.1119   14.7599   21.5031 H   0  0  0  0  0  0  0  0  0  0  0  0
   11.9547   16.8705   20.5363 H   0  0  0  0  0  0  0  0  0  0  0  0
   11.0800   16.3272   19.1248 H   0  0  0  0  0  0  0  0  0  0  0  0
    9.6508   13.9230   19.8426 H   0  0  0  0  0  0  0  0  0  0  0  0
   10.8106   12.7554   20.4619 H   0  0  0  0  0  0  0  0  0  0  0  0
    9.1540   17.0517   22.7940 H   0  0  0  0  0  0  0  0  0  0  0  0
   10.6247   16.1247   22.6885 H   0  0  0  0  0  0  0  0  0  0  0  0
    8.4752   14.8406   23.2618 H   0  0  0  0  0  0  0  0  0  0  0  0
    8.0770   14.9975   21.5423 H   0  0  0  0  0  0  0  0  0  0  0  0
    9.9015   17.7522   20.7929 H   0  0  0  0  0  0  0  0  0  0  0  0
  1  2  2  0  0  0  0
  1  3  1  0  0  0  0
  2  4  1  0  0  0  0
  3  5  2  0  0  0  0
  4  6  2  0  0  0  0
  5  6  1  0  0  0  0
  5 16  1  0  0  0  0
  6 17  1  0  0  0  0
  7  8  1  0  0  0  0
  7  9  1  0  0  0  0
  8 12  1  0  0  0  0
  9 13  1  0  0  0  0
 10 11  1  0  0  0  0
 10 12  1  0  0  0  0
 11 13  1  0  0  0  0
 13 17  1  0  0  0  0
 14 17  2  0  0  0  0
 15 17  2  0  0  0  0
  1 18  1  0  0  0  0
  2 19  1  0  0  0  0
  3 20  1  0  0  0  0
  4 21  1  0  0  0  0
  7 22  1  0  0  0  0
  7 23  1  0  0  0  0
  8 24  1  0  0  0  0
  8 25  1  0  0  0  0
  9 26  1  0  0  0  0
  9 27  1  0  0  0  0
 10 28  1  0  0  0  0
 10 29  1  0  0  0  0
 11 30  1  0  0  0  0
 11 31  1  0  0  0  0
 12 32  1  0  0  0  0
M  END
> <Catalog ID>
Z228587722

> <PlateID>
1337959-R-13

> <Well>
A04

> <MW (desalted)>
258.312

> <CLogP>
1.392

> <HBD>
1

> <TPSA>
49.410

> <RotBonds>
1

> <ROCS_ShapeQuery>
A71EV2A-x0451_0A_A71EV2A-x0310_0A_A71EV2A-x0416_0A_peptide

> <ROCS_TanimotoCombo>
0.436 

> <ROCS_ShapeTanimoto>
0.274 

> <ROCS_ColorTanimoto>
0.162 

> <ROCS_RefTversky>
0.248 

> <ROCS_RefColorTversky>
0.173 

> <ROCS_RefTverskyCombo>
0.421 

> <ROCS_FitTversky>
1.632 

> <ROCS_FitColorTversky>
0.722 

> <ROCS_FitTverskyCombo>
2.354 

> <ROCS_ColorScore>
-5.262

> <ROCS_Overlap>
1717.886

> <ROCS_Rank>
137                 

$$$$
untitled-dbase-778_295
  -OEChem-11112309163D

 32 33  0     1  0  0  0  0  0999 V2000
    7.4257   11.5499   24.2932 C   0  0  0  0  0  0  0  0  0  0  0  0
    8.4906   12.4461   24.2015 C   0  0  0  0  0  0  0  0  0  0  0  0
    7.6220   10.2009   23.9976 C   0  0  0  0  0  0  0  0  0  0  0  0
    9.9481   10.6444   23.5184 C   0  0  0  0  0  0  0  0  0  0  0  0
    9.7517   11.9934   23.8141 C   0  0  0  0  0  0  0  0  0  0  0  0
    8.8832    9.7482   23.6102 C   0  0  0  0  0  0  0  0  0  0  0  0
   12.5598   13.2056   20.0123 C   0  0  0  0  0  0  0  0  0  0  0  0
   11.8268   14.5297   20.1147 C   0  0  0  0  0  0  0  0  0  0  0  0
   12.6271   12.7583   21.4633 C   0  0  0  0  0  0  0  0  0  0  0  0
   10.7379   14.2550   21.1586 C   0  0  2  0  0  0  0  0  0  0  0  0
   10.3536   15.5209   21.9062 C   0  0  0  0  0  0  0  0  0  0  0  0
   11.3164   13.1758   22.0231 N   0  0  2  0  0  0  0  0  0  0  0  0
    9.8625   16.5013   20.9925 N   0  0  0  0  0  0  0  0  0  0  0  0
   10.6280   14.4193   24.1609 O   0  0  0  0  0  0  0  0  0  0  0  0
   12.2568   12.5032   24.3133 O   0  0  0  0  0  0  0  0  0  0  0  0
   11.1012   13.1285   23.6984 S   0  0  0  0  0  0  0  0  0  0  0  0
    9.1245    8.0841   23.2441 Cl  0  0  0  0  0  0  0  0  0  0  0  0
    6.4438   11.9026   24.5952 H   0  0  0  0  0  0  0  0  0  0  0  0
    8.3260   13.4946   24.4344 H   0  0  0  0  0  0  0  0  0  0  0  0
    6.7831    9.5137   24.0725 H   0  0  0  0  0  0  0  0  0  0  0  0
   10.9327   10.2957   23.2150 H   0  0  0  0  0  0  0  0  0  0  0  0
   11.9705   12.4953   19.4248 H   0  0  0  0  0  0  0  0  0  0  0  0
   13.5464   13.2990   19.5571 H   0  0  0  0  0  0  0  0  0  0  0  0
   12.5174   15.3152   20.4575 H   0  0  0  0  0  0  0  0  0  0  0  0
   11.4051   14.8519   19.1537 H   0  0  0  0  0  0  0  0  0  0  0  0
   12.7942   11.6845   21.5382 H   0  0  0  0  0  0  0  0  0  0  0  0
   13.4165   13.2851   22.0015 H   0  0  0  0  0  0  0  0  0  0  0  0
    9.8457   13.8494   20.6232 H   0  0  0  0  0  0  0  0  0  0  0  0
    9.5795   15.2575   22.6292 H   0  0  0  0  0  0  0  0  0  0  0  0
   11.2464   15.8911   22.4132 H   0  0  0  0  0  0  0  0  0  0  0  0
    9.0665   16.1424   20.4983 H   0  0  0  0  0  0  0  0  0  0  0  0
    9.5905   17.3287   21.4905 H   0  0  0  0  0  0  0  0  0  0  0  0
  1  2  1  0  0  0  0
  1  3  2  0  0  0  0
  2  5  2  0  0  0  0
  3  6  1  0  0  0  0
  4  5  1  0  0  0  0
  4  6  2  0  0  0  0
  5 16  1  0  0  0  0
  6 17  1  0  0  0  0
  7  8  1  0  0  0  0
  7  9  1  0  0  0  0
  8 10  1  0  0  0  0
  9 12  1  0  0  0  0
 10 11  1  0  0  0  0
 10 12  1  0  0  0  0
 11 13  1  0  0  0  0
 12 16  1  0  0  0  0
 14 16  2  0  0  0  0
 15 16  2  0  0  0  0
  1 18  1  0  0  0  0
  2 19  1  0  0  0  0
  3 20  1  0  0  0  0
  4 21  1  0  0  0  0
  7 22  1  0  0  0  0
  7 23  1  0  0  0  0
  8 24  1  0  0  0  0
  8 25  1  0  0  0  0
  9 26  1  0  0  0  0
  9 27  1  0  0  0  0
 10 28  1  0  0  0  0
 11 29  1  0  0  0  0
 11 30  1  0  0  0  0
 13 31  1  0  0  0  0
 13 32  1  0  0  0  0
M  END
> <Catalog ID>
Z1491334663

> <PlateID>
1337959-R-10

> <Well>
F11

> <MW (desalted)>
274.767

> <CLogP>
2.151

> <HBD>
1

> <TPSA>
63.400

> <RotBonds>
2

> <ROCS_ShapeQuery>
A71EV2A-x0451_0A_A71EV2A-x0310_0A_A71EV2A-x0416_0A_peptide

> <ROCS_TanimotoCombo>
0.436 

> <ROCS_ShapeTanimoto>
0.273 

> <ROCS_ColorTanimoto>
0.163 

> <ROCS_RefTversky>
0.247 

> <ROCS_RefColorTversky>
0.174 

> <ROCS_RefTverskyCombo>
0.420 

> <ROCS_FitTversky>
1.639 

> <ROCS_FitColorTversky>
0.725 

> <ROCS_FitTverskyCombo>
2.365 

> <ROCS_ColorScore>
-5.286

> <ROCS_Overlap>
1709.863

> <ROCS_Rank>
138                 

$$$$
untitled-dbase-838_50
  -OEChem-11112309163D

 27 27  0     0  0  0  0  0  0999 V2000
   10.4625   10.5116   23.5250 C   0  0  0  0  0  0  0  0  0  0  0  0
    9.5902    9.4401   23.7160 C   0  0  0  0  0  0  0  0  0  0  0  0
    8.7421   12.0424   24.2557 C   0  0  0  0  0  0  0  0  0  0  0  0
    7.8698   10.9709   24.4467 C   0  0  0  0  0  0  0  0  0  0  0  0
   10.0385   11.8128   23.7949 C   0  0  0  0  0  0  0  0  0  0  0  0
    8.2938    9.6697   24.1769 C   0  0  0  0  0  0  0  0  0  0  0  0
    5.2394   12.7122   26.1804 C   0  0  0  0  0  0  0  0  0  0  0  0
   10.9395   14.9982   21.5241 C   0  0  0  0  0  0  0  0  0  0  0  0
    6.4936   11.8645   26.1682 C   0  0  0  0  0  0  0  0  0  0  0  0
   10.8345   13.5906   21.9344 N   0  0  0  0  0  0  0  0  0  0  0  0
   10.7183   14.2532   24.4212 O   0  0  0  0  0  0  0  0  0  0  0  0
   12.4921   12.6406   23.6614 O   0  0  0  0  0  0  0  0  0  0  0  0
    6.6092   11.2244   24.8994 O   0  0  0  0  0  0  0  0  0  0  0  0
   11.1322   13.1532   23.5595 S   0  0  0  0  0  0  0  0  0  0  0  0
    7.2360    8.3260   24.4033 Cl  0  0  0  0  0  0  0  0  0  0  0  0
   11.4709   10.3220   23.1671 H   0  0  0  0  0  0  0  0  0  0  0  0
    9.9364    8.4319   23.5025 H   0  0  0  0  0  0  0  0  0  0  0  0
    8.4084   13.0552   24.4680 H   0  0  0  0  0  0  0  0  0  0  0  0
    5.2807   13.4813   25.4041 H   0  0  0  0  0  0  0  0  0  0  0  0
    4.3524   12.0915   26.0164 H   0  0  0  0  0  0  0  0  0  0  0  0
    5.1120   13.1987   27.1532 H   0  0  0  0  0  0  0  0  0  0  0  0
   11.6325   15.5258   22.1958 H   0  0  0  0  0  0  0  0  0  0  0  0
   11.3168   15.0521   20.4922 H   0  0  0  0  0  0  0  0  0  0  0  0
    9.9473   15.4703   21.5767 H   0  0  0  0  0  0  0  0  0  0  0  0
    6.4459   11.0974   26.9469 H   0  0  0  0  0  0  0  0  0  0  0  0
    7.3789   12.4863   26.3313 H   0  0  0  0  0  0  0  0  0  0  0  0
   10.2086   13.0024   21.3708 H   0  0  0  0  0  0  0  0  0  0  0  0
  1  2  1  0  0  0  0
  1  5  2  0  0  0  0
  2  6  2  0  0  0  0
  3  4  2  0  0  0  0
  3  5  1  0  0  0  0
  4  6  1  0  0  0  0
  4 13  1  0  0  0  0
  5 14  1  0  0  0  0
  6 15  1  0  0  0  0
  7  9  1  0  0  0  0
  8 10  1  0  0  0  0
  9 13  1  0  0  0  0
 10 14  1  0  0  0  0
 11 14  2  0  0  0  0
 12 14  2  0  0  0  0
  1 16  1  0  0  0  0
  2 17  1  0  0  0  0
  3 18  1  0  0  0  0
  7 19  1  0  0  0  0
  7 20  1  0  0  0  0
  7 21  1  0  0  0  0
  8 22  1  0  0  0  0
  8 23  1  0  0  0  0
  8 24  1  0  0  0  0
  9 25  1  0  0  0  0
  9 26  1  0  0  0  0
 10 27  1  0  0  0  0
M  END
> <Catalog ID>
Z1347206079

> <PlateID>
1337959-R-11

> <Well>
D11

> <MW (desalted)>
249.714

> <CLogP>
2.408

> <HBD>
1

> <TPSA>
55.400

> <RotBonds>
3

> <ROCS_ShapeQuery>
A71EV2A-x0451_0A_A71EV2A-x0310_0A_A71EV2A-x0416_0A_peptide

> <ROCS_TanimotoCombo>
0.436 

> <ROCS_ShapeTanimoto>
0.294 

> <ROCS_ColorTanimoto>
0.142 

> <ROCS_RefTversky>
0.258 

> <ROCS_RefColorTversky>
0.150 

> <ROCS_RefTverskyCombo>
0.408 

> <ROCS_FitTversky>
1.889 

> <ROCS_FitColorTversky>
0.720 

> <ROCS_FitTverskyCombo>
2.609 

> <ROCS_ColorScore>
-4.564

> <ROCS_Overlap>
1787.036

> <ROCS_Rank>
139                 

$$$$
untitled-dbase-945_103
  -OEChem-11112309163D

 32 33  0     0  0  0  0  0  0999 V2000
    9.4509   11.7697   24.0161 C   0  0  0  0  0  0  0  0  0  0  0  0
    8.3037   11.9989   24.7952 C   0  0  0  0  0  0  0  0  0  0  0  0
    9.2356   10.5292   23.4765 C   0  0  0  0  0  0  0  0  0  0  0  0
   11.8752   15.7448   21.1072 C   0  0  0  0  0  0  0  0  0  0  0  0
   11.6244   14.9347   19.8336 C   0  0  0  0  0  0  0  0  0  0  0  0
   10.6494   15.5259   21.9922 C   0  0  0  0  0  0  0  0  0  0  0  0
   10.2614   14.2704   20.0201 C   0  0  0  0  0  0  0  0  0  0  0  0
   10.0658   14.1921   21.5323 C   0  0  0  0  0  0  0  0  0  0  0  0
    7.9799   13.1806   25.6121 C   0  0  0  0  0  0  0  0  0  0  0  0
   10.0032    9.6617   22.5732 C   0  0  0  0  0  0  0  0  0  0  0  0
    7.4427   10.9787   24.7428 N   0  0  0  0  0  0  0  0  0  0  0  0
   10.8179   13.0736   22.0965 N   0  0  0  0  0  0  0  0  0  0  0  0
   10.5760   14.0833   24.4537 O   0  0  0  0  0  0  0  0  0  0  0  0
   12.0258   12.0546   24.1264 O   0  0  0  0  0  0  0  0  0  0  0  0
    8.0404   10.0468   23.9028 O   0  0  0  0  0  0  0  0  0  0  0  0
   10.8478   12.8271   23.7812 S   0  0  0  0  0  0  0  0  0  0  0  0
   12.7928   15.4321   21.6148 H   0  0  0  0  0  0  0  0  0  0  0  0
   11.9807   16.8069   20.8590 H   0  0  0  0  0  0  0  0  0  0  0  0
   11.6063   15.6032   18.9655 H   0  0  0  0  0  0  0  0  0  0  0  0
   12.4085   14.1912   19.6609 H   0  0  0  0  0  0  0  0  0  0  0  0
   10.9557   15.4810   23.0498 H   0  0  0  0  0  0  0  0  0  0  0  0
    9.9247   16.3482   21.9051 H   0  0  0  0  0  0  0  0  0  0  0  0
    9.4566   14.8333   19.5258 H   0  0  0  0  0  0  0  0  0  0  0  0
   10.2698   13.2645   19.5702 H   0  0  0  0  0  0  0  0  0  0  0  0
    9.0116   14.1124   21.7915 H   0  0  0  0  0  0  0  0  0  0  0  0
    7.4284   13.9349   25.0248 H   0  0  0  0  0  0  0  0  0  0  0  0
    7.3595   12.9241   26.4894 H   0  0  0  0  0  0  0  0  0  0  0  0
    8.8847   13.6698   26.0152 H   0  0  0  0  0  0  0  0  0  0  0  0
   10.6782    8.9903   23.1340 H   0  0  0  0  0  0  0  0  0  0  0  0
    9.3514    9.0246   21.9466 H   0  0  0  0  0  0  0  0  0  0  0  0
   10.6269   10.2386   21.8647 H   0  0  0  0  0  0  0  0  0  0  0  0
   10.9593   12.2704   21.4742 H   0  0  0  0  0  0  0  0  0  0  0  0
  1  2  1  0  0  0  0
  1  3  2  0  0  0  0
  1 16  1  0  0  0  0
  2  9  1  0  0  0  0
  2 11  2  0  0  0  0
  3 10  1  0  0  0  0
  3 15  1  0  0  0  0
  4  5  1  0  0  0  0
  4  6  1  0  0  0  0
  5  7  1  0  0  0  0
  6  8  1  0  0  0  0
  7  8  1  0  0  0  0
  8 12  1  0  0  0  0
 11 15  1  0  0  0  0
 12 16  1  0  0  0  0
 13 16  2  0  0  0  0
 14 16  2  0  0  0  0
  4 17  1  0  0  0  0
  4 18  1  0  0  0  0
  5 19  1  0  0  0  0
  5 20  1  0  0  0  0
  6 21  1  0  0  0  0
  6 22  1  0  0  0  0
  7 23  1  0  0  0  0
  7 24  1  0  0  0  0
  8 25  1  0  0  0  0
  9 26  1  0  0  0  0
  9 27  1  0  0  0  0
  9 28  1  0  0  0  0
 10 29  1  0  0  0  0
 10 30  1  0  0  0  0
 10 31  1  0  0  0  0
 12 32  1  0  0  0  0
M  END
> <Catalog ID>
Z45537475

> <PlateID>
1337959-R-12

> <Well>
G09

> <MW (desalted)>
244.311

> <CLogP>
2.048

> <HBD>
1

> <TPSA>
72.200

> <RotBonds>
2

> <ROCS_ShapeQuery>
A71EV2A-x0451_0A_A71EV2A-x0310_0A_A71EV2A-x0416_0A_peptide

> <ROCS_TanimotoCombo>
0.436 

> <ROCS_ShapeTanimoto>
0.278 

> <ROCS_ColorTanimoto>
0.157 

> <ROCS_RefTversky>
0.249 

> <ROCS_RefColorTversky>
0.168 

> <ROCS_RefTverskyCombo>
0.418 

> <ROCS_FitTversky>
1.710 

> <ROCS_FitColorTversky>
0.703 

> <ROCS_FitTverskyCombo>
2.413 

> <ROCS_ColorScore>
-5.124

> <ROCS_Overlap>
1729.008

> <ROCS_Rank>
140                 

$$$$
untitled-dbase-1048_462
  -OEChem-11112309163D

 44 46  0     0  0  0  0  0  0999 V2000
   10.7882   15.5741   23.9019 C   0  0  0  0  0  0  0  0  0  0  0  0
   11.2011   13.6695   23.1112 C   0  0  0  0  0  0  0  0  0  0  0  0
   11.5994   14.5968   22.1806 C   0  0  0  0  0  0  0  0  0  0  0  0
   11.2932   12.2060   22.9982 C   0  0  0  0  0  0  0  0  0  0  0  0
    5.8126   11.3706   25.8259 C   0  0  0  0  0  0  0  0  0  0  0  0
    6.6931   12.6154   25.9198 C   0  0  0  0  0  0  0  0  0  0  0  0
    6.7443   10.2211   25.4478 C   0  0  0  0  0  0  0  0  0  0  0  0
    8.1165   12.1416   25.6381 C   0  0  0  0  0  0  0  0  0  0  0  0
    9.1992    9.9707   24.8160 C   0  0  0  0  0  0  0  0  0  0  0  0
    7.6320   11.2381   23.2901 C   0  0  0  0  0  0  0  0  0  0  0  0
   10.1288   10.1163   23.6084 C   0  0  0  0  0  0  0  0  0  0  0  0
    8.8006   11.9501   22.6022 C   0  0  0  0  0  0  0  0  0  0  0  0
    7.9514   10.8832   24.7605 C   0  0  0  0  0  0  0  0  0  0  0  0
   13.6060   15.2016   20.7801 C   0  0  0  0  0  0  0  0  0  0  0  0
   11.3126   15.1382   19.7355 C   0  0  0  0  0  0  0  0  0  0  0  0
   12.2084   14.5351   20.8472 C   0  0  0  0  0  0  0  0  0  0  0  0
   10.6823   14.3017   24.2122 N   0  0  0  0  0  0  0  0  0  0  0  0
   10.1077   11.4679   23.0645 N   0  0  0  0  0  0  0  0  0  0  0  0
   12.4216   11.7376   22.8559 O   0  0  0  0  0  0  0  0  0  0  0  0
   11.3361   15.8350   22.6835 O   0  0  0  0  0  0  0  0  0  0  0  0
   10.4958   16.4297   24.4918 H   0  0  0  0  0  0  0  0  0  0  0  0
    5.2975   11.1669   26.7699 H   0  0  0  0  0  0  0  0  0  0  0  0
    5.0440   11.5130   25.0582 H   0  0  0  0  0  0  0  0  0  0  0  0
    6.3791   13.3528   25.1732 H   0  0  0  0  0  0  0  0  0  0  0  0
    6.6200   13.0920   26.9018 H   0  0  0  0  0  0  0  0  0  0  0  0
    7.0610    9.7064   26.3651 H   0  0  0  0  0  0  0  0  0  0  0  0
    6.2314    9.4796   24.8270 H   0  0  0  0  0  0  0  0  0  0  0  0
    8.7175   12.9202   25.1602 H   0  0  0  0  0  0  0  0  0  0  0  0
    8.6031   11.8841   26.5865 H   0  0  0  0  0  0  0  0  0  0  0  0
    8.8956    8.9143   24.9078 H   0  0  0  0  0  0  0  0  0  0  0  0
    9.7721   10.1935   25.7330 H   0  0  0  0  0  0  0  0  0  0  0  0
    6.7621   11.9008   23.2599 H   0  0  0  0  0  0  0  0  0  0  0  0
    7.3719   10.3501   22.7117 H   0  0  0  0  0  0  0  0  0  0  0  0
   11.1472    9.8291   23.9002 H   0  0  0  0  0  0  0  0  0  0  0  0
    9.8264    9.4324   22.8036 H   0  0  0  0  0  0  0  0  0  0  0  0
    8.7668   11.7898   21.5140 H   0  0  0  0  0  0  0  0  0  0  0  0
    8.6943   13.0325   22.7545 H   0  0  0  0  0  0  0  0  0  0  0  0
   13.5568   16.2567   21.0707 H   0  0  0  0  0  0  0  0  0  0  0  0
   14.0413   15.1535   19.7761 H   0  0  0  0  0  0  0  0  0  0  0  0
   14.2940   14.6977   21.4683 H   0  0  0  0  0  0  0  0  0  0  0  0
   11.0908   16.1871   19.9619 H   0  0  0  0  0  0  0  0  0  0  0  0
   10.3592   14.6077   19.6372 H   0  0  0  0  0  0  0  0  0  0  0  0
   11.8128   15.1053   18.7614 H   0  0  0  0  0  0  0  0  0  0  0  0
   12.3798   13.4784   20.5348 H   0  0  0  0  0  0  0  0  0  0  0  0
  1 17  2  0  0  0  0
  1 20  1  0  0  0  0
  2  3  2  0  0  0  0
  2  4  1  0  0  0  0
  2 17  1  0  0  0  0
  3 16  1  0  0  0  0
  3 20  1  0  0  0  0
  4 18  1  0  0  0  0
  4 19  2  0  0  0  0
  5  6  1  0  0  0  0
  5  7  1  0  0  0  0
  6  8  1  0  0  0  0
  7 13  1  0  0  0  0
  8 13  1  0  0  0  0
  9 11  1  0  0  0  0
  9 13  1  0  0  0  0
 10 12  1  0  0  0  0
 10 13  1  0  0  0  0
 11 18  1  0  0  0  0
 12 18  1  0  0  0  0
 14 16  1  0  0  0  0
 15 16  1  0  0  0  0
  1 21  1  0  0  0  0
  5 22  1  0  0  0  0
  5 23  1  0  0  0  0
  6 24  1  0  0  0  0
  6 25  1  0  0  0  0
  7 26  1  0  0  0  0
  7 27  1  0  0  0  0
  8 28  1  0  0  0  0
  8 29  1  0  0  0  0
  9 30  1  0  0  0  0
  9 31  1  0  0  0  0
 10 32  1  0  0  0  0
 10 33  1  0  0  0  0
 11 34  1  0  0  0  0
 11 35  1  0  0  0  0
 12 36  1  0  0  0  0
 12 37  1  0  0  0  0
 14 38  1  0  0  0  0
 14 39  1  0  0  0  0
 14 40  1  0  0  0  0
 15 41  1  0  0  0  0
 15 42  1  0  0  0  0
 15 43  1  0  0  0  0
 16 44  1  0  0  0  0
M  END
> <Catalog ID>
Z1240877747

> <PlateID>
1337959-R-14

> <Well>
B04

> <MW (desalted)>
276.374

> <CLogP>
2.504

> <HBD>
0

> <TPSA>
46.340

> <RotBonds>
2

> <ROCS_ShapeQuery>
A71EV2A-x0451_0A_A71EV2A-x0310_0A_A71EV2A-x0416_0A_peptide

> <ROCS_TanimotoCombo>
0.435 

> <ROCS_ShapeTanimoto>
0.322 

> <ROCS_ColorTanimoto>
0.114 

> <ROCS_RefTversky>
0.286 

> <ROCS_RefColorTversky>
0.127 

> <ROCS_RefTverskyCombo>
0.412 

> <ROCS_FitTversky>
1.642 

> <ROCS_FitColorTversky>
0.528 

> <ROCS_FitTverskyCombo>
2.170 

> <ROCS_ColorScore>
-3.849

> <ROCS_Overlap>
1983.745

> <ROCS_Rank>
141                 

$$$$
untitled-dbase-951_441
  -OEChem-11112309163D

 35 36  0     1  0  0  0  0  0999 V2000
   11.7197   17.4532   20.3426 C   0  0  0  0  0  0  0  0  0  0  0  0
   10.7518   16.5786   19.8490 C   0  0  0  0  0  0  0  0  0  0  0  0
   12.5168   17.0739   21.4227 C   0  0  0  0  0  0  0  0  0  0  0  0
   10.5808   15.3246   20.4356 C   0  0  0  0  0  0  0  0  0  0  0  0
   12.3458   15.8200   22.0092 C   0  0  0  0  0  0  0  0  0  0  0  0
   11.3778   14.9453   21.5157 C   0  0  0  0  0  0  0  0  0  0  0  0
    8.0216   10.5860   24.3634 C   0  0  0  0  0  0  0  0  0  0  0  0
   10.8351   13.3791   23.4123 C   0  0  0  0  0  0  0  0  0  0  0  0
    8.3704   11.5027   23.2099 C   0  0  0  0  0  0  0  0  0  0  0  0
    9.7853    8.9949   23.5795 C   0  0  0  0  0  0  0  0  0  0  0  0
    9.9795    9.9150   22.3854 C   0  0  0  0  0  0  0  0  0  0  0  0
   13.2137   15.4405   23.1650 C   0  0  0  0  0  0  0  0  0  0  0  0
   10.7385   11.8797   23.6176 C   0  0  0  0  0  0  0  0  0  0  0  0
    8.6500    9.3620   24.4007 N   0  0  0  0  0  0  0  0  0  0  0  0
    9.7354   11.3181   22.7170 N   0  0  2  0  0  0  0  0  0  0  0  0
   11.1887   13.6690   22.0971 N   0  0  0  0  0  0  0  0  0  0  0  0
    7.1484   10.9031   25.1736 O   0  0  0  0  0  0  0  0  0  0  0  0
   10.6104   14.1786   24.3154 O   0  0  0  0  0  0  0  0  0  0  0  0
   11.8527   18.4297   19.8865 H   0  0  0  0  0  0  0  0  0  0  0  0
   10.1306   16.8743   19.0084 H   0  0  0  0  0  0  0  0  0  0  0  0
   13.2678   17.7629   21.7999 H   0  0  0  0  0  0  0  0  0  0  0  0
    9.8233   14.6520   20.0415 H   0  0  0  0  0  0  0  0  0  0  0  0
    7.6530   11.2877   22.3982 H   0  0  0  0  0  0  0  0  0  0  0  0
    8.1911   12.5423   23.5412 H   0  0  0  0  0  0  0  0  0  0  0  0
    9.6063    7.9664   23.2455 H   0  0  0  0  0  0  0  0  0  0  0  0
   10.6744    8.9898   24.2177 H   0  0  0  0  0  0  0  0  0  0  0  0
   11.0020    9.7778   21.9629 H   0  0  0  0  0  0  0  0  0  0  0  0
    9.2870    9.5813   21.5809 H   0  0  0  0  0  0  0  0  0  0  0  0
   12.7431   15.7423   24.1075 H   0  0  0  0  0  0  0  0  0  0  0  0
   13.3870   14.3580   23.1908 H   0  0  0  0  0  0  0  0  0  0  0  0
   14.1975   15.9205   23.0951 H   0  0  0  0  0  0  0  0  0  0  0  0
   10.4601   11.6656   24.6542 H   0  0  0  0  0  0  0  0  0  0  0  0
   11.7148   11.4290   23.4137 H   0  0  0  0  0  0  0  0  0  0  0  0
    8.2919    8.6659   25.0508 H   0  0  0  0  0  0  0  0  0  0  0  0
   11.3308   12.8804   21.4694 H   0  0  0  0  0  0  0  0  0  0  0  0
  1  2  2  0  0  0  0
  1  3  1  0  0  0  0
  2  4  1  0  0  0  0
  3  5  2  0  0  0  0
  4  6  2  0  0  0  0
  5  6  1  0  0  0  0
  5 12  1  0  0  0  0
  6 16  1  0  0  0  0
  7  9  1  0  0  0  0
  7 14  1  0  0  0  0
  7 17  2  0  0  0  0
  8 13  1  0  0  0  0
  8 16  1  0  0  0  0
  8 18  2  0  0  0  0
  9 15  1  0  0  0  0
 10 11  1  0  0  0  0
 10 14  1  0  0  0  0
 11 15  1  0  0  0  0
 13 15  1  0  0  0  0
  1 19  1  0  0  0  0
  2 20  1  0  0  0  0
  3 21  1  0  0  0  0
  4 22  1  0  0  0  0
  9 23  1  0  0  0  0
  9 24  1  0  0  0  0
 10 25  1  0  0  0  0
 10 26  1  0  0  0  0
 11 27  1  0  0  0  0
 11 28  1  0  0  0  0
 12 29  1  0  0  0  0
 12 30  1  0  0  0  0
 12 31  1  0  0  0  0
 13 32  1  0  0  0  0
 13 33  1  0  0  0  0
 14 34  1  0  0  0  0
 16 35  1  0  0  0  0
M  END
> <Catalog ID>
Z46334819

> <PlateID>
1337959-R-12

> <Well>
H05

> <MW (desalted)>
247.293

> <CLogP>
0.824

> <HBD>
2

> <TPSA>
61.440

> <RotBonds>
3

> <ROCS_ShapeQuery>
A71EV2A-x0451_0A_A71EV2A-x0310_0A_A71EV2A-x0416_0A_peptide

> <ROCS_TanimotoCombo>
0.435 

> <ROCS_ShapeTanimoto>
0.283 

> <ROCS_ColorTanimoto>
0.152 

> <ROCS_RefTversky>
0.256 

> <ROCS_RefColorTversky>
0.168 

> <ROCS_RefTverskyCombo>
0.424 

> <ROCS_FitTversky>
1.588 

> <ROCS_FitColorTversky>
0.621 

> <ROCS_FitTverskyCombo>
2.208 

> <ROCS_ColorScore>
-5.113

> <ROCS_Overlap>
1777.873

> <ROCS_Rank>
142                 

$$$$
untitled-dbase-611_18
  -OEChem-11112309163D

 28 30  0     1  0  0  0  0  0999 V2000
    6.6050   11.4421   26.1658 C   0  0  0  0  0  0  0  0  0  0  0  0
    7.0389   12.7510   25.9024 C   0  0  0  0  0  0  0  0  0  0  0  0
    7.1350   10.3613   25.4580 C   0  0  0  0  0  0  0  0  0  0  0  0
    8.0157   12.9971   24.9348 C   0  0  0  0  0  0  0  0  0  0  0  0
    8.1105   10.6129   24.5076 C   0  0  0  0  0  0  0  0  0  0  0  0
    8.5591   11.9110   24.2682 C   0  0  0  0  0  0  0  0  0  0  0  0
   11.3317   15.0112   21.4447 C   0  0  0  0  0  0  0  0  0  0  0  0
   10.5595   13.9952   21.8023 C   0  0  0  0  0  0  0  0  0  0  0  0
    8.7651    9.6376   23.5832 C   0  0  0  0  0  0  0  0  0  0  0  0
    9.5443   13.8447   20.7505 C   0  0  0  0  0  0  0  0  0  0  0  0
    9.8966   10.4776   22.9650 C   0  0  0  0  0  0  0  0  0  0  0  0
   10.9340   15.5577   20.2531 N   0  0  0  0  0  0  0  0  0  0  0  0
    9.9216   14.9367   19.8088 N   0  0  0  0  0  0  0  0  0  0  0  0
    9.5146   11.9118   23.1992 N   0  0  2  0  0  0  0  0  0  0  0  0
   12.0347   12.3616   23.1539 O   0  0  0  0  0  0  0  0  0  0  0  0
   10.5212   13.9484   24.3843 O   0  0  0  0  0  0  0  0  0  0  0  0
   10.7610   13.0628   23.2524 S   0  0  0  0  0  0  0  0  0  0  0  0
    5.8391   11.2708   26.9173 H   0  0  0  0  0  0  0  0  0  0  0  0
    6.6014   13.5810   26.4506 H   0  0  0  0  0  0  0  0  0  0  0  0
    6.7789    9.3536   25.6435 H   0  0  0  0  0  0  0  0  0  0  0  0
    8.3267   14.0143   24.7254 H   0  0  0  0  0  0  0  0  0  0  0  0
   12.1812   15.4080   21.9795 H   0  0  0  0  0  0  0  0  0  0  0  0
    9.1590    8.7615   24.1061 H   0  0  0  0  0  0  0  0  0  0  0  0
    8.0539    9.3188   22.8138 H   0  0  0  0  0  0  0  0  0  0  0  0
    9.6092   12.8771   20.2447 H   0  0  0  0  0  0  0  0  0  0  0  0
    8.5295   14.0081   21.1245 H   0  0  0  0  0  0  0  0  0  0  0  0
   10.8441   10.2601   23.4732 H   0  0  0  0  0  0  0  0  0  0  0  0
   10.0109   10.2753   21.8961 H   0  0  0  0  0  0  0  0  0  0  0  0
  1  2  1  0  0  0  0
  1  3  2  0  0  0  0
  2  4  2  0  0  0  0
  3  5  1  0  0  0  0
  4  6  1  0  0  0  0
  5  6  2  0  0  0  0
  5  9  1  0  0  0  0
  6 14  1  0  0  0  0
  7  8  2  0  0  0  0
  7 12  1  0  0  0  0
  8 10  1  0  0  0  0
  8 17  1  0  0  0  0
  9 11  1  0  0  0  0
 10 13  1  0  0  0  0
 11 14  1  0  0  0  0
 12 13  2  0  0  0  0
 14 17  1  0  0  0  0
 15 17  2  0  0  0  0
 16 17  2  0  0  0  0
  1 18  1  0  0  0  0
  2 19  1  0  0  0  0
  3 20  1  0  0  0  0
  4 21  1  0  0  0  0
  7 22  1  0  0  0  0
  9 23  1  0  0  0  0
  9 24  1  0  0  0  0
 10 25  1  0  0  0  0
 10 26  1  0  0  0  0
 11 27  1  0  0  0  0
 11 28  1  0  0  0  0
M  END
> <Catalog ID>
Z605849578

> <PlateID>
1337959-R-08

> <Well>
F04

> <MW (desalted)>
249.289

> <CLogP>
1.550

> <HBD>
1

> <TPSA>
66.060

> <RotBonds>
1

> <ROCS_ShapeQuery>
A71EV2A-x0451_0A_A71EV2A-x0310_0A_A71EV2A-x0416_0A_peptide

> <ROCS_TanimotoCombo>
0.435 

> <ROCS_ShapeTanimoto>
0.308 

> <ROCS_ColorTanimoto>
0.127 

> <ROCS_RefTversky>
0.273 

> <ROCS_RefColorTversky>
0.140 

> <ROCS_RefTverskyCombo>
0.412 

> <ROCS_FitTversky>
1.737 

> <ROCS_FitColorTversky>
0.582 

> <ROCS_FitTverskyCombo>
2.319 

> <ROCS_ColorScore>
-4.252

> <ROCS_Overlap>
1890.411

> <ROCS_Rank>
143                 

$$$$
untitled-dbase-1018_47
  -OEChem-11112309163D

 29 31  0     1  0  0  0  0  0999 V2000
    7.4066   10.1751   24.8186 C   0  0  0  0  0  0  0  0  0  0  0  0
    8.3186    9.4910   24.0227 C   0  0  0  0  0  0  0  0  0  0  0  0
    7.5190   11.5540   24.8951 C   0  0  0  0  0  0  0  0  0  0  0  0
    9.3012   10.1967   23.3372 C   0  0  0  0  0  0  0  0  0  0  0  0
    9.3286   11.5746   23.4799 C   0  0  0  0  0  0  0  0  0  0  0  0
   10.9009   13.5148   23.1831 C   0  0  0  0  0  0  0  0  0  0  0  0
   11.8308   16.7189   19.2420 C   0  0  0  0  0  0  0  0  0  0  0  0
   13.1922   16.1326   19.4681 C   0  0  0  0  0  0  0  0  0  0  0  0
   12.7318   15.1815   22.5029 C   0  0  0  0  0  0  0  0  0  0  0  0
   11.8924   13.9660   22.2006 C   0  0  2  0  0  0  0  0  0  0  0  0
   11.9702   15.4069   19.9722 C   0  0  0  0  0  0  0  0  0  0  0  0
   11.6595   15.2557   21.4533 C   0  0  2  0  0  0  0  0  0  0  0  0
    8.4598   12.2740   24.2439 N   0  0  0  0  0  0  0  0  0  0  0  0
   10.3187   12.3157   22.7922 N   0  0  0  0  0  0  0  0  0  0  0  0
   10.6770   14.1699   24.1959 O   0  0  0  0  0  0  0  0  0  0  0  0
   10.4232    9.3335   22.3552 Cl  0  0  0  0  0  0  0  0  0  0  0  0
    6.6327    9.6458   25.3621 H   0  0  0  0  0  0  0  0  0  0  0  0
    8.2497    8.4090   23.9475 H   0  0  0  0  0  0  0  0  0  0  0  0
    6.8325   12.1343   25.5028 H   0  0  0  0  0  0  0  0  0  0  0  0
   11.5607   17.5984   19.8131 H   0  0  0  0  0  0  0  0  0  0  0  0
   11.4308   16.6952   18.2359 H   0  0  0  0  0  0  0  0  0  0  0  0
   13.7108   15.7129   18.6149 H   0  0  0  0  0  0  0  0  0  0  0  0
   13.8362   16.6179   20.1912 H   0  0  0  0  0  0  0  0  0  0  0  0
   12.5631   15.7107   23.4332 H   0  0  0  0  0  0  0  0  0  0  0  0
   13.7662   15.1686   22.1809 H   0  0  0  0  0  0  0  0  0  0  0  0
   12.3840   13.1638   21.6596 H   0  0  0  0  0  0  0  0  0  0  0  0
   11.6885   14.5300   19.3891 H   0  0  0  0  0  0  0  0  0  0  0  0
   10.7738   15.8176   21.7524 H   0  0  0  0  0  0  0  0  0  0  0  0
   10.6320   11.9124   21.9116 H   0  0  0  0  0  0  0  0  0  0  0  0
  1  2  1  0  0  0  0
  1  3  2  0  0  0  0
  2  4  2  0  0  0  0
  3 13  1  0  0  0  0
  4  5  1  0  0  0  0
  4 16  1  0  0  0  0
  5 13  2  0  0  0  0
  5 14  1  0  0  0  0
  6 10  1  0  0  0  0
  6 14  1  0  0  0  0
  6 15  2  0  0  0  0
  7  8  1  0  0  0  0
  7 11  1  0  0  0  0
  8 11  1  0  0  0  0
  9 10  1  0  0  0  0
  9 12  1  0  0  0  0
 10 12  1  0  0  0  0
 11 12  1  0  0  0  0
  1 17  1  0  0  0  0
  2 18  1  0  0  0  0
  3 19  1  0  0  0  0
  7 20  1  0  0  0  0
  7 21  1  0  0  0  0
  8 22  1  0  0  0  0
  8 23  1  0  0  0  0
  9 24  1  0  0  0  0
  9 25  1  0  0  0  0
 10 26  1  0  0  0  0
 11 27  1  0  0  0  0
 12 28  1  0  0  0  0
 14 29  1  0  0  0  0
M  END
> <Catalog ID>
Z1615395795

> <PlateID>
1337959-R-13

> <Well>
G03

> <MW (desalted)>
236.697

> <CLogP>
1.927

> <HBD>
1

> <TPSA>
41.990

> <RotBonds>
3

> <ROCS_ShapeQuery>
A71EV2A-x0451_0A_A71EV2A-x0310_0A_A71EV2A-x0416_0A_peptide

> <ROCS_TanimotoCombo>
0.435 

> <ROCS_ShapeTanimoto>
0.299 

> <ROCS_ColorTanimoto>
0.136 

> <ROCS_RefTversky>
0.264 

> <ROCS_RefColorTversky>
0.141 

> <ROCS_RefTverskyCombo>
0.405 

> <ROCS_FitTversky>
1.785 

> <ROCS_FitColorTversky>
0.793 

> <ROCS_FitTverskyCombo>
2.579 

> <ROCS_ColorScore>
-4.273

> <ROCS_Overlap>
1831.930

> <ROCS_Rank>
144                 

$$$$
untitled-dbase-624_47
  -OEChem-11112309163D

 32 33  0     1  0  0  0  0  0999 V2000
    8.5787   11.9340   24.9681 C   0  0  0  0  0  0  0  0  0  0  0  0
    8.2074    9.6916   23.3504 C   0  0  0  0  0  0  0  0  0  0  0  0
    7.5285   11.0533   25.2272 C   0  0  0  0  0  0  0  0  0  0  0  0
    7.3429    9.9321   24.4184 C   0  0  0  0  0  0  0  0  0  0  0  0
    9.2575   10.5724   23.0913 C   0  0  0  0  0  0  0  0  0  0  0  0
    9.4432   11.6935   23.9001 C   0  0  0  0  0  0  0  0  0  0  0  0
   11.1848   14.7864   20.3304 C   0  0  0  0  0  0  0  0  0  0  0  0
   11.0885   13.3816   20.9144 C   0  0  0  0  0  0  0  0  0  0  0  0
    9.7294   14.9267   22.1933 C   0  0  0  0  0  0  0  0  0  0  0  0
    9.8684   15.4215   20.7563 C   0  0  1  0  0  0  0  0  0  0  0  0
    6.6066   11.3118   26.3706 C   0  0  0  0  0  0  0  0  0  0  0  0
   10.2330   13.5241   22.1309 N   0  0  2  0  0  0  0  0  0  0  0  0
    9.8676   16.8704   20.6540 N   0  0  0  0  0  0  0  0  0  0  0  0
   10.7743   13.8055   24.6355 O   0  0  0  0  0  0  0  0  0  0  0  0
   11.9594   12.0197   23.3111 O   0  0  0  0  0  0  0  0  0  0  0  0
    6.3377    9.0791   24.6604 F   0  0  0  0  0  0  0  0  0  0  0  0
   10.0821   10.3299   22.0630 F   0  0  0  0  0  0  0  0  0  0  0  0
   10.7726   12.8129   23.5761 S   0  0  0  0  0  0  0  0  0  0  0  0
    8.7225   12.8072   25.6000 H   0  0  0  0  0  0  0  0  0  0  0  0
    8.0632    8.8180   22.7216 H   0  0  0  0  0  0  0  0  0  0  0  0
   12.0426   15.3162   20.7721 H   0  0  0  0  0  0  0  0  0  0  0  0
   11.3227   14.7745   19.2415 H   0  0  0  0  0  0  0  0  0  0  0  0
   10.6104   12.7004   20.1964 H   0  0  0  0  0  0  0  0  0  0  0  0
   12.0757   12.9859   21.1822 H   0  0  0  0  0  0  0  0  0  0  0  0
   10.3658   15.4797   22.8880 H   0  0  0  0  0  0  0  0  0  0  0  0
    8.6958   14.9835   22.5354 H   0  0  0  0  0  0  0  0  0  0  0  0
    9.0552   15.0148   20.1499 H   0  0  0  0  0  0  0  0  0  0  0  0
    5.7582   11.9264   26.0458 H   0  0  0  0  0  0  0  0  0  0  0  0
    6.2173   10.3743   26.7884 H   0  0  0  0  0  0  0  0  0  0  0  0
    7.1218   11.8337   27.1876 H   0  0  0  0  0  0  0  0  0  0  0  0
    9.9967   17.1221   19.7002 H   0  0  0  0  0  0  0  0  0  0  0  0
    8.9939   17.2117   20.9858 H   0  0  0  0  0  0  0  0  0  0  0  0
  1  3  2  0  0  0  0
  1  6  1  0  0  0  0
  2  4  2  0  0  0  0
  2  5  1  0  0  0  0
  3  4  1  0  0  0  0
  3 11  1  0  0  0  0
  4 16  1  0  0  0  0
  5  6  2  0  0  0  0
  5 17  1  0  0  0  0
  6 18  1  0  0  0  0
  7  8  1  0  0  0  0
  7 10  1  0  0  0  0
  8 12  1  0  0  0  0
  9 10  1  0  0  0  0
  9 12  1  0  0  0  0
 10 13  1  6  0  0  0
 12 18  1  0  0  0  0
 14 18  2  0  0  0  0
 15 18  2  0  0  0  0
  1 19  1  0  0  0  0
  2 20  1  0  0  0  0
  7 21  1  0  0  0  0
  7 22  1  0  0  0  0
  8 23  1  0  0  0  0
  8 24  1  0  0  0  0
  9 25  1  0  0  0  0
  9 26  1  0  0  0  0
 10 27  1  0  0  0  0
 11 28  1  0  0  0  0
 11 29  1  0  0  0  0
 11 30  1  0  0  0  0
 13 31  1  0  0  0  0
 13 32  1  0  0  0  0
M  END
> <Catalog ID>
Z2242930975

> <PlateID>
1337959-R-08

> <Well>
G07

> <MW (desalted)>
276.303

> <CLogP>
1.604

> <HBD>
1

> <TPSA>
63.400

> <RotBonds>
1

> <ROCS_ShapeQuery>
A71EV2A-x0451_0A_A71EV2A-x0310_0A_A71EV2A-x0416_0A_peptide

> <ROCS_TanimotoCombo>
0.435 

> <ROCS_ShapeTanimoto>
0.289 

> <ROCS_ColorTanimoto>
0.145 

> <ROCS_RefTversky>
0.260 

> <ROCS_RefColorTversky>
0.157 

> <ROCS_RefTverskyCombo>
0.417 

> <ROCS_FitTversky>
1.637 

> <ROCS_FitColorTversky>
0.656 

> <ROCS_FitTverskyCombo>
2.294 

> <ROCS_ColorScore>
-4.785

> <ROCS_Overlap>
1802.937

> <ROCS_Rank>
145                 

$$$$
untitled-dbase-565_188
  -OEChem-11112309163D

 35 36  0     1  0  0  0  0  0999 V2000
    7.1874   10.2093   24.7413 C   0  0  0  0  0  0  0  0  0  0  0  0
    7.8555    9.5983   23.6802 C   0  0  0  0  0  0  0  0  0  0  0  0
    7.6840   11.3916   25.2901 C   0  0  0  0  0  0  0  0  0  0  0  0
    9.0203   10.1696   23.1679 C   0  0  0  0  0  0  0  0  0  0  0  0
    8.8488   11.9629   24.7778 C   0  0  0  0  0  0  0  0  0  0  0  0
    9.5170   11.3519   23.7167 C   0  0  0  0  0  0  0  0  0  0  0  0
   10.7794   13.4695   23.3102 C   0  0  0  0  0  0  0  0  0  0  0  0
   10.9789   14.7867   19.8492 C   0  0  0  0  0  0  0  0  0  0  0  0
   10.3858   13.7716   20.8196 C   0  0  0  0  0  0  0  0  0  0  0  0
   11.5224   15.4906   22.0645 C   0  0  0  0  0  0  0  0  0  0  0  0
   11.1343   16.0473   20.6987 C   0  0  2  0  0  0  0  0  0  0  0  0
   13.4628   11.7919   22.6600 C   0  0  0  0  0  0  0  0  0  0  0  0
   10.7740   11.9688   23.1645 C   0  0  1  0  0  0  0  0  0  0  0  0
   10.8805   14.1830   22.1295 N   0  0  0  0  0  0  0  0  0  0  0  0
    9.9034   16.7972   20.7681 N   0  0  0  0  0  0  0  0  0  0  0  0
   10.7029   13.9884   24.4250 O   0  0  0  0  0  0  0  0  0  0  0  0
   12.2788   11.3266   23.9444 S   0  0  0  0  0  0  0  0  0  0  0  0
    6.2797    9.7650   25.1392 H   0  0  0  0  0  0  0  0  0  0  0  0
    7.4683    8.6783   23.2521 H   0  0  0  0  0  0  0  0  0  0  0  0
    7.1635   11.8681   26.1156 H   0  0  0  0  0  0  0  0  0  0  0  0
    9.5343    9.6865   22.3411 H   0  0  0  0  0  0  0  0  0  0  0  0
    9.2285   12.8841   25.2118 H   0  0  0  0  0  0  0  0  0  0  0  0
   11.9661   14.4447   19.5125 H   0  0  0  0  0  0  0  0  0  0  0  0
   10.3532   14.9303   18.9618 H   0  0  0  0  0  0  0  0  0  0  0  0
    9.2923   13.8229   20.8442 H   0  0  0  0  0  0  0  0  0  0  0  0
   10.6849   12.7434   20.5989 H   0  0  0  0  0  0  0  0  0  0  0  0
   12.6057   15.3279   22.1253 H   0  0  0  0  0  0  0  0  0  0  0  0
   11.2233   16.1224   22.9081 H   0  0  0  0  0  0  0  0  0  0  0  0
   11.9333   16.6933   20.2932 H   0  0  0  0  0  0  0  0  0  0  0  0
   14.4689   11.4803   22.9512 H   0  0  0  0  0  0  0  0  0  0  0  0
   13.4519   12.8757   22.5203 H   0  0  0  0  0  0  0  0  0  0  0  0
   13.1974   11.3073   21.7173 H   0  0  0  0  0  0  0  0  0  0  0  0
   10.8510   11.7783   22.0913 H   0  0  0  0  0  0  0  0  0  0  0  0
    9.2298   16.3388   20.2021 H   0  0  0  0  0  0  0  0  0  0  0  0
    9.6095   16.8210   21.7153 H   0  0  0  0  0  0  0  0  0  0  0  0
  1  2  2  0  0  0  0
  1  3  1  0  0  0  0
  2  4  1  0  0  0  0
  3  5  2  0  0  0  0
  4  6  2  0  0  0  0
  5  6  1  0  0  0  0
  6 13  1  0  0  0  0
  7 13  1  0  0  0  0
  7 14  1  0  0  0  0
  7 16  2  0  0  0  0
  8  9  1  0  0  0  0
  8 11  1  0  0  0  0
  9 14  1  0  0  0  0
 10 11  1  0  0  0  0
 10 14  1  0  0  0  0
 11 15  1  0  0  0  0
 12 17  1  0  0  0  0
 13 17  1  0  0  0  0
  1 18  1  0  0  0  0
  2 19  1  0  0  0  0
  3 20  1  0  0  0  0
  4 21  1  0  0  0  0
  5 22  1  0  0  0  0
  8 23  1  0  0  0  0
  8 24  1  0  0  0  0
  9 25  1  0  0  0  0
  9 26  1  0  0  0  0
 10 27  1  0  0  0  0
 10 28  1  0  0  0  0
 11 29  1  0  0  0  0
 12 30  1  0  0  0  0
 12 31  1  0  0  0  0
 12 32  1  0  0  0  0
 13 33  1  0  0  0  0
 15 34  1  0  0  0  0
 15 35  1  0  0  0  0
M  END
> <Catalog ID>
Z1456610121

> <PlateID>
1337959-R-08

> <Well>
A07

> <MW (desalted)>
250.360

> <CLogP>
1.630

> <HBD>
1

> <TPSA>
46.330

> <RotBonds>
3

> <ROCS_ShapeQuery>
A71EV2A-x0451_0A_A71EV2A-x0310_0A_A71EV2A-x0416_0A_peptide

> <ROCS_TanimotoCombo>
0.434 

> <ROCS_ShapeTanimoto>
0.280 

> <ROCS_ColorTanimoto>
0.154 

> <ROCS_RefTversky>
0.252 

> <ROCS_RefColorTversky>
0.166 

> <ROCS_RefTverskyCombo>
0.418 

> <ROCS_FitTversky>
1.659 

> <ROCS_FitColorTversky>
0.691 

> <ROCS_FitTverskyCombo>
2.350 

> <ROCS_ColorScore>
-5.036

> <ROCS_Overlap>
1747.740

> <ROCS_Rank>
146                 

$$$$
untitled-dbase-1029_22
  -OEChem-11112309163D

 31 33  0     0  0  0  0  0  0999 V2000
    9.6550   10.7569   23.1647 C   0  0  0  0  0  0  0  0  0  0  0  0
    8.3865   12.1843   24.6147 C   0  0  0  0  0  0  0  0  0  0  0  0
    8.7387    9.7490   23.4867 C   0  0  0  0  0  0  0  0  0  0  0  0
    9.4623   12.0066   23.7524 C   0  0  0  0  0  0  0  0  0  0  0  0
    8.5183    8.3971   23.1695 C   0  0  0  0  0  0  0  0  0  0  0  0
    7.7084   10.0573   24.3619 C   0  0  0  0  0  0  0  0  0  0  0  0
   10.3802   13.1148   23.4638 C   0  0  0  0  0  0  0  0  0  0  0  0
   10.4426   12.6021   20.9682 C   0  0  0  0  0  0  0  0  0  0  0  0
   12.2962   13.8148   22.0681 C   0  0  0  0  0  0  0  0  0  0  0  0
   10.1063   13.7128   19.9803 C   0  0  0  0  0  0  0  0  0  0  0  0
   12.1791   15.0673   21.2075 C   0  0  0  0  0  0  0  0  0  0  0  0
    9.3085    7.5345   22.2759 C   0  0  0  0  0  0  0  0  0  0  0  0
    7.4756   11.2421   24.9561 N   0  0  0  0  0  0  0  0  0  0  0  0
    7.4450    7.8994   23.7904 N   0  0  0  0  0  0  0  0  0  0  0  0
   11.0030   13.1457   22.2126 N   0  0  0  0  0  0  0  0  0  0  0  0
   10.5245   13.9454   24.3595 O   0  0  0  0  0  0  0  0  0  0  0  0
    6.9352    8.9497   24.5428 O   0  0  0  0  0  0  0  0  0  0  0  0
   11.5887   14.6713   19.5303 S   0  0  0  0  0  0  0  0  0  0  0  0
   10.4809   10.5719   22.4854 H   0  0  0  0  0  0  0  0  0  0  0  0
    8.2142   13.1506   25.0836 H   0  0  0  0  0  0  0  0  0  0  0  0
    9.5393   12.0201   21.1697 H   0  0  0  0  0  0  0  0  0  0  0  0
   11.1764   11.9044   20.5457 H   0  0  0  0  0  0  0  0  0  0  0  0
   13.0060   13.0983   21.6371 H   0  0  0  0  0  0  0  0  0  0  0  0
   12.6839   14.0950   23.0535 H   0  0  0  0  0  0  0  0  0  0  0  0
    9.6926   13.2806   19.0637 H   0  0  0  0  0  0  0  0  0  0  0  0
    9.3526   14.3914   20.3939 H   0  0  0  0  0  0  0  0  0  0  0  0
   11.4981   15.7940   21.6637 H   0  0  0  0  0  0  0  0  0  0  0  0
   13.1586   15.5473   21.1169 H   0  0  0  0  0  0  0  0  0  0  0  0
   10.1133    7.0171   22.8261 H   0  0  0  0  0  0  0  0  0  0  0  0
    8.6896    6.7604   21.7876 H   0  0  0  0  0  0  0  0  0  0  0  0
    9.7807    8.1044   21.4553 H   0  0  0  0  0  0  0  0  0  0  0  0
  1  3  2  0  0  0  0
  1  4  1  0  0  0  0
  2  4  2  0  0  0  0
  2 13  1  0  0  0  0
  3  5  1  0  0  0  0
  3  6  1  0  0  0  0
  4  7  1  0  0  0  0
  5 12  1  0  0  0  0
  5 14  2  0  0  0  0
  6 13  2  0  0  0  0
  6 17  1  0  0  0  0
  7 15  1  0  0  0  0
  7 16  2  0  0  0  0
  8 10  1  0  0  0  0
  8 15  1  0  0  0  0
  9 11  1  0  0  0  0
  9 15  1  0  0  0  0
 10 18  1  0  0  0  0
 11 18  1  0  0  0  0
 14 17  1  0  0  0  0
  1 19  1  0  0  0  0
  2 20  1  0  0  0  0
  8 21  1  0  0  0  0
  8 22  1  0  0  0  0
  9 23  1  0  0  0  0
  9 24  1  0  0  0  0
 10 25  1  0  0  0  0
 10 26  1  0  0  0  0
 11 27  1  0  0  0  0
 11 28  1  0  0  0  0
 12 29  1  0  0  0  0
 12 30  1  0  0  0  0
 12 31  1  0  0  0  0
M  END
> <Catalog ID>
Z437590718

> <PlateID>
1337959-R-13

> <Well>
H04

> <MW (desalted)>
263.316

> <CLogP>
0.605

> <HBD>
0

> <TPSA>
59.230

> <RotBonds>
1

> <ROCS_ShapeQuery>
A71EV2A-x0451_0A_A71EV2A-x0310_0A_A71EV2A-x0416_0A_peptide

> <ROCS_TanimotoCombo>
0.434 

> <ROCS_ShapeTanimoto>
0.307 

> <ROCS_ColorTanimoto>
0.128 

> <ROCS_RefTversky>
0.273 

> <ROCS_RefColorTversky>
0.140 

> <ROCS_RefTverskyCombo>
0.413 

> <ROCS_FitTversky>
1.671 

> <ROCS_FitColorTversky>
0.584 

> <ROCS_FitTverskyCombo>
2.255 

> <ROCS_ColorScore>
-4.268

> <ROCS_Overlap>
1894.231

> <ROCS_Rank>
147                 

$$$$
untitled-dbase-726_114
  -OEChem-11112309163D

 32 33  0     1  0  0  0  0  0999 V2000
    7.3662   11.2908   24.7386 C   0  0  0  0  0  0  0  0  0  0  0  0
    7.6222    9.9546   24.4312 C   0  0  0  0  0  0  0  0  0  0  0  0
    8.2723   12.2802   24.3567 C   0  0  0  0  0  0  0  0  0  0  0  0
    8.7842    9.6077   23.7420 C   0  0  0  0  0  0  0  0  0  0  0  0
    9.4343   11.9334   23.6675 C   0  0  0  0  0  0  0  0  0  0  0  0
    9.6903   10.5971   23.3601 C   0  0  0  0  0  0  0  0  0  0  0  0
    9.4005   16.4358   22.2557 C   0  0  0  0  0  0  0  0  0  0  0  0
    8.7051   15.0901   22.4059 C   0  0  0  0  0  0  0  0  0  0  0  0
   10.1953   14.1737   20.6503 C   0  0  0  0  0  0  0  0  0  0  0  0
   10.7988   15.5703   20.4532 C   0  0  2  0  0  0  0  0  0  0  0  0
   12.1830   15.7211   21.0880 C   0  0  0  0  0  0  0  0  0  0  0  0
    9.8875   16.6394   20.8885 N   0  0  0  0  0  0  0  0  0  0  0  0
    9.6209   13.9956   22.0076 N   0  0  1  0  0  0  0  0  0  0  0  0
   10.6776   14.1181   24.3414 O   0  0  0  0  0  0  0  0  0  0  0  0
   11.7047   12.6228   22.5931 O   0  0  0  0  0  0  0  0  0  0  0  0
   10.5430   13.2281   23.2083 S   0  0  0  0  0  0  0  0  0  0  0  0
   11.1134   10.1144   22.5091 Cl  0  0  0  0  0  0  0  0  0  0  0  0
    6.4611   11.5609   25.2745 H   0  0  0  0  0  0  0  0  0  0  0  0
    6.9164    9.1844   24.7281 H   0  0  0  0  0  0  0  0  0  0  0  0
    8.0600   13.3174   24.6023 H   0  0  0  0  0  0  0  0  0  0  0  0
    8.9678    8.5615   23.5105 H   0  0  0  0  0  0  0  0  0  0  0  0
    8.7192   17.2522   22.5315 H   0  0  0  0  0  0  0  0  0  0  0  0
   10.2520   16.4830   22.9453 H   0  0  0  0  0  0  0  0  0  0  0  0
    8.3731   14.9379   23.4445 H   0  0  0  0  0  0  0  0  0  0  0  0
    7.8141   15.0750   21.7616 H   0  0  0  0  0  0  0  0  0  0  0  0
    9.3952   14.0178   19.8989 H   0  0  0  0  0  0  0  0  0  0  0  0
   10.9564   13.3860   20.4685 H   0  0  0  0  0  0  0  0  0  0  0  0
   10.9506   15.7129   19.3296 H   0  0  0  0  0  0  0  0  0  0  0  0
   12.1102   15.5957   22.1671 H   0  0  0  0  0  0  0  0  0  0  0  0
   12.5834   16.7100   20.8704 H   0  0  0  0  0  0  0  0  0  0  0  0
   12.8578   14.9669   20.6861 H   0  0  0  0  0  0  0  0  0  0  0  0
    9.0873   16.6873   20.2495 H   0  0  0  0  0  0  0  0  0  0  0  0
  1  2  2  0  0  0  0
  1  3  1  0  0  0  0
  2  4  1  0  0  0  0
  3  5  2  0  0  0  0
  4  6  2  0  0  0  0
  5  6  1  0  0  0  0
  5 16  1  0  0  0  0
  6 17  1  0  0  0  0
  7  8  1  0  0  0  0
  7 12  1  0  0  0  0
  8 13  1  0  0  0  0
  9 10  1  0  0  0  0
  9 13  1  0  0  0  0
 10 11  1  0  0  0  0
 10 12  1  0  0  0  0
 13 16  1  0  0  0  0
 14 16  2  0  0  0  0
 15 16  2  0  0  0  0
  1 18  1  0  0  0  0
  2 19  1  0  0  0  0
  3 20  1  0  0  0  0
  4 21  1  0  0  0  0
  7 22  1  0  0  0  0
  7 23  1  0  0  0  0
  8 24  1  0  0  0  0
  8 25  1  0  0  0  0
  9 26  1  0  0  0  0
  9 27  1  0  0  0  0
 10 28  1  0  0  0  0
 11 29  1  0  0  0  0
 11 30  1  0  0  0  0
 11 31  1  0  0  0  0
 12 32  1  0  0  0  0
M  END
> <Catalog ID>
Z1491313442

> <PlateID>
1337959-R-10

> <Well>
A09

> <MW (desalted)>
274.767

> <CLogP>
2.201

> <HBD>
1

> <TPSA>
49.410

> <RotBonds>
1

> <ROCS_ShapeQuery>
A71EV2A-x0451_0A_A71EV2A-x0310_0A_A71EV2A-x0416_0A_peptide

> <ROCS_TanimotoCombo>
0.434 

> <ROCS_ShapeTanimoto>
0.269 

> <ROCS_ColorTanimoto>
0.165 

> <ROCS_RefTversky>
0.244 

> <ROCS_RefColorTversky>
0.175 

> <ROCS_RefTverskyCombo>
0.419 

> <ROCS_FitTversky>
1.623 

> <ROCS_FitColorTversky>
0.732 

> <ROCS_FitTverskyCombo>
2.354 

> <ROCS_ColorScore>
-5.333

> <ROCS_Overlap>
1690.606

> <ROCS_Rank>
148                 

$$$$
untitled-dbase-955_171
  -OEChem-11112309163D

 35 36  0     0  0  0  0  0  0999 V2000
   13.1795   13.9118   20.2093 C   0  0  0  0  0  0  0  0  0  0  0  0
   13.7059   13.8250   21.4981 C   0  0  0  0  0  0  0  0  0  0  0  0
   11.8015   13.8242   20.0114 C   0  0  0  0  0  0  0  0  0  0  0  0
   11.4763   13.5627   22.3911 C   0  0  0  0  0  0  0  0  0  0  0  0
   12.8543   13.6504   22.5890 C   0  0  0  0  0  0  0  0  0  0  0  0
   10.9500   13.6496   21.1023 C   0  0  0  0  0  0  0  0  0  0  0  0
   10.6052   13.3798   23.5498 C   0  0  0  0  0  0  0  0  0  0  0  0
    8.0820   10.9253   24.8001 C   0  0  0  0  0  0  0  0  0  0  0  0
    8.8562   10.2093   22.4759 C   0  0  0  0  0  0  0  0  0  0  0  0
    8.5016   12.2895   24.2680 C   0  0  0  0  0  0  0  0  0  0  0  0
   10.1158   10.9663   22.8901 C   0  0  0  0  0  0  0  0  0  0  0  0
    7.9579    9.8843   23.6782 C   0  0  0  0  0  0  0  0  0  0  0  0
   13.7459   12.2691   24.3074 C   0  0  0  0  0  0  0  0  0  0  0  0
    9.7946   12.2271   23.5797 N   0  0  0  0  0  0  0  0  0  0  0  0
    8.2316    8.5614   24.1938 N   0  0  0  0  0  0  0  0  0  0  0  0
   10.5866   14.2166   24.4551 O   0  0  0  0  0  0  0  0  0  0  0  0
   13.3923   13.5685   23.8389 O   0  0  0  0  0  0  0  0  0  0  0  0
    9.2505   13.5462   20.8100 Cl  0  0  0  0  0  0  0  0  0  0  0  0
   13.8427   14.0478   19.3600 H   0  0  0  0  0  0  0  0  0  0  0  0
   14.7804   13.8942   21.6450 H   0  0  0  0  0  0  0  0  0  0  0  0
   11.4078   13.8938   19.0005 H   0  0  0  0  0  0  0  0  0  0  0  0
    8.7965   10.5857   25.5602 H   0  0  0  0  0  0  0  0  0  0  0  0
    7.1123   11.0202   25.3065 H   0  0  0  0  0  0  0  0  0  0  0  0
    8.2891   10.8258   21.7692 H   0  0  0  0  0  0  0  0  0  0  0  0
    9.1315    9.2946   21.9414 H   0  0  0  0  0  0  0  0  0  0  0  0
    7.7155   12.6736   23.6035 H   0  0  0  0  0  0  0  0  0  0  0  0
    8.5983   13.0244   25.0825 H   0  0  0  0  0  0  0  0  0  0  0  0
   10.7336   10.3683   23.5757 H   0  0  0  0  0  0  0  0  0  0  0  0
   10.7343   11.1674   22.0043 H   0  0  0  0  0  0  0  0  0  0  0  0
    6.9080    9.8809   23.3337 H   0  0  0  0  0  0  0  0  0  0  0  0
   14.1624   12.3450   25.3148 H   0  0  0  0  0  0  0  0  0  0  0  0
   14.4797   11.8240   23.6307 H   0  0  0  0  0  0  0  0  0  0  0  0
   12.8500   11.6442   24.3322 H   0  0  0  0  0  0  0  0  0  0  0  0
    7.6040    8.3894   24.9409 H   0  0  0  0  0  0  0  0  0  0  0  0
    8.0930    7.9130   23.4576 H   0  0  0  0  0  0  0  0  0  0  0  0
  1  2  1  0  0  0  0
  1  3  2  0  0  0  0
  2  5  2  0  0  0  0
  3  6  1  0  0  0  0
  4  5  1  0  0  0  0
  4  6  2  0  0  0  0
  4  7  1  0  0  0  0
  5 17  1  0  0  0  0
  6 18  1  0  0  0  0
  7 14  1  0  0  0  0
  7 16  2  0  0  0  0
  8 10  1  0  0  0  0
  8 12  1  0  0  0  0
  9 11  1  0  0  0  0
  9 12  1  0  0  0  0
 10 14  1  0  0  0  0
 11 14  1  0  0  0  0
 12 15  1  0  0  0  0
 13 17  1  0  0  0  0
  1 19  1  0  0  0  0
  2 20  1  0  0  0  0
  3 21  1  0  0  0  0
  8 22  1  0  0  0  0
  8 23  1  0  0  0  0
  9 24  1  0  0  0  0
  9 25  1  0  0  0  0
 10 26  1  0  0  0  0
 10 27  1  0  0  0  0
 11 28  1  0  0  0  0
 11 29  1  0  0  0  0
 12 30  1  0  0  0  0
 13 31  1  0  0  0  0
 13 32  1  0  0  0  0
 13 33  1  0  0  0  0
 15 34  1  0  0  0  0
 15 35  1  0  0  0  0
M  END
> <Catalog ID>
Z2242905964

> <PlateID>
1337959-R-12

> <Well>
H09

> <MW (desalted)>
268.739

> <CLogP>
0.788

> <HBD>
1

> <TPSA>
55.560

> <RotBonds>
2

> <ROCS_ShapeQuery>
A71EV2A-x0451_0A_A71EV2A-x0310_0A_A71EV2A-x0416_0A_peptide

> <ROCS_TanimotoCombo>
0.434 

> <ROCS_ShapeTanimoto>
0.265 

> <ROCS_ColorTanimoto>
0.169 

> <ROCS_RefTversky>
0.243 

> <ROCS_RefColorTversky>
0.179 

> <ROCS_RefTverskyCombo>
0.422 

> <ROCS_FitTversky>
1.519 

> <ROCS_FitColorTversky>
0.748 

> <ROCS_FitTverskyCombo>
2.267 

> <ROCS_ColorScore>
-5.452

> <ROCS_Overlap>
1683.627

> <ROCS_Rank>
149                 

$$$$
untitled-dbase-613_37
  -OEChem-11112309163D

 29 30  0     1  0  0  0  0  0999 V2000
    7.4994   11.3335   24.8788 C   0  0  0  0  0  0  0  0  0  0  0  0
    8.3842   12.3118   24.4255 C   0  0  0  0  0  0  0  0  0  0  0  0
    8.8647    9.6238   23.8541 C   0  0  0  0  0  0  0  0  0  0  0  0
    7.7397    9.9894   24.5932 C   0  0  0  0  0  0  0  0  0  0  0  0
    9.7496   10.6022   23.4007 C   0  0  0  0  0  0  0  0  0  0  0  0
    9.5093   11.9462   23.6865 C   0  0  0  0  0  0  0  0  0  0  0  0
    8.4538   14.8444   20.2818 C   0  0  0  0  0  0  0  0  0  0  0  0
    8.5438   14.0606   21.5833 C   0  0  0  0  0  0  0  0  0  0  0  0
   10.7573   14.3540   20.6400 C   0  0  0  0  0  0  0  0  0  0  0  0
    9.8343   15.4716   20.1580 C   0  0  2  0  0  0  0  0  0  0  0  0
    9.9440   13.5533   21.6046 N   0  0  1  0  0  0  0  0  0  0  0  0
    9.9577   16.6510   20.9820 N   0  0  0  0  0  0  0  0  0  0  0  0
   10.4933   14.3352   23.9991 O   0  0  0  0  0  0  0  0  0  0  0  0
   11.9225   12.5611   22.9232 O   0  0  0  0  0  0  0  0  0  0  0  0
    6.8902    9.0496   25.0281 F   0  0  0  0  0  0  0  0  0  0  0  0
   10.8275   10.2384   22.6919 F   0  0  0  0  0  0  0  0  0  0  0  0
   10.6285   13.1903   23.1165 S   0  0  0  0  0  0  0  0  0  0  0  0
    6.6232   11.6178   25.4541 H   0  0  0  0  0  0  0  0  0  0  0  0
    8.1882   13.3556   24.6556 H   0  0  0  0  0  0  0  0  0  0  0  0
    9.0518    8.5773   23.6331 H   0  0  0  0  0  0  0  0  0  0  0  0
    8.1939   14.2081   19.4287 H   0  0  0  0  0  0  0  0  0  0  0  0
    7.6787   15.6184   20.3702 H   0  0  0  0  0  0  0  0  0  0  0  0
    8.3164   14.6917   22.4426 H   0  0  0  0  0  0  0  0  0  0  0  0
    7.8677   13.2036   21.5749 H   0  0  0  0  0  0  0  0  0  0  0  0
   11.0996   13.7206   19.8072 H   0  0  0  0  0  0  0  0  0  0  0  0
   11.6442   14.7601   21.1558 H   0  0  0  0  0  0  0  0  0  0  0  0
   10.0447   15.7145   19.1217 H   0  0  0  0  0  0  0  0  0  0  0  0
    9.0831   16.8248   21.4243 H   0  0  0  0  0  0  0  0  0  0  0  0
   10.6631   16.4903   21.6655 H   0  0  0  0  0  0  0  0  0  0  0  0
  1  2  1  0  0  0  0
  1  4  2  0  0  0  0
  2  6  2  0  0  0  0
  3  4  1  0  0  0  0
  3  5  2  0  0  0  0
  4 15  1  0  0  0  0
  5  6  1  0  0  0  0
  5 16  1  0  0  0  0
  6 17  1  0  0  0  0
  7  8  1  0  0  0  0
  7 10  1  0  0  0  0
  8 11  1  0  0  0  0
  9 10  1  0  0  0  0
  9 11  1  0  0  0  0
 10 12  1  0  0  0  0
 11 17  1  0  0  0  0
 13 17  2  0  0  0  0
 14 17  2  0  0  0  0
  1 18  1  0  0  0  0
  2 19  1  0  0  0  0
  3 20  1  0  0  0  0
  7 21  1  0  0  0  0
  7 22  1  0  0  0  0
  8 23  1  0  0  0  0
  8 24  1  0  0  0  0
  9 25  1  0  0  0  0
  9 26  1  0  0  0  0
 10 27  1  0  0  0  0
 12 28  1  0  0  0  0
 12 29  1  0  0  0  0
M  END
> <Catalog ID>
Z1491270588

> <PlateID>
1337959-R-08

> <Well>
F06

> <MW (desalted)>
262.276

> <CLogP>
1.105

> <HBD>
1

> <TPSA>
63.400

> <RotBonds>
1

> <ROCS_ShapeQuery>
A71EV2A-x0451_0A_A71EV2A-x0310_0A_A71EV2A-x0416_0A_peptide

> <ROCS_TanimotoCombo>
0.434 

> <ROCS_ShapeTanimoto>
0.273 

> <ROCS_ColorTanimoto>
0.160 

> <ROCS_RefTversky>
0.247 

> <ROCS_RefColorTversky>
0.171 

> <ROCS_RefTverskyCombo>
0.419 

> <ROCS_FitTversky>
1.618 

> <ROCS_FitColorTversky>
0.715 

> <ROCS_FitTverskyCombo>
2.333 

> <ROCS_ColorScore>
-5.214

> <ROCS_Overlap>
1715.611

> <ROCS_Rank>
150                 

$$$$
untitled-dbase-912_35
  -OEChem-11112309163D

 32 34  0     1  0  0  0  0  0999 V2000
   10.1304    9.6315   23.7826 C   0  0  0  0  0  0  0  0  0  0  0  0
    6.1194   11.4191   25.8292 C   0  0  0  0  0  0  0  0  0  0  0  0
    9.0679    9.4844   24.6697 C   0  0  0  0  0  0  0  0  0  0  0  0
    7.0397   10.3883   25.7046 C   0  0  0  0  0  0  0  0  0  0  0  0
   10.2490   10.8014   23.0427 C   0  0  0  0  0  0  0  0  0  0  0  0
    6.3142   12.5453   25.0555 C   0  0  0  0  0  0  0  0  0  0  0  0
    8.1189   10.5100   24.8190 C   0  0  0  0  0  0  0  0  0  0  0  0
    9.3054   11.8210   23.1913 C   0  0  0  0  0  0  0  0  0  0  0  0
    8.2330   11.7005   24.0708 C   0  0  0  0  0  0  0  0  0  0  0  0
   11.1738   15.4612   20.9692 C   0  0  0  0  0  0  0  0  0  0  0  0
   11.1076   13.9565   20.7304 C   0  0  0  0  0  0  0  0  0  0  0  0
   12.0913   15.6642   22.1635 C   0  0  0  0  0  0  0  0  0  0  0  0
    9.4768   13.0627   22.3720 C   0  0  0  0  0  0  0  0  0  0  0  0
    7.3415   12.7025   24.1896 N   0  0  0  0  0  0  0  0  0  0  0  0
   10.9056   13.3515   22.0862 N   0  0  2  0  0  0  0  0  0  0  0  0
   10.8572   14.7527   24.3173 O   0  0  0  0  0  0  0  0  0  0  0  0
   13.0248   13.6628   23.5788 O   0  0  0  0  0  0  0  0  0  0  0  0
   11.7614   14.3060   23.2782 S   0  0  0  0  0  0  0  0  0  0  0  0
   10.8617    8.8369   23.6703 H   0  0  0  0  0  0  0  0  0  0  0  0
    5.2801   11.3422   26.5101 H   0  0  0  0  0  0  0  0  0  0  0  0
    8.9844    8.5643   25.2440 H   0  0  0  0  0  0  0  0  0  0  0  0
    6.9117    9.4895   26.3037 H   0  0  0  0  0  0  0  0  0  0  0  0
   11.0796   10.9151   22.3509 H   0  0  0  0  0  0  0  0  0  0  0  0
    5.6273   13.3834   25.1108 H   0  0  0  0  0  0  0  0  0  0  0  0
   11.6073   15.9522   20.0878 H   0  0  0  0  0  0  0  0  0  0  0  0
   10.1821   15.8935   21.1374 H   0  0  0  0  0  0  0  0  0  0  0  0
   10.2656   13.6987   20.0826 H   0  0  0  0  0  0  0  0  0  0  0  0
   12.0376   13.5921   20.2903 H   0  0  0  0  0  0  0  0  0  0  0  0
   13.1504   15.6629   21.8855 H   0  0  0  0  0  0  0  0  0  0  0  0
   11.8481   16.5956   22.6894 H   0  0  0  0  0  0  0  0  0  0  0  0
    8.9554   12.9712   21.4114 H   0  0  0  0  0  0  0  0  0  0  0  0
    9.0575   13.9370   22.8840 H   0  0  0  0  0  0  0  0  0  0  0  0
  1  3  2  0  0  0  0
  1  5  1  0  0  0  0
  2  4  1  0  0  0  0
  2  6  2  0  0  0  0
  3  7  1  0  0  0  0
  4  7  2  0  0  0  0
  5  8  2  0  0  0  0
  6 14  1  0  0  0  0
  7  9  1  0  0  0  0
  8  9  1  0  0  0  0
  8 13  1  0  0  0  0
  9 14  2  0  0  0  0
 10 11  1  0  0  0  0
 10 12  1  0  0  0  0
 11 15  1  0  0  0  0
 12 18  1  0  0  0  0
 13 15  1  0  0  0  0
 15 18  1  0  0  0  0
 16 18  2  0  0  0  0
 17 18  2  0  0  0  0
  1 19  1  0  0  0  0
  2 20  1  0  0  0  0
  3 21  1  0  0  0  0
  4 22  1  0  0  0  0
  5 23  1  0  0  0  0
  6 24  1  0  0  0  0
 10 25  1  0  0  0  0
 10 26  1  0  0  0  0
 11 27  1  0  0  0  0
 11 28  1  0  0  0  0
 12 29  1  0  0  0  0
 12 30  1  0  0  0  0
 13 31  1  0  0  0  0
 13 32  1  0  0  0  0
M  END
> <Catalog ID>
Z729353458

> <PlateID>
1337959-R-12

> <Well>
D06

> <MW (desalted)>
262.327

> <CLogP>
0.838

> <HBD>
0

> <TPSA>
50.270

> <RotBonds>
2

> <ROCS_ShapeQuery>
A71EV2A-x0451_0A_A71EV2A-x0310_0A_A71EV2A-x0416_0A_peptide

> <ROCS_TanimotoCombo>
0.433 

> <ROCS_ShapeTanimoto>
0.315 

> <ROCS_ColorTanimoto>
0.119 

> <ROCS_RefTversky>
0.278 

> <ROCS_RefColorTversky>
0.132 

> <ROCS_RefTverskyCombo>
0.410 

> <ROCS_FitTversky>
1.719 

> <ROCS_FitColorTversky>
0.549 

> <ROCS_FitTverskyCombo>
2.268 

> <ROCS_ColorScore>
-4.005

> <ROCS_Overlap>
1928.716

> <ROCS_Rank>
151                 

$$$$
untitled-dbase-809_110
  -OEChem-11112309163D

 29 30  0     0  0  0  0  0  0999 V2000
    6.8886   10.6672   25.2384 C   0  0  0  0  0  0  0  0  0  0  0  0
    9.3859   10.0319   22.5520 C   0  0  0  0  0  0  0  0  0  0  0  0
    8.3206    9.8481   23.4334 C   0  0  0  0  0  0  0  0  0  0  0  0
   10.1107   11.2235   22.5728 C   0  0  0  0  0  0  0  0  0  0  0  0
   13.5253   16.1149   20.5324 C   0  0  0  0  0  0  0  0  0  0  0  0
   11.9733   14.4591   19.7362 C   0  0  0  0  0  0  0  0  0  0  0  0
    8.7048   12.0476   24.3564 C   0  0  0  0  0  0  0  0  0  0  0  0
   13.9903   16.2263   19.2320 C   0  0  0  0  0  0  0  0  0  0  0  0
   12.5076   14.6448   18.4714 C   0  0  0  0  0  0  0  0  0  0  0  0
    7.9801   10.8560   24.3356 C   0  0  0  0  0  0  0  0  0  0  0  0
    9.7702   12.2314   23.4749 C   0  0  0  0  0  0  0  0  0  0  0  0
   12.4974   15.2122   20.7810 C   0  0  0  0  0  0  0  0  0  0  0  0
   10.5278   13.4726   23.4967 C   0  0  0  0  0  0  0  0  0  0  0  0
   11.9560   15.0506   22.1720 C   0  0  0  0  0  0  0  0  0  0  0  0
    6.0023   10.5139   25.9716 N   0  0  0  0  0  0  0  0  0  0  0  0
   13.5062   15.5119   18.1913 N   0  0  0  0  0  0  0  0  0  0  0  0
   11.1503   13.8580   22.3037 N   0  0  0  0  0  0  0  0  0  0  0  0
   10.6230   14.1359   24.5446 O   0  0  0  0  0  0  0  0  0  0  0  0
    9.6515    9.2473   21.8500 H   0  0  0  0  0  0  0  0  0  0  0  0
    7.7647    8.9140   23.4048 H   0  0  0  0  0  0  0  0  0  0  0  0
   10.9389   11.3556   21.8815 H   0  0  0  0  0  0  0  0  0  0  0  0
   13.9563   16.7163   21.3257 H   0  0  0  0  0  0  0  0  0  0  0  0
   11.1713   13.7472   19.8984 H   0  0  0  0  0  0  0  0  0  0  0  0
    8.4418   12.8368   25.0580 H   0  0  0  0  0  0  0  0  0  0  0  0
   14.7917   16.9153   18.9859 H   0  0  0  0  0  0  0  0  0  0  0  0
   12.1335   14.0816   17.6228 H   0  0  0  0  0  0  0  0  0  0  0  0
   12.7728   14.9879   22.8993 H   0  0  0  0  0  0  0  0  0  0  0  0
   11.3346   15.9072   22.4538 H   0  0  0  0  0  0  0  0  0  0  0  0
   11.0931   13.2481   21.4947 H   0  0  0  0  0  0  0  0  0  0  0  0
  1 10  1  0  0  0  0
  1 15  3  0  0  0  0
  2  3  2  0  0  0  0
  2  4  1  0  0  0  0
  3 10  1  0  0  0  0
  4 11  2  0  0  0  0
  5  8  1  0  0  0  0
  5 12  2  0  0  0  0
  6  9  2  0  0  0  0
  6 12  1  0  0  0  0
  7 10  2  0  0  0  0
  7 11  1  0  0  0  0
  8 16  2  0  0  0  0
  9 16  1  0  0  0  0
 11 13  1  0  0  0  0
 12 14  1  0  0  0  0
 13 17  1  0  0  0  0
 13 18  2  0  0  0  0
 14 17  1  0  0  0  0
  2 19  1  0  0  0  0
  3 20  1  0  0  0  0
  4 21  1  0  0  0  0
  5 22  1  0  0  0  0
  6 23  1  0  0  0  0
  7 24  1  0  0  0  0
  8 25  1  0  0  0  0
  9 26  1  0  0  0  0
 14 27  1  0  0  0  0
 14 28  1  0  0  0  0
 17 29  1  0  0  0  0
M  END
> <Catalog ID>
Z30167294

> <PlateID>
1337959-R-11

> <Well>
B02

> <MW (desalted)>
237.257

> <CLogP>
1.233

> <HBD>
1

> <TPSA>
65.780

> <RotBonds>
3

> <ROCS_ShapeQuery>
A71EV2A-x0451_0A_A71EV2A-x0310_0A_A71EV2A-x0416_0A_peptide

> <ROCS_TanimotoCombo>
0.433 

> <ROCS_ShapeTanimoto>
0.294 

> <ROCS_ColorTanimoto>
0.139 

> <ROCS_RefTversky>
0.264 

> <ROCS_RefColorTversky>
0.151 

> <ROCS_RefTverskyCombo>
0.415 

> <ROCS_FitTversky>
1.627 

> <ROCS_FitColorTversky>
0.631 

> <ROCS_FitTverskyCombo>
2.258 

> <ROCS_ColorScore>
-4.597

> <ROCS_Overlap>
1832.249

> <ROCS_Rank>
152                 

$$$$
untitled-dbase-574_97
  -OEChem-11112309163D

 38 39  0     1  0  0  0  0  0999 V2000
    7.3036   11.3078   24.6000 C   0  0  0  0  0  0  0  0  0  0  0  0
    7.5279    9.9857   24.2162 C   0  0  0  0  0  0  0  0  0  0  0  0
    8.2718   12.2804   24.3504 C   0  0  0  0  0  0  0  0  0  0  0  0
    9.6888   10.6087   23.3334 C   0  0  0  0  0  0  0  0  0  0  0  0
    8.7205    9.6361   23.5829 C   0  0  0  0  0  0  0  0  0  0  0  0
    9.4645   11.9308   23.7171 C   0  0  0  0  0  0  0  0  0  0  0  0
    9.0485   15.1942   22.6339 C   0  0  0  0  0  0  0  0  0  0  0  0
   10.6096   14.2645   20.8992 C   0  0  0  0  0  0  0  0  0  0  0  0
    8.6550   16.0659   21.4399 C   0  0  1  0  0  0  0  0  0  0  0  0
   10.9716   15.7357   20.6656 C   0  0  2  0  0  0  0  0  0  0  0  0
    8.9596    8.2222   23.1729 C   0  0  0  0  0  0  0  0  0  0  0  0
    7.7022   17.1794   21.8730 C   0  0  0  0  0  0  0  0  0  0  0  0
   12.1338   16.1825   21.5600 C   0  0  0  0  0  0  0  0  0  0  0  0
    9.8349   16.6561   20.8014 N   0  0  0  0  0  0  0  0  0  0  0  0
    9.9026   14.0614   22.1911 N   0  0  0  0  0  0  0  0  0  0  0  0
   10.8129   13.9779   24.5914 O   0  0  0  0  0  0  0  0  0  0  0  0
   11.8433   12.5057   22.8255 O   0  0  0  0  0  0  0  0  0  0  0  0
   10.6900   13.1618   23.4028 S   0  0  0  0  0  0  0  0  0  0  0  0
    6.3746   11.5802   25.0925 H   0  0  0  0  0  0  0  0  0  0  0  0
    6.7674    9.2348   24.4138 H   0  0  0  0  0  0  0  0  0  0  0  0
    8.0866   13.3072   24.6543 H   0  0  0  0  0  0  0  0  0  0  0  0
   10.6180   10.3348   22.8393 H   0  0  0  0  0  0  0  0  0  0  0  0
    9.5863   15.7824   23.3958 H   0  0  0  0  0  0  0  0  0  0  0  0
    8.1380   14.7930   23.1061 H   0  0  0  0  0  0  0  0  0  0  0  0
    9.9553   13.9186   20.0750 H   0  0  0  0  0  0  0  0  0  0  0  0
   11.5159   13.6254   20.8746 H   0  0  0  0  0  0  0  0  0  0  0  0
    8.1250   15.4416   20.6960 H   0  0  0  0  0  0  0  0  0  0  0  0
   11.3507   15.8294   19.5976 H   0  0  0  0  0  0  0  0  0  0  0  0
    8.5918    8.0528   22.1535 H   0  0  0  0  0  0  0  0  0  0  0  0
   10.0285    7.9740   23.2028 H   0  0  0  0  0  0  0  0  0  0  0  0
    8.4517    7.5205   23.8473 H   0  0  0  0  0  0  0  0  0  0  0  0
    8.1899   17.8177   22.6080 H   0  0  0  0  0  0  0  0  0  0  0  0
    6.8059   16.7473   22.3149 H   0  0  0  0  0  0  0  0  0  0  0  0
    7.4201   17.7805   21.0100 H   0  0  0  0  0  0  0  0  0  0  0  0
   11.8403   16.1183   22.6066 H   0  0  0  0  0  0  0  0  0  0  0  0
   12.4038   17.2115   21.3281 H   0  0  0  0  0  0  0  0  0  0  0  0
   12.9972   15.5407   21.3919 H   0  0  0  0  0  0  0  0  0  0  0  0
    9.5758   17.0175   19.8689 H   0  0  0  0  0  0  0  0  0  0  0  0
  1  2  2  0  0  0  0
  1  3  1  0  0  0  0
  2  5  1  0  0  0  0
  3  6  2  0  0  0  0
  4  5  2  0  0  0  0
  4  6  1  0  0  0  0
  5 11  1  0  0  0  0
  6 18  1  0  0  0  0
  7  9  1  0  0  0  0
  7 15  1  0  0  0  0
  8 10  1  0  0  0  0
  8 15  1  0  0  0  0
  9 12  1  0  0  0  0
  9 14  1  0  0  0  0
 10 13  1  0  0  0  0
 10 14  1  0  0  0  0
 15 18  1  0  0  0  0
 16 18  2  0  0  0  0
 17 18  2  0  0  0  0
  1 19  1  0  0  0  0
  2 20  1  0  0  0  0
  3 21  1  0  0  0  0
  4 22  1  0  0  0  0
  7 23  1  0  0  0  0
  7 24  1  0  0  0  0
  8 25  1  0  0  0  0
  8 26  1  0  0  0  0
  9 27  1  0  0  0  0
 10 28  1  0  0  0  0
 11 29  1  0  0  0  0
 11 30  1  0  0  0  0
 11 31  1  0  0  0  0
 12 32  1  0  0  0  0
 12 33  1  0  0  0  0
 12 34  1  0  0  0  0
 13 35  1  0  0  0  0
 13 36  1  0  0  0  0
 13 37  1  0  0  0  0
 14 38  1  0  0  0  0
M  END
> <Catalog ID>
Z1491307431

> <PlateID>
1337959-R-08

> <Well>
B06

> <MW (desalted)>
268.375

> <CLogP>
2.806

> <HBD>
1

> <TPSA>
49.410

> <RotBonds>
1

> <ROCS_ShapeQuery>
A71EV2A-x0451_0A_A71EV2A-x0310_0A_A71EV2A-x0416_0A_peptide

> <ROCS_TanimotoCombo>
0.432 

> <ROCS_ShapeTanimoto>
0.275 

> <ROCS_ColorTanimoto>
0.157 

> <ROCS_RefTversky>
0.250 

> <ROCS_RefColorTversky>
0.169 

> <ROCS_RefTverskyCombo>
0.418 

> <ROCS_FitTversky>
1.593 

> <ROCS_FitColorTversky>
0.703 

> <ROCS_FitTverskyCombo>
2.296 

> <ROCS_ColorScore>
-5.126

> <ROCS_Overlap>
1730.036

> <ROCS_Rank>
153                 

$$$$
untitled-dbase-330_3
  -OEChem-11112309163D

 29 30  0     1  0  0  0  0  0999 V2000
    6.8401   12.8022   26.2564 C   0  0  0  0  0  0  0  0  0  0  0  0
    6.0660   11.6541   26.1186 C   0  0  0  0  0  0  0  0  0  0  0  0
    8.0567   12.9091   25.5806 C   0  0  0  0  0  0  0  0  0  0  0  0
    6.5149   10.6074   25.3164 C   0  0  0  0  0  0  0  0  0  0  0  0
    8.5115   11.8731   24.7483 C   0  0  0  0  0  0  0  0  0  0  0  0
    7.7395   10.7073   24.6475 C   0  0  0  0  0  0  0  0  0  0  0  0
   10.0104   13.3295   23.3755 C   0  0  0  0  0  0  0  0  0  0  0  0
    9.9362   10.9172   22.9393 C   0  0  0  0  0  0  0  0  0  0  0  0
    9.8285   11.9895   24.0232 C   0  0  2  0  0  0  0  0  0  0  0  0
    9.4575    9.5494   23.4468 C   0  0  0  0  0  0  0  0  0  0  0  0
    9.4595    8.5568   22.2748 C   0  0  0  0  0  0  0  0  0  0  0  0
   10.3454    8.9826   24.5651 C   0  0  0  0  0  0  0  0  0  0  0  0
    9.6789   13.6075   22.2327 O   0  0  0  0  0  0  0  0  0  0  0  0
    8.0960    9.6109   23.9068 O   0  0  0  0  0  0  0  0  0  0  0  0
   10.5992   14.1993   24.2323 O   0  0  0  0  0  0  0  0  0  0  0  0
    6.4983   13.6154   26.8900 H   0  0  0  0  0  0  0  0  0  0  0  0
    5.1179   11.5706   26.6415 H   0  0  0  0  0  0  0  0  0  0  0  0
    8.6468   13.8132   25.7099 H   0  0  0  0  0  0  0  0  0  0  0  0
    5.9105    9.7084   25.2250 H   0  0  0  0  0  0  0  0  0  0  0  0
    9.3154   11.2121   22.0802 H   0  0  0  0  0  0  0  0  0  0  0  0
   10.9682   10.8605   22.5696 H   0  0  0  0  0  0  0  0  0  0  0  0
   10.6371   11.8640   24.7534 H   0  0  0  0  0  0  0  0  0  0  0  0
    9.1220    7.5857   22.6243 H   0  0  0  0  0  0  0  0  0  0  0  0
   10.4663    8.4703   21.8775 H   0  0  0  0  0  0  0  0  0  0  0  0
    8.7914    8.9156   21.4975 H   0  0  0  0  0  0  0  0  0  0  0  0
    9.9568    8.0188   24.8799 H   0  0  0  0  0  0  0  0  0  0  0  0
   10.3448    9.6676   25.4075 H   0  0  0  0  0  0  0  0  0  0  0  0
   11.3588    8.8627   24.1944 H   0  0  0  0  0  0  0  0  0  0  0  0
   10.7289   15.0827   23.8260 H   0  0  0  0  0  0  0  0  0  0  0  0
  1  2  2  0  0  0  0
  1  3  1  0  0  0  0
  2  4  1  0  0  0  0
  3  5  2  0  0  0  0
  4  6  2  0  0  0  0
  5  6  1  0  0  0  0
  5  9  1  0  0  0  0
  6 14  1  0  0  0  0
  7  9  1  0  0  0  0
  7 13  2  0  0  0  0
  7 15  1  0  0  0  0
  8  9  1  0  0  0  0
  8 10  1  0  0  0  0
 10 11  1  0  0  0  0
 10 12  1  0  0  0  0
 10 14  1  0  0  0  0
  1 16  1  0  0  0  0
  2 17  1  0  0  0  0
  3 18  1  0  0  0  0
  4 19  1  0  0  0  0
  8 20  1  0  0  0  0
  8 21  1  0  0  0  0
  9 22  1  0  0  0  0
 11 23  1  0  0  0  0
 11 24  1  0  0  0  0
 11 25  1  0  0  0  0
 12 26  1  0  0  0  0
 12 27  1  0  0  0  0
 12 28  1  0  0  0  0
 15 29  1  0  0  0  0
M  END
> <Catalog ID>
Z1238541992

> <PlateID>
1337959-R-05

> <Well>
B02

> <MW (desalted)>
206.238

> <CLogP>
2.316

> <HBD>
1

> <TPSA>
46.530

> <RotBonds>
1

> <ROCS_ShapeQuery>
A71EV2A-x0451_0A_A71EV2A-x0310_0A_A71EV2A-x0416_0A_peptide

> <ROCS_TanimotoCombo>
0.432 

> <ROCS_ShapeTanimoto>
0.287 

> <ROCS_ColorTanimoto>
0.146 

> <ROCS_RefTversky>
0.255 

> <ROCS_RefColorTversky>
0.162 

> <ROCS_RefTverskyCombo>
0.417 

> <ROCS_FitTversky>
1.765 

> <ROCS_FitColorTversky>
0.597 

> <ROCS_FitTverskyCombo>
2.362 

> <ROCS_ColorScore>
-4.928

> <ROCS_Overlap>
1766.052

> <ROCS_Rank>
154                 

$$$$
untitled-dbase-771_62
  -OEChem-11112309163D

 41 42  0     1  0  0  0  0  0999 V2000
    7.9967   12.1039   24.6255 C   0  0  0  0  0  0  0  0  0  0  0  0
    9.1757   12.0470   23.8584 C   0  0  0  0  0  0  0  0  0  0  0  0
    9.3449   10.7112   23.5873 C   0  0  0  0  0  0  0  0  0  0  0  0
   10.0559   13.1432   23.4237 C   0  0  0  0  0  0  0  0  0  0  0  0
   13.1566   15.8976   20.1528 C   0  0  0  0  0  0  0  0  0  0  0  0
   12.8393   14.5412   19.5311 C   0  0  0  0  0  0  0  0  0  0  0  0
   13.1095   15.8468   21.6793 C   0  0  0  0  0  0  0  0  0  0  0  0
   11.5216   13.9668   20.0448 C   0  0  0  0  0  0  0  0  0  0  0  0
   11.7827   15.2864   22.2193 C   0  0  2  0  0  0  0  0  0  0  0  0
   11.4902   13.9133   21.5762 C   0  0  1  0  0  0  0  0  0  0  0  0
   10.3889    9.9930   22.8309 C   0  0  0  0  0  0  0  0  0  0  0  0
   10.6441   16.2989   22.0327 C   0  0  0  0  0  0  0  0  0  0  0  0
    8.0329    8.6539   24.1893 C   0  0  0  0  0  0  0  0  0  0  0  0
    9.2591   13.0190   21.0186 C   0  0  0  0  0  0  0  0  0  0  0  0
    7.4551   10.9000   24.8286 N   0  0  0  0  0  0  0  0  0  0  0  0
    8.2975   10.0740   24.1850 N   0  0  0  0  0  0  0  0  0  0  0  0
   10.2488   13.3470   22.0485 N   0  0  0  0  0  0  0  0  0  0  0  0
   10.5584   13.8246   24.3166 O   0  0  0  0  0  0  0  0  0  0  0  0
    7.5075   12.9717   25.0447 H   0  0  0  0  0  0  0  0  0  0  0  0
   14.1537   16.2202   19.8316 H   0  0  0  0  0  0  0  0  0  0  0  0
   12.4455   16.6459   19.7877 H   0  0  0  0  0  0  0  0  0  0  0  0
   12.8004   14.6405   18.4376 H   0  0  0  0  0  0  0  0  0  0  0  0
   13.6549   13.8393   19.7503 H   0  0  0  0  0  0  0  0  0  0  0  0
   13.9472   15.2288   22.0414 H   0  0  0  0  0  0  0  0  0  0  0  0
   13.2864   16.8579   22.0814 H   0  0  0  0  0  0  0  0  0  0  0  0
   10.6840   14.5571   19.6651 H   0  0  0  0  0  0  0  0  0  0  0  0
   11.3982   12.9532   19.6523 H   0  0  0  0  0  0  0  0  0  0  0  0
   11.9074   15.1247   23.2928 H   0  0  0  0  0  0  0  0  0  0  0  0
   12.2692   13.2013   21.9134 H   0  0  0  0  0  0  0  0  0  0  0  0
   11.2220    9.6947   23.4883 H   0  0  0  0  0  0  0  0  0  0  0  0
    9.9979    9.0798   22.3504 H   0  0  0  0  0  0  0  0  0  0  0  0
   10.8085   10.6093   22.0172 H   0  0  0  0  0  0  0  0  0  0  0  0
   10.4903   16.4857   20.9721 H   0  0  0  0  0  0  0  0  0  0  0  0
   10.8998   17.2329   22.5282 H   0  0  0  0  0  0  0  0  0  0  0  0
    9.7274   15.9028   22.4641 H   0  0  0  0  0  0  0  0  0  0  0  0
    8.5300    8.2209   25.0613 H   0  0  0  0  0  0  0  0  0  0  0  0
    6.9538    8.4848   24.2411 H   0  0  0  0  0  0  0  0  0  0  0  0
    8.4209    8.2113   23.2676 H   0  0  0  0  0  0  0  0  0  0  0  0
    8.6080   13.8885   20.8449 H   0  0  0  0  0  0  0  0  0  0  0  0
    9.7761   12.7559   20.0840 H   0  0  0  0  0  0  0  0  0  0  0  0
    8.6503   12.1663   21.3535 H   0  0  0  0  0  0  0  0  0  0  0  0
  1  2  1  0  0  0  0
  1 15  2  0  0  0  0
  2  3  2  0  0  0  0
  2  4  1  0  0  0  0
  3 11  1  0  0  0  0
  3 16  1  0  0  0  0
  4 17  1  0  0  0  0
  4 18  2  0  0  0  0
  5  6  1  0  0  0  0
  5  7  1  0  0  0  0
  6  8  1  0  0  0  0
  7  9  1  0  0  0  0
  8 10  1  0  0  0  0
  9 10  1  0  0  0  0
  9 12  1  0  0  0  0
 10 17  1  0  0  0  0
 13 16  1  0  0  0  0
 14 17  1  0  0  0  0
 15 16  1  0  0  0  0
  1 19  1  0  0  0  0
  5 20  1  0  0  0  0
  5 21  1  0  0  0  0
  6 22  1  0  0  0  0
  6 23  1  0  0  0  0
  7 24  1  0  0  0  0
  7 25  1  0  0  0  0
  8 26  1  0  0  0  0
  8 27  1  0  0  0  0
  9 28  1  0  0  0  0
 10 29  1  0  0  0  0
 11 30  1  0  0  0  0
 11 31  1  0  0  0  0
 11 32  1  0  0  0  0
 12 33  1  0  0  0  0
 12 34  1  0  0  0  0
 12 35  1  0  0  0  0
 13 36  1  0  0  0  0
 13 37  1  0  0  0  0
 13 38  1  0  0  0  0
 14 39  1  0  0  0  0
 14 40  1  0  0  0  0
 14 41  1  0  0  0  0
M  END
> <Catalog ID>
Z357416960

> <PlateID>
1337959-R-10

> <Well>
F04

> <MW (desalted)>
249.352

> <CLogP>
1.829

> <HBD>
0

> <TPSA>
38.130

> <RotBonds>
2

> <ROCS_ShapeQuery>
A71EV2A-x0451_0A_A71EV2A-x0310_0A_A71EV2A-x0416_0A_peptide

> <ROCS_TanimotoCombo>
0.432 

> <ROCS_ShapeTanimoto>
0.297 

> <ROCS_ColorTanimoto>
0.135 

> <ROCS_RefTversky>
0.266 

> <ROCS_RefColorTversky>
0.140 

> <ROCS_RefTverskyCombo>
0.406 

> <ROCS_FitTversky>
1.653 

> <ROCS_FitColorTversky>
0.789 

> <ROCS_FitTverskyCombo>
2.442 

> <ROCS_ColorScore>
-4.247

> <ROCS_Overlap>
1845.274

> <ROCS_Rank>
155                 

$$$$
untitled-dbase-892_66
  -OEChem-11112309163D

 32 33  0     1  0  0  0  0  0999 V2000
    7.6184   10.1815   24.8810 C   0  0  0  0  0  0  0  0  0  0  0  0
    8.4972    9.5028   24.0368 C   0  0  0  0  0  0  0  0  0  0  0  0
    8.5172   12.2913   24.1206 C   0  0  0  0  0  0  0  0  0  0  0  0
    9.3961   11.6126   23.2764 C   0  0  0  0  0  0  0  0  0  0  0  0
    7.6284   11.5757   24.9228 C   0  0  0  0  0  0  0  0  0  0  0  0
    9.3860   10.2183   23.2345 C   0  0  0  0  0  0  0  0  0  0  0  0
   10.3324   12.3697   22.4326 C   0  0  0  0  0  0  0  0  0  0  0  0
   11.7377   15.1252   23.1713 C   0  0  0  0  0  0  0  0  0  0  0  0
   13.4580   12.7853   24.3879 C   0  0  0  0  0  0  0  0  0  0  0  0
   13.7136   13.6518   23.1576 C   0  0  0  0  0  0  0  0  0  0  0  0
   12.3315   11.8696   23.9349 C   0  0  0  0  0  0  0  0  0  0  0  0
   12.3196   13.8572   22.5749 C   0  0  1  0  0  0  0  0  0  0  0  0
    6.6888   12.3013   25.8255 C   0  0  0  0  0  0  0  0  0  0  0  0
   11.5781   12.6646   22.9669 N   0  0  0  0  0  0  0  0  0  0  0  0
    9.9419   12.7009   21.3151 O   0  0  0  0  0  0  0  0  0  0  0  0
   12.2167   16.2427   23.0483 O   0  0  0  0  0  0  0  0  0  0  0  0
   10.6072   14.8518   23.8674 O   0  0  0  0  0  0  0  0  0  0  0  0
   10.2266    9.5560   22.4271 F   0  0  0  0  0  0  0  0  0  0  0  0
    6.9303    9.6157   25.5034 H   0  0  0  0  0  0  0  0  0  0  0  0
    8.4899    8.4173   24.0049 H   0  0  0  0  0  0  0  0  0  0  0  0
    8.5233   13.3786   24.1549 H   0  0  0  0  0  0  0  0  0  0  0  0
   14.3490   12.2296   24.6938 H   0  0  0  0  0  0  0  0  0  0  0  0
   13.1315   13.4039   25.2318 H   0  0  0  0  0  0  0  0  0  0  0  0
   14.2183   14.5859   23.4230 H   0  0  0  0  0  0  0  0  0  0  0  0
   14.3420   13.1054   22.4442 H   0  0  0  0  0  0  0  0  0  0  0  0
   12.7185   10.9851   23.4168 H   0  0  0  0  0  0  0  0  0  0  0  0
   11.6897   11.5484   24.7603 H   0  0  0  0  0  0  0  0  0  0  0  0
   12.3510   13.9771   21.4793 H   0  0  0  0  0  0  0  0  0  0  0  0
    7.1491   12.4596   26.8085 H   0  0  0  0  0  0  0  0  0  0  0  0
    6.4116   13.2787   25.4098 H   0  0  0  0  0  0  0  0  0  0  0  0
    5.7559   11.7393   25.9645 H   0  0  0  0  0  0  0  0  0  0  0  0
   10.2161   15.6598   24.2630 H   0  0  0  0  0  0  0  0  0  0  0  0
  1  2  1  0  0  0  0
  1  5  2  0  0  0  0
  2  6  2  0  0  0  0
  3  4  2  0  0  0  0
  3  5  1  0  0  0  0
  4  6  1  0  0  0  0
  4  7  1  0  0  0  0
  5 13  1  0  0  0  0
  6 18  1  0  0  0  0
  7 14  1  0  0  0  0
  7 15  2  0  0  0  0
  8 12  1  6  0  0  0
  8 16  2  0  0  0  0
  8 17  1  0  0  0  0
  9 10  1  0  0  0  0
  9 11  1  0  0  0  0
 10 12  1  0  0  0  0
 11 14  1  0  0  0  0
 12 14  1  0  0  0  0
  1 19  1  0  0  0  0
  2 20  1  0  0  0  0
  3 21  1  0  0  0  0
  9 22  1  0  0  0  0
  9 23  1  0  0  0  0
 10 24  1  0  0  0  0
 10 25  1  0  0  0  0
 11 26  1  0  0  0  0
 11 27  1  0  0  0  0
 12 28  1  0  0  0  0
 13 29  1  0  0  0  0
 13 30  1  0  0  0  0
 13 31  1  0  0  0  0
 17 32  1  0  0  0  0
M  END
> <Catalog ID>
Z1078498278

> <PlateID>
1337959-R-12

> <Well>
B06

> <MW (desalted)>
251.254

> <CLogP>
1.881

> <HBD>
1

> <TPSA>
57.610

> <RotBonds>
2

> <ROCS_ShapeQuery>
A71EV2A-x0451_0A_A71EV2A-x0310_0A_A71EV2A-x0416_0A_peptide

> <ROCS_TanimotoCombo>
0.432 

> <ROCS_ShapeTanimoto>
0.313 

> <ROCS_ColorTanimoto>
0.119 

> <ROCS_RefTversky>
0.277 

> <ROCS_RefColorTversky>
0.132 

> <ROCS_RefTverskyCombo>
0.409 

> <ROCS_FitTversky>
1.700 

> <ROCS_FitColorTversky>
0.550 

> <ROCS_FitTverskyCombo>
2.251 

> <ROCS_ColorScore>
-4.015

> <ROCS_Overlap>
1923.976

> <ROCS_Rank>
156                 

$$$$
untitled-dbase-659_8
  -OEChem-11112309163D

 30 30  0     0  0  0  0  0  0999 V2000
    8.6011   12.3634   24.4659 C   0  0  0  0  0  0  0  0  0  0  0  0
    9.0834    9.7873   23.5099 C   0  0  0  0  0  0  0  0  0  0  0  0
    7.6621   11.3539   24.6774 C   0  0  0  0  0  0  0  0  0  0  0  0
   10.0224   10.7969   23.2984 C   0  0  0  0  0  0  0  0  0  0  0  0
    9.7813   12.0849   23.7763 C   0  0  0  0  0  0  0  0  0  0  0  0
    7.9033   10.0659   24.1994 C   0  0  0  0  0  0  0  0  0  0  0  0
    6.4104   11.6925   25.4209 C   0  0  0  0  0  0  0  0  0  0  0  0
   11.2761   10.4657   22.5566 C   0  0  0  0  0  0  0  0  0  0  0  0
    9.6777   13.9081   21.1386 C   0  0  0  0  0  0  0  0  0  0  0  0
    9.8724   15.2003   20.3667 C   0  0  0  0  0  0  0  0  0  0  0  0
   10.9256   13.5541   21.8300 N   0  0  0  0  0  0  0  0  0  0  0  0
   10.4126   14.5920   24.1314 O   0  0  0  0  0  0  0  0  0  0  0  0
   12.2442   12.8797   23.9371 O   0  0  0  0  0  0  0  0  0  0  0  0
   10.1902   16.2486   21.2733 O   0  0  0  0  0  0  0  0  0  0  0  0
   10.9377   13.3750   23.5288 S   0  0  0  0  0  0  0  0  0  0  0  0
    6.7641    8.7919   24.4422 Cl  0  0  0  0  0  0  0  0  0  0  0  0
    8.4119   13.3672   24.8392 H   0  0  0  0  0  0  0  0  0  0  0  0
    9.2770    8.7846   23.1350 H   0  0  0  0  0  0  0  0  0  0  0  0
    5.6325   12.0212   24.7227 H   0  0  0  0  0  0  0  0  0  0  0  0
    6.0365   10.8265   25.9801 H   0  0  0  0  0  0  0  0  0  0  0  0
    6.5880   12.4921   26.1500 H   0  0  0  0  0  0  0  0  0  0  0  0
   11.1340   10.6242   21.4815 H   0  0  0  0  0  0  0  0  0  0  0  0
   12.1127   11.0893   22.8947 H   0  0  0  0  0  0  0  0  0  0  0  0
   11.5692    9.4215   22.7208 H   0  0  0  0  0  0  0  0  0  0  0  0
    8.8868   14.0091   21.8885 H   0  0  0  0  0  0  0  0  0  0  0  0
    9.4223   13.0917   20.4563 H   0  0  0  0  0  0  0  0  0  0  0  0
    8.9469   15.4706   19.8488 H   0  0  0  0  0  0  0  0  0  0  0  0
   10.6798   15.1129   19.6324 H   0  0  0  0  0  0  0  0  0  0  0  0
   11.6184   13.0383   21.2737 H   0  0  0  0  0  0  0  0  0  0  0  0
   11.0094   15.9890   21.7247 H   0  0  0  0  0  0  0  0  0  0  0  0
  1  3  2  0  0  0  0
  1  5  1  0  0  0  0
  2  4  1  0  0  0  0
  2  6  2  0  0  0  0
  3  6  1  0  0  0  0
  3  7  1  0  0  0  0
  4  5  2  0  0  0  0
  4  8  1  0  0  0  0
  5 15  1  0  0  0  0
  6 16  1  0  0  0  0
  9 10  1  0  0  0  0
  9 11  1  0  0  0  0
 10 14  1  0  0  0  0
 11 15  1  0  0  0  0
 12 15  2  0  0  0  0
 13 15  2  0  0  0  0
  1 17  1  0  0  0  0
  2 18  1  0  0  0  0
  7 19  1  0  0  0  0
  7 20  1  0  0  0  0
  7 21  1  0  0  0  0
  8 22  1  0  0  0  0
  8 23  1  0  0  0  0
  8 24  1  0  0  0  0
  9 25  1  0  0  0  0
  9 26  1  0  0  0  0
 10 27  1  0  0  0  0
 10 28  1  0  0  0  0
 11 29  1  0  0  0  0
 14 30  1  0  0  0  0
M  END
> <Catalog ID>
Z1354597695

> <PlateID>
1337959-R-09

> <Well>
C02

> <MW (desalted)>
263.741

> <CLogP>
2.358

> <HBD>
2

> <TPSA>
66.400

> <RotBonds>
3

> <ROCS_ShapeQuery>
A71EV2A-x0451_0A_A71EV2A-x0310_0A_A71EV2A-x0416_0A_peptide

> <ROCS_TanimotoCombo>
0.432 

> <ROCS_ShapeTanimoto>
0.285 

> <ROCS_ColorTanimoto>
0.147 

> <ROCS_RefTversky>
0.253 

> <ROCS_RefColorTversky>
0.159 

> <ROCS_RefTverskyCombo>
0.412 

> <ROCS_FitTversky>
1.785 

> <ROCS_FitColorTversky>
0.663 

> <ROCS_FitTverskyCombo>
2.448 

> <ROCS_ColorScore>
-4.835

> <ROCS_Overlap>
1755.402

> <ROCS_Rank>
157                 

$$$$
untitled-dbase-604_158
  -OEChem-11112309163D

 31 32  0     1  0  0  0  0  0999 V2000
    7.9150    9.9394   23.9472 C   0  0  0  0  0  0  0  0  0  0  0  0
    9.2250    9.9094   23.4691 C   0  0  0  0  0  0  0  0  0  0  0  0
    8.0644   12.3367   24.2066 C   0  0  0  0  0  0  0  0  0  0  0  0
    9.3745   12.3068   23.7286 C   0  0  0  0  0  0  0  0  0  0  0  0
    7.3346   11.1530   24.3159 C   0  0  0  0  0  0  0  0  0  0  0  0
    9.9548   11.0931   23.3599 C   0  0  0  0  0  0  0  0  0  0  0  0
   10.1398   13.5557   23.6141 C   0  0  0  0  0  0  0  0  0  0  0  0
    8.6623   15.6656   20.8815 C   0  0  0  0  0  0  0  0  0  0  0  0
    8.9106   14.2970   21.5203 C   0  0  0  0  0  0  0  0  0  0  0  0
   11.2885   14.9367   21.9467 C   0  0  0  0  0  0  0  0  0  0  0  0
   11.0970   15.8774   20.7519 C   0  0  1  0  0  0  0  0  0  0  0  0
   11.2987   15.1852   19.4018 C   0  0  0  0  0  0  0  0  0  0  0  0
    9.8128   16.5629   20.8526 N   0  0  0  0  0  0  0  0  0  0  0  0
   10.0709   14.2720   22.4121 N   0  0  0  0  0  0  0  0  0  0  0  0
   10.8039   13.8825   24.5974 O   0  0  0  0  0  0  0  0  0  0  0  0
    6.0764   11.1822   24.7743 F   0  0  0  0  0  0  0  0  0  0  0  0
   11.2128   11.0525   22.8988 F   0  0  0  0  0  0  0  0  0  0  0  0
    7.3462    9.0182   24.0324 H   0  0  0  0  0  0  0  0  0  0  0  0
    9.6761    8.9646   23.1809 H   0  0  0  0  0  0  0  0  0  0  0  0
    7.6017   13.2764   24.4969 H   0  0  0  0  0  0  0  0  0  0  0  0
    8.3044   15.5175   19.8399 H   0  0  0  0  0  0  0  0  0  0  0  0
    7.8138   16.1700   21.3964 H   0  0  0  0  0  0  0  0  0  0  0  0
    7.9961   13.9740   22.0445 H   0  0  0  0  0  0  0  0  0  0  0  0
    9.0971   13.5414   20.7354 H   0  0  0  0  0  0  0  0  0  0  0  0
   12.0104   14.1279   21.6984 H   0  0  0  0  0  0  0  0  0  0  0  0
   11.7560   15.4912   22.7887 H   0  0  0  0  0  0  0  0  0  0  0  0
   11.9065   16.6740   20.8257 H   0  0  0  0  0  0  0  0  0  0  0  0
   10.5490   14.4067   19.2705 H   0  0  0  0  0  0  0  0  0  0  0  0
   12.2898   14.7364   19.3617 H   0  0  0  0  0  0  0  0  0  0  0  0
   11.2031   15.9119   18.5966 H   0  0  0  0  0  0  0  0  0  0  0  0
    9.7098   17.2072   20.0510 H   0  0  0  0  0  0  0  0  0  0  0  0
  1  2  1  0  0  0  0
  1  5  2  0  0  0  0
  2  6  2  0  0  0  0
  3  4  2  0  0  0  0
  3  5  1  0  0  0  0
  4  6  1  0  0  0  0
  4  7  1  0  0  0  0
  5 16  1  0  0  0  0
  6 17  1  0  0  0  0
  7 14  1  0  0  0  0
  7 15  2  0  0  0  0
  8  9  1  0  0  0  0
  8 13  1  0  0  0  0
  9 14  1  0  0  0  0
 10 11  1  0  0  0  0
 10 14  1  0  0  0  0
 11 12  1  6  0  0  0
 11 13  1  0  0  0  0
  1 18  1  0  0  0  0
  2 19  1  0  0  0  0
  3 20  1  0  0  0  0
  8 21  1  0  0  0  0
  8 22  1  0  0  0  0
  9 23  1  0  0  0  0
  9 24  1  0  0  0  0
 10 25  1  0  0  0  0
 10 26  1  0  0  0  0
 11 27  1  0  0  0  0
 12 28  1  0  0  0  0
 12 29  1  0  0  0  0
 12 30  1  0  0  0  0
 13 31  1  0  0  0  0
M  END
> <Catalog ID>
Z1766238052

> <PlateID>
1337959-R-08

> <Well>
E07

> <MW (desalted)>
240.249

> <CLogP>
1.665

> <HBD>
1

> <TPSA>
32.340

> <RotBonds>
1

> <ROCS_ShapeQuery>
A71EV2A-x0451_0A_A71EV2A-x0310_0A_A71EV2A-x0416_0A_peptide

> <ROCS_TanimotoCombo>
0.432 

> <ROCS_ShapeTanimoto>
0.269 

> <ROCS_ColorTanimoto>
0.163 

> <ROCS_RefTversky>
0.245 

> <ROCS_RefColorTversky>
0.170 

> <ROCS_RefTverskyCombo>
0.414 

> <ROCS_FitTversky>
1.572 

> <ROCS_FitColorTversky>
0.813 

> <ROCS_FitTverskyCombo>
2.384 

> <ROCS_ColorScore>
-5.149

> <ROCS_Overlap>
1697.509

> <ROCS_Rank>
158                 

$$$$
untitled-dbase-974_150
  -OEChem-11112309163D

 35 36  0     1  0  0  0  0  0999 V2000
    8.4246    9.5588   23.5605 C   0  0  0  0  0  0  0  0  0  0  0  0
    7.3166    9.9918   24.2888 C   0  0  0  0  0  0  0  0  0  0  0  0
    9.5101   10.4134   23.3681 C   0  0  0  0  0  0  0  0  0  0  0  0
    8.3796   12.1341   24.6323 C   0  0  0  0  0  0  0  0  0  0  0  0
    7.2941   11.2795   24.8247 C   0  0  0  0  0  0  0  0  0  0  0  0
    9.4876   11.7010   23.9039 C   0  0  0  0  0  0  0  0  0  0  0  0
    9.3112   15.7020   22.7731 C   0  0  0  0  0  0  0  0  0  0  0  0
   11.6538   15.6602   21.8547 C   0  0  0  0  0  0  0  0  0  0  0  0
    9.0966   14.2912   22.2369 C   0  0  0  0  0  0  0  0  0  0  0  0
   10.3604   16.4798   21.9710 C   0  0  1  0  0  0  0  0  0  0  0  0
   11.4666   14.2026   21.4075 C   0  0  2  0  0  0  0  0  0  0  0  0
   11.2043   14.0242   19.9143 C   0  0  0  0  0  0  0  0  0  0  0  0
   10.3837   13.5379   22.2024 N   0  0  1  0  0  0  0  0  0  0  0  0
    9.8394   16.8409   20.6535 N   0  0  0  0  0  0  0  0  0  0  0  0
   10.8478   13.7639   24.7211 O   0  0  0  0  0  0  0  0  0  0  0  0
   12.0292   11.9714   23.4024 O   0  0  0  0  0  0  0  0  0  0  0  0
    6.2298   11.6951   25.5238 F   0  0  0  0  0  0  0  0  0  0  0  0
   10.8614   12.7809   23.6627 S   0  0  0  0  0  0  0  0  0  0  0  0
    8.4415    8.5563   23.1433 H   0  0  0  0  0  0  0  0  0  0  0  0
    6.4713    9.3266   24.4386 H   0  0  0  0  0  0  0  0  0  0  0  0
   10.3686   10.0654   22.7996 H   0  0  0  0  0  0  0  0  0  0  0  0
    8.3506   13.1352   25.0541 H   0  0  0  0  0  0  0  0  0  0  0  0
    8.3479   16.2439   22.7587 H   0  0  0  0  0  0  0  0  0  0  0  0
    9.6135   15.6447   23.8334 H   0  0  0  0  0  0  0  0  0  0  0  0
   12.3480   16.1729   21.1483 H   0  0  0  0  0  0  0  0  0  0  0  0
   12.1848   15.6789   22.8339 H   0  0  0  0  0  0  0  0  0  0  0  0
    8.3666   13.7488   22.8551 H   0  0  0  0  0  0  0  0  0  0  0  0
    8.6872   14.3645   21.2197 H   0  0  0  0  0  0  0  0  0  0  0  0
   10.5876   17.4194   22.5094 H   0  0  0  0  0  0  0  0  0  0  0  0
   12.4209   13.6306   21.6468 H   0  0  0  0  0  0  0  0  0  0  0  0
   10.2967   14.5557   19.6337 H   0  0  0  0  0  0  0  0  0  0  0  0
   11.0843   12.9669   19.6852 H   0  0  0  0  0  0  0  0  0  0  0  0
   12.0418   14.4209   19.3433 H   0  0  0  0  0  0  0  0  0  0  0  0
   10.4389   16.4501   19.9666 H   0  0  0  0  0  0  0  0  0  0  0  0
    8.9227   16.4708   20.5725 H   0  0  0  0  0  0  0  0  0  0  0  0
  1  2  2  0  0  0  0
  1  3  1  0  0  0  0
  2  5  1  0  0  0  0
  3  6  2  0  0  0  0
  4  5  2  0  0  0  0
  4  6  1  0  0  0  0
  5 17  1  0  0  0  0
  6 18  1  0  0  0  0
  7  9  1  0  0  0  0
  7 10  1  0  0  0  0
  8 10  1  0  0  0  0
  8 11  1  0  0  0  0
  9 13  1  0  0  0  0
 10 14  1  0  0  0  0
 11 12  1  0  0  0  0
 11 13  1  0  0  0  0
 13 18  1  0  0  0  0
 15 18  2  0  0  0  0
 16 18  2  0  0  0  0
  1 19  1  0  0  0  0
  2 20  1  0  0  0  0
  3 21  1  0  0  0  0
  4 22  1  0  0  0  0
  7 23  1  0  0  0  0
  7 24  1  0  0  0  0
  8 25  1  0  0  0  0
  8 26  1  0  0  0  0
  9 27  1  0  0  0  0
  9 28  1  0  0  0  0
 10 29  1  0  0  0  0
 11 30  1  0  0  0  0
 12 31  1  0  0  0  0
 12 32  1  0  0  0  0
 12 33  1  0  0  0  0
 14 34  1  0  0  0  0
 14 35  1  0  0  0  0
M  END
> <Catalog ID>
Z1491357248

> <PlateID>
1337959-R-13

> <Well>
B09

> <MW (desalted)>
272.339

> <CLogP>
1.205

> <HBD>
1

> <TPSA>
63.400

> <RotBonds>
1

> <ROCS_ShapeQuery>
A71EV2A-x0451_0A_A71EV2A-x0310_0A_A71EV2A-x0416_0A_peptide

> <ROCS_TanimotoCombo>
0.432 

> <ROCS_ShapeTanimoto>
0.289 

> <ROCS_ColorTanimoto>
0.143 

> <ROCS_RefTversky>
0.260 

> <ROCS_RefColorTversky>
0.155 

> <ROCS_RefTverskyCombo>
0.414 

> <ROCS_FitTversky>
1.652 

> <ROCS_FitColorTversky>
0.646 

> <ROCS_FitTverskyCombo>
2.298 

> <ROCS_ColorScore>
-4.709

> <ROCS_Overlap>
1799.424

> <ROCS_Rank>
159                 

$$$$
untitled-dbase-73_11
  -OEChem-11112309163D

 29 30  0     0  0  0  0  0  0999 V2000
    8.7242    9.8517   23.2511 C   0  0  0  0  0  0  0  0  0  0  0  0
    9.6747   10.8310   22.9630 C   0  0  0  0  0  0  0  0  0  0  0  0
    7.7385   10.0962   24.2073 C   0  0  0  0  0  0  0  0  0  0  0  0
    8.6539   12.2996   24.5873 C   0  0  0  0  0  0  0  0  0  0  0  0
    9.6396   12.0550   23.6311 C   0  0  0  0  0  0  0  0  0  0  0  0
    7.7034   11.3202   24.8754 C   0  0  0  0  0  0  0  0  0  0  0  0
    8.9368   15.7717   21.8481 C   0  0  0  0  0  0  0  0  0  0  0  0
   11.2458   15.9859   21.1759 C   0  0  0  0  0  0  0  0  0  0  0  0
    8.9614   14.2768   21.5465 C   0  0  0  0  0  0  0  0  0  0  0  0
   11.3184   14.4955   20.8602 C   0  0  0  0  0  0  0  0  0  0  0  0
    9.8852   16.4984   21.0015 N   0  0  0  0  0  0  0  0  0  0  0  0
   10.3430   13.7406   21.6950 N   0  0  0  0  0  0  0  0  0  0  0  0
   10.6185   14.4064   24.1657 O   0  0  0  0  0  0  0  0  0  0  0  0
   12.1353   12.6509   23.1833 O   0  0  0  0  0  0  0  0  0  0  0  0
   10.8419   13.2949   23.2662 S   0  0  0  0  0  0  0  0  0  0  0  0
    6.4880   11.6209   26.0561 Cl  0  0  0  0  0  0  0  0  0  0  0  0
    8.7516    8.8988   22.7306 H   0  0  0  0  0  0  0  0  0  0  0  0
   10.4377   10.6295   22.2161 H   0  0  0  0  0  0  0  0  0  0  0  0
    7.0046    9.3239   24.4224 H   0  0  0  0  0  0  0  0  0  0  0  0
    8.6310   13.2547   25.1073 H   0  0  0  0  0  0  0  0  0  0  0  0
    7.9296   16.1656   21.6752 H   0  0  0  0  0  0  0  0  0  0  0  0
    9.1725   15.9541   22.9037 H   0  0  0  0  0  0  0  0  0  0  0  0
   11.5815   16.1775   22.2023 H   0  0  0  0  0  0  0  0  0  0  0  0
   11.9221   16.5360   20.5129 H   0  0  0  0  0  0  0  0  0  0  0  0
    8.2940   13.7596   22.2506 H   0  0  0  0  0  0  0  0  0  0  0  0
    8.5960   14.0786   20.5273 H   0  0  0  0  0  0  0  0  0  0  0  0
   11.1121   14.3121   19.7946 H   0  0  0  0  0  0  0  0  0  0  0  0
   12.3346   14.1344   21.0740 H   0  0  0  0  0  0  0  0  0  0  0  0
    9.6115   16.3820   20.0243 H   0  0  0  0  0  0  0  0  0  0  0  0
  1  2  2  0  0  0  0
  1  3  1  0  0  0  0
  2  5  1  0  0  0  0
  3  6  2  0  0  0  0
  4  5  2  0  0  0  0
  4  6  1  0  0  0  0
  5 15  1  0  0  0  0
  6 16  1  0  0  0  0
  7  9  1  0  0  0  0
  7 11  1  0  0  0  0
  8 10  1  0  0  0  0
  8 11  1  0  0  0  0
  9 12  1  0  0  0  0
 10 12  1  0  0  0  0
 12 15  1  0  0  0  0
 13 15  2  0  0  0  0
 14 15  2  0  0  0  0
  1 17  1  0  0  0  0
  2 18  1  0  0  0  0
  3 19  1  0  0  0  0
  4 20  1  0  0  0  0
  7 21  1  0  0  0  0
  7 22  1  0  0  0  0
  8 23  1  0  0  0  0
  8 24  1  0  0  0  0
  9 25  1  0  0  0  0
  9 26  1  0  0  0  0
 10 27  1  0  0  0  0
 10 28  1  0  0  0  0
 11 29  1  0  0  0  0
M  END
> <Catalog ID>
Z1491220220

> <PlateID>
1337959-R-01

> <Well>
H04

> <MW (desalted)>
260.740

> <CLogP>
1.982

> <HBD>
1

> <TPSA>
49.410

> <RotBonds>
1

> <ROCS_ShapeQuery>
A71EV2A-x0451_0A_A71EV2A-x0310_0A_A71EV2A-x0416_0A_peptide

> <ROCS_TanimotoCombo>
0.432 

> <ROCS_ShapeTanimoto>
0.269 

> <ROCS_ColorTanimoto>
0.162 

> <ROCS_RefTversky>
0.243 

> <ROCS_RefColorTversky>
0.173 

> <ROCS_RefTverskyCombo>
0.416 

> <ROCS_FitTversky>
1.681 

> <ROCS_FitColorTversky>
0.723 

> <ROCS_FitTverskyCombo>
2.403 

> <ROCS_ColorScore>
-5.267

> <ROCS_Overlap>
1683.106

> <ROCS_Rank>
160                 

$$$$
untitled-dbase-769_19
  -OEChem-11112309163D

 35 36  0     1  0  0  0  0  0999 V2000
    8.6519   11.6771   23.3193 C   0  0  0  0  0  0  0  0  0  0  0  0
    8.8867   10.2891   23.3065 C   0  0  0  0  0  0  0  0  0  0  0  0
    7.8139   11.8737   24.3896 C   0  0  0  0  0  0  0  0  0  0  0  0
   11.2753   13.6221   23.3959 C   0  0  0  0  0  0  0  0  0  0  0  0
   13.5288   13.2113   24.5519 C   0  0  0  0  0  0  0  0  0  0  0  0
   13.4348   12.2388   23.4149 C   0  0  0  0  0  0  0  0  0  0  0  0
   12.7651   13.5690   23.3207 C   0  0  0  0  0  0  0  0  0  0  0  0
    9.7207    9.5223   22.3642 C   0  0  0  0  0  0  0  0  0  0  0  0
    7.2024   13.1002   24.9354 C   0  0  0  0  0  0  0  0  0  0  0  0
    8.7759   12.4717   20.9224 C   0  0  0  0  0  0  0  0  0  0  0  0
    6.7903   10.3224   26.0811 C   0  0  0  0  0  0  0  0  0  0  0  0
    9.1978   12.7209   22.3689 C   0  0  2  0  0  0  0  0  0  0  0  0
    8.2494    9.6493   24.2906 N   0  0  0  0  0  0  0  0  0  0  0  0
    7.6060   10.6397   24.9318 N   0  0  0  0  0  0  0  0  0  0  0  0
   10.6362   12.8206   22.4692 N   0  0  0  0  0  0  0  0  0  0  0  0
   10.7377   14.3366   24.2339 O   0  0  0  0  0  0  0  0  0  0  0  0
   12.9919   12.9750   25.4625 H   0  0  0  0  0  0  0  0  0  0  0  0
   14.4747   13.7155   24.7080 H   0  0  0  0  0  0  0  0  0  0  0  0
   14.3178   12.0879   22.8059 H   0  0  0  0  0  0  0  0  0  0  0  0
   12.8364   11.3482   23.5635 H   0  0  0  0  0  0  0  0  0  0  0  0
   13.1837   14.3030   22.6570 H   0  0  0  0  0  0  0  0  0  0  0  0
   10.7615    9.4464   22.7221 H   0  0  0  0  0  0  0  0  0  0  0  0
    9.3438    8.4950   22.2156 H   0  0  0  0  0  0  0  0  0  0  0  0
    9.7462    9.9832   21.3608 H   0  0  0  0  0  0  0  0  0  0  0  0
    6.2229   13.2982   24.4695 H   0  0  0  0  0  0  0  0  0  0  0  0
    7.0469   13.0360   26.0263 H   0  0  0  0  0  0  0  0  0  0  0  0
    7.8368   13.9885   24.7708 H   0  0  0  0  0  0  0  0  0  0  0  0
    9.1286   11.4958   20.5711 H   0  0  0  0  0  0  0  0  0  0  0  0
    7.6839   12.4904   20.8322 H   0  0  0  0  0  0  0  0  0  0  0  0
    9.1679   13.2371   20.2433 H   0  0  0  0  0  0  0  0  0  0  0  0
    5.7768   10.1140   25.7282 H   0  0  0  0  0  0  0  0  0  0  0  0
    7.2046    9.4486   26.5916 H   0  0  0  0  0  0  0  0  0  0  0  0
    6.7895   11.1722   26.7693 H   0  0  0  0  0  0  0  0  0  0  0  0
    8.8177   13.7074   22.6615 H   0  0  0  0  0  0  0  0  0  0  0  0
   11.2045   12.2754   21.8280 H   0  0  0  0  0  0  0  0  0  0  0  0
  1  2  1  0  0  0  0
  1  3  2  0  0  0  0
  1 12  1  0  0  0  0
  2  8  1  0  0  0  0
  2 13  2  0  0  0  0
  3  9  1  0  0  0  0
  3 14  1  0  0  0  0
  4  7  1  0  0  0  0
  4 15  1  0  0  0  0
  4 16  2  0  0  0  0
  5  6  1  0  0  0  0
  5  7  1  0  0  0  0
  6  7  1  0  0  0  0
 10 12  1  0  0  0  0
 11 14  1  0  0  0  0
 12 15  1  0  0  0  0
 13 14  1  0  0  0  0
  5 17  1  0  0  0  0
  5 18  1  0  0  0  0
  6 19  1  0  0  0  0
  6 20  1  0  0  0  0
  7 21  1  0  0  0  0
  8 22  1  0  0  0  0
  8 23  1  0  0  0  0
  8 24  1  0  0  0  0
  9 25  1  0  0  0  0
  9 26  1  0  0  0  0
  9 27  1  0  0  0  0
 10 28  1  0  0  0  0
 10 29  1  0  0  0  0
 10 30  1  0  0  0  0
 11 31  1  0  0  0  0
 11 32  1  0  0  0  0
 11 33  1  0  0  0  0
 12 34  1  0  0  0  0
 15 35  1  0  0  0  0
M  END
> <Catalog ID>
Z899782608

> <PlateID>
1337959-R-10

> <Well>
F02

> <MW (desalted)>
221.299

> <CLogP>
0.396

> <HBD>
1

> <TPSA>
46.920

> <RotBonds>
3

> <ROCS_ShapeQuery>
A71EV2A-x0451_0A_A71EV2A-x0310_0A_A71EV2A-x0416_0A_peptide

> <ROCS_TanimotoCombo>
0.432 

> <ROCS_ShapeTanimoto>
0.272 

> <ROCS_ColorTanimoto>
0.159 

> <ROCS_RefTversky>
0.246 

> <ROCS_RefColorTversky>
0.162 

> <ROCS_RefTverskyCombo>
0.408 

> <ROCS_FitTversky>
1.656 

> <ROCS_FitColorTversky>
0.912 

> <ROCS_FitTverskyCombo>
2.568 

> <ROCS_ColorScore>
-4.910

> <ROCS_Overlap>
1702.848

> <ROCS_Rank>
161                 

$$$$
untitled-dbase-1071_39
  -OEChem-11112309163D

 39 41  0     1  0  0  0  0  0999 V2000
   13.1188   12.6525   23.8957 C   0  0  0  0  0  0  0  0  0  0  0  0
   11.9431   11.9682   23.5874 C   0  0  0  0  0  0  0  0  0  0  0  0
   13.1784   14.0383   23.7483 C   0  0  0  0  0  0  0  0  0  0  0  0
   10.8865   14.0556   22.9843 C   0  0  0  0  0  0  0  0  0  0  0  0
   10.8269   12.6697   23.1316 C   0  0  0  0  0  0  0  0  0  0  0  0
   12.0622   14.7398   23.2926 C   0  0  0  0  0  0  0  0  0  0  0  0
    8.7276   10.0549   23.9694 C   0  0  0  0  0  0  0  0  0  0  0  0
    7.2935   12.4677   26.4975 C   0  0  0  0  0  0  0  0  0  0  0  0
    6.0826   12.2024   25.6023 C   0  0  0  0  0  0  0  0  0  0  0  0
    8.4187   11.5805   25.9663 C   0  0  0  0  0  0  0  0  0  0  0  0
    6.5189   11.1173   24.6228 C   0  0  0  0  0  0  0  0  0  0  0  0
    9.5509   11.9268   22.7965 C   0  0  2  0  0  0  0  0  0  0  0  0
    8.0362   11.2825   24.5154 C   0  0  0  0  0  0  0  0  0  0  0  0
   10.4209    9.6333   22.1597 C   0  0  0  0  0  0  0  0  0  0  0  0
   10.9428   16.7463   22.6790 C   0  0  0  0  0  0  0  0  0  0  0  0
    8.4237   12.3916   23.6233 N   0  0  0  0  0  0  0  0  0  0  0  0
    9.6031   10.4964   22.9916 N   0  0  0  0  0  0  0  0  0  0  0  0
    8.5384    8.9078   24.3465 O   0  0  0  0  0  0  0  0  0  0  0  0
   12.1202   16.0922   23.1495 O   0  0  0  0  0  0  0  0  0  0  0  0
   13.9876   12.1063   24.2509 H   0  0  0  0  0  0  0  0  0  0  0  0
   11.9063   10.8884   23.7049 H   0  0  0  0  0  0  0  0  0  0  0  0
   14.0971   14.5654   23.9901 H   0  0  0  0  0  0  0  0  0  0  0  0
   10.0179   14.6051   22.6289 H   0  0  0  0  0  0  0  0  0  0  0  0
    7.5844   13.5212   26.4743 H   0  0  0  0  0  0  0  0  0  0  0  0
    7.0561   12.2160   27.5354 H   0  0  0  0  0  0  0  0  0  0  0  0
    5.2420   11.8510   26.2098 H   0  0  0  0  0  0  0  0  0  0  0  0
    5.7547   13.1060   25.0811 H   0  0  0  0  0  0  0  0  0  0  0  0
    9.3610   12.1399   26.0113 H   0  0  0  0  0  0  0  0  0  0  0  0
    8.5373   10.6775   26.5730 H   0  0  0  0  0  0  0  0  0  0  0  0
    6.2109   10.1219   24.9664 H   0  0  0  0  0  0  0  0  0  0  0  0
    6.0405   11.2966   23.6495 H   0  0  0  0  0  0  0  0  0  0  0  0
    9.3234   12.1137   21.7301 H   0  0  0  0  0  0  0  0  0  0  0  0
    9.8662    9.3701   21.2470 H   0  0  0  0  0  0  0  0  0  0  0  0
   11.3480   10.1586   21.8865 H   0  0  0  0  0  0  0  0  0  0  0  0
   10.6689    8.7167   22.7150 H   0  0  0  0  0  0  0  0  0  0  0  0
   11.1251   17.8216   22.6105 H   0  0  0  0  0  0  0  0  0  0  0  0
   10.1161   16.5492   23.3662 H   0  0  0  0  0  0  0  0  0  0  0  0
   10.6917   16.3579   21.6892 H   0  0  0  0  0  0  0  0  0  0  0  0
    8.7475   13.1621   24.2082 H   0  0  0  0  0  0  0  0  0  0  0  0
  1  2  2  0  0  0  0
  1  3  1  0  0  0  0
  2  5  1  0  0  0  0
  3  6  2  0  0  0  0
  4  5  2  0  0  0  0
  4  6  1  0  0  0  0
  5 12  1  0  0  0  0
  6 19  1  0  0  0  0
  7 13  1  0  0  0  0
  7 17  1  0  0  0  0
  7 18  2  0  0  0  0
  8  9  1  0  0  0  0
  8 10  1  0  0  0  0
  9 11  1  0  0  0  0
 10 13  1  0  0  0  0
 11 13  1  0  0  0  0
 12 16  1  0  0  0  0
 12 17  1  0  0  0  0
 13 16  1  0  0  0  0
 14 17  1  0  0  0  0
 15 19  1  0  0  0  0
  1 20  1  0  0  0  0
  2 21  1  0  0  0  0
  3 22  1  0  0  0  0
  4 23  1  0  0  0  0
  8 24  1  0  0  0  0
  8 25  1  0  0  0  0
  9 26  1  0  0  0  0
  9 27  1  0  0  0  0
 10 28  1  0  0  0  0
 10 29  1  0  0  0  0
 11 30  1  0  0  0  0
 11 31  1  0  0  0  0
 12 32  1  0  0  0  0
 14 33  1  0  0  0  0
 14 34  1  0  0  0  0
 14 35  1  0  0  0  0
 15 36  1  0  0  0  0
 15 37  1  0  0  0  0
 15 38  1  0  0  0  0
 16 39  1  0  0  0  0
M  END
> <Catalog ID>
Z1171501485

> <PlateID>
1337959-R-14

> <Well>
D07

> <MW (desalted)>
260.332

> <CLogP>
2.315

> <HBD>
1

> <TPSA>
41.570

> <RotBonds>
2

> <ROCS_ShapeQuery>
A71EV2A-x0451_0A_A71EV2A-x0310_0A_A71EV2A-x0416_0A_peptide

> <ROCS_TanimotoCombo>
0.431 

> <ROCS_ShapeTanimoto>
0.321 

> <ROCS_ColorTanimoto>
0.110 

> <ROCS_RefTversky>
0.284 

> <ROCS_RefColorTversky>
0.126 

> <ROCS_RefTverskyCombo>
0.411 

> <ROCS_FitTversky>
1.672 

> <ROCS_FitColorTversky>
0.467 

> <ROCS_FitTverskyCombo>
2.139 

> <ROCS_ColorScore>
-3.845

> <ROCS_Overlap>
1973.573

> <ROCS_Rank>
162                 

$$$$
untitled-dbase-799_107
  -OEChem-11112309163D

 36 37  0     1  0  0  0  0  0999 V2000
    8.1634   12.2006   24.4174 C   0  0  0  0  0  0  0  0  0  0  0  0
    7.3346   11.2357   24.9256 C   0  0  0  0  0  0  0  0  0  0  0  0
    9.1073   11.4722   23.6729 C   0  0  0  0  0  0  0  0  0  0  0  0
   10.8658   13.2253   23.2500 C   0  0  0  0  0  0  0  0  0  0  0  0
   11.8293   15.7587   19.2691 C   0  0  0  0  0  0  0  0  0  0  0  0
   10.6411   15.4112   20.1571 C   0  0  0  0  0  0  0  0  0  0  0  0
   13.0820   15.0196   19.7299 C   0  0  0  0  0  0  0  0  0  0  0  0
   10.9730   15.6108   21.6368 C   0  0  0  0  0  0  0  0  0  0  0  0
   13.3597   15.1993   21.2337 C   0  0  1  0  0  0  0  0  0  0  0  0
    6.1439   11.2674   25.7842 C   0  0  0  0  0  0  0  0  0  0  0  0
   13.9036   16.6018   21.5409 C   0  0  0  0  0  0  0  0  0  0  0  0
   11.9583   13.4744   22.2282 C   0  0  0  0  0  0  0  0  0  0  0  0
    8.8813   10.1562   23.7161 N   0  0  0  0  0  0  0  0  0  0  0  0
   12.1873   14.9125   22.0840 N   0  0  2  0  0  0  0  0  0  0  0  0
   10.1810   12.0496   22.9541 N   0  0  0  0  0  0  0  0  0  0  0  0
   10.6668   13.9848   24.1928 O   0  0  0  0  0  0  0  0  0  0  0  0
    7.7527   10.0113   24.5141 O   0  0  0  0  0  0  0  0  0  0  0  0
    8.0924   13.2681   24.5648 H   0  0  0  0  0  0  0  0  0  0  0  0
   11.6042   15.4868   18.2287 H   0  0  0  0  0  0  0  0  0  0  0  0
   12.0056   16.8416   19.2845 H   0  0  0  0  0  0  0  0  0  0  0  0
    9.7824   16.0396   19.8844 H   0  0  0  0  0  0  0  0  0  0  0  0
   10.3410   14.3707   19.9822 H   0  0  0  0  0  0  0  0  0  0  0  0
   12.9691   13.9511   19.4924 H   0  0  0  0  0  0  0  0  0  0  0  0
   13.9442   15.3764   19.1439 H   0  0  0  0  0  0  0  0  0  0  0  0
   11.0875   16.6994   21.8061 H   0  0  0  0  0  0  0  0  0  0  0  0
   10.1015   15.3022   22.2501 H   0  0  0  0  0  0  0  0  0  0  0  0
   14.1737   14.4792   21.5249 H   0  0  0  0  0  0  0  0  0  0  0  0
    5.2170   11.3516   25.1883 H   0  0  0  0  0  0  0  0  0  0  0  0
    6.0510   10.3597   26.4098 H   0  0  0  0  0  0  0  0  0  0  0  0
    6.1576   12.1173   26.4925 H   0  0  0  0  0  0  0  0  0  0  0  0
   13.1559   17.3444   21.2782 H   0  0  0  0  0  0  0  0  0  0  0  0
   14.8056   16.7741   20.9610 H   0  0  0  0  0  0  0  0  0  0  0  0
   14.1328   16.6761   22.5999 H   0  0  0  0  0  0  0  0  0  0  0  0
   11.6644   13.0521   21.2621 H   0  0  0  0  0  0  0  0  0  0  0  0
   12.8775   12.9836   22.5632 H   0  0  0  0  0  0  0  0  0  0  0  0
   10.4767   11.5350   22.1273 H   0  0  0  0  0  0  0  0  0  0  0  0
  1  2  2  0  0  0  0
  1  3  1  0  0  0  0
  2 10  1  0  0  0  0
  2 17  1  0  0  0  0
  3 13  2  0  0  0  0
  3 15  1  0  0  0  0
  4 12  1  0  0  0  0
  4 15  1  0  0  0  0
  4 16  2  0  0  0  0
  5  6  1  0  0  0  0
  5  7  1  0  0  0  0
  6  8  1  0  0  0  0
  7  9  1  0  0  0  0
  8 14  1  0  0  0  0
  9 11  1  0  0  0  0
  9 14  1  0  0  0  0
 12 14  1  0  0  0  0
 13 17  1  0  0  0  0
  1 18  1  0  0  0  0
  5 19  1  0  0  0  0
  5 20  1  0  0  0  0
  6 21  1  0  0  0  0
  6 22  1  0  0  0  0
  7 23  1  0  0  0  0
  7 24  1  0  0  0  0
  8 25  1  0  0  0  0
  8 26  1  0  0  0  0
  9 27  1  0  0  0  0
 10 28  1  0  0  0  0
 10 29  1  0  0  0  0
 10 30  1  0  0  0  0
 11 31  1  0  0  0  0
 11 32  1  0  0  0  0
 11 33  1  0  0  0  0
 12 34  1  0  0  0  0
 12 35  1  0  0  0  0
 15 36  1  0  0  0  0
M  END
> <Catalog ID>
Z46223808

> <PlateID>
1337959-R-11

> <Well>
A02

> <MW (desalted)>
237.298

> <CLogP>
1.963

> <HBD>
1

> <TPSA>
58.370

> <RotBonds>
3

> <ROCS_ShapeQuery>
A71EV2A-x0451_0A_A71EV2A-x0310_0A_A71EV2A-x0416_0A_peptide

> <ROCS_TanimotoCombo>
0.431 

> <ROCS_ShapeTanimoto>
0.293 

> <ROCS_ColorTanimoto>
0.138 

> <ROCS_RefTversky>
0.261 

> <ROCS_RefColorTversky>
0.151 

> <ROCS_RefTverskyCombo>
0.412 

> <ROCS_FitTversky>
1.694 

> <ROCS_FitColorTversky>
0.630 

> <ROCS_FitTverskyCombo>
2.324 

> <ROCS_ColorScore>
-4.587

> <ROCS_Overlap>
1811.925

> <ROCS_Rank>
163                 

$$$$
untitled-dbase-605_67
  -OEChem-11112309163D

 38 39  0     1  0  0  0  0  0999 V2000
    9.3104    9.9817   23.3835 C   0  0  0  0  0  0  0  0  0  0  0  0
    7.3840   11.0186   24.4088 C   0  0  0  0  0  0  0  0  0  0  0  0
    9.8774   11.2392   23.1771 C   0  0  0  0  0  0  0  0  0  0  0  0
    7.9511   12.2761   24.2024 C   0  0  0  0  0  0  0  0  0  0  0  0
    8.0636    9.8713   23.9994 C   0  0  0  0  0  0  0  0  0  0  0  0
    9.1978   12.3865   23.5866 C   0  0  0  0  0  0  0  0  0  0  0  0
   12.6481   15.3123   21.6672 C   0  0  0  0  0  0  0  0  0  0  0  0
   12.0889   15.7311   20.3074 C   0  0  0  0  0  0  0  0  0  0  0  0
   12.2929   13.8655   21.9823 C   0  0  0  0  0  0  0  0  0  0  0  0
   10.2328   14.0349   20.6011 C   0  0  0  0  0  0  0  0  0  0  0  0
   10.5820   15.4712   20.2027 C   0  0  1  0  0  0  0  0  0  0  0  0
    7.4568    8.5270   24.2195 C   0  0  0  0  0  0  0  0  0  0  0  0
    9.7114   17.6879   20.2539 C   0  0  0  0  0  0  0  0  0  0  0  0
   10.8219   13.6682   21.9194 N   0  0  2  0  0  0  0  0  0  0  0  0
    9.8314   16.4333   20.9768 N   0  0  0  0  0  0  0  0  0  0  0  0
    8.8478   14.8995   23.0074 O   0  0  0  0  0  0  0  0  0  0  0  0
   10.8259   14.2402   24.4216 O   0  0  0  0  0  0  0  0  0  0  0  0
    9.9162   13.9779   23.3275 S   0  0  0  0  0  0  0  0  0  0  0  0
    9.8470    9.0935   23.0609 H   0  0  0  0  0  0  0  0  0  0  0  0
    6.4121   10.9423   24.8891 H   0  0  0  0  0  0  0  0  0  0  0  0
   10.8490   11.3141   22.6959 H   0  0  0  0  0  0  0  0  0  0  0  0
    7.4128   13.1634   24.5250 H   0  0  0  0  0  0  0  0  0  0  0  0
   13.7358   15.4328   21.6677 H   0  0  0  0  0  0  0  0  0  0  0  0
   12.2532   15.9697   22.4487 H   0  0  0  0  0  0  0  0  0  0  0  0
   12.3156   16.7874   20.1209 H   0  0  0  0  0  0  0  0  0  0  0  0
   12.6010   15.1594   19.5235 H   0  0  0  0  0  0  0  0  0  0  0  0
   12.7905   13.1820   21.2776 H   0  0  0  0  0  0  0  0  0  0  0  0
   12.6535   13.6244   22.9930 H   0  0  0  0  0  0  0  0  0  0  0  0
    9.1362   13.9132   20.6398 H   0  0  0  0  0  0  0  0  0  0  0  0
   10.6030   13.3329   19.8328 H   0  0  0  0  0  0  0  0  0  0  0  0
   10.2935   15.6098   19.1415 H   0  0  0  0  0  0  0  0  0  0  0  0
    7.7600    8.1260   25.1944 H   0  0  0  0  0  0  0  0  0  0  0  0
    6.3605    8.5747   24.1888 H   0  0  0  0  0  0  0  0  0  0  0  0
    7.7656    7.8179   23.4403 H   0  0  0  0  0  0  0  0  0  0  0  0
   10.7138   18.0963   20.0581 H   0  0  0  0  0  0  0  0  0  0  0  0
    9.1940   17.5127   19.2991 H   0  0  0  0  0  0  0  0  0  0  0  0
    9.1350   18.4048   20.8571 H   0  0  0  0  0  0  0  0  0  0  0  0
    8.9066   16.0535   21.1593 H   0  0  0  0  0  0  0  0  0  0  0  0
  1  3  1  0  0  0  0
  1  5  2  0  0  0  0
  2  4  2  0  0  0  0
  2  5  1  0  0  0  0
  3  6  2  0  0  0  0
  4  6  1  0  0  0  0
  5 12  1  0  0  0  0
  6 18  1  0  0  0  0
  7  8  1  0  0  0  0
  7  9  1  0  0  0  0
  8 11  1  0  0  0  0
  9 14  1  0  0  0  0
 10 11  1  0  0  0  0
 10 14  1  0  0  0  0
 11 15  1  0  0  0  0
 13 15  1  0  0  0  0
 14 18  1  0  0  0  0
 16 18  2  0  0  0  0
 17 18  2  0  0  0  0
  1 19  1  0  0  0  0
  2 20  1  0  0  0  0
  3 21  1  0  0  0  0
  4 22  1  0  0  0  0
  7 23  1  0  0  0  0
  7 24  1  0  0  0  0
  8 25  1  0  0  0  0
  8 26  1  0  0  0  0
  9 27  1  0  0  0  0
  9 28  1  0  0  0  0
 10 29  1  0  0  0  0
 10 30  1  0  0  0  0
 11 31  1  0  0  0  0
 12 32  1  0  0  0  0
 12 33  1  0  0  0  0
 12 34  1  0  0  0  0
 13 35  1  0  0  0  0
 13 36  1  0  0  0  0
 13 37  1  0  0  0  0
 15 38  1  0  0  0  0
M  END
> <Catalog ID>
Z1993859026

> <PlateID>
1337959-R-08

> <Well>
E08

> <MW (desalted)>
268.375

> <CLogP>
2.163

> <HBD>
1

> <TPSA>
49.410

> <RotBonds>
2

> <ROCS_ShapeQuery>
A71EV2A-x0451_0A_A71EV2A-x0310_0A_A71EV2A-x0416_0A_peptide

> <ROCS_TanimotoCombo>
0.431 

> <ROCS_ShapeTanimoto>
0.274 

> <ROCS_ColorTanimoto>
0.157 

> <ROCS_RefTversky>
0.249 

> <ROCS_RefColorTversky>
0.168 

> <ROCS_RefTverskyCombo>
0.417 

> <ROCS_FitTversky>
1.589 

> <ROCS_FitColorTversky>
0.703 

> <ROCS_FitTverskyCombo>
2.292 

> <ROCS_ColorScore>
-5.121

> <ROCS_Overlap>
1724.397

> <ROCS_Rank>
164                 

$$$$
untitled-dbase-1187_264
  -OEChem-11112309163D

 38 39  0     1  0  0  0  0  0999 V2000
   12.5905   13.5125   21.9844 C   0  0  0  0  0  0  0  0  0  0  0  0
   13.0277   13.7701   20.6530 C   0  0  0  0  0  0  0  0  0  0  0  0
   11.2197   13.5808   22.1012 C   0  0  0  0  0  0  0  0  0  0  0  0
   11.9742   14.0253   19.8028 C   0  0  0  0  0  0  0  0  0  0  0  0
   10.3837   13.3797   23.2939 C   0  0  0  0  0  0  0  0  0  0  0  0
    9.9985    9.9750   23.4477 C   0  0  0  0  0  0  0  0  0  0  0  0
    8.6896   11.1624   25.2809 C   0  0  0  0  0  0  0  0  0  0  0  0
    9.6169   11.1126   22.4948 C   0  0  0  0  0  0  0  0  0  0  0  0
    8.9935    9.8232   24.5954 C   0  0  1  0  0  0  0  0  0  0  0  0
    8.3342   12.2512   24.2535 C   0  0  1  0  0  0  0  0  0  0  0  0
   12.0126   14.3326   18.3568 C   0  0  0  0  0  0  0  0  0  0  0  0
    7.8502    7.8831   23.9114 C   0  0  0  0  0  0  0  0  0  0  0  0
    7.9052   13.5467   24.9404 C   0  0  0  0  0  0  0  0  0  0  0  0
    9.4295   12.3519   23.2659 N   0  0  0  0  0  0  0  0  0  0  0  0
    6.5480   13.4414   25.3537 N   0  0  0  0  0  0  0  0  0  0  0  0
   10.5969   14.1607   24.2188 O   0  0  0  0  0  0  0  0  0  0  0  0
    7.7706    9.2904   24.0868 O   0  0  0  0  0  0  0  0  0  0  0  0
   10.4656   13.9542   20.6098 S   0  0  0  0  0  0  0  0  0  0  0  0
   13.2523   13.2889   22.8116 H   0  0  0  0  0  0  0  0  0  0  0  0
   14.0638   13.7671   20.3388 H   0  0  0  0  0  0  0  0  0  0  0  0
   10.0690    9.0332   22.8895 H   0  0  0  0  0  0  0  0  0  0  0  0
   10.9992   10.1520   23.8578 H   0  0  0  0  0  0  0  0  0  0  0  0
    7.8547   11.0294   25.9707 H   0  0  0  0  0  0  0  0  0  0  0  0
    9.5403   11.4677   25.8888 H   0  0  0  0  0  0  0  0  0  0  0  0
   10.4149   11.2904   21.7846 H   0  0  0  0  0  0  0  0  0  0  0  0
    8.7249   10.8343   21.9554 H   0  0  0  0  0  0  0  0  0  0  0  0
    9.3758    9.0984   25.3335 H   0  0  0  0  0  0  0  0  0  0  0  0
    7.4363   11.8562   23.7240 H   0  0  0  0  0  0  0  0  0  0  0  0
   11.9533   13.4114   17.7560 H   0  0  0  0  0  0  0  0  0  0  0  0
   11.1794   14.9875   18.0534 H   0  0  0  0  0  0  0  0  0  0  0  0
   12.9375   14.8614   18.0734 H   0  0  0  0  0  0  0  0  0  0  0  0
    6.9000    7.5095   23.5221 H   0  0  0  0  0  0  0  0  0  0  0  0
    8.0758    7.4079   24.8694 H   0  0  0  0  0  0  0  0  0  0  0  0
    8.6471    7.6582   23.1987 H   0  0  0  0  0  0  0  0  0  0  0  0
    8.5605   13.6850   25.7970 H   0  0  0  0  0  0  0  0  0  0  0  0
    8.0273   14.3473   24.2148 H   0  0  0  0  0  0  0  0  0  0  0  0
    6.4318   12.6575   25.9716 H   0  0  0  0  0  0  0  0  0  0  0  0
    6.2658   14.2763   25.8367 H   0  0  0  0  0  0  0  0  0  0  0  0
  1  2  1  0  0  0  0
  1  3  2  0  0  0  0
  2  4  2  0  0  0  0
  3  5  1  0  0  0  0
  3 18  1  0  0  0  0
  4 11  1  0  0  0  0
  4 18  1  0  0  0  0
  5 14  1  0  0  0  0
  5 16  2  0  0  0  0
  6  8  1  0  0  0  0
  6  9  1  0  0  0  0
  7  9  1  0  0  0  0
  7 10  1  0  0  0  0
  8 14  1  0  0  0  0
  9 17  1  0  0  0  0
 10 13  1  0  0  0  0
 10 14  1  0  0  0  0
 12 17  1  0  0  0  0
 13 15  1  0  0  0  0
  1 19  1  0  0  0  0
  2 20  1  0  0  0  0
  6 21  1  0  0  0  0
  6 22  1  0  0  0  0
  7 23  1  0  0  0  0
  7 24  1  0  0  0  0
  8 25  1  0  0  0  0
  8 26  1  0  0  0  0
  9 27  1  0  0  0  0
 10 28  1  0  0  0  0
 11 29  1  0  0  0  0
 11 30  1  0  0  0  0
 11 31  1  0  0  0  0
 12 32  1  0  0  0  0
 12 33  1  0  0  0  0
 12 34  1  0  0  0  0
 13 35  1  0  0  0  0
 13 36  1  0  0  0  0
 15 37  1  0  0  0  0
 15 38  1  0  0  0  0
M  END
> <Catalog ID>
Z1639650038

> <PlateID>
1337959-R-15

> <Well>
H03

> <MW (desalted)>
268.375

> <CLogP>
0.339

> <HBD>
1

> <TPSA>
55.560

> <RotBonds>
3

> <ROCS_ShapeQuery>
A71EV2A-x0451_0A_A71EV2A-x0310_0A_A71EV2A-x0416_0A_peptide

> <ROCS_TanimotoCombo>
0.431 

> <ROCS_ShapeTanimoto>
0.280 

> <ROCS_ColorTanimoto>
0.150 

> <ROCS_RefTversky>
0.253 

> <ROCS_RefColorTversky>
0.162 

> <ROCS_RefTverskyCombo>
0.415 

> <ROCS_FitTversky>
1.613 

> <ROCS_FitColorTversky>
0.676 

> <ROCS_FitTverskyCombo>
2.289 

> <ROCS_ColorScore>
-4.926

> <ROCS_Overlap>
1757.576

> <ROCS_Rank>
165                 

$$$$
untitled-dbase-797_109
  -OEChem-11112309163D

 36 38  0     1  0  0  0  0  0999 V2000
    8.3198    8.9248   23.5374 C   0  0  0  0  0  0  0  0  0  0  0  0
    9.4583    9.5879   23.0904 C   0  0  0  0  0  0  0  0  0  0  0  0
    7.3171    9.6341   24.1935 C   0  0  0  0  0  0  0  0  0  0  0  0
    9.5982   10.9619   23.2988 C   0  0  0  0  0  0  0  0  0  0  0  0
    7.4546   11.0113   24.4161 C   0  0  0  0  0  0  0  0  0  0  0  0
    8.6085   11.6923   23.9750 C   0  0  0  0  0  0  0  0  0  0  0  0
   10.0342   13.7826   23.8954 C   0  0  0  0  0  0  0  0  0  0  0  0
    6.3668   11.7835   25.1161 C   0  0  0  0  0  0  0  0  0  0  0  0
   10.3978   14.3612   20.2523 C   0  0  0  0  0  0  0  0  0  0  0  0
    9.6347   13.6940   21.3893 C   0  0  0  0  0  0  0  0  0  0  0  0
   11.1448   15.3334   22.2996 C   0  0  0  0  0  0  0  0  0  0  0  0
    6.9277   12.5719   26.2915 C   0  0  0  0  0  0  0  0  0  0  0  0
    8.6849   13.1920   24.1629 C   0  0  2  0  0  0  0  0  0  0  0  0
   10.8534   15.6977   20.8450 C   0  0  2  0  0  0  0  0  0  0  0  0
   10.2452   14.2274   22.6025 N   0  0  0  0  0  0  0  0  0  0  0  0
    9.7857   16.6928   20.7746 N   0  0  0  0  0  0  0  0  0  0  0  0
   10.8767   13.8450   24.7922 O   0  0  0  0  0  0  0  0  0  0  0  0
    8.2375   13.7597   25.8446 S   0  0  0  0  0  0  0  0  0  0  0  0
    8.2125    7.8567   23.3713 H   0  0  0  0  0  0  0  0  0  0  0  0
   10.2413    9.0358   22.5752 H   0  0  0  0  0  0  0  0  0  0  0  0
    6.4310    9.1072   24.5259 H   0  0  0  0  0  0  0  0  0  0  0  0
   10.4899   11.4565   22.9266 H   0  0  0  0  0  0  0  0  0  0  0  0
    5.9021   12.4498   24.4063 H   0  0  0  0  0  0  0  0  0  0  0  0
    5.6282   11.0972   25.5013 H   0  0  0  0  0  0  0  0  0  0  0  0
   11.2422   13.7506   19.9015 H   0  0  0  0  0  0  0  0  0  0  0  0
    9.7232   14.5203   19.3952 H   0  0  0  0  0  0  0  0  0  0  0  0
    8.5631   13.9087   21.3600 H   0  0  0  0  0  0  0  0  0  0  0  0
    9.7838   12.6089   21.3876 H   0  0  0  0  0  0  0  0  0  0  0  0
   12.1908   15.0440   22.4697 H   0  0  0  0  0  0  0  0  0  0  0  0
   10.9001   16.1503   22.9946 H   0  0  0  0  0  0  0  0  0  0  0  0
    6.1036   13.1344   26.7874 H   0  0  0  0  0  0  0  0  0  0  0  0
    7.3139   11.8844   27.0807 H   0  0  0  0  0  0  0  0  0  0  0  0
    7.9631   13.6813   23.5059 H   0  0  0  0  0  0  0  0  0  0  0  0
   11.7330   16.0560   20.3562 H   0  0  0  0  0  0  0  0  0  0  0  0
   10.0952   17.5261   21.2225 H   0  0  0  0  0  0  0  0  0  0  0  0
    9.5798   16.8728   19.8175 H   0  0  0  0  0  0  0  0  0  0  0  0
  1  2  2  0  0  0  0
  1  3  1  0  0  0  0
  2  4  1  0  0  0  0
  3  5  2  0  0  0  0
  4  6  2  0  0  0  0
  5  6  1  0  0  0  0
  5  8  1  0  0  0  0
  6 13  1  0  0  0  0
  7 13  1  0  0  0  0
  7 15  1  0  0  0  0
  7 17  2  0  0  0  0
  8 12  1  0  0  0  0
  9 10  1  0  0  0  0
  9 14  1  0  0  0  0
 10 15  1  0  0  0  0
 11 14  1  0  0  0  0
 11 15  1  0  0  0  0
 12 18  1  0  0  0  0
 13 18  1  0  0  0  0
 14 16  1  6  0  0  0
  1 19  1  0  0  0  0
  2 20  1  0  0  0  0
  3 21  1  0  0  0  0
  4 22  1  0  0  0  0
  8 23  1  0  0  0  0
  8 24  1  0  0  0  0
  9 25  1  0  0  0  0
  9 26  1  0  0  0  0
 10 27  1  0  0  0  0
 10 28  1  0  0  0  0
 11 29  1  0  0  0  0
 11 30  1  0  0  0  0
 12 31  1  0  0  0  0
 12 32  1  0  0  0  0
 13 33  1  0  0  0  0
 14 34  1  0  0  0  0
 16 35  1  0  0  0  0
 16 36  1  0  0  0  0
M  END
> <Catalog ID>
Z1455830062

> <PlateID>
1337959-R-10

> <Well>
H10

> <MW (desalted)>
262.371

> <CLogP>
1.650

> <HBD>
1

> <TPSA>
46.330

> <RotBonds>
1

> <ROCS_ShapeQuery>
A71EV2A-x0451_0A_A71EV2A-x0310_0A_A71EV2A-x0416_0A_peptide

> <ROCS_TanimotoCombo>
0.431 

> <ROCS_ShapeTanimoto>
0.293 

> <ROCS_ColorTanimoto>
0.138 

> <ROCS_RefTversky>
0.263 

> <ROCS_RefColorTversky>
0.150 

> <ROCS_RefTverskyCombo>
0.413 

> <ROCS_FitTversky>
1.641 

> <ROCS_FitColorTversky>
0.627 

> <ROCS_FitTverskyCombo>
2.268 

> <ROCS_ColorScore>
-4.569

> <ROCS_Overlap>
1822.589

> <ROCS_Rank>
166                 

$$$$
untitled-dbase-829_30
  -OEChem-11112309163D

 27 27  0     0  0  0  0  0  0999 V2000
    9.5776    9.4478   23.7312 C   0  0  0  0  0  0  0  0  0  0  0  0
   10.4551   10.5150   23.5400 C   0  0  0  0  0  0  0  0  0  0  0  0
    8.7369   12.0557   24.2550 C   0  0  0  0  0  0  0  0  0  0  0  0
    7.8594   10.9884   24.4461 C   0  0  0  0  0  0  0  0  0  0  0  0
    8.2797    9.6845   24.1842 C   0  0  0  0  0  0  0  0  0  0  0  0
   10.0347   11.8190   23.8019 C   0  0  0  0  0  0  0  0  0  0  0  0
   10.3813   15.9582   21.5878 C   0  0  0  0  0  0  0  0  0  0  0  0
    6.3872   11.2177   26.2997 C   0  0  0  0  0  0  0  0  0  0  0  0
    9.8093   14.5817   21.6140 C   0  0  0  0  0  0  0  0  0  0  0  0
   10.8408   13.5847   21.9342 N   0  0  0  0  0  0  0  0  0  0  0  0
   10.7204   14.2607   24.4171 O   0  0  0  0  0  0  0  0  0  0  0  0
   12.4912   12.6387   23.6703 O   0  0  0  0  0  0  0  0  0  0  0  0
    6.5930   11.2201   24.8879 O   0  0  0  0  0  0  0  0  0  0  0  0
    7.4405    8.6554   24.3643 F   0  0  0  0  0  0  0  0  0  0  0  0
   11.1331   13.1549   23.5623 S   0  0  0  0  0  0  0  0  0  0  0  0
    9.9039    8.4323   23.5270 H   0  0  0  0  0  0  0  0  0  0  0  0
   11.4639   10.3189   23.1868 H   0  0  0  0  0  0  0  0  0  0  0  0
    8.4047   13.0706   24.4606 H   0  0  0  0  0  0  0  0  0  0  0  0
   11.1746   16.0117   20.8276 H   0  0  0  0  0  0  0  0  0  0  0  0
    9.5885   16.6799   21.3417 H   0  0  0  0  0  0  0  0  0  0  0  0
   10.8028   16.1988   22.5749 H   0  0  0  0  0  0  0  0  0  0  0  0
    5.3342   11.4149   26.5156 H   0  0  0  0  0  0  0  0  0  0  0  0
    7.0145   11.9843   26.7616 H   0  0  0  0  0  0  0  0  0  0  0  0
    6.6609   10.2376   26.6973 H   0  0  0  0  0  0  0  0  0  0  0  0
    9.0174   14.5364   22.3761 H   0  0  0  0  0  0  0  0  0  0  0  0
    9.3818   14.3517   20.6269 H   0  0  0  0  0  0  0  0  0  0  0  0
   11.0506   12.9006   21.1970 H   0  0  0  0  0  0  0  0  0  0  0  0
  1  2  1  0  0  0  0
  1  5  2  0  0  0  0
  2  6  2  0  0  0  0
  3  4  2  0  0  0  0
  3  6  1  0  0  0  0
  4  5  1  0  0  0  0
  4 13  1  0  0  0  0
  5 14  1  0  0  0  0
  6 15  1  0  0  0  0
  7  9  1  0  0  0  0
  8 13  1  0  0  0  0
  9 10  1  0  0  0  0
 10 15  1  0  0  0  0
 11 15  2  0  0  0  0
 12 15  2  0  0  0  0
  1 16  1  0  0  0  0
  2 17  1  0  0  0  0
  3 18  1  0  0  0  0
  7 19  1  0  0  0  0
  7 20  1  0  0  0  0
  7 21  1  0  0  0  0
  8 22  1  0  0  0  0
  8 23  1  0  0  0  0
  8 24  1  0  0  0  0
  9 25  1  0  0  0  0
  9 26  1  0  0  0  0
 10 27  1  0  0  0  0
M  END
> <Catalog ID>
Z199511268

> <PlateID>
1337959-R-11

> <Well>
D02

> <MW (desalted)>
233.260

> <CLogP>
1.868

> <HBD>
1

> <TPSA>
55.400

> <RotBonds>
3

> <ROCS_ShapeQuery>
A71EV2A-x0451_0A_A71EV2A-x0310_0A_A71EV2A-x0416_0A_peptide

> <ROCS_TanimotoCombo>
0.431 

> <ROCS_ShapeTanimoto>
0.289 

> <ROCS_ColorTanimoto>
0.142 

> <ROCS_RefTversky>
0.255 

> <ROCS_RefColorTversky>
0.150 

> <ROCS_RefTverskyCombo>
0.405 

> <ROCS_FitTversky>
1.843 

> <ROCS_FitColorTversky>
0.721 

> <ROCS_FitTverskyCombo>
2.564 

> <ROCS_ColorScore>
-4.568

> <ROCS_Overlap>
1765.510

> <ROCS_Rank>
167                 

$$$$
untitled-dbase-371_48
  -OEChem-11112309163D

 28 29  0     0  0  0  0  0  0999 V2000
   13.0651   14.1732   23.3914 C   0  0  0  0  0  0  0  0  0  0  0  0
   11.1348   15.7482   20.6321 C   0  0  0  0  0  0  0  0  0  0  0  0
    8.2785   10.0763   23.8029 C   0  0  0  0  0  0  0  0  0  0  0  0
    9.8235   15.4845   21.0279 C   0  0  0  0  0  0  0  0  0  0  0  0
    9.5069   10.2357   23.1617 C   0  0  0  0  0  0  0  0  0  0  0  0
   12.2016   15.3120   21.4178 C   0  0  0  0  0  0  0  0  0  0  0  0
    7.7473   11.1192   24.5617 C   0  0  0  0  0  0  0  0  0  0  0  0
    9.5790   14.7847   22.2094 C   0  0  0  0  0  0  0  0  0  0  0  0
   10.2042   11.4379   23.2795 C   0  0  0  0  0  0  0  0  0  0  0  0
   11.9571   14.6121   22.5994 C   0  0  0  0  0  0  0  0  0  0  0  0
    8.4446   12.3215   24.6795 C   0  0  0  0  0  0  0  0  0  0  0  0
   10.6458   14.3485   22.9952 C   0  0  0  0  0  0  0  0  0  0  0  0
    9.6731   12.4809   24.0384 C   0  0  0  0  0  0  0  0  0  0  0  0
    7.8610   13.4267   25.4960 C   0  0  0  0  0  0  0  0  0  0  0  0
   13.9637   13.8172   24.0337 N   0  0  0  0  0  0  0  0  0  0  0  0
    6.4422   13.3464   25.4516 O   0  0  0  0  0  0  0  0  0  0  0  0
   10.3781   13.6665   24.1454 O   0  0  0  0  0  0  0  0  0  0  0  0
   11.3249   16.2932   19.7120 H   0  0  0  0  0  0  0  0  0  0  0  0
    7.7353    9.1399   23.7119 H   0  0  0  0  0  0  0  0  0  0  0  0
    8.9930   15.8242   20.4160 H   0  0  0  0  0  0  0  0  0  0  0  0
    9.9205    9.4231   22.5718 H   0  0  0  0  0  0  0  0  0  0  0  0
   13.2178   15.5257   21.0950 H   0  0  0  0  0  0  0  0  0  0  0  0
    6.7901   10.9845   25.0586 H   0  0  0  0  0  0  0  0  0  0  0  0
    8.5549   14.5829   22.5116 H   0  0  0  0  0  0  0  0  0  0  0  0
   11.1608   11.5562   22.7778 H   0  0  0  0  0  0  0  0  0  0  0  0
    8.1845   13.3630   26.5435 H   0  0  0  0  0  0  0  0  0  0  0  0
    8.1723   14.4077   25.1134 H   0  0  0  0  0  0  0  0  0  0  0  0
    6.1995   12.4807   25.8174 H   0  0  0  0  0  0  0  0  0  0  0  0
  1 10  1  0  0  0  0
  1 15  3  0  0  0  0
  2  4  2  0  0  0  0
  2  6  1  0  0  0  0
  3  5  2  0  0  0  0
  3  7  1  0  0  0  0
  4  8  1  0  0  0  0
  5  9  1  0  0  0  0
  6 10  2  0  0  0  0
  7 11  2  0  0  0  0
  8 12  2  0  0  0  0
  9 13  2  0  0  0  0
 10 12  1  0  0  0  0
 11 13  1  0  0  0  0
 11 14  1  0  0  0  0
 12 17  1  0  0  0  0
 13 17  1  0  0  0  0
 14 16  1  0  0  0  0
  2 18  1  0  0  0  0
  3 19  1  0  0  0  0
  4 20  1  0  0  0  0
  5 21  1  0  0  0  0
  6 22  1  0  0  0  0
  7 23  1  0  0  0  0
  8 24  1  0  0  0  0
  9 25  1  0  0  0  0
 14 26  1  0  0  0  0
 14 27  1  0  0  0  0
 16 28  1  0  0  0  0
M  END
> <Catalog ID>
Z362022872

> <PlateID>
1337959-R-05

> <Well>
F03

> <MW (desalted)>
225.243

> <CLogP>
2.635

> <HBD>
1

> <TPSA>
53.250

> <RotBonds>
3

> <ROCS_ShapeQuery>
A71EV2A-x0451_0A_A71EV2A-x0310_0A_A71EV2A-x0416_0A_peptide

> <ROCS_TanimotoCombo>
0.431 

> <ROCS_ShapeTanimoto>
0.286 

> <ROCS_ColorTanimoto>
0.145 

> <ROCS_RefTversky>
0.257 

> <ROCS_RefColorTversky>
0.157 

> <ROCS_RefTverskyCombo>
0.414 

> <ROCS_FitTversky>
1.640 

> <ROCS_FitColorTversky>
0.655 

> <ROCS_FitTverskyCombo>
2.295 

> <ROCS_ColorScore>
-4.774

> <ROCS_Overlap>
1781.775

> <ROCS_Rank>
168                 

$$$$
untitled-dbase-827_764
  -OEChem-11112309163D

 39 40  0     1  0  0  0  0  0999 V2000
   10.4669   13.1832   23.7182 C   0  0  0  0  0  0  0  0  0  0  0  0
   11.8581   15.4671   21.9151 C   0  0  0  0  0  0  0  0  0  0  0  0
    5.7534   10.9142   25.7130 C   0  0  0  0  0  0  0  0  0  0  0  0
    6.3585   10.4479   24.3899 C   0  0  0  0  0  0  0  0  0  0  0  0
    8.7193    9.9174   23.5391 C   0  0  0  0  0  0  0  0  0  0  0  0
    8.1073   10.3098   25.9938 C   0  0  0  0  0  0  0  0  0  0  0  0
   10.0306   10.6911   23.5136 C   0  0  0  0  0  0  0  0  0  0  0  0
    8.2631   12.1551   24.2409 C   0  0  0  0  0  0  0  0  0  0  0  0
    6.8890   10.8599   26.7469 C   0  0  2  0  0  0  0  0  0  0  0  0
    7.8561   10.7035   24.5309 C   0  0  2  0  0  0  0  0  0  0  0  0
   11.4815   16.4425   20.8497 C   0  0  0  0  0  0  0  0  0  0  0  0
    6.5381   10.0284   27.9719 C   0  0  0  0  0  0  0  0  0  0  0  0
   11.5417   13.1170   22.6630 C   0  0  0  0  0  0  0  0  0  0  0  0
    9.6538   12.0679   23.8127 N   0  0  0  0  0  0  0  0  0  0  0  0
   11.3085   14.2007   21.7573 N   0  0  0  0  0  0  0  0  0  0  0  0
   10.3489   14.1846   24.4262 O   0  0  0  0  0  0  0  0  0  0  0  0
   12.5977   15.8222   22.8253 O   0  0  0  0  0  0  0  0  0  0  0  0
    5.3778   11.9399   25.6264 H   0  0  0  0  0  0  0  0  0  0  0  0
    4.9037   10.2801   25.9878 H   0  0  0  0  0  0  0  0  0  0  0  0
    6.1588    9.3759   24.2699 H   0  0  0  0  0  0  0  0  0  0  0  0
    5.9029   10.9612   23.5369 H   0  0  0  0  0  0  0  0  0  0  0  0
    8.2720    9.8373   22.5436 H   0  0  0  0  0  0  0  0  0  0  0  0
    8.8982    8.9016   23.9131 H   0  0  0  0  0  0  0  0  0  0  0  0
    9.0452   10.7191   26.3876 H   0  0  0  0  0  0  0  0  0  0  0  0
    8.1595    9.2161   26.0870 H   0  0  0  0  0  0  0  0  0  0  0  0
   10.7540   10.3144   24.2421 H   0  0  0  0  0  0  0  0  0  0  0  0
   10.4867   10.6758   22.5178 H   0  0  0  0  0  0  0  0  0  0  0  0
    7.6615   12.6479   23.4701 H   0  0  0  0  0  0  0  0  0  0  0  0
    8.2439   12.7757   25.1444 H   0  0  0  0  0  0  0  0  0  0  0  0
    7.1098   11.8826   27.0796 H   0  0  0  0  0  0  0  0  0  0  0  0
   10.5644   17.0012   21.0962 H   0  0  0  0  0  0  0  0  0  0  0  0
   12.2558   17.2100   20.6896 H   0  0  0  0  0  0  0  0  0  0  0  0
   11.2965   16.0061   19.8551 H   0  0  0  0  0  0  0  0  0  0  0  0
    6.3120    9.0022   27.6778 H   0  0  0  0  0  0  0  0  0  0  0  0
    5.6663   10.4495   28.4751 H   0  0  0  0  0  0  0  0  0  0  0  0
    7.3757   10.0168   28.6711 H   0  0  0  0  0  0  0  0  0  0  0  0
   11.4630   12.1584   22.1586 H   0  0  0  0  0  0  0  0  0  0  0  0
   12.5056   13.2143   23.1540 H   0  0  0  0  0  0  0  0  0  0  0  0
   10.7044   14.0337   20.9501 H   0  0  0  0  0  0  0  0  0  0  0  0
  1 13  1  0  0  0  0
  1 14  1  0  0  0  0
  1 16  2  0  0  0  0
  2 11  1  0  0  0  0
  2 15  1  0  0  0  0
  2 17  2  0  0  0  0
  3  4  1  0  0  0  0
  3  9  1  0  0  0  0
  4 10  1  0  0  0  0
  5  7  1  0  0  0  0
  5 10  1  0  0  0  0
  6  9  1  0  0  0  0
  6 10  1  0  0  0  0
  7 14  1  0  0  0  0
  8 10  1  0  0  0  0
  8 14  1  0  0  0  0
  9 12  1  0  0  0  0
 13 15  1  0  0  0  0
  3 18  1  0  0  0  0
  3 19  1  0  0  0  0
  4 20  1  0  0  0  0
  4 21  1  0  0  0  0
  5 22  1  0  0  0  0
  5 23  1  0  0  0  0
  6 24  1  0  0  0  0
  6 25  1  0  0  0  0
  7 26  1  0  0  0  0
  7 27  1  0  0  0  0
  8 28  1  0  0  0  0
  8 29  1  0  0  0  0
  9 30  1  0  0  0  0
 11 31  1  0  0  0  0
 11 32  1  0  0  0  0
 11 33  1  0  0  0  0
 12 34  1  0  0  0  0
 12 35  1  0  0  0  0
 12 36  1  0  0  0  0
 13 37  1  0  0  0  0
 13 38  1  0  0  0  0
 15 39  1  0  0  0  0
M  END
> <Catalog ID>
Z1639941124

> <PlateID>
1337959-R-11

> <Well>
C10

> <MW (desalted)>
238.326

> <CLogP>
1.091

> <HBD>
1

> <TPSA>
49.410

> <RotBonds>
2

> <ROCS_ShapeQuery>
A71EV2A-x0451_0A_A71EV2A-x0310_0A_A71EV2A-x0416_0A_peptide

> <ROCS_TanimotoCombo>
0.430 

> <ROCS_ShapeTanimoto>
0.282 

> <ROCS_ColorTanimoto>
0.148 

> <ROCS_RefTversky>
0.254 

> <ROCS_RefColorTversky>
0.156 

> <ROCS_RefTverskyCombo>
0.410 

> <ROCS_FitTversky>
1.658 

> <ROCS_FitColorTversky>
0.748 

> <ROCS_FitTverskyCombo>
2.406 

> <ROCS_ColorScore>
-4.741

> <ROCS_Overlap>
1758.558

> <ROCS_Rank>
169                 

$$$$
untitled-dbase-759_150
  -OEChem-11112309163D

 37 39  0     0  0  0  0  0  0999 V2000
    8.5073   12.0179   24.0400 C   0  0  0  0  0  0  0  0  0  0  0  0
    9.3350   11.3140   23.1998 C   0  0  0  0  0  0  0  0  0  0  0  0
    7.7722   11.0285   24.7200 C   0  0  0  0  0  0  0  0  0  0  0  0
   10.3274   11.8270   22.2483 C   0  0  0  0  0  0  0  0  0  0  0  0
   11.0662   15.0957   20.4736 C   0  0  0  0  0  0  0  0  0  0  0  0
   12.5355   15.3880   20.3946 C   0  0  0  0  0  0  0  0  0  0  0  0
   11.5682   12.9411   24.1641 C   0  0  0  0  0  0  0  0  0  0  0  0
   12.3017   13.2458   21.8095 C   0  0  0  0  0  0  0  0  0  0  0  0
   10.8144   14.2016   24.5887 C   0  0  0  0  0  0  0  0  0  0  0  0
   11.8826   15.5279   22.8924 C   0  0  0  0  0  0  0  0  0  0  0  0
   11.9715   14.7098   21.6238 C   0  0  0  0  0  0  0  0  0  0  0  0
    6.7345   11.2284   25.7455 C   0  0  0  0  0  0  0  0  0  0  0  0
    9.6693    8.8610   22.7709 C   0  0  0  0  0  0  0  0  0  0  0  0
    8.1036    9.7904   24.3442 N   0  0  0  0  0  0  0  0  0  0  0  0
    9.0560    9.9971   23.4189 N   0  0  0  0  0  0  0  0  0  0  0  0
   11.3777   12.6035   22.7489 N   0  0  0  0  0  0  0  0  0  0  0  0
   10.1506   11.5333   21.0671 O   0  0  0  0  0  0  0  0  0  0  0  0
   10.6788   15.1981   23.5802 O   0  0  0  0  0  0  0  0  0  0  0  0
    8.4446   13.0917   24.1456 H   0  0  0  0  0  0  0  0  0  0  0  0
   10.3955   15.9369   20.6000 H   0  0  0  0  0  0  0  0  0  0  0  0
   10.6735   14.3138   19.8353 H   0  0  0  0  0  0  0  0  0  0  0  0
   13.1255   14.7999   19.7016 H   0  0  0  0  0  0  0  0  0  0  0  0
   12.8445   16.4240   20.4607 H   0  0  0  0  0  0  0  0  0  0  0  0
   12.6438   13.0994   24.3475 H   0  0  0  0  0  0  0  0  0  0  0  0
   11.2740   12.0689   24.7719 H   0  0  0  0  0  0  0  0  0  0  0  0
   12.2272   12.7017   20.8726 H   0  0  0  0  0  0  0  0  0  0  0  0
   13.3199   13.1706   22.1741 H   0  0  0  0  0  0  0  0  0  0  0  0
    9.7861   13.9113   24.8717 H   0  0  0  0  0  0  0  0  0  0  0  0
   11.2521   14.6509   25.5026 H   0  0  0  0  0  0  0  0  0  0  0  0
   12.7550   15.3887   23.5345 H   0  0  0  0  0  0  0  0  0  0  0  0
   11.8235   16.5918   22.6547 H   0  0  0  0  0  0  0  0  0  0  0  0
    5.7326   11.3130   25.2907 H   0  0  0  0  0  0  0  0  0  0  0  0
    6.7003   10.3971   26.4722 H   0  0  0  0  0  0  0  0  0  0  0  0
    6.9072   12.1427   26.3412 H   0  0  0  0  0  0  0  0  0  0  0  0
   10.5400    8.5651   23.3620 H   0  0  0  0  0  0  0  0  0  0  0  0
    8.9484    8.0407   22.7151 H   0  0  0  0  0  0  0  0  0  0  0  0
    9.9711    9.1421   21.7581 H   0  0  0  0  0  0  0  0  0  0  0  0
  1  2  2  0  0  0  0
  1  3  1  0  0  0  0
  2  4  1  0  0  0  0
  2 15  1  0  0  0  0
  3 12  1  0  0  0  0
  3 14  2  0  0  0  0
  4 16  1  0  0  0  0
  4 17  2  0  0  0  0
  5  6  1  0  0  0  0
  5 11  1  0  0  0  0
  6 11  1  0  0  0  0
  7  9  1  0  0  0  0
  7 16  1  0  0  0  0
  8 11  1  0  0  0  0
  8 16  1  0  0  0  0
  9 18  1  0  0  0  0
 10 11  1  0  0  0  0
 10 18  1  0  0  0  0
 13 15  1  0  0  0  0
 14 15  1  0  0  0  0
  1 19  1  0  0  0  0
  5 20  1  0  0  0  0
  5 21  1  0  0  0  0
  6 22  1  0  0  0  0
  6 23  1  0  0  0  0
  7 24  1  0  0  0  0
  7 25  1  0  0  0  0
  8 26  1  0  0  0  0
  8 27  1  0  0  0  0
  9 28  1  0  0  0  0
  9 29  1  0  0  0  0
 10 30  1  0  0  0  0
 10 31  1  0  0  0  0
 12 32  1  0  0  0  0
 12 33  1  0  0  0  0
 12 34  1  0  0  0  0
 13 35  1  0  0  0  0
 13 36  1  0  0  0  0
 13 37  1  0  0  0  0
M  END
> <Catalog ID>
Z1643563431

> <PlateID>
1337959-R-10

> <Well>
E02

> <MW (desalted)>
249.309

> <CLogP>
0.089

> <HBD>
0

> <TPSA>
47.360

> <RotBonds>
1

> <ROCS_ShapeQuery>
A71EV2A-x0451_0A_A71EV2A-x0310_0A_A71EV2A-x0416_0A_peptide

> <ROCS_TanimotoCombo>
0.430 

> <ROCS_ShapeTanimoto>
0.315 

> <ROCS_ColorTanimoto>
0.115 

> <ROCS_RefTversky>
0.279 

> <ROCS_RefColorTversky>
0.125 

> <ROCS_RefTverskyCombo>
0.404 

> <ROCS_FitTversky>
1.706 

> <ROCS_FitColorTversky>
0.599 

> <ROCS_FitTverskyCombo>
2.305 

> <ROCS_ColorScore>
-3.797

> <ROCS_Overlap>
1932.185

> <ROCS_Rank>
170                 

$$$$
untitled-dbase-1022_5
  -OEChem-11112309163D

 32 33  0     0  0  0  0  0  0999 V2000
    7.3567    9.9116   25.0079 C   0  0  0  0  0  0  0  0  0  0  0  0
    8.3412    9.4054   24.1594 C   0  0  0  0  0  0  0  0  0  0  0  0
    8.4116   12.0840   24.9360 C   0  0  0  0  0  0  0  0  0  0  0  0
    7.3918   11.2509   25.3962 C   0  0  0  0  0  0  0  0  0  0  0  0
    9.3962   11.5778   24.0875 C   0  0  0  0  0  0  0  0  0  0  0  0
    9.3610   10.2385   23.6992 C   0  0  0  0  0  0  0  0  0  0  0  0
    8.9002   14.8952   21.6309 C   0  0  0  0  0  0  0  0  0  0  0  0
   11.3415   14.8520   20.9948 C   0  0  0  0  0  0  0  0  0  0  0  0
    8.8856   13.3715   21.5842 C   0  0  0  0  0  0  0  0  0  0  0  0
   11.2811   13.3290   20.9596 C   0  0  0  0  0  0  0  0  0  0  0  0
    9.9710   15.4694   20.6982 C   0  0  0  0  0  0  0  0  0  0  0  0
   10.2360   12.8260   21.8935 N   0  0  0  0  0  0  0  0  0  0  0  0
   10.0204   16.9069   20.8043 N   0  0  0  0  0  0  0  0  0  0  0  0
   10.4571   13.9518   24.1955 O   0  0  0  0  0  0  0  0  0  0  0  0
   11.9288   11.9851   23.6354 O   0  0  0  0  0  0  0  0  0  0  0  0
    6.4471   11.7373   26.2120 F   0  0  0  0  0  0  0  0  0  0  0  0
   10.6626   12.6786   23.5400 S   0  0  0  0  0  0  0  0  0  0  0  0
   10.5569    9.5619   22.6532 Cl  0  0  0  0  0  0  0  0  0  0  0  0
    6.5632    9.2637   25.3682 H   0  0  0  0  0  0  0  0  0  0  0  0
    8.2977    8.3598   23.8654 H   0  0  0  0  0  0  0  0  0  0  0  0
    8.4274   13.1251   25.2471 H   0  0  0  0  0  0  0  0  0  0  0  0
    7.9249   15.2688   21.3091 H   0  0  0  0  0  0  0  0  0  0  0  0
    9.0540   15.2356   22.6561 H   0  0  0  0  0  0  0  0  0  0  0  0
   11.7173   15.1878   21.9639 H   0  0  0  0  0  0  0  0  0  0  0  0
   12.0500   15.1983   20.2365 H   0  0  0  0  0  0  0  0  0  0  0  0
    8.1499   12.9610   22.2918 H   0  0  0  0  0  0  0  0  0  0  0  0
    8.5874   13.0529   20.5748 H   0  0  0  0  0  0  0  0  0  0  0  0
   11.0353   13.0110   19.9354 H   0  0  0  0  0  0  0  0  0  0  0  0
   12.2548   12.8855   21.2181 H   0  0  0  0  0  0  0  0  0  0  0  0
    9.6949   15.2139   19.6562 H   0  0  0  0  0  0  0  0  0  0  0  0
   10.7020   17.2373   20.1654 H   0  0  0  0  0  0  0  0  0  0  0  0
    9.1225   17.2604   20.5790 H   0  0  0  0  0  0  0  0  0  0  0  0
  1  2  1  0  0  0  0
  1  4  2  0  0  0  0
  2  6  2  0  0  0  0
  3  4  1  0  0  0  0
  3  5  2  0  0  0  0
  4 16  1  0  0  0  0
  5  6  1  0  0  0  0
  5 17  1  0  0  0  0
  6 18  1  0  0  0  0
  7  9  1  0  0  0  0
  7 11  1  0  0  0  0
  8 10  1  0  0  0  0
  8 11  1  0  0  0  0
  9 12  1  0  0  0  0
 10 12  1  0  0  0  0
 11 13  1  0  0  0  0
 12 17  1  0  0  0  0
 14 17  2  0  0  0  0
 15 17  2  0  0  0  0
  1 19  1  0  0  0  0
  2 20  1  0  0  0  0
  3 21  1  0  0  0  0
  7 22  1  0  0  0  0
  7 23  1  0  0  0  0
  8 24  1  0  0  0  0
  8 25  1  0  0  0  0
  9 26  1  0  0  0  0
  9 27  1  0  0  0  0
 10 28  1  0  0  0  0
 10 29  1  0  0  0  0
 11 30  1  0  0  0  0
 13 31  1  0  0  0  0
 13 32  1  0  0  0  0
M  END
> <Catalog ID>
Z2242856087

> <PlateID>
1337959-R-13

> <Well>
G07

> <MW (desalted)>
292.757

> <CLogP>
1.099

> <HBD>
1

> <TPSA>
63.400

> <RotBonds>
1

> <ROCS_ShapeQuery>
A71EV2A-x0451_0A_A71EV2A-x0310_0A_A71EV2A-x0416_0A_peptide

> <ROCS_TanimotoCombo>
0.430 

> <ROCS_ShapeTanimoto>
0.287 

> <ROCS_ColorTanimoto>
0.143 

> <ROCS_RefTversky>
0.258 

> <ROCS_RefColorTversky>
0.155 

> <ROCS_RefTverskyCombo>
0.413 

> <ROCS_FitTversky>
1.648 

> <ROCS_FitColorTversky>
0.649 

> <ROCS_FitTverskyCombo>
2.296 

> <ROCS_ColorScore>
-4.728

> <ROCS_Overlap>
1786.903

> <ROCS_Rank>
171                 

$$$$
untitled-dbase-944_40
  -OEChem-11112309163D

 38 39  0     1  0  0  0  0  0999 V2000
    8.2298   12.3648   23.6755 C   0  0  0  0  0  0  0  0  0  0  0  0
    9.4953   10.3890   24.2040 C   0  0  0  0  0  0  0  0  0  0  0  0
    7.1499   11.7791   24.3165 C   0  0  0  0  0  0  0  0  0  0  0  0
    8.3589    9.8919   24.8215 C   0  0  0  0  0  0  0  0  0  0  0  0
    9.4212   11.6499   23.6226 C   0  0  0  0  0  0  0  0  0  0  0  0
   11.1510   13.4300   23.3980 C   0  0  0  0  0  0  0  0  0  0  0  0
   13.4706   15.0664   24.6930 C   0  0  0  0  0  0  0  0  0  0  0  0
   13.5519   13.8438   23.7810 C   0  0  0  0  0  0  0  0  0  0  0  0
   13.3150   16.3439   23.8813 C   0  0  0  0  0  0  0  0  0  0  0  0
   12.4355   13.8393   22.7330 C   0  0  2  0  0  0  0  0  0  0  0  0
   12.3249   15.2089   22.0466 C   0  0  1  0  0  0  0  0  0  0  0  0
   11.1528   15.3004   21.0756 C   0  0  0  0  0  0  0  0  0  0  0  0
   10.6522   11.8115   20.5559 C   0  0  0  0  0  0  0  0  0  0  0  0
   11.1857   11.4139   21.8900 C   0  0  0  0  0  0  0  0  0  0  0  0
    7.1839   10.5567   24.8929 N   0  0  0  0  0  0  0  0  0  0  0  0
   10.5810   12.2167   22.9641 N   0  0  0  0  0  0  0  0  0  0  0  0
   10.7059   14.1577   24.2891 O   0  0  0  0  0  0  0  0  0  0  0  0
   12.1876   16.2580   23.0111 O   0  0  0  0  0  0  0  0  0  0  0  0
    8.1378   13.3507   23.2322 H   0  0  0  0  0  0  0  0  0  0  0  0
   10.4089    9.8044   24.1807 H   0  0  0  0  0  0  0  0  0  0  0  0
    6.1980   12.2952   24.3854 H   0  0  0  0  0  0  0  0  0  0  0  0
    8.3648    8.9136   25.2906 H   0  0  0  0  0  0  0  0  0  0  0  0
   12.6052   14.9558   25.3575 H   0  0  0  0  0  0  0  0  0  0  0  0
   14.3619   15.1253   25.3266 H   0  0  0  0  0  0  0  0  0  0  0  0
   14.5204   13.8541   23.2651 H   0  0  0  0  0  0  0  0  0  0  0  0
   13.5246   12.9310   24.3881 H   0  0  0  0  0  0  0  0  0  0  0  0
   13.1537   17.1933   24.5526 H   0  0  0  0  0  0  0  0  0  0  0  0
   14.2160   16.5550   23.2934 H   0  0  0  0  0  0  0  0  0  0  0  0
   12.6519   13.0686   21.9830 H   0  0  0  0  0  0  0  0  0  0  0  0
   13.2431   15.3943   21.4729 H   0  0  0  0  0  0  0  0  0  0  0  0
   10.2171   15.1221   21.6047 H   0  0  0  0  0  0  0  0  0  0  0  0
   11.2630   14.5546   20.2889 H   0  0  0  0  0  0  0  0  0  0  0  0
   11.1214   16.2912   20.6234 H   0  0  0  0  0  0  0  0  0  0  0  0
   10.8742   12.8732   20.3732 H   0  0  0  0  0  0  0  0  0  0  0  0
   11.1250   11.1984   19.7745 H   0  0  0  0  0  0  0  0  0  0  0  0
    9.5634   11.6558   20.5353 H   0  0  0  0  0  0  0  0  0  0  0  0
   10.9598   10.3517   22.0650 H   0  0  0  0  0  0  0  0  0  0  0  0
   12.2754   11.5635   21.9000 H   0  0  0  0  0  0  0  0  0  0  0  0
  1  3  1  0  0  0  0
  1  5  2  0  0  0  0
  2  4  2  0  0  0  0
  2  5  1  0  0  0  0
  3 15  2  0  0  0  0
  4 15  1  0  0  0  0
  5 16  1  0  0  0  0
  6 10  1  0  0  0  0
  6 16  1  0  0  0  0
  6 17  2  0  0  0  0
  7  8  1  0  0  0  0
  7  9  1  0  0  0  0
  8 10  1  0  0  0  0
  9 18  1  0  0  0  0
 10 11  1  0  0  0  0
 11 12  1  0  0  0  0
 11 18  1  0  0  0  0
 13 14  1  0  0  0  0
 14 16  1  0  0  0  0
  1 19  1  0  0  0  0
  2 20  1  0  0  0  0
  3 21  1  0  0  0  0
  4 22  1  0  0  0  0
  7 23  1  0  0  0  0
  7 24  1  0  0  0  0
  8 25  1  0  0  0  0
  8 26  1  0  0  0  0
  9 27  1  0  0  0  0
  9 28  1  0  0  0  0
 10 29  1  0  0  0  0
 11 30  1  0  0  0  0
 12 31  1  0  0  0  0
 12 32  1  0  0  0  0
 12 33  1  0  0  0  0
 13 34  1  0  0  0  0
 13 35  1  0  0  0  0
 13 36  1  0  0  0  0
 14 37  1  0  0  0  0
 14 38  1  0  0  0  0
M  END
> <Catalog ID>
Z1839854449

> <PlateID>
1337959-R-12

> <Well>
G08

> <MW (desalted)>
248.321

> <CLogP>
1.226

> <HBD>
0

> <TPSA>
42.430

> <RotBonds>
3

> <ROCS_ShapeQuery>
A71EV2A-x0451_0A_A71EV2A-x0310_0A_A71EV2A-x0416_0A_peptide

> <ROCS_TanimotoCombo>
0.430 

> <ROCS_ShapeTanimoto>
0.266 

> <ROCS_ColorTanimoto>
0.164 

> <ROCS_RefTversky>
0.244 

> <ROCS_RefColorTversky>
0.170 

> <ROCS_RefTverskyCombo>
0.414 

> <ROCS_FitTversky>
1.516 

> <ROCS_FitColorTversky>
0.815 

> <ROCS_FitTverskyCombo>
2.330 

> <ROCS_ColorScore>
-5.161

> <ROCS_Overlap>
1694.144

> <ROCS_Rank>
172                 

$$$$
untitled-dbase-669_218
  -OEChem-11112309163D

 30 30  0     0  0  0  0  0  0999 V2000
    7.3093   11.5544   24.1669 C   0  0  0  0  0  0  0  0  0  0  0  0
    8.4106   12.4077   24.0999 C   0  0  0  0  0  0  0  0  0  0  0  0
    9.8529   10.5136   23.6882 C   0  0  0  0  0  0  0  0  0  0  0  0
    7.4797   10.1807   23.9946 C   0  0  0  0  0  0  0  0  0  0  0  0
    8.7515    9.6604   23.7553 C   0  0  0  0  0  0  0  0  0  0  0  0
    9.6825   11.8873   23.8605 C   0  0  0  0  0  0  0  0  0  0  0  0
    6.2855    9.2874   24.0741 C   0  0  0  0  0  0  0  0  0  0  0  0
    8.9583    8.1930   23.5695 C   0  0  0  0  0  0  0  0  0  0  0  0
   10.3742   14.5284   21.6208 C   0  0  0  0  0  0  0  0  0  0  0  0
   11.2756   15.7492   21.6500 C   0  0  0  0  0  0  0  0  0  0  0  0
   11.1133   13.3580   22.1153 N   0  0  0  0  0  0  0  0  0  0  0  0
   10.7644   14.1637   24.5372 O   0  0  0  0  0  0  0  0  0  0  0  0
   12.2473   12.1792   24.1046 O   0  0  0  0  0  0  0  0  0  0  0  0
   11.6745   16.0097   22.9897 O   0  0  0  0  0  0  0  0  0  0  0  0
   11.0600   12.9567   23.7758 S   0  0  0  0  0  0  0  0  0  0  0  0
    6.3225   11.9687   24.3568 H   0  0  0  0  0  0  0  0  0  0  0  0
    8.2667   13.4762   24.2353 H   0  0  0  0  0  0  0  0  0  0  0  0
   10.8445   10.1074   23.5026 H   0  0  0  0  0  0  0  0  0  0  0  0
    5.8333    9.1686   23.0826 H   0  0  0  0  0  0  0  0  0  0  0  0
    6.5572    8.2954   24.4555 H   0  0  0  0  0  0  0  0  0  0  0  0
    5.5297    9.6958   24.7565 H   0  0  0  0  0  0  0  0  0  0  0  0
    9.1559    7.7121   24.5346 H   0  0  0  0  0  0  0  0  0  0  0  0
    8.0760    7.7223   23.1185 H   0  0  0  0  0  0  0  0  0  0  0  0
    9.8040    7.9936   22.8997 H   0  0  0  0  0  0  0  0  0  0  0  0
    9.4931   14.6704   22.2544 H   0  0  0  0  0  0  0  0  0  0  0  0
   10.0494   14.3192   20.5971 H   0  0  0  0  0  0  0  0  0  0  0  0
   10.7319   16.6253   21.2829 H   0  0  0  0  0  0  0  0  0  0  0  0
   12.1715   15.6028   21.0379 H   0  0  0  0  0  0  0  0  0  0  0  0
   11.2835   12.6106   21.4313 H   0  0  0  0  0  0  0  0  0  0  0  0
   10.8623   16.1675   23.4974 H   0  0  0  0  0  0  0  0  0  0  0  0
  1  2  1  0  0  0  0
  1  4  2  0  0  0  0
  2  6  2  0  0  0  0
  3  5  2  0  0  0  0
  3  6  1  0  0  0  0
  4  5  1  0  0  0  0
  4  7  1  0  0  0  0
  5  8  1  0  0  0  0
  6 15  1  0  0  0  0
  9 10  1  0  0  0  0
  9 11  1  0  0  0  0
 10 14  1  0  0  0  0
 11 15  1  0  0  0  0
 12 15  2  0  0  0  0
 13 15  2  0  0  0  0
  1 16  1  0  0  0  0
  2 17  1  0  0  0  0
  3 18  1  0  0  0  0
  7 19  1  0  0  0  0
  7 20  1  0  0  0  0
  7 21  1  0  0  0  0
  8 22  1  0  0  0  0
  8 23  1  0  0  0  0
  8 24  1  0  0  0  0
  9 25  1  0  0  0  0
  9 26  1  0  0  0  0
 10 27  1  0  0  0  0
 10 28  1  0  0  0  0
 11 29  1  0  0  0  0
 14 30  1  0  0  0  0
M  END
> <Catalog ID>
Z425750170

> <PlateID>
1337959-R-09

> <Well>
D02

> <MW (desalted)>
229.296

> <CLogP>
1.292

> <HBD>
2

> <TPSA>
66.400

> <RotBonds>
3

> <ROCS_ShapeQuery>
A71EV2A-x0451_0A_A71EV2A-x0310_0A_A71EV2A-x0416_0A_peptide

> <ROCS_TanimotoCombo>
0.430 

> <ROCS_ShapeTanimoto>
0.272 

> <ROCS_ColorTanimoto>
0.158 

> <ROCS_RefTversky>
0.243 

> <ROCS_RefColorTversky>
0.169 

> <ROCS_RefTverskyCombo>
0.412 

> <ROCS_FitTversky>
1.777 

> <ROCS_FitColorTversky>
0.704 

> <ROCS_FitTverskyCombo>
2.481 

> <ROCS_ColorScore>
-5.135

> <ROCS_Overlap>
1683.857

> <ROCS_Rank>
173                 

$$$$
untitled-dbase-815_10
  -OEChem-11112309163D

 29 29  0     1  0  0  0  0  0999 V2000
    9.1626   10.4067   23.2401 C   0  0  0  0  0  0  0  0  0  0  0  0
    8.9424   11.7943   23.1517 C   0  0  0  0  0  0  0  0  0  0  0  0
    8.0600   12.0673   24.1682 C   0  0  0  0  0  0  0  0  0  0  0  0
    7.4386   13.3321   24.6047 C   0  0  0  0  0  0  0  0  0  0  0  0
    9.1864   12.4175   20.7136 C   0  0  0  0  0  0  0  0  0  0  0  0
    6.9466   10.6387   25.9103 C   0  0  0  0  0  0  0  0  0  0  0  0
   11.6600   15.4542   22.4183 C   0  0  0  0  0  0  0  0  0  0  0  0
    9.5456   12.7629   22.1574 C   0  0  2  0  0  0  0  0  0  0  0  0
    8.4756    9.8379   24.2343 N   0  0  0  0  0  0  0  0  0  0  0  0
    7.8152   10.8732   24.7801 N   0  0  0  0  0  0  0  0  0  0  0  0
   11.0077   12.8553   22.3202 N   0  0  0  0  0  0  0  0  0  0  0  0
   13.0294   13.6479   23.7268 O   0  0  0  0  0  0  0  0  0  0  0  0
   10.6885   14.1952   24.4862 O   0  0  0  0  0  0  0  0  0  0  0  0
   11.6530   13.9873   23.4233 S   0  0  0  0  0  0  0  0  0  0  0  0
    9.7945    9.7840   22.6230 H   0  0  0  0  0  0  0  0  0  0  0  0
    6.4829   13.5069   24.0833 H   0  0  0  0  0  0  0  0  0  0  0  0
    7.2342   13.3410   25.6893 H   0  0  0  0  0  0  0  0  0  0  0  0
    8.0894   14.2023   24.4110 H   0  0  0  0  0  0  0  0  0  0  0  0
    9.5408   11.4156   20.4477 H   0  0  0  0  0  0  0  0  0  0  0  0
    8.1000   12.4419   20.5720 H   0  0  0  0  0  0  0  0  0  0  0  0
    9.6197   13.1292   20.0019 H   0  0  0  0  0  0  0  0  0  0  0  0
    5.9473   10.4158   25.5272 H   0  0  0  0  0  0  0  0  0  0  0  0
    7.3287    9.7970   26.4946 H   0  0  0  0  0  0  0  0  0  0  0  0
    6.9250   11.5319   26.5409 H   0  0  0  0  0  0  0  0  0  0  0  0
   12.0588   16.2774   23.0133 H   0  0  0  0  0  0  0  0  0  0  0  0
   12.2908   15.2716   21.5470 H   0  0  0  0  0  0  0  0  0  0  0  0
   10.6348   15.6659   22.1110 H   0  0  0  0  0  0  0  0  0  0  0  0
    9.1667   13.7716   22.3628 H   0  0  0  0  0  0  0  0  0  0  0  0
   11.5349   12.7005   21.4511 H   0  0  0  0  0  0  0  0  0  0  0  0
  1  2  1  0  0  0  0
  1  9  2  0  0  0  0
  2  3  2  0  0  0  0
  2  8  1  0  0  0  0
  3  4  1  0  0  0  0
  3 10  1  0  0  0  0
  5  8  1  0  0  0  0
  6 10  1  0  0  0  0
  7 14  1  0  0  0  0
  8 11  1  0  0  0  0
  9 10  1  0  0  0  0
 11 14  1  0  0  0  0
 12 14  2  0  0  0  0
 13 14  2  0  0  0  0
  1 15  1  0  0  0  0
  4 16  1  0  0  0  0
  4 17  1  0  0  0  0
  4 18  1  0  0  0  0
  5 19  1  0  0  0  0
  5 20  1  0  0  0  0
  5 21  1  0  0  0  0
  6 22  1  0  0  0  0
  6 23  1  0  0  0  0
  6 24  1  0  0  0  0
  7 25  1  0  0  0  0
  7 26  1  0  0  0  0
  7 27  1  0  0  0  0
  8 28  1  0  0  0  0
 11 29  1  0  0  0  0
M  END
> <Catalog ID>
Z369263636

> <PlateID>
1337959-R-11

> <Well>
B08

> <MW (desalted)>
217.289

> <CLogP>
-0.547

> <HBD>
1

> <TPSA>
63.990

> <RotBonds>
2

> <ROCS_ShapeQuery>
A71EV2A-x0451_0A_A71EV2A-x0310_0A_A71EV2A-x0416_0A_peptide

> <ROCS_TanimotoCombo>
0.429 

> <ROCS_ShapeTanimoto>
0.250 

> <ROCS_ColorTanimoto>
0.180 

> <ROCS_RefTversky>
0.226 

> <ROCS_RefColorTversky>
0.184 

> <ROCS_RefTverskyCombo>
0.410 

> <ROCS_FitTversky>
1.710 

> <ROCS_FitColorTversky>
0.882 

> <ROCS_FitTverskyCombo>
2.592 

> <ROCS_ColorScore>
-5.594

> <ROCS_Overlap>
1566.231

> <ROCS_Rank>
174                 

$$$$
untitled-dbase-1183_72
  -OEChem-11112309163D

 45 46  0     1  0  0  0  0  0999 V2000
   10.2498   14.4305   23.1976 C   0  0  0  0  0  0  0  0  0  0  0  0
   12.3192   14.5034   19.7333 C   0  0  0  0  0  0  0  0  0  0  0  0
   10.8631   14.8261   19.3439 C   0  0  0  0  0  0  0  0  0  0  0  0
   12.1478   15.4475   20.9395 C   0  0  0  0  0  0  0  0  0  0  0  0
    7.9468   11.9123   24.6987 C   0  0  0  0  0  0  0  0  0  0  0  0
    9.9583   11.1439   23.4315 C   0  0  0  0  0  0  0  0  0  0  0  0
    7.2492   10.6142   24.2937 C   0  0  0  0  0  0  0  0  0  0  0  0
    8.9933   12.3082   23.6601 C   0  0  2  0  0  0  0  0  0  0  0  0
    9.2072    9.8474   23.0591 C   0  0  1  0  0  0  0  0  0  0  0  0
   10.6137   15.2319   20.8228 C   0  0  0  0  0  0  0  0  0  0  0  0
   10.2462    8.7348   22.8567 C   0  0  0  0  0  0  0  0  0  0  0  0
    7.4736    8.2815   23.8001 C   0  0  0  0  0  0  0  0  0  0  0  0
    9.8729   13.6412   25.5564 C   0  0  0  0  0  0  0  0  0  0  0  0
   10.0214   14.1553   21.7180 C   0  0  0  0  0  0  0  0  0  0  0  0
    8.2094    9.5131   24.1014 N   0  0  2  0  0  0  0  0  0  0  0  0
    9.8424   16.4667   20.9630 N   0  0  0  0  0  0  0  0  0  0  0  0
    9.7235   13.4925   24.1039 N   0  0  0  0  0  0  0  0  0  0  0  0
   10.8686   15.4354   23.5580 O   0  0  0  0  0  0  0  0  0  0  0  0
   12.4781   13.4559   20.0134 H   0  0  0  0  0  0  0  0  0  0  0  0
   13.0808   14.7959   19.0062 H   0  0  0  0  0  0  0  0  0  0  0  0
   10.7915   15.6341   18.6048 H   0  0  0  0  0  0  0  0  0  0  0  0
   10.2844   13.9733   18.9760 H   0  0  0  0  0  0  0  0  0  0  0  0
   12.6114   15.0992   21.8675 H   0  0  0  0  0  0  0  0  0  0  0  0
   12.5065   16.4646   20.7367 H   0  0  0  0  0  0  0  0  0  0  0  0
    7.1984   12.7071   24.8025 H   0  0  0  0  0  0  0  0  0  0  0  0
    8.4178   11.7805   25.6820 H   0  0  0  0  0  0  0  0  0  0  0  0
   10.6590   11.4053   22.6281 H   0  0  0  0  0  0  0  0  0  0  0  0
   10.5584   10.9748   24.3365 H   0  0  0  0  0  0  0  0  0  0  0  0
    6.5419   10.3531   25.0908 H   0  0  0  0  0  0  0  0  0  0  0  0
    6.6612   10.7803   23.3810 H   0  0  0  0  0  0  0  0  0  0  0  0
    8.5102   12.5820   22.7260 H   0  0  0  0  0  0  0  0  0  0  0  0
    8.6952   10.0091   22.1002 H   0  0  0  0  0  0  0  0  0  0  0  0
   10.7683    8.5543   23.7916 H   0  0  0  0  0  0  0  0  0  0  0  0
   10.9585    9.0405   22.0961 H   0  0  0  0  0  0  0  0  0  0  0  0
    9.7439    7.8256   22.5396 H   0  0  0  0  0  0  0  0  0  0  0  0
    8.1848    7.4550   23.6553 H   0  0  0  0  0  0  0  0  0  0  0  0
    6.7999    8.0432   24.6364 H   0  0  0  0  0  0  0  0  0  0  0  0
    6.8835    8.4223   22.8826 H   0  0  0  0  0  0  0  0  0  0  0  0
    9.0221   14.2122   25.9565 H   0  0  0  0  0  0  0  0  0  0  0  0
    9.9001   12.6467   26.0257 H   0  0  0  0  0  0  0  0  0  0  0  0
   10.8088   14.1759   25.7757 H   0  0  0  0  0  0  0  0  0  0  0  0
   10.4811   13.1943   21.4633 H   0  0  0  0  0  0  0  0  0  0  0  0
    8.9434   14.0980   21.5327 H   0  0  0  0  0  0  0  0  0  0  0  0
   10.3471   17.1969   20.5210 H   0  0  0  0  0  0  0  0  0  0  0  0
    8.9627   16.3309   20.5257 H   0  0  0  0  0  0  0  0  0  0  0  0
  1 14  1  0  0  0  0
  1 17  1  0  0  0  0
  1 18  2  0  0  0  0
  2  3  1  0  0  0  0
  2  4  1  0  0  0  0
  3 10  1  0  0  0  0
  4 10  1  0  0  0  0
  5  7  1  0  0  0  0
  5  8  1  0  0  0  0
  6  8  1  0  0  0  0
  6  9  1  0  0  0  0
  7 15  1  0  0  0  0
  8 17  1  0  0  0  0
  9 11  1  0  0  0  0
  9 15  1  0  0  0  0
 10 14  1  0  0  0  0
 10 16  1  0  0  0  0
 12 15  1  0  0  0  0
 13 17  1  0  0  0  0
  2 19  1  0  0  0  0
  2 20  1  0  0  0  0
  3 21  1  0  0  0  0
  3 22  1  0  0  0  0
  4 23  1  0  0  0  0
  4 24  1  0  0  0  0
  5 25  1  0  0  0  0
  5 26  1  0  0  0  0
  6 27  1  0  0  0  0
  6 28  1  0  0  0  0
  7 29  1  0  0  0  0
  7 30  1  0  0  0  0
  8 31  1  0  0  0  0
  9 32  1  0  0  0  0
 11 33  1  0  0  0  0
 11 34  1  0  0  0  0
 11 35  1  0  0  0  0
 12 36  1  0  0  0  0
 12 37  1  0  0  0  0
 12 38  1  0  0  0  0
 13 39  1  0  0  0  0
 13 40  1  0  0  0  0
 13 41  1  0  0  0  0
 14 42  1  0  0  0  0
 14 43  1  0  0  0  0
 16 44  1  0  0  0  0
 16 45  1  0  0  0  0
M  END
> <Catalog ID>
Z2417925967

> <PlateID>
1337959-R-15

> <Well>
G09

> <MW (desalted)>
253.384

> <CLogP>
0.380

> <HBD>
1

> <TPSA>
49.570

> <RotBonds>
3

> <ROCS_ShapeQuery>
A71EV2A-x0451_0A_A71EV2A-x0310_0A_A71EV2A-x0416_0A_peptide

> <ROCS_TanimotoCombo>
0.429 

> <ROCS_ShapeTanimoto>
0.280 

> <ROCS_ColorTanimoto>
0.149 

> <ROCS_RefTversky>
0.253 

> <ROCS_RefColorTversky>
0.161 

> <ROCS_RefTverskyCombo>
0.414 

> <ROCS_FitTversky>
1.607 

> <ROCS_FitColorTversky>
0.673 

> <ROCS_FitTverskyCombo>
2.280 

> <ROCS_ColorScore>
-4.900

> <ROCS_Overlap>
1754.376

> <ROCS_Rank>
175                 

$$$$
untitled-dbase-577_45
  -OEChem-11112309163D

 29 30  0     0  0  0  0  0  0999 V2000
   10.5111   16.9746   21.3425 C   0  0  0  0  0  0  0  0  0  0  0  0
   10.6910   15.7394   21.9649 C   0  0  0  0  0  0  0  0  0  0  0  0
   11.4774   17.4586   20.4606 C   0  0  0  0  0  0  0  0  0  0  0  0
   12.8037   15.4722   20.8237 C   0  0  0  0  0  0  0  0  0  0  0  0
   11.8374   14.9882   21.7055 C   0  0  0  0  0  0  0  0  0  0  0  0
   12.6237   16.7075   20.2013 C   0  0  0  0  0  0  0  0  0  0  0  0
    7.5887   10.1278   24.1036 C   0  0  0  0  0  0  0  0  0  0  0  0
    9.2309   11.5224   23.5495 C   0  0  0  0  0  0  0  0  0  0  0  0
   10.8892   13.2780   23.3037 C   0  0  0  0  0  0  0  0  0  0  0  0
    8.6392   10.2533   23.0567 C   0  0  0  0  0  0  0  0  0  0  0  0
    6.6313    8.9900   24.1337 C   0  0  0  0  0  0  0  0  0  0  0  0
   12.0305   13.6547   22.3780 C   0  0  0  0  0  0  0  0  0  0  0  0
    7.6008   11.0977   24.9667 N   0  0  0  0  0  0  0  0  0  0  0  0
    8.6574   11.9950   24.6101 N   0  0  0  0  0  0  0  0  0  0  0  0
   10.2760   12.0868   22.9050 N   0  0  0  0  0  0  0  0  0  0  0  0
   10.5561   13.9486   24.2775 O   0  0  0  0  0  0  0  0  0  0  0  0
   13.5520   17.1723   19.3549 F   0  0  0  0  0  0  0  0  0  0  0  0
    9.6182   17.5594   21.5440 H   0  0  0  0  0  0  0  0  0  0  0  0
    9.9328   15.3704   22.6507 H   0  0  0  0  0  0  0  0  0  0  0  0
   11.3374   18.4204   19.9767 H   0  0  0  0  0  0  0  0  0  0  0  0
   13.6997   14.8940   20.6149 H   0  0  0  0  0  0  0  0  0  0  0  0
    9.3552    9.4313   23.0981 H   0  0  0  0  0  0  0  0  0  0  0  0
    8.2107   10.3679   22.0601 H   0  0  0  0  0  0  0  0  0  0  0  0
    7.0396    8.1713   24.7298 H   0  0  0  0  0  0  0  0  0  0  0  0
    6.4425    8.6305   23.1197 H   0  0  0  0  0  0  0  0  0  0  0  0
    5.6826    9.3087   24.5711 H   0  0  0  0  0  0  0  0  0  0  0  0
   12.9636   13.6647   22.9554 H   0  0  0  0  0  0  0  0  0  0  0  0
   12.1408   12.8704   21.6186 H   0  0  0  0  0  0  0  0  0  0  0  0
   10.6387   11.6134   22.0781 H   0  0  0  0  0  0  0  0  0  0  0  0
  1  2  1  0  0  0  0
  1  3  2  0  0  0  0
  2  5  2  0  0  0  0
  3  6  1  0  0  0  0
  4  5  1  0  0  0  0
  4  6  2  0  0  0  0
  5 12  1  0  0  0  0
  6 17  1  0  0  0  0
  7 10  1  0  0  0  0
  7 11  1  0  0  0  0
  7 13  2  0  0  0  0
  8 10  1  0  0  0  0
  8 14  2  0  0  0  0
  8 15  1  0  0  0  0
  9 12  1  0  0  0  0
  9 15  1  0  0  0  0
  9 16  2  0  0  0  0
 13 14  1  0  0  0  0
  1 18  1  0  0  0  0
  2 19  1  0  0  0  0
  3 20  1  0  0  0  0
  4 21  1  0  0  0  0
 10 22  1  0  0  0  0
 10 23  1  0  0  0  0
 11 24  1  0  0  0  0
 11 25  1  0  0  0  0
 11 26  1  0  0  0  0
 12 27  1  0  0  0  0
 12 28  1  0  0  0  0
 15 29  1  0  0  0  0
M  END
> <Catalog ID>
Z666222558

> <PlateID>
1337959-R-08

> <Well>
B09

> <MW (desalted)>
233.242

> <CLogP>
1.992

> <HBD>
2

> <TPSA>
57.780

> <RotBonds>
3

> <ROCS_ShapeQuery>
A71EV2A-x0451_0A_A71EV2A-x0310_0A_A71EV2A-x0416_0A_peptide

> <ROCS_TanimotoCombo>
0.429 

> <ROCS_ShapeTanimoto>
0.266 

> <ROCS_ColorTanimoto>
0.163 

> <ROCS_RefTversky>
0.243 

> <ROCS_RefColorTversky>
0.169 

> <ROCS_RefTverskyCombo>
0.412 

> <ROCS_FitTversky>
1.553 

> <ROCS_FitColorTversky>
0.811 

> <ROCS_FitTverskyCombo>
2.364 

> <ROCS_ColorScore>
-5.138

> <ROCS_Overlap>
1686.345

> <ROCS_Rank>
176                 

$$$$
untitled-dbase-767_111
  -OEChem-11112309163D

 38 39  0     1  0  0  0  0  0999 V2000
    7.5856   10.1522   24.0830 C   0  0  0  0  0  0  0  0  0  0  0  0
    8.8918    9.6737   23.9810 C   0  0  0  0  0  0  0  0  0  0  0  0
    7.3414   11.5252   24.0516 C   0  0  0  0  0  0  0  0  0  0  0  0
    9.9538   10.5681   23.8478 C   0  0  0  0  0  0  0  0  0  0  0  0
    8.4034   12.4196   23.9183 C   0  0  0  0  0  0  0  0  0  0  0  0
    9.7096   11.9411   23.8164 C   0  0  0  0  0  0  0  0  0  0  0  0
   13.4717   12.6868   21.3323 C   0  0  0  0  0  0  0  0  0  0  0  0
   13.6355   14.0914   20.7551 C   0  0  0  0  0  0  0  0  0  0  0  0
   12.0233   12.2223   21.2553 C   0  0  0  0  0  0  0  0  0  0  0  0
   12.6602   15.0949   21.4000 C   0  0  2  0  0  0  0  0  0  0  0  0
   11.2118   14.5635   21.3053 C   0  0  2  0  0  0  0  0  0  0  0  0
   12.8268   16.4647   20.7380 C   0  0  0  0  0  0  0  0  0  0  0  0
   10.1660   15.5055   21.8987 C   0  0  0  0  0  0  0  0  0  0  0  0
   11.1330   13.2012   21.9448 N   0  0  2  0  0  0  0  0  0  0  0  0
    9.8715   16.5419   20.9688 N   0  0  0  0  0  0  0  0  0  0  0  0
   10.6328   14.3433   24.2040 O   0  0  0  0  0  0  0  0  0  0  0  0
   12.2516   12.4141   24.1309 O   0  0  0  0  0  0  0  0  0  0  0  0
   11.0547   13.0732   23.6510 S   0  0  0  0  0  0  0  0  0  0  0  0
    6.7582    9.4563   24.1874 H   0  0  0  0  0  0  0  0  0  0  0  0
    9.0825    8.6048   24.0065 H   0  0  0  0  0  0  0  0  0  0  0  0
    6.3243   11.8974   24.1317 H   0  0  0  0  0  0  0  0  0  0  0  0
   10.9677   10.1847   23.7700 H   0  0  0  0  0  0  0  0  0  0  0  0
    8.2017   13.4871   23.8963 H   0  0  0  0  0  0  0  0  0  0  0  0
   14.1126   11.9875   20.7864 H   0  0  0  0  0  0  0  0  0  0  0  0
   13.8058   12.6768   22.3740 H   0  0  0  0  0  0  0  0  0  0  0  0
   14.6641   14.4281   20.9205 H   0  0  0  0  0  0  0  0  0  0  0  0
   13.4881   14.0632   19.6711 H   0  0  0  0  0  0  0  0  0  0  0  0
   11.7344   12.1516   20.2011 H   0  0  0  0  0  0  0  0  0  0  0  0
   11.9068   11.2292   21.7000 H   0  0  0  0  0  0  0  0  0  0  0  0
   12.9406   15.2014   22.4447 H   0  0  0  0  0  0  0  0  0  0  0  0
   10.9688   14.4301   20.2384 H   0  0  0  0  0  0  0  0  0  0  0  0
   12.5541   16.3947   19.6889 H   0  0  0  0  0  0  0  0  0  0  0  0
   13.8615   16.7838   20.8232 H   0  0  0  0  0  0  0  0  0  0  0  0
   12.1828   17.1860   21.2328 H   0  0  0  0  0  0  0  0  0  0  0  0
    9.2794   14.9099   22.1055 H   0  0  0  0  0  0  0  0  0  0  0  0
   10.5878   15.9167   22.8133 H   0  0  0  0  0  0  0  0  0  0  0  0
    9.5429   16.1502   20.1039 H   0  0  0  0  0  0  0  0  0  0  0  0
    9.1609   17.1484   21.3384 H   0  0  0  0  0  0  0  0  0  0  0  0
  1  2  2  0  0  0  0
  1  3  1  0  0  0  0
  2  4  1  0  0  0  0
  3  5  2  0  0  0  0
  4  6  2  0  0  0  0
  5  6  1  0  0  0  0
  6 18  1  0  0  0  0
  7  8  1  0  0  0  0
  7  9  1  0  0  0  0
  8 10  1  0  0  0  0
  9 14  1  0  0  0  0
 10 11  1  0  0  0  0
 10 12  1  0  0  0  0
 11 13  1  0  0  0  0
 11 14  1  0  0  0  0
 13 15  1  0  0  0  0
 14 18  1  0  0  0  0
 16 18  2  0  0  0  0
 17 18  2  0  0  0  0
  1 19  1  0  0  0  0
  2 20  1  0  0  0  0
  3 21  1  0  0  0  0
  4 22  1  0  0  0  0
  5 23  1  0  0  0  0
  7 24  1  0  0  0  0
  7 25  1  0  0  0  0
  8 26  1  0  0  0  0
  8 27  1  0  0  0  0
  9 28  1  0  0  0  0
  9 29  1  0  0  0  0
 10 30  1  0  0  0  0
 11 31  1  0  0  0  0
 12 32  1  0  0  0  0
 12 33  1  0  0  0  0
 12 34  1  0  0  0  0
 13 35  1  0  0  0  0
 13 36  1  0  0  0  0
 15 37  1  0  0  0  0
 15 38  1  0  0  0  0
M  END
> <Catalog ID>
Z1491322571

> <PlateID>
1337959-R-10

> <Well>
E10

> <MW (desalted)>
268.375

> <CLogP>
2.516

> <HBD>
1

> <TPSA>
63.400

> <RotBonds>
2

> <ROCS_ShapeQuery>
A71EV2A-x0451_0A_A71EV2A-x0310_0A_A71EV2A-x0416_0A_peptide

> <ROCS_TanimotoCombo>
0.429 

> <ROCS_ShapeTanimoto>
0.264 

> <ROCS_ColorTanimoto>
0.165 

> <ROCS_RefTversky>
0.242 

> <ROCS_RefColorTversky>
0.175 

> <ROCS_RefTverskyCombo>
0.417 

> <ROCS_FitTversky>
1.548 

> <ROCS_FitColorTversky>
0.732 

> <ROCS_FitTverskyCombo>
2.280 

> <ROCS_ColorScore>
-5.338

> <ROCS_Overlap>
1674.628

> <ROCS_Rank>
177                 

$$$$
untitled-dbase-903_42
  -OEChem-11112309163D

 39 40  0     1  0  0  0  0  0999 V2000
    5.8689   11.4724   25.7450 C   0  0  0  0  0  0  0  0  0  0  0  0
    6.3820   10.4105   25.0102 C   0  0  0  0  0  0  0  0  0  0  0  0
    6.6172   12.6353   25.8157 C   0  0  0  0  0  0  0  0  0  0  0  0
    7.6220   10.5383   24.3869 C   0  0  0  0  0  0  0  0  0  0  0  0
    8.3034   11.7535   24.5120 C   0  0  0  0  0  0  0  0  0  0  0  0
   10.7313   14.0838   23.2795 C   0  0  0  0  0  0  0  0  0  0  0  0
    8.2118    9.4514   23.5378 C   0  0  0  0  0  0  0  0  0  0  0  0
    9.7224    9.3100   23.7461 C   0  0  0  0  0  0  0  0  0  0  0  0
   10.4704   10.6222   24.0330 C   0  0  0  0  0  0  0  0  0  0  0  0
    9.6311   11.8865   23.7911 C   0  0  2  0  0  0  0  0  0  0  0  0
   12.7094   13.2909   27.2520 C   0  0  0  0  0  0  0  0  0  0  0  0
   13.0043   12.0517   25.0836 C   0  0  0  0  0  0  0  0  0  0  0  0
   10.7732   13.1464   25.6081 C   0  0  0  0  0  0  0  0  0  0  0  0
   12.2954   13.2131   25.7818 C   0  0  0  0  0  0  0  0  0  0  0  0
    7.8161   12.8045   25.2145 N   0  0  0  0  0  0  0  0  0  0  0  0
   10.9291   13.6779   21.9744 N   0  0  0  0  0  0  0  0  0  0  0  0
   10.3897   13.0722   24.1959 N   0  0  0  0  0  0  0  0  0  0  0  0
   10.8659   15.2698   23.5933 O   0  0  0  0  0  0  0  0  0  0  0  0
    4.9107   11.3927   26.2475 H   0  0  0  0  0  0  0  0  0  0  0  0
    5.8110    9.4937   24.9273 H   0  0  0  0  0  0  0  0  0  0  0  0
    6.2596   13.4915   26.3789 H   0  0  0  0  0  0  0  0  0  0  0  0
    7.7229    8.5079   23.7967 H   0  0  0  0  0  0  0  0  0  0  0  0
    8.0218    9.6524   22.4804 H   0  0  0  0  0  0  0  0  0  0  0  0
    9.9111    8.5867   24.5751 H   0  0  0  0  0  0  0  0  0  0  0  0
   10.1794    8.8261   22.8481 H   0  0  0  0  0  0  0  0  0  0  0  0
   10.8372   10.5965   25.0837 H   0  0  0  0  0  0  0  0  0  0  0  0
   11.3872   10.6570   23.4059 H   0  0  0  0  0  0  0  0  0  0  0  0
    9.4276   11.9817   22.7326 H   0  0  0  0  0  0  0  0  0  0  0  0
   12.4084   12.3973   27.8083 H   0  0  0  0  0  0  0  0  0  0  0  0
   13.7973   13.3847   27.3397 H   0  0  0  0  0  0  0  0  0  0  0  0
   12.2598   14.1635   27.7373 H   0  0  0  0  0  0  0  0  0  0  0  0
   12.7183   11.0852   25.5116 H   0  0  0  0  0  0  0  0  0  0  0  0
   14.0910   12.1503   25.1800 H   0  0  0  0  0  0  0  0  0  0  0  0
   12.7648   12.0359   24.0152 H   0  0  0  0  0  0  0  0  0  0  0  0
   10.3637   12.2717   26.1249 H   0  0  0  0  0  0  0  0  0  0  0  0
   10.3056   14.0371   26.0421 H   0  0  0  0  0  0  0  0  0  0  0  0
   12.6320   14.1403   25.2996 H   0  0  0  0  0  0  0  0  0  0  0  0
   11.1772   14.3585   21.2667 H   0  0  0  0  0  0  0  0  0  0  0  0
   10.8269   12.7003   21.7217 H   0  0  0  0  0  0  0  0  0  0  0  0
  1  2  1  0  0  0  0
  1  3  2  0  0  0  0
  2  4  2  0  0  0  0
  3 15  1  0  0  0  0
  4  5  1  0  0  0  0
  4  7  1  0  0  0  0
  5 10  1  0  0  0  0
  5 15  2  0  0  0  0
  6 16  1  0  0  0  0
  6 17  1  0  0  0  0
  6 18  2  0  0  0  0
  7  8  1  0  0  0  0
  8  9  1  0  0  0  0
  9 10  1  0  0  0  0
 10 17  1  0  0  0  0
 11 14  1  0  0  0  0
 12 14  1  0  0  0  0
 13 14  1  0  0  0  0
 13 17  1  0  0  0  0
  1 19  1  0  0  0  0
  2 20  1  0  0  0  0
  3 21  1  0  0  0  0
  7 22  1  0  0  0  0
  7 23  1  0  0  0  0
  8 24  1  0  0  0  0
  8 25  1  0  0  0  0
  9 26  1  0  0  0  0
  9 27  1  0  0  0  0
 10 28  1  0  0  0  0
 11 29  1  0  0  0  0
 11 30  1  0  0  0  0
 11 31  1  0  0  0  0
 12 32  1  0  0  0  0
 12 33  1  0  0  0  0
 12 34  1  0  0  0  0
 13 35  1  0  0  0  0
 13 36  1  0  0  0  0
 14 37  1  0  0  0  0
 16 38  1  0  0  0  0
 16 39  1  0  0  0  0
M  END
> <Catalog ID>
Z1728432545

> <PlateID>
1337959-R-12

> <Well>
C07

> <MW (desalted)>
247.336

> <CLogP>
1.213

> <HBD>
1

> <TPSA>
59.220

> <RotBonds>
3

> <ROCS_ShapeQuery>
A71EV2A-x0451_0A_A71EV2A-x0310_0A_A71EV2A-x0416_0A_peptide

> <ROCS_TanimotoCombo>
0.429 

> <ROCS_ShapeTanimoto>
0.303 

> <ROCS_ColorTanimoto>
0.126 

> <ROCS_RefTversky>
0.270 

> <ROCS_RefColorTversky>
0.139 

> <ROCS_RefTverskyCombo>
0.408 

> <ROCS_FitTversky>
1.680 

> <ROCS_FitColorTversky>
0.580 

> <ROCS_FitTverskyCombo>
2.260 

> <ROCS_ColorScore>
-4.225

> <ROCS_Overlap>
1869.263

> <ROCS_Rank>
178                 

$$$$
untitled-dbase-728_31
  -OEChem-11112309163D

 32 33  0     1  0  0  0  0  0999 V2000
    7.5103   11.3672   24.8601 C   0  0  0  0  0  0  0  0  0  0  0  0
    8.4141   12.3250   24.4004 C   0  0  0  0  0  0  0  0  0  0  0  0
    8.8554    9.6222   23.8688 C   0  0  0  0  0  0  0  0  0  0  0  0
    7.7310   10.0157   24.5943 C   0  0  0  0  0  0  0  0  0  0  0  0
    9.5385   11.9315   23.6749 C   0  0  0  0  0  0  0  0  0  0  0  0
    9.7592   10.5801   23.4090 C   0  0  0  0  0  0  0  0  0  0  0  0
    8.4817   14.8243   20.2661 C   0  0  0  0  0  0  0  0  0  0  0  0
    8.5684   14.0388   21.5667 C   0  0  0  0  0  0  0  0  0  0  0  0
   10.7873   14.3606   20.6457 C   0  0  0  0  0  0  0  0  0  0  0  0
    9.8558   15.4682   20.1571 C   0  0  2  0  0  0  0  0  0  0  0  0
    6.7644    8.9923   25.0865 C   0  0  0  0  0  0  0  0  0  0  0  0
    9.9743   13.5482   21.6007 N   0  0  1  0  0  0  0  0  0  0  0  0
    9.9570   16.6472   20.9846 N   0  0  0  0  0  0  0  0  0  0  0  0
   10.4908   14.3313   24.0021 O   0  0  0  0  0  0  0  0  0  0  0  0
   11.9516   12.5768   22.9366 O   0  0  0  0  0  0  0  0  0  0  0  0
   10.6483   13.1901   23.1185 S   0  0  0  0  0  0  0  0  0  0  0  0
   11.1359   10.0410   22.5164 Cl  0  0  0  0  0  0  0  0  0  0  0  0
    6.6375   11.6820   25.4257 H   0  0  0  0  0  0  0  0  0  0  0  0
    8.2310   13.3744   24.6159 H   0  0  0  0  0  0  0  0  0  0  0  0
    9.0204    8.5662   23.6658 H   0  0  0  0  0  0  0  0  0  0  0  0
    8.2378   14.1868   19.4091 H   0  0  0  0  0  0  0  0  0  0  0  0
    7.6966   15.5888   20.3484 H   0  0  0  0  0  0  0  0  0  0  0  0
    8.3251   14.6653   22.4250 H   0  0  0  0  0  0  0  0  0  0  0  0
    7.9027   13.1738   21.5499 H   0  0  0  0  0  0  0  0  0  0  0  0
   11.1453   13.7331   19.8150 H   0  0  0  0  0  0  0  0  0  0  0  0
   11.6643   14.7761   21.1710 H   0  0  0  0  0  0  0  0  0  0  0  0
   10.0734   15.7159   19.1233 H   0  0  0  0  0  0  0  0  0  0  0  0
    5.9821    8.8147   24.3384 H   0  0  0  0  0  0  0  0  0  0  0  0
    7.2664    8.0391   25.2979 H   0  0  0  0  0  0  0  0  0  0  0  0
    6.2858    9.3131   26.0210 H   0  0  0  0  0  0  0  0  0  0  0  0
    9.0762   16.8095   21.4187 H   0  0  0  0  0  0  0  0  0  0  0  0
   10.6576   16.4934   21.6747 H   0  0  0  0  0  0  0  0  0  0  0  0
  1  2  1  0  0  0  0
  1  4  2  0  0  0  0
  2  5  2  0  0  0  0
  3  4  1  0  0  0  0
  3  6  2  0  0  0  0
  4 11  1  0  0  0  0
  5  6  1  0  0  0  0
  5 16  1  0  0  0  0
  6 17  1  0  0  0  0
  7  8  1  0  0  0  0
  7 10  1  0  0  0  0
  8 12  1  0  0  0  0
  9 10  1  0  0  0  0
  9 12  1  0  0  0  0
 10 13  1  0  0  0  0
 12 16  1  0  0  0  0
 14 16  2  0  0  0  0
 15 16  2  0  0  0  0
  1 18  1  0  0  0  0
  2 19  1  0  0  0  0
  3 20  1  0  0  0  0
  7 21  1  0  0  0  0
  7 22  1  0  0  0  0
  8 23  1  0  0  0  0
  8 24  1  0  0  0  0
  9 25  1  0  0  0  0
  9 26  1  0  0  0  0
 10 27  1  0  0  0  0
 11 28  1  0  0  0  0
 11 29  1  0  0  0  0
 11 30  1  0  0  0  0
 13 31  1  0  0  0  0
 13 32  1  0  0  0  0
M  END
> <Catalog ID>
Z1491270977

> <PlateID>
1337959-R-10

> <Well>
A11

> <MW (desalted)>
274.767

> <CLogP>
1.731

> <HBD>
1

> <TPSA>
63.400

> <RotBonds>
1

> <ROCS_ShapeQuery>
A71EV2A-x0451_0A_A71EV2A-x0310_0A_A71EV2A-x0416_0A_peptide

> <ROCS_TanimotoCombo>
0.429 

> <ROCS_ShapeTanimoto>
0.268 

> <ROCS_ColorTanimoto>
0.161 

> <ROCS_RefTversky>
0.243 

> <ROCS_RefColorTversky>
0.172 

> <ROCS_RefTverskyCombo>
0.415 

> <ROCS_FitTversky>
1.615 

> <ROCS_FitColorTversky>
0.716 

> <ROCS_FitTverskyCombo>
2.331 

> <ROCS_ColorScore>
-5.219

> <ROCS_Overlap>
1685.405

> <ROCS_Rank>
179                 

$$$$
untitled-dbase-180_3
  -OEChem-11112309163D

 33 35  0     1  0  0  0  0  0999 V2000
   10.0714   13.6169   23.5060 C   0  0  0  0  0  0  0  0  0  0  0  0
    9.4940    9.4530   24.4429 C   0  0  0  0  0  0  0  0  0  0  0  0
    7.8971   10.0169   22.5851 C   0  0  0  0  0  0  0  0  0  0  0  0
   10.0710   11.2531   22.7934 C   0  0  0  0  0  0  0  0  0  0  0  0
    9.5055   11.8559   25.1609 C   0  0  0  0  0  0  0  0  0  0  0  0
    7.9073   12.4191   23.3063 C   0  0  0  0  0  0  0  0  0  0  0  0
    9.3835    9.8864   22.9686 C   0  0  0  0  0  0  0  0  0  0  0  0
    8.8110   10.4916   25.3516 C   0  0  1  0  0  0  0  0  0  0  0  0
    7.2073   11.0570   23.4870 C   0  0  2  0  0  0  0  0  0  0  0  0
    7.3248   10.5952   24.9542 C   0  0  0  0  0  0  0  0  0  0  0  0
    9.3860   12.2918   23.6936 C   0  0  0  0  0  0  0  0  0  0  0  0
    6.3273   10.8938   27.0610 C   0  0  0  0  0  0  0  0  0  0  0  0
   10.6284   14.2504   24.3903 O   0  0  0  0  0  0  0  0  0  0  0  0
    9.9867   14.0212   22.2150 O   0  0  0  0  0  0  0  0  0  0  0  0
    6.6583   11.5055   25.8227 O   0  0  0  0  0  0  0  0  0  0  0  0
    9.0265    8.4702   24.5799 H   0  0  0  0  0  0  0  0  0  0  0  0
   10.5492    9.3464   24.7232 H   0  0  0  0  0  0  0  0  0  0  0  0
    7.8073   10.3149   21.5333 H   0  0  0  0  0  0  0  0  0  0  0  0
    7.3985    9.0450   22.6853 H   0  0  0  0  0  0  0  0  0  0  0  0
   11.1375   11.1700   23.0406 H   0  0  0  0  0  0  0  0  0  0  0  0
   10.0227   11.5629   21.7411 H   0  0  0  0  0  0  0  0  0  0  0  0
    9.0588   12.6075   25.8245 H   0  0  0  0  0  0  0  0  0  0  0  0
   10.5604   11.7777   25.4562 H   0  0  0  0  0  0  0  0  0  0  0  0
    7.8079   12.7495   22.2638 H   0  0  0  0  0  0  0  0  0  0  0  0
    7.4123   13.1857   23.9163 H   0  0  0  0  0  0  0  0  0  0  0  0
    9.8681    9.1427   22.3264 H   0  0  0  0  0  0  0  0  0  0  0  0
    8.8981   10.1938   26.4028 H   0  0  0  0  0  0  0  0  0  0  0  0
    6.1522   11.1607   23.2086 H   0  0  0  0  0  0  0  0  0  0  0  0
    6.8417    9.6186   25.0803 H   0  0  0  0  0  0  0  0  0  0  0  0
    5.8185   11.6182   27.7016 H   0  0  0  0  0  0  0  0  0  0  0  0
    7.2387   10.5378   27.5478 H   0  0  0  0  0  0  0  0  0  0  0  0
    5.6626   10.0472   26.8729 H   0  0  0  0  0  0  0  0  0  0  0  0
   10.4270   14.8861   22.0723 H   0  0  0  0  0  0  0  0  0  0  0  0
  1 11  1  0  0  0  0
  1 13  2  0  0  0  0
  1 14  1  0  0  0  0
  2  7  1  0  0  0  0
  2  8  1  0  0  0  0
  3  7  1  0  0  0  0
  3  9  1  0  0  0  0
  4  7  1  0  0  0  0
  4 11  1  0  0  0  0
  5  8  1  0  0  0  0
  5 11  1  0  0  0  0
  6  9  1  0  0  0  0
  6 11  1  0  0  0  0
  8 10  1  0  0  0  0
  9 10  1  0  0  0  0
 10 15  1  0  0  0  0
 12 15  1  0  0  0  0
  2 16  1  0  0  0  0
  2 17  1  0  0  0  0
  3 18  1  0  0  0  0
  3 19  1  0  0  0  0
  4 20  1  0  0  0  0
  4 21  1  0  0  0  0
  5 22  1  0  0  0  0
  5 23  1  0  0  0  0
  6 24  1  0  0  0  0
  6 25  1  0  0  0  0
  7 26  1  0  0  0  0
  8 27  1  0  0  0  0
  9 28  1  0  0  0  0
 10 29  1  0  0  0  0
 12 30  1  0  0  0  0
 12 31  1  0  0  0  0
 12 32  1  0  0  0  0
 14 33  1  0  0  0  0
M  END
> <Catalog ID>
Z1508949671

> <PlateID>
1337959-R-03

> <Well>
C02

> <MW (desalted)>
210.270

> <CLogP>
1.094

> <HBD>
1

> <TPSA>
46.530

> <RotBonds>
2

> <ROCS_ShapeQuery>
A71EV2A-x0451_0A_A71EV2A-x0310_0A_A71EV2A-x0416_0A_peptide

> <ROCS_TanimotoCombo>
0.428 

> <ROCS_ShapeTanimoto>
0.258 

> <ROCS_ColorTanimoto>
0.171 

> <ROCS_RefTversky>
0.235 

> <ROCS_RefColorTversky>
0.201 

> <ROCS_RefTverskyCombo>
0.435 

> <ROCS_FitTversky>
1.614 

> <ROCS_FitColorTversky>
0.533 

> <ROCS_FitTverskyCombo>
2.147 

> <ROCS_ColorScore>
-6.156

> <ROCS_Overlap>
1625.352

> <ROCS_Rank>
180                 

$$$$
untitled-dbase-740_82
  -OEChem-11112309163D

 35 36  0     0  0  0  0  0  0999 V2000
    7.5957   11.4855   24.0579 C   0  0  0  0  0  0  0  0  0  0  0  0
    8.3697   12.3078   23.3465 C   0  0  0  0  0  0  0  0  0  0  0  0
    8.1081   10.1502   24.4257 C   0  0  0  0  0  0  0  0  0  0  0  0
   10.2152   10.7307   23.2276 C   0  0  0  0  0  0  0  0  0  0  0  0
   10.8850   14.0689   23.0694 C   0  0  0  0  0  0  0  0  0  0  0  0
   12.6349   15.2541   18.8612 C   0  0  0  0  0  0  0  0  0  0  0  0
   13.9026   15.7225   19.5810 C   0  0  0  0  0  0  0  0  0  0  0  0
   11.5646   15.1144   19.9404 C   0  0  0  0  0  0  0  0  0  0  0  0
   13.5308   15.8394   21.0568 C   0  0  0  0  0  0  0  0  0  0  0  0
   12.3668   14.8682   21.2125 C   0  0  0  0  0  0  0  0  0  0  0  0
   11.5908   16.4858   22.9250 C   0  0  0  0  0  0  0  0  0  0  0  0
   10.3826   12.9659   22.1546 C   0  0  0  0  0  0  0  0  0  0  0  0
    9.3908    9.8791   23.9753 N   0  0  0  0  0  0  0  0  0  0  0  0
    9.6535   11.9917   22.9152 N   0  0  0  0  0  0  0  0  0  0  0  0
   11.5943   15.1064   22.4186 N   0  0  0  0  0  0  0  0  0  0  0  0
    7.4220    9.3704   25.0794 O   0  0  0  0  0  0  0  0  0  0  0  0
   11.3450   10.3802   22.8806 O   0  0  0  0  0  0  0  0  0  0  0  0
   10.6694   14.0294   24.2837 O   0  0  0  0  0  0  0  0  0  0  0  0
    6.5992   11.7671   24.3750 H   0  0  0  0  0  0  0  0  0  0  0  0
    8.0129   13.2932   23.0655 H   0  0  0  0  0  0  0  0  0  0  0  0
   12.3249   15.9576   18.0819 H   0  0  0  0  0  0  0  0  0  0  0  0
   12.8182   14.2873   18.3781 H   0  0  0  0  0  0  0  0  0  0  0  0
   14.7009   14.9836   19.4459 H   0  0  0  0  0  0  0  0  0  0  0  0
   14.2673   16.6757   19.1850 H   0  0  0  0  0  0  0  0  0  0  0  0
   10.9927   16.0483   20.0119 H   0  0  0  0  0  0  0  0  0  0  0  0
   10.8639   14.3029   19.7211 H   0  0  0  0  0  0  0  0  0  0  0  0
   14.3726   15.5977   21.7131 H   0  0  0  0  0  0  0  0  0  0  0  0
   13.2156   16.8681   21.2725 H   0  0  0  0  0  0  0  0  0  0  0  0
   12.7265   13.8381   21.2536 H   0  0  0  0  0  0  0  0  0  0  0  0
   12.4257   16.6209   23.6283 H   0  0  0  0  0  0  0  0  0  0  0  0
   11.7034   17.1854   22.0836 H   0  0  0  0  0  0  0  0  0  0  0  0
   10.6403   16.6841   23.4420 H   0  0  0  0  0  0  0  0  0  0  0  0
    9.7023   13.3757   21.4037 H   0  0  0  0  0  0  0  0  0  0  0  0
   11.2227   12.4520   21.6804 H   0  0  0  0  0  0  0  0  0  0  0  0
    9.7750    8.9685   24.2115 H   0  0  0  0  0  0  0  0  0  0  0  0
  1  2  2  0  0  0  0
  1  3  1  0  0  0  0
  2 14  1  0  0  0  0
  3 13  1  0  0  0  0
  3 16  2  0  0  0  0
  4 13  1  0  0  0  0
  4 14  1  0  0  0  0
  4 17  2  0  0  0  0
  5 12  1  0  0  0  0
  5 15  1  0  0  0  0
  5 18  2  0  0  0  0
  6  7  1  0  0  0  0
  6  8  1  0  0  0  0
  7  9  1  0  0  0  0
  8 10  1  0  0  0  0
  9 10  1  0  0  0  0
 10 15  1  0  0  0  0
 11 15  1  0  0  0  0
 12 14  1  0  0  0  0
  1 19  1  0  0  0  0
  2 20  1  0  0  0  0
  6 21  1  0  0  0  0
  6 22  1  0  0  0  0
  7 23  1  0  0  0  0
  7 24  1  0  0  0  0
  8 25  1  0  0  0  0
  8 26  1  0  0  0  0
  9 27  1  0  0  0  0
  9 28  1  0  0  0  0
 10 29  1  0  0  0  0
 11 30  1  0  0  0  0
 11 31  1  0  0  0  0
 11 32  1  0  0  0  0
 12 33  1  0  0  0  0
 12 34  1  0  0  0  0
 13 35  1  0  0  0  0
M  END
> <Catalog ID>
Z191832368

> <PlateID>
1337959-R-10

> <Well>
C03

> <MW (desalted)>
251.282

> <CLogP>
0.161

> <HBD>
1

> <TPSA>
69.720

> <RotBonds>
3

> <ROCS_ShapeQuery>
A71EV2A-x0451_0A_A71EV2A-x0310_0A_A71EV2A-x0416_0A_peptide

> <ROCS_TanimotoCombo>
0.428 

> <ROCS_ShapeTanimoto>
0.293 

> <ROCS_ColorTanimoto>
0.135 

> <ROCS_RefTversky>
0.263 

> <ROCS_RefColorTversky>
0.148 

> <ROCS_RefTverskyCombo>
0.411 

> <ROCS_FitTversky>
1.627 

> <ROCS_FitColorTversky>
0.616 

> <ROCS_FitTverskyCombo>
2.243 

> <ROCS_ColorScore>
-4.490

> <ROCS_Overlap>
1827.030

> <ROCS_Rank>
181                 

$$$$
untitled-dbase-1028_227
  -OEChem-11112309163D

 42 43  0     1  0  0  0  0  0999 V2000
   10.7895   13.7519   23.0417 C   0  0  0  0  0  0  0  0  0  0  0  0
   12.3718   15.5736   22.1693 C   0  0  0  0  0  0  0  0  0  0  0  0
   12.8611   14.2674   21.6202 C   0  0  0  0  0  0  0  0  0  0  0  0
    7.7389    9.9150   24.9131 C   0  0  0  0  0  0  0  0  0  0  0  0
    9.4348   10.2309   23.0492 C   0  0  0  0  0  0  0  0  0  0  0  0
    8.4740   12.2810   24.2344 C   0  0  0  0  0  0  0  0  0  0  0  0
   11.4072   14.4703   21.8881 C   0  0  0  0  0  0  0  0  0  0  0  0
    8.0810    9.6155   23.4513 C   0  0  1  0  0  0  0  0  0  0  0  0
    7.5688   11.4311   25.1690 C   0  0  0  0  0  0  0  0  0  0  0  0
    9.7566   11.5873   23.7264 C   0  0  1  0  0  0  0  0  0  0  0  0
    8.0773    8.1099   23.1857 C   0  0  0  0  0  0  0  0  0  0  0  0
    7.8613   11.7379   26.6505 C   0  0  0  0  0  0  0  0  0  0  0  0
    6.0979   11.8318   24.9100 C   0  0  0  0  0  0  0  0  0  0  0  0
   10.7791   11.3812   24.8570 C   0  0  0  0  0  0  0  0  0  0  0  0
   10.3841   12.4688   22.7445 N   0  0  0  0  0  0  0  0  0  0  0  0
   10.6892   14.3193   24.1232 O   0  0  0  0  0  0  0  0  0  0  0  0
   12.0617   11.2769   24.2752 O   0  0  0  0  0  0  0  0  0  0  0  0
   12.6225   15.8142   23.1953 H   0  0  0  0  0  0  0  0  0  0  0  0
   12.3523   16.4263   21.5015 H   0  0  0  0  0  0  0  0  0  0  0  0
   13.1715   14.2408   20.5827 H   0  0  0  0  0  0  0  0  0  0  0  0
   13.4424   13.6320   22.2773 H   0  0  0  0  0  0  0  0  0  0  0  0
    6.8274    9.3865   25.1964 H   0  0  0  0  0  0  0  0  0  0  0  0
    8.5407    9.5328   25.5491 H   0  0  0  0  0  0  0  0  0  0  0  0
   10.2367    9.5113   23.2937 H   0  0  0  0  0  0  0  0  0  0  0  0
    9.4766   10.3446   21.9516 H   0  0  0  0  0  0  0  0  0  0  0  0
    7.8854   12.6520   23.3843 H   0  0  0  0  0  0  0  0  0  0  0  0
    8.7787   13.1796   24.7903 H   0  0  0  0  0  0  0  0  0  0  0  0
   10.7451   14.5743   21.0483 H   0  0  0  0  0  0  0  0  0  0  0  0
    7.2954   10.0508   22.8014 H   0  0  0  0  0  0  0  0  0  0  0  0
    8.8340    7.6273   23.8005 H   0  0  0  0  0  0  0  0  0  0  0  0
    8.2947    7.9222   22.1364 H   0  0  0  0  0  0  0  0  0  0  0  0
    7.1005    7.6972   23.4291 H   0  0  0  0  0  0  0  0  0  0  0  0
    7.7400   12.8007   26.8208 H   0  0  0  0  0  0  0  0  0  0  0  0
    8.8778   11.4408   26.8777 H   0  0  0  0  0  0  0  0  0  0  0  0
    7.1666   11.1827   27.2690 H   0  0  0  0  0  0  0  0  0  0  0  0
    5.9819   12.8947   25.0902 H   0  0  0  0  0  0  0  0  0  0  0  0
    5.4541   11.2735   25.5803 H   0  0  0  0  0  0  0  0  0  0  0  0
    5.8431   11.6037   23.8811 H   0  0  0  0  0  0  0  0  0  0  0  0
   10.5432   10.4671   25.3939 H   0  0  0  0  0  0  0  0  0  0  0  0
   10.7485   12.2327   25.5304 H   0  0  0  0  0  0  0  0  0  0  0  0
   10.5274   12.1216   21.8044 H   0  0  0  0  0  0  0  0  0  0  0  0
   12.0446   10.5126   23.6725 H   0  0  0  0  0  0  0  0  0  0  0  0
  1  7  1  0  0  0  0
  1 15  1  0  0  0  0
  1 16  2  0  0  0  0
  2  3  1  0  0  0  0
  2  7  1  0  0  0  0
  3  7  1  0  0  0  0
  4  8  1  0  0  0  0
  4  9  1  0  0  0  0
  5  8  1  0  0  0  0
  5 10  1  0  0  0  0
  6  9  1  0  0  0  0
  6 10  1  0  0  0  0
  8 11  1  0  0  0  0
  9 12  1  0  0  0  0
  9 13  1  0  0  0  0
 10 14  1  0  0  0  0
 10 15  1  0  0  0  0
 14 17  1  0  0  0  0
  2 18  1  0  0  0  0
  2 19  1  0  0  0  0
  3 20  1  0  0  0  0
  3 21  1  0  0  0  0
  4 22  1  0  0  0  0
  4 23  1  0  0  0  0
  5 24  1  0  0  0  0
  5 25  1  0  0  0  0
  6 26  1  0  0  0  0
  6 27  1  0  0  0  0
  7 28  1  0  0  0  0
  8 29  1  0  0  0  0
 11 30  1  0  0  0  0
 11 31  1  0  0  0  0
 11 32  1  0  0  0  0
 12 33  1  0  0  0  0
 12 34  1  0  0  0  0
 12 35  1  0  0  0  0
 13 36  1  0  0  0  0
 13 37  1  0  0  0  0
 13 38  1  0  0  0  0
 14 39  1  0  0  0  0
 14 40  1  0  0  0  0
 15 41  1  0  0  0  0
 17 42  1  0  0  0  0
M  END
> <Catalog ID>
Z1680943511

> <PlateID>
1337959-R-13

> <Well>
H03

> <MW (desalted)>
239.354

> <CLogP>
2.757

> <HBD>
2

> <TPSA>
49.330

> <RotBonds>
3

> <ROCS_ShapeQuery>
A71EV2A-x0451_0A_A71EV2A-x0310_0A_A71EV2A-x0416_0A_peptide

> <ROCS_TanimotoCombo>
0.428 

> <ROCS_ShapeTanimoto>
0.302 

> <ROCS_ColorTanimoto>
0.127 

> <ROCS_RefTversky>
0.267 

> <ROCS_RefColorTversky>
0.139 

> <ROCS_RefTverskyCombo>
0.406 

> <ROCS_FitTversky>
1.767 

> <ROCS_FitColorTversky>
0.581 

> <ROCS_FitTverskyCombo>
2.348 

> <ROCS_ColorScore>
-4.236

> <ROCS_Overlap>
1849.674

> <ROCS_Rank>
182                 

$$$$
untitled-dbase-876_219
  -OEChem-11112309163D

 35 36  0     1  0  0  0  0  0999 V2000
   11.5186   14.7715   22.1650 C   0  0  0  0  0  0  0  0  0  0  0  0
   12.3291   15.5371   23.0210 C   0  0  0  0  0  0  0  0  0  0  0  0
   11.1980   15.6408   21.1563 C   0  0  0  0  0  0  0  0  0  0  0  0
   10.3411   13.1008   23.5965 C   0  0  0  0  0  0  0  0  0  0  0  0
    8.2308   12.1221   24.4383 C   0  0  0  0  0  0  0  0  0  0  0  0
    9.4527   10.8962   22.6907 C   0  0  0  0  0  0  0  0  0  0  0  0
    8.0225   10.7971   25.1568 C   0  0  0  0  0  0  0  0  0  0  0  0
    9.1938    9.6107   23.4805 C   0  0  2  0  0  0  0  0  0  0  0  0
   12.9684   15.1194   24.2802 C   0  0  0  0  0  0  0  0  0  0  0  0
   10.3924   15.5310   19.9331 C   0  0  0  0  0  0  0  0  0  0  0  0
    9.0734    8.4108   22.5523 C   0  0  0  0  0  0  0  0  0  0  0  0
   11.0996   13.3393   22.3154 C   0  0  0  0  0  0  0  0  0  0  0  0
   12.4983   16.7857   22.5770 N   0  0  0  0  0  0  0  0  0  0  0  0
    9.4185   12.0569   23.5878 N   0  0  0  0  0  0  0  0  0  0  0  0
   10.5653   13.8180   24.5747 O   0  0  0  0  0  0  0  0  0  0  0  0
   11.7768   16.8463   21.3908 O   0  0  0  0  0  0  0  0  0  0  0  0
    7.9651    9.7259   24.2114 O   0  0  0  0  0  0  0  0  0  0  0  0
    7.3837   12.3298   23.7739 H   0  0  0  0  0  0  0  0  0  0  0  0
    8.3049   12.9411   25.1597 H   0  0  0  0  0  0  0  0  0  0  0  0
   10.3997   10.8223   22.1526 H   0  0  0  0  0  0  0  0  0  0  0  0
    8.6594   11.0608   21.9510 H   0  0  0  0  0  0  0  0  0  0  0  0
    8.8173   10.6039   25.8869 H   0  0  0  0  0  0  0  0  0  0  0  0
    7.0713   10.8124   25.6979 H   0  0  0  0  0  0  0  0  0  0  0  0
   10.0131    9.4264   24.1890 H   0  0  0  0  0  0  0  0  0  0  0  0
   13.9761   14.7071   24.1004 H   0  0  0  0  0  0  0  0  0  0  0  0
   13.0745   15.9573   24.9922 H   0  0  0  0  0  0  0  0  0  0  0  0
   12.3825   14.3464   24.8091 H   0  0  0  0  0  0  0  0  0  0  0  0
    9.3366   15.7994   20.1185 H   0  0  0  0  0  0  0  0  0  0  0  0
   10.7621   16.1895   19.1248 H   0  0  0  0  0  0  0  0  0  0  0  0
   10.4028   14.5079   19.5125 H   0  0  0  0  0  0  0  0  0  0  0  0
    8.2649    8.5699   21.8379 H   0  0  0  0  0  0  0  0  0  0  0  0
    8.8613    7.5105   23.1300 H   0  0  0  0  0  0  0  0  0  0  0  0
   10.0051    8.2668   22.0041 H   0  0  0  0  0  0  0  0  0  0  0  0
   10.4676   13.0419   21.4767 H   0  0  0  0  0  0  0  0  0  0  0  0
   11.9675   12.6784   22.3008 H   0  0  0  0  0  0  0  0  0  0  0  0
  1  2  1  0  0  0  0
  1  3  2  0  0  0  0
  1 12  1  0  0  0  0
  2  9  1  0  0  0  0
  2 13  2  0  0  0  0
  3 10  1  0  0  0  0
  3 16  1  0  0  0  0
  4 12  1  0  0  0  0
  4 14  1  0  0  0  0
  4 15  2  0  0  0  0
  5  7  1  0  0  0  0
  5 14  1  0  0  0  0
  6  8  1  0  0  0  0
  6 14  1  0  0  0  0
  7 17  1  0  0  0  0
  8 11  1  0  0  0  0
  8 17  1  0  0  0  0
 13 16  1  0  0  0  0
  5 18  1  0  0  0  0
  5 19  1  0  0  0  0
  6 20  1  0  0  0  0
  6 21  1  0  0  0  0
  7 22  1  0  0  0  0
  7 23  1  0  0  0  0
  8 24  1  0  0  0  0
  9 25  1  0  0  0  0
  9 26  1  0  0  0  0
  9 27  1  0  0  0  0
 10 28  1  0  0  0  0
 10 29  1  0  0  0  0
 10 30  1  0  0  0  0
 11 31  1  0  0  0  0
 11 32  1  0  0  0  0
 11 33  1  0  0  0  0
 12 34  1  0  0  0  0
 12 35  1  0  0  0  0
M  END
> <Catalog ID>
Z212852844

> <PlateID>
1337959-R-11

> <Well>
H10

> <MW (desalted)>
238.283

> <CLogP>
0.181

> <HBD>
0

> <TPSA>
55.570

> <RotBonds>
2

> <ROCS_ShapeQuery>
A71EV2A-x0451_0A_A71EV2A-x0310_0A_A71EV2A-x0416_0A_peptide

> <ROCS_TanimotoCombo>
0.428 

> <ROCS_ShapeTanimoto>
0.281 

> <ROCS_ColorTanimoto>
0.148 

> <ROCS_RefTversky>
0.253 

> <ROCS_RefColorTversky>
0.156 

> <ROCS_RefTverskyCombo>
0.409 

> <ROCS_FitTversky>
1.632 

> <ROCS_FitColorTversky>
0.746 

> <ROCS_FitTverskyCombo>
2.377 

> <ROCS_ColorScore>
-4.723

> <ROCS_Overlap>
1755.030

> <ROCS_Rank>
183                 

$$$$
untitled-dbase-905_6
  -OEChem-11112309163D

 37 39  0     1  0  0  0  0  0999 V2000
    6.9695   12.6511   25.8073 C   0  0  0  0  0  0  0  0  0  0  0  0
    6.8398   11.3953   26.3783 C   0  0  0  0  0  0  0  0  0  0  0  0
    7.7262   12.8039   24.6480 C   0  0  0  0  0  0  0  0  0  0  0  0
    7.4829   10.3032   25.7969 C   0  0  0  0  0  0  0  0  0  0  0  0
    8.3732   11.7068   24.0338 C   0  0  0  0  0  0  0  0  0  0  0  0
    8.2721   10.4316   24.6329 C   0  0  0  0  0  0  0  0  0  0  0  0
   10.0115    9.6703   22.0098 C   0  0  0  0  0  0  0  0  0  0  0  0
    9.0664   10.8351   21.7180 C   0  0  0  0  0  0  0  0  0  0  0  0
    9.8238   14.7559   22.2154 C   0  0  0  0  0  0  0  0  0  0  0  0
   10.1821    9.3269   23.4797 C   0  0  0  0  0  0  0  0  0  0  0  0
   10.4006   16.1128   22.5518 C   0  0  0  0  0  0  0  0  0  0  0  0
   11.8228   14.4888   23.4280 C   0  0  0  0  0  0  0  0  0  0  0  0
    9.0972   11.9969   22.7248 C   0  0  2  0  0  0  0  0  0  0  0  0
   10.4374   13.8853   23.2877 C   0  0  2  0  0  0  0  0  0  0  0  0
    8.9207    9.2873   24.1831 N   0  0  0  0  0  0  0  0  0  0  0  0
   10.4569   12.4933   22.9482 N   0  0  0  0  0  0  0  0  0  0  0  0
   11.7096   15.8791   23.0885 O   0  0  0  0  0  0  0  0  0  0  0  0
    6.4773   13.5090   26.2549 H   0  0  0  0  0  0  0  0  0  0  0  0
    6.2479   11.2618   27.2787 H   0  0  0  0  0  0  0  0  0  0  0  0
    7.7991   13.7963   24.2067 H   0  0  0  0  0  0  0  0  0  0  0  0
    7.3801    9.3310   26.2773 H   0  0  0  0  0  0  0  0  0  0  0  0
    9.6533    8.7882   21.4639 H   0  0  0  0  0  0  0  0  0  0  0  0
   11.0015    9.8965   21.5939 H   0  0  0  0  0  0  0  0  0  0  0  0
    9.3095   11.2181   20.7176 H   0  0  0  0  0  0  0  0  0  0  0  0
    8.0401   10.4503   21.6438 H   0  0  0  0  0  0  0  0  0  0  0  0
    8.7372   14.7777   22.3462 H   0  0  0  0  0  0  0  0  0  0  0  0
   10.0331   14.4435   21.1911 H   0  0  0  0  0  0  0  0  0  0  0  0
   10.6526    8.3388   23.5503 H   0  0  0  0  0  0  0  0  0  0  0  0
   10.8758   10.0153   23.9761 H   0  0  0  0  0  0  0  0  0  0  0  0
   10.5103   16.7355   21.6588 H   0  0  0  0  0  0  0  0  0  0  0  0
    9.7959   16.6554   23.2826 H   0  0  0  0  0  0  0  0  0  0  0  0
   12.1638   14.4338   24.4680 H   0  0  0  0  0  0  0  0  0  0  0  0
   12.5849   14.0169   22.7995 H   0  0  0  0  0  0  0  0  0  0  0  0
    8.5413   12.8069   22.2311 H   0  0  0  0  0  0  0  0  0  0  0  0
    9.8692   13.9970   24.2576 H   0  0  0  0  0  0  0  0  0  0  0  0
    8.6554    8.4041   24.6059 H   0  0  0  0  0  0  0  0  0  0  0  0
   10.9989   12.3572   22.0985 H   0  0  0  0  0  0  0  0  0  0  0  0
  1  2  2  0  0  0  0
  1  3  1  0  0  0  0
  2  4  1  0  0  0  0
  3  5  2  0  0  0  0
  4  6  2  0  0  0  0
  5  6  1  0  0  0  0
  5 13  1  0  0  0  0
  6 15  1  0  0  0  0
  7  8  1  0  0  0  0
  7 10  1  0  0  0  0
  8 13  1  0  0  0  0
  9 11  1  0  0  0  0
  9 14  1  0  0  0  0
 10 15  1  0  0  0  0
 11 17  1  0  0  0  0
 12 14  1  0  0  0  0
 12 17  1  0  0  0  0
 13 16  1  0  0  0  0
 14 16  1  0  0  0  0
  1 18  1  0  0  0  0
  2 19  1  0  0  0  0
  3 20  1  0  0  0  0
  4 21  1  0  0  0  0
  7 22  1  0  0  0  0
  7 23  1  0  0  0  0
  8 24  1  0  0  0  0
  8 25  1  0  0  0  0
  9 26  1  0  0  0  0
  9 27  1  0  0  0  0
 10 28  1  0  0  0  0
 10 29  1  0  0  0  0
 11 30  1  0  0  0  0
 11 31  1  0  0  0  0
 12 32  1  0  0  0  0
 12 33  1  0  0  0  0
 13 34  1  0  0  0  0
 14 35  1  0  0  0  0
 15 36  1  0  0  0  0
 16 37  1  0  0  0  0
M  END
> <Catalog ID>
Z1895942371

> <PlateID>
1337959-R-12

> <Well>
C09

> <MW (desalted)>
232.321

> <CLogP>
1.507

> <HBD>
2

> <TPSA>
33.290

> <RotBonds>
2

> <ROCS_ShapeQuery>
A71EV2A-x0451_0A_A71EV2A-x0310_0A_A71EV2A-x0416_0A_peptide

> <ROCS_TanimotoCombo>
0.428 

> <ROCS_ShapeTanimoto>
0.296 

> <ROCS_ColorTanimoto>
0.132 

> <ROCS_RefTversky>
0.264 

> <ROCS_RefColorTversky>
0.149 

> <ROCS_RefTverskyCombo>
0.412 

> <ROCS_FitTversky>
1.693 

> <ROCS_FitColorTversky>
0.550 

> <ROCS_FitTverskyCombo>
2.243 

> <ROCS_ColorScore>
-4.526

> <ROCS_Overlap>
1829.167

> <ROCS_Rank>
184                 

$$$$
untitled-dbase-923_71
  -OEChem-11112309163D

 38 41  0     1  0  0  0  0  0999 V2000
    7.6073   10.0059   23.9834 C   0  0  0  0  0  0  0  0  0  0  0  0
    7.5972   11.1451   24.7607 C   0  0  0  0  0  0  0  0  0  0  0  0
    9.3690   11.5897   23.5470 C   0  0  0  0  0  0  0  0  0  0  0  0
   11.0772   13.4209   23.3169 C   0  0  0  0  0  0  0  0  0  0  0  0
    6.0690   12.8138   26.0843 C   0  0  0  0  0  0  0  0  0  0  0  0
    6.9340   12.1316   27.0976 C   0  0  0  0  0  0  0  0  0  0  0  0
   10.8038   15.0163   20.7526 C   0  0  0  0  0  0  0  0  0  0  0  0
   13.2802   15.4595   20.8866 C   0  0  0  0  0  0  0  0  0  0  0  0
   12.4159   13.0234   21.1614 C   0  0  0  0  0  0  0  0  0  0  0  0
   10.8647   15.4192   19.2782 C   0  0  0  0  0  0  0  0  0  0  0  0
   13.2426   15.8408   19.4068 C   0  0  0  0  0  0  0  0  0  0  0  0
    6.5352   11.3952   25.8366 C   0  0  0  0  0  0  0  0  0  0  0  0
   12.2625   13.7018   22.4978 C   0  0  1  0  0  0  0  0  0  0  0  0
   12.1514   14.5093   21.2175 C   0  0  0  0  0  0  0  0  0  0  0  0
    8.6069   12.0543   24.5121 N   0  0  0  0  0  0  0  0  0  0  0  0
   11.9361   16.3875   19.0303 N   0  0  0  0  0  0  0  0  0  0  0  0
   10.5126   12.1980   22.9773 N   0  0  0  0  0  0  0  0  0  0  0  0
   10.7023   14.2158   24.1727 O   0  0  0  0  0  0  0  0  0  0  0  0
    8.9292   10.0655   22.8923 S   0  0  0  0  0  0  0  0  0  0  0  0
    6.9248    9.1678   23.9999 H   0  0  0  0  0  0  0  0  0  0  0  0
    5.0252   12.9658   26.3309 H   0  0  0  0  0  0  0  0  0  0  0  0
    6.5106   13.6142   25.5029 H   0  0  0  0  0  0  0  0  0  0  0  0
    7.9578   12.4715   27.1973 H   0  0  0  0  0  0  0  0  0  0  0  0
    6.4745   11.8223   28.0286 H   0  0  0  0  0  0  0  0  0  0  0  0
   10.5179   15.8820   21.3634 H   0  0  0  0  0  0  0  0  0  0  0  0
   10.0213   14.2595   20.8826 H   0  0  0  0  0  0  0  0  0  0  0  0
   14.2554   15.0166   21.1221 H   0  0  0  0  0  0  0  0  0  0  0  0
   13.1813   16.3597   21.5066 H   0  0  0  0  0  0  0  0  0  0  0  0
   13.4066   12.6841   20.8811 H   0  0  0  0  0  0  0  0  0  0  0  0
   11.6219   12.3695   20.8193 H   0  0  0  0  0  0  0  0  0  0  0  0
   11.0118   14.5331   18.6483 H   0  0  0  0  0  0  0  0  0  0  0  0
    9.9077   15.8660   18.9879 H   0  0  0  0  0  0  0  0  0  0  0  0
   14.0133   16.5937   19.2093 H   0  0  0  0  0  0  0  0  0  0  0  0
   13.4748   14.9688   18.7829 H   0  0  0  0  0  0  0  0  0  0  0  0
    5.7922   10.6101   25.9417 H   0  0  0  0  0  0  0  0  0  0  0  0
   13.1726   13.8229   23.0778 H   0  0  0  0  0  0  0  0  0  0  0  0
   11.9470   16.6278   18.0394 H   0  0  0  0  0  0  0  0  0  0  0  0
   10.9643   11.6678   22.2350 H   0  0  0  0  0  0  0  0  0  0  0  0
  1  2  2  0  0  0  0
  1 19  1  0  0  0  0
  2 12  1  0  0  0  0
  2 15  1  0  0  0  0
  3 15  2  0  0  0  0
  3 17  1  0  0  0  0
  3 19  1  0  0  0  0
  4 13  1  0  0  0  0
  4 17  1  0  0  0  0
  4 18  2  0  0  0  0
  5  6  1  0  0  0  0
  5 12  1  0  0  0  0
  6 12  1  0  0  0  0
  7 10  1  0  0  0  0
  7 14  1  0  0  0  0
  8 11  1  0  0  0  0
  8 14  1  0  0  0  0
  9 13  1  0  0  0  0
  9 14  1  0  0  0  0
 10 16  1  0  0  0  0
 11 16  1  0  0  0  0
 13 14  1  0  0  0  0
  1 20  1  0  0  0  0
  5 21  1  0  0  0  0
  5 22  1  0  0  0  0
  6 23  1  0  0  0  0
  6 24  1  0  0  0  0
  7 25  1  0  0  0  0
  7 26  1  0  0  0  0
  8 27  1  0  0  0  0
  8 28  1  0  0  0  0
  9 29  1  0  0  0  0
  9 30  1  0  0  0  0
 10 31  1  0  0  0  0
 10 32  1  0  0  0  0
 11 33  1  0  0  0  0
 11 34  1  0  0  0  0
 12 35  1  0  0  0  0
 13 36  1  0  0  0  0
 16 37  1  0  0  0  0
 17 38  1  0  0  0  0
M  END
> <Catalog ID>
Z1188393130

> <PlateID>
1337959-R-12

> <Well>
E07

> <MW (desalted)>
277.385

> <CLogP>
1.496

> <HBD>
2

> <TPSA>
54.020

> <RotBonds>
3

> <ROCS_ShapeQuery>
A71EV2A-x0451_0A_A71EV2A-x0310_0A_A71EV2A-x0416_0A_peptide

> <ROCS_TanimotoCombo>
0.428 

> <ROCS_ShapeTanimoto>
0.302 

> <ROCS_ColorTanimoto>
0.126 

> <ROCS_RefTversky>
0.270 

> <ROCS_RefColorTversky>
0.142 

> <ROCS_RefTverskyCombo>
0.412 

> <ROCS_FitTversky>
1.630 

> <ROCS_FitColorTversky>
0.526 

> <ROCS_FitTverskyCombo>
2.156 

> <ROCS_ColorScore>
-4.332

> <ROCS_Overlap>
1874.911

> <ROCS_Rank>
185                 

$$$$
untitled-dbase-238_0
  -OEChem-11112309163D

 31 33  0     0  0  0  0  0  0999 V2000
    7.0574   13.1056   25.8864 C   0  0  0  0  0  0  0  0  0  0  0  0
    6.3970   11.9314   26.2753 C   0  0  0  0  0  0  0  0  0  0  0  0
    8.0748   13.0699   24.9286 C   0  0  0  0  0  0  0  0  0  0  0  0
    6.7450   10.7040   25.7113 C   0  0  0  0  0  0  0  0  0  0  0  0
    8.4175   11.8493   24.3705 C   0  0  0  0  0  0  0  0  0  0  0  0
    7.7551   10.6790   24.7619 C   0  0  0  0  0  0  0  0  0  0  0  0
    9.1719    9.9498   23.2961 C   0  0  0  0  0  0  0  0  0  0  0  0
   10.8933   11.7481   23.7936 C   0  0  0  0  0  0  0  0  0  0  0  0
    9.1711   12.1058   21.9549 C   0  0  0  0  0  0  0  0  0  0  0  0
   11.3391   13.1938   23.5648 C   0  0  0  0  0  0  0  0  0  0  0  0
    9.7075   13.5328   21.8229 C   0  0  0  0  0  0  0  0  0  0  0  0
    9.4514   11.4769   23.3307 C   0  0  0  0  0  0  0  0  0  0  0  0
    9.9234    9.0013   22.4144 C   0  0  0  0  0  0  0  0  0  0  0  0
    8.2292    9.5394   24.0974 N   0  0  0  0  0  0  0  0  0  0  0  0
   11.1226   13.6209   22.1825 N   0  0  0  0  0  0  0  0  0  0  0  0
    6.7748   14.0548   26.3356 H   0  0  0  0  0  0  0  0  0  0  0  0
    5.6091   11.9795   27.0214 H   0  0  0  0  0  0  0  0  0  0  0  0
    8.5800   13.9857   24.6343 H   0  0  0  0  0  0  0  0  0  0  0  0
    6.2345    9.7948   26.0114 H   0  0  0  0  0  0  0  0  0  0  0  0
   11.5952   11.0756   23.2900 H   0  0  0  0  0  0  0  0  0  0  0  0
   10.9857   11.5432   24.8662 H   0  0  0  0  0  0  0  0  0  0  0  0
    8.0907   12.1446   21.7754 H   0  0  0  0  0  0  0  0  0  0  0  0
    9.5945   11.4912   21.1539 H   0  0  0  0  0  0  0  0  0  0  0  0
   10.7665   13.8533   24.2292 H   0  0  0  0  0  0  0  0  0  0  0  0
   12.3905   13.3354   23.8388 H   0  0  0  0  0  0  0  0  0  0  0  0
    9.5545   13.9245   20.8110 H   0  0  0  0  0  0  0  0  0  0  0  0
    9.1352   14.1920   22.4876 H   0  0  0  0  0  0  0  0  0  0  0  0
   10.7998    8.6243   22.9408 H   0  0  0  0  0  0  0  0  0  0  0  0
   10.2415    9.5141   21.5067 H   0  0  0  0  0  0  0  0  0  0  0  0
    9.2807    8.1650   22.1397 H   0  0  0  0  0  0  0  0  0  0  0  0
   11.4348   14.5875   22.0782 H   0  0  0  0  0  0  0  0  0  0  0  0
  1  2  2  0  0  0  0
  1  3  1  0  0  0  0
  2  4  1  0  0  0  0
  3  5  2  0  0  0  0
  4  6  2  0  0  0  0
  5  6  1  0  0  0  0
  5 12  1  0  0  0  0
  6 14  1  0  0  0  0
  7 12  1  0  0  0  0
  7 13  1  0  0  0  0
  7 14  2  0  0  0  0
  8 10  1  0  0  0  0
  8 12  1  0  0  0  0
  9 11  1  0  0  0  0
  9 12  1  0  0  0  0
 10 15  1  0  0  0  0
 11 15  1  0  0  0  0
  1 16  1  0  0  0  0
  2 17  1  0  0  0  0
  3 18  1  0  0  0  0
  4 19  1  0  0  0  0
  8 20  1  0  0  0  0
  8 21  1  0  0  0  0
  9 22  1  0  0  0  0
  9 23  1  0  0  0  0
 10 24  1  0  0  0  0
 10 25  1  0  0  0  0
 11 26  1  0  0  0  0
 11 27  1  0  0  0  0
 13 28  1  0  0  0  0
 13 29  1  0  0  0  0
 13 30  1  0  0  0  0
 15 31  1  0  0  0  0
M  END
> <Catalog ID>
Z2432880664

> <PlateID>
1337959-R-03

> <Well>
H10

> <MW (desalted)>
200.280

> <CLogP>
1.645

> <HBD>
1

> <TPSA>
24.390

> <RotBonds>
0

> <ROCS_ShapeQuery>
A71EV2A-x0451_0A_A71EV2A-x0310_0A_A71EV2A-x0416_0A_peptide

> <ROCS_TanimotoCombo>
0.428 

> <ROCS_ShapeTanimoto>
0.299 

> <ROCS_ColorTanimoto>
0.129 

> <ROCS_RefTversky>
0.263 

> <ROCS_RefColorTversky>
0.142 

> <ROCS_RefTverskyCombo>
0.405 

> <ROCS_FitTversky>
1.809 

> <ROCS_FitColorTversky>
0.591 

> <ROCS_FitTverskyCombo>
2.400 

> <ROCS_ColorScore>
-4.316

> <ROCS_Overlap>
1825.273

> <ROCS_Rank>
186                 

$$$$
untitled-dbase-696_613
  -OEChem-11112309163D

 33 34  0     0  0  0  0  0  0999 V2000
   12.8350    9.9666   22.7531 C   0  0  0  0  0  0  0  0  0  0  0  0
   12.2398    9.0982   23.6680 C   0  0  0  0  0  0  0  0  0  0  0  0
   12.1654   11.1224   22.3513 C   0  0  0  0  0  0  0  0  0  0  0  0
   10.9749    9.3854   24.1811 C   0  0  0  0  0  0  0  0  0  0  0  0
    7.3780   11.7437   25.3232 C   0  0  0  0  0  0  0  0  0  0  0  0
    8.7095   11.9139   25.0254 C   0  0  0  0  0  0  0  0  0  0  0  0
   10.9005   11.4097   22.8643 C   0  0  0  0  0  0  0  0  0  0  0  0
   10.3053   10.5412   23.7792 C   0  0  0  0  0  0  0  0  0  0  0  0
    7.9314   10.0284   24.1910 C   0  0  0  0  0  0  0  0  0  0  0  0
    7.9246    8.7400   23.4652 C   0  0  0  0  0  0  0  0  0  0  0  0
   13.0044   13.8228   24.0247 C   0  0  0  0  0  0  0  0  0  0  0  0
   10.2064   12.6615   22.4113 C   0  0  0  0  0  0  0  0  0  0  0  0
    6.8997   10.5680   24.8012 N   0  0  0  0  0  0  0  0  0  0  0  0
    9.0500   10.8069   24.3002 N   0  0  0  0  0  0  0  0  0  0  0  0
   11.1626   13.7327   22.0781 N   0  0  0  0  0  0  0  0  0  0  0  0
   10.6540   14.9382   24.3102 O   0  0  0  0  0  0  0  0  0  0  0  0
   12.2995   15.9510   22.6907 O   0  0  0  0  0  0  0  0  0  0  0  0
   11.6931   14.7884   23.3104 S   0  0  0  0  0  0  0  0  0  0  0  0
   13.8201    9.7432   22.3540 H   0  0  0  0  0  0  0  0  0  0  0  0
   12.7610    8.1981   23.9808 H   0  0  0  0  0  0  0  0  0  0  0  0
   12.6381   11.7921   21.6377 H   0  0  0  0  0  0  0  0  0  0  0  0
   10.5247    8.6979   24.8930 H   0  0  0  0  0  0  0  0  0  0  0  0
    6.7395   12.4080   25.8870 H   0  0  0  0  0  0  0  0  0  0  0  0
    9.4131   12.7008   25.2615 H   0  0  0  0  0  0  0  0  0  0  0  0
    7.6662    8.8860   22.4046 H   0  0  0  0  0  0  0  0  0  0  0  0
    8.9057    8.2391   23.5076 H   0  0  0  0  0  0  0  0  0  0  0  0
    7.1987    8.0301   23.8948 H   0  0  0  0  0  0  0  0  0  0  0  0
   13.4433   14.3920   24.8457 H   0  0  0  0  0  0  0  0  0  0  0  0
   12.5819   12.8863   24.3916 H   0  0  0  0  0  0  0  0  0  0  0  0
   13.7499   13.6296   23.2519 H   0  0  0  0  0  0  0  0  0  0  0  0
    9.5970   12.4650   21.5225 H   0  0  0  0  0  0  0  0  0  0  0  0
    9.5351   13.0418   23.1884 H   0  0  0  0  0  0  0  0  0  0  0  0
   11.8530   13.4682   21.3634 H   0  0  0  0  0  0  0  0  0  0  0  0
  1  2  2  0  0  0  0
  1  3  1  0  0  0  0
  2  4  1  0  0  0  0
  3  7  2  0  0  0  0
  4  8  2  0  0  0  0
  5  6  2  0  0  0  0
  5 13  1  0  0  0  0
  6 14  1  0  0  0  0
  7  8  1  0  0  0  0
  7 12  1  0  0  0  0
  8 14  1  0  0  0  0
  9 10  1  0  0  0  0
  9 13  2  0  0  0  0
  9 14  1  0  0  0  0
 11 18  1  0  0  0  0
 12 15  1  0  0  0  0
 15 18  1  0  0  0  0
 16 18  2  0  0  0  0
 17 18  2  0  0  0  0
  1 19  1  0  0  0  0
  2 20  1  0  0  0  0
  3 21  1  0  0  0  0
  4 22  1  0  0  0  0
  5 23  1  0  0  0  0
  6 24  1  0  0  0  0
 10 25  1  0  0  0  0
 10 26  1  0  0  0  0
 10 27  1  0  0  0  0
 11 28  1  0  0  0  0
 11 29  1  0  0  0  0
 11 30  1  0  0  0  0
 12 31  1  0  0  0  0
 12 32  1  0  0  0  0
 15 33  1  0  0  0  0
M  END
> <Catalog ID>
Z972994828

> <PlateID>
1337959-R-09

> <Well>
F09

> <MW (desalted)>
265.331

> <CLogP>
1.017

> <HBD>
1

> <TPSA>
63.990

> <RotBonds>
3

> <ROCS_ShapeQuery>
A71EV2A-x0451_0A_A71EV2A-x0310_0A_A71EV2A-x0416_0A_peptide

> <ROCS_TanimotoCombo>
0.428 

> <ROCS_ShapeTanimoto>
0.280 

> <ROCS_ColorTanimoto>
0.147 

> <ROCS_RefTversky>
0.254 

> <ROCS_RefColorTversky>
0.163 

> <ROCS_RefTverskyCombo>
0.417 

> <ROCS_FitTversky>
1.581 

> <ROCS_FitColorTversky>
0.604 

> <ROCS_FitTverskyCombo>
2.185 

> <ROCS_ColorScore>
-4.975

> <ROCS_Overlap>
1761.916

> <ROCS_Rank>
187                 

$$$$
untitled-dbase-831_226
  -OEChem-11112309163D

 29 30  0     1  0  0  0  0  0999 V2000
    5.6207   12.2095   25.1116 C   0  0  0  0  0  0  0  0  0  0  0  0
    5.4649   10.8734   25.4639 C   0  0  0  0  0  0  0  0  0  0  0  0
    6.8211   12.6626   24.5569 C   0  0  0  0  0  0  0  0  0  0  0  0
    6.5012    9.9561   25.2722 C   0  0  0  0  0  0  0  0  0  0  0  0
    7.8843   11.7565   24.3525 C   0  0  0  0  0  0  0  0  0  0  0  0
    7.7042   10.4181   24.7147 C   0  0  0  0  0  0  0  0  0  0  0  0
    9.8646   10.9759   23.7730 C   0  0  0  0  0  0  0  0  0  0  0  0
   11.2283   13.3721   23.3067 C   0  0  0  0  0  0  0  0  0  0  0  0
   10.3151   14.9868   21.6416 C   0  0  0  0  0  0  0  0  0  0  0  0
   11.7029    9.7276   22.6673 C   0  0  0  0  0  0  0  0  0  0  0  0
   12.0389   12.1029   23.3698 C   0  0  0  0  0  0  0  0  0  0  0  0
    9.1266   12.0604   23.8150 N   0  0  0  0  0  0  0  0  0  0  0  0
   11.0553   13.7977   21.9974 N   0  0  0  0  0  0  0  0  0  0  0  0
   11.1381   10.9360   23.2987 N   0  0  3  0  0  0  0  0  0  0  0  0
   10.7841   13.9404   24.3008 O   0  0  0  0  0  0  0  0  0  0  0  0
    9.1453    9.5398   24.3614 S   0  0  0  0  0  0  0  0  0  0  0  0
    4.8036   12.9086   25.2678 H   0  0  0  0  0  0  0  0  0  0  0  0
    4.5253   10.5364   25.8939 H   0  0  0  0  0  0  0  0  0  0  0  0
    6.9317   13.7086   24.2852 H   0  0  0  0  0  0  0  0  0  0  0  0
    6.3724    8.9144   25.5496 H   0  0  0  0  0  0  0  0  0  0  0  0
    9.2578   14.7277   21.4836 H   0  0  0  0  0  0  0  0  0  0  0  0
   10.3942   15.7246   22.4537 H   0  0  0  0  0  0  0  0  0  0  0  0
   10.7300   15.4138   20.7166 H   0  0  0  0  0  0  0  0  0  0  0  0
   12.7411    9.9242   22.3616 H   0  0  0  0  0  0  0  0  0  0  0  0
   11.6839    8.8954   23.3864 H   0  0  0  0  0  0  0  0  0  0  0  0
   11.1045    9.4621   21.7833 H   0  0  0  0  0  0  0  0  0  0  0  0
   12.7380   12.0700   22.5289 H   0  0  0  0  0  0  0  0  0  0  0  0
   12.5995   12.0671   24.3085 H   0  0  0  0  0  0  0  0  0  0  0  0
   11.4696   13.2458   21.2518 H   0  0  0  0  0  0  0  0  0  0  0  0
  1  2  2  0  0  0  0
  1  3  1  0  0  0  0
  2  4  1  0  0  0  0
  3  5  2  0  0  0  0
  4  6  2  0  0  0  0
  5  6  1  0  0  0  0
  5 12  1  0  0  0  0
  6 16  1  0  0  0  0
  7 12  2  0  0  0  0
  7 14  1  0  0  0  0
  7 16  1  0  0  0  0
  8 11  1  0  0  0  0
  8 13  1  0  0  0  0
  8 15  2  0  0  0  0
  9 13  1  0  0  0  0
 10 14  1  0  0  0  0
 11 14  1  0  0  0  0
  1 17  1  0  0  0  0
  2 18  1  0  0  0  0
  3 19  1  0  0  0  0
  4 20  1  0  0  0  0
  9 21  1  0  0  0  0
  9 22  1  0  0  0  0
  9 23  1  0  0  0  0
 10 24  1  0  0  0  0
 10 25  1  0  0  0  0
 10 26  1  0  0  0  0
 11 27  1  0  0  0  0
 11 28  1  0  0  0  0
 13 29  1  0  0  0  0
M  END
> <Catalog ID>
Z94821784

> <PlateID>
1337959-R-11

> <Well>
D04

> <MW (desalted)>
235.305

> <CLogP>
1.761

> <HBD>
1

> <TPSA>
45.230

> <RotBonds>
3

> <ROCS_ShapeQuery>
A71EV2A-x0451_0A_A71EV2A-x0310_0A_A71EV2A-x0416_0A_peptide

> <ROCS_TanimotoCombo>
0.428 

> <ROCS_ShapeTanimoto>
0.283 

> <ROCS_ColorTanimoto>
0.145 

> <ROCS_RefTversky>
0.253 

> <ROCS_RefColorTversky>
0.153 

> <ROCS_RefTverskyCombo>
0.406 

> <ROCS_FitTversky>
1.708 

> <ROCS_FitColorTversky>
0.732 

> <ROCS_FitTverskyCombo>
2.440 

> <ROCS_ColorScore>
-4.645

> <ROCS_Overlap>
1754.215

> <ROCS_Rank>
188                 

$$$$
untitled-dbase-401_23
  -OEChem-11112309163D

 27 29  0     0  0  0  0  0  0999 V2000
   10.3524   12.0506   22.4369 C   0  0  0  0  0  0  0  0  0  0  0  0
    9.9226   10.7734   22.8050 C   0  0  0  0  0  0  0  0  0  0  0  0
    8.6475   13.0756   23.8408 C   0  0  0  0  0  0  0  0  0  0  0  0
    9.7186   13.1951   22.9518 C   0  0  0  0  0  0  0  0  0  0  0  0
    8.8631   10.6830   23.6841 C   0  0  0  0  0  0  0  0  0  0  0  0
    8.2427   11.8032   24.1883 C   0  0  0  0  0  0  0  0  0  0  0  0
   11.6643   14.7081   22.1985 C   0  0  0  0  0  0  0  0  0  0  0  0
   11.1425   15.2770   23.4807 C   0  0  0  0  0  0  0  0  0  0  0  0
    7.2730   10.0516   25.0089 C   0  0  0  0  0  0  0  0  0  0  0  0
   10.1954   14.5478   22.5453 C   0  0  0  0  0  0  0  0  0  0  0  0
    9.1984   15.3681   21.7753 C   0  0  0  0  0  0  0  0  0  0  0  0
    9.8561   16.4138   21.0502 N   0  0  0  0  0  0  0  0  0  0  0  0
    8.3110    9.5311   24.1535 O   0  0  0  0  0  0  0  0  0  0  0  0
    7.2244   11.4929   25.0361 O   0  0  0  0  0  0  0  0  0  0  0  0
   11.1851   12.1521   21.7452 H   0  0  0  0  0  0  0  0  0  0  0  0
   10.4089    9.8885   22.4103 H   0  0  0  0  0  0  0  0  0  0  0  0
    8.1489   13.9500   24.2457 H   0  0  0  0  0  0  0  0  0  0  0  0
   11.9379   15.4036   21.4135 H   0  0  0  0  0  0  0  0  0  0  0  0
   12.3126   13.8415   22.2598 H   0  0  0  0  0  0  0  0  0  0  0  0
   11.4417   14.7926   24.4032 H   0  0  0  0  0  0  0  0  0  0  0  0
   11.0639   16.3552   23.5589 H   0  0  0  0  0  0  0  0  0  0  0  0
    6.3061    9.6752   24.6563 H   0  0  0  0  0  0  0  0  0  0  0  0
    7.4420    9.6871   26.0287 H   0  0  0  0  0  0  0  0  0  0  0  0
    8.6741   14.7084   21.0746 H   0  0  0  0  0  0  0  0  0  0  0  0
    8.4866   15.8045   22.4852 H   0  0  0  0  0  0  0  0  0  0  0  0
   10.5175   16.0181   20.4104 H   0  0  0  0  0  0  0  0  0  0  0  0
    9.1802   16.9466   20.5377 H   0  0  0  0  0  0  0  0  0  0  0  0
  1  2  1  0  0  0  0
  1  4  2  0  0  0  0
  2  5  2  0  0  0  0
  3  4  1  0  0  0  0
  3  6  2  0  0  0  0
  4 10  1  0  0  0  0
  5  6  1  0  0  0  0
  5 13  1  0  0  0  0
  6 14  1  0  0  0  0
  7  8  1  0  0  0  0
  7 10  1  0  0  0  0
  8 10  1  0  0  0  0
  9 13  1  0  0  0  0
  9 14  1  0  0  0  0
 10 11  1  0  0  0  0
 11 12  1  0  0  0  0
  1 15  1  0  0  0  0
  2 16  1  0  0  0  0
  3 17  1  0  0  0  0
  7 18  1  0  0  0  0
  7 19  1  0  0  0  0
  8 20  1  0  0  0  0
  8 21  1  0  0  0  0
  9 22  1  0  0  0  0
  9 23  1  0  0  0  0
 11 24  1  0  0  0  0
 11 25  1  0  0  0  0
 12 26  1  0  0  0  0
 12 27  1  0  0  0  0
M  END
> <Catalog ID>
Z361883962

> <PlateID>
1337959-R-06

> <Well>
A03

> <MW (desalted)>
191.226

> <CLogP>
1.832

> <HBD>
1

> <TPSA>
44.480

> <RotBonds>
2

> <ROCS_ShapeQuery>
A71EV2A-x0451_0A_A71EV2A-x0310_0A_A71EV2A-x0416_0A_peptide

> <ROCS_TanimotoCombo>
0.427 

> <ROCS_ShapeTanimoto>
0.261 

> <ROCS_ColorTanimoto>
0.166 

> <ROCS_RefTversky>
0.236 

> <ROCS_RefColorTversky>
0.177 

> <ROCS_RefTverskyCombo>
0.413 

> <ROCS_FitTversky>
1.686 

> <ROCS_FitColorTversky>
0.735 

> <ROCS_FitTverskyCombo>
2.421 

> <ROCS_ColorScore>
-5.377

> <ROCS_Overlap>
1635.294

> <ROCS_Rank>
189                 

$$$$
untitled-dbase-1024_1
  -OEChem-11112309163D

 38 39  0     1  0  0  0  0  0999 V2000
    8.6499    9.7047   23.3796 C   0  0  0  0  0  0  0  0  0  0  0  0
    9.6506   10.6497   23.1539 C   0  0  0  0  0  0  0  0  0  0  0  0
    8.4448   12.2492   24.5048 C   0  0  0  0  0  0  0  0  0  0  0  0
    7.5465   10.0319   24.1679 C   0  0  0  0  0  0  0  0  0  0  0  0
    7.4440   11.3041   24.7305 C   0  0  0  0  0  0  0  0  0  0  0  0
    9.5481   11.9220   23.7165 C   0  0  0  0  0  0  0  0  0  0  0  0
    9.8630   13.7785   19.5725 C   0  0  0  0  0  0  0  0  0  0  0  0
    8.7004   14.7628   19.7005 C   0  0  0  0  0  0  0  0  0  0  0  0
   10.0342   12.9502   20.8405 C   0  0  0  0  0  0  0  0  0  0  0  0
    9.0285   14.7522   22.2102 C   0  0  0  0  0  0  0  0  0  0  0  0
    8.8051   15.6169   20.9681 C   0  0  1  0  0  0  0  0  0  0  0  0
    6.4866    9.0039   24.3922 C   0  0  0  0  0  0  0  0  0  0  0  0
    6.2711   11.6775   25.5762 C   0  0  0  0  0  0  0  0  0  0  0  0
   10.2108   13.8594   22.0097 N   0  0  1  0  0  0  0  0  0  0  0  0
    9.8427   16.6161   20.8441 N   0  0  0  0  0  0  0  0  0  0  0  0
   10.7762   14.0728   24.5161 O   0  0  0  0  0  0  0  0  0  0  0  0
   12.0336   12.4057   23.1063 O   0  0  0  0  0  0  0  0  0  0  0  0
   10.8159   13.1165   23.4310 S   0  0  0  0  0  0  0  0  0  0  0  0
    8.7369    8.7168   22.9347 H   0  0  0  0  0  0  0  0  0  0  0  0
   10.5059   10.3844   22.5385 H   0  0  0  0  0  0  0  0  0  0  0  0
    8.3639   13.2414   24.9427 H   0  0  0  0  0  0  0  0  0  0  0  0
    9.6860   13.1127   18.7201 H   0  0  0  0  0  0  0  0  0  0  0  0
   10.7897   14.3248   19.3597 H   0  0  0  0  0  0  0  0  0  0  0  0
    8.6496   15.3969   18.8067 H   0  0  0  0  0  0  0  0  0  0  0  0
    7.7603   14.1968   19.7328 H   0  0  0  0  0  0  0  0  0  0  0  0
    9.1646   12.3032   21.0026 H   0  0  0  0  0  0  0  0  0  0  0  0
   10.9208   12.3158   20.7333 H   0  0  0  0  0  0  0  0  0  0  0  0
    9.1923   15.3884   23.0880 H   0  0  0  0  0  0  0  0  0  0  0  0
    8.1419   14.1359   22.4045 H   0  0  0  0  0  0  0  0  0  0  0  0
    7.8472   16.1538   21.0935 H   0  0  0  0  0  0  0  0  0  0  0  0
    6.7157    8.4107   25.2850 H   0  0  0  0  0  0  0  0  0  0  0  0
    5.5031    9.4712   24.5258 H   0  0  0  0  0  0  0  0  0  0  0  0
    6.4039    8.3260   23.5336 H   0  0  0  0  0  0  0  0  0  0  0  0
    5.4738   12.1009   24.9544 H   0  0  0  0  0  0  0  0  0  0  0  0
    5.8729   10.8052   26.1090 H   0  0  0  0  0  0  0  0  0  0  0  0
    6.5505   12.4164   26.3375 H   0  0  0  0  0  0  0  0  0  0  0  0
    9.6352   17.1733   20.0519 H   0  0  0  0  0  0  0  0  0  0  0  0
    9.8407   17.1601   21.6718 H   0  0  0  0  0  0  0  0  0  0  0  0
  1  2  1  0  0  0  0
  1  4  2  0  0  0  0
  2  6  2  0  0  0  0
  3  5  2  0  0  0  0
  3  6  1  0  0  0  0
  4  5  1  0  0  0  0
  4 12  1  0  0  0  0
  5 13  1  0  0  0  0
  6 18  1  0  0  0  0
  7  8  1  0  0  0  0
  7  9  1  0  0  0  0
  8 11  1  0  0  0  0
  9 14  1  0  0  0  0
 10 11  1  0  0  0  0
 10 14  1  0  0  0  0
 11 15  1  0  0  0  0
 14 18  1  0  0  0  0
 16 18  2  0  0  0  0
 17 18  2  0  0  0  0
  1 19  1  0  0  0  0
  2 20  1  0  0  0  0
  3 21  1  0  0  0  0
  7 22  1  0  0  0  0
  7 23  1  0  0  0  0
  8 24  1  0  0  0  0
  8 25  1  0  0  0  0
  9 26  1  0  0  0  0
  9 27  1  0  0  0  0
 10 28  1  0  0  0  0
 10 29  1  0  0  0  0
 11 30  1  0  0  0  0
 12 31  1  0  0  0  0
 12 32  1  0  0  0  0
 12 33  1  0  0  0  0
 13 34  1  0  0  0  0
 13 35  1  0  0  0  0
 13 36  1  0  0  0  0
 15 37  1  0  0  0  0
 15 38  1  0  0  0  0
M  END
> <Catalog ID>
Z361907514

> <PlateID>
1337959-R-13

> <Well>
G09

> <MW (desalted)>
268.375

> <CLogP>
2.326

> <HBD>
1

> <TPSA>
63.400

> <RotBonds>
1

> <ROCS_ShapeQuery>
A71EV2A-x0451_0A_A71EV2A-x0310_0A_A71EV2A-x0416_0A_peptide

> <ROCS_TanimotoCombo>
0.427 

> <ROCS_ShapeTanimoto>
0.266 

> <ROCS_ColorTanimoto>
0.161 

> <ROCS_RefTversky>
0.243 

> <ROCS_RefColorTversky>
0.172 

> <ROCS_RefTverskyCombo>
0.415 

> <ROCS_FitTversky>
1.552 

> <ROCS_FitColorTversky>
0.717 

> <ROCS_FitTverskyCombo>
2.269 

> <ROCS_ColorScore>
-5.225

> <ROCS_Overlap>
1686.791

> <ROCS_Rank>
190                 

$$$$
untitled-dbase-349_188
  -OEChem-11112309163D

 30 30  0     0  0  0  0  0  0999 V2000
    7.4527   11.4291   24.6561 C   0  0  0  0  0  0  0  0  0  0  0  0
    8.5626   12.2702   24.5776 C   0  0  0  0  0  0  0  0  0  0  0  0
    8.5936    9.7957   23.2896 C   0  0  0  0  0  0  0  0  0  0  0  0
    7.4682   10.1919   24.0121 C   0  0  0  0  0  0  0  0  0  0  0  0
    9.7036   10.6368   23.2111 C   0  0  0  0  0  0  0  0  0  0  0  0
    9.6881   11.8740   23.8551 C   0  0  0  0  0  0  0  0  0  0  0  0
    6.2808    9.2929   24.0963 C   0  0  0  0  0  0  0  0  0  0  0  0
   10.8931   10.1824   22.4301 C   0  0  0  0  0  0  0  0  0  0  0  0
   10.3790   14.5154   21.6155 C   0  0  0  0  0  0  0  0  0  0  0  0
   11.2733   15.7413   21.6454 C   0  0  0  0  0  0  0  0  0  0  0  0
   11.1220   13.3507   22.1176 N   0  0  0  0  0  0  0  0  0  0  0  0
   10.7534   14.1568   24.5365 O   0  0  0  0  0  0  0  0  0  0  0  0
   12.2498   12.1800   24.1152 O   0  0  0  0  0  0  0  0  0  0  0  0
   11.6638   16.0084   22.9863 O   0  0  0  0  0  0  0  0  0  0  0  0
   11.0635   12.9533   23.7779 S   0  0  0  0  0  0  0  0  0  0  0  0
    6.5800   11.7459   25.2210 H   0  0  0  0  0  0  0  0  0  0  0  0
    8.5384   13.2317   25.0835 H   0  0  0  0  0  0  0  0  0  0  0  0
    8.6035    8.8305   22.7884 H   0  0  0  0  0  0  0  0  0  0  0  0
    5.5873    9.4983   23.2718 H   0  0  0  0  0  0  0  0  0  0  0  0
    6.5765    8.2370   24.0476 H   0  0  0  0  0  0  0  0  0  0  0  0
    5.7446    9.4292   25.0445 H   0  0  0  0  0  0  0  0  0  0  0  0
   10.8059   10.5020   21.3853 H   0  0  0  0  0  0  0  0  0  0  0  0
   11.8208   10.5944   22.8457 H   0  0  0  0  0  0  0  0  0  0  0  0
   10.9895    9.0899   22.4550 H   0  0  0  0  0  0  0  0  0  0  0  0
    9.4938   14.6545   22.2441 H   0  0  0  0  0  0  0  0  0  0  0  0
   10.0607   14.3011   20.5908 H   0  0  0  0  0  0  0  0  0  0  0  0
   10.7267   16.6132   21.2727 H   0  0  0  0  0  0  0  0  0  0  0  0
   12.1733   15.5980   21.0385 H   0  0  0  0  0  0  0  0  0  0  0  0
   11.3018   12.6030   21.4364 H   0  0  0  0  0  0  0  0  0  0  0  0
   10.8482   16.1633   23.4893 H   0  0  0  0  0  0  0  0  0  0  0  0
  1  2  1  0  0  0  0
  1  4  2  0  0  0  0
  2  6  2  0  0  0  0
  3  4  1  0  0  0  0
  3  5  2  0  0  0  0
  4  7  1  0  0  0  0
  5  6  1  0  0  0  0
  5  8  1  0  0  0  0
  6 15  1  0  0  0  0
  9 10  1  0  0  0  0
  9 11  1  0  0  0  0
 10 14  1  0  0  0  0
 11 15  1  0  0  0  0
 12 15  2  0  0  0  0
 13 15  2  0  0  0  0
  1 16  1  0  0  0  0
  2 17  1  0  0  0  0
  3 18  1  0  0  0  0
  7 19  1  0  0  0  0
  7 20  1  0  0  0  0
  7 21  1  0  0  0  0
  8 22  1  0  0  0  0
  8 23  1  0  0  0  0
  8 24  1  0  0  0  0
  9 25  1  0  0  0  0
  9 26  1  0  0  0  0
 10 27  1  0  0  0  0
 10 28  1  0  0  0  0
 11 29  1  0  0  0  0
 14 30  1  0  0  0  0
M  END
> <Catalog ID>
Z425750180

> <PlateID>
1337959-R-05

> <Well>
C11

> <MW (desalted)>
229.296

> <CLogP>
1.342

> <HBD>
2

> <TPSA>
66.400

> <RotBonds>
3

> <ROCS_ShapeQuery>
A71EV2A-x0451_0A_A71EV2A-x0310_0A_A71EV2A-x0416_0A_peptide

> <ROCS_TanimotoCombo>
0.427 

> <ROCS_ShapeTanimoto>
0.269 

> <ROCS_ColorTanimoto>
0.158 

> <ROCS_RefTversky>
0.241 

> <ROCS_RefColorTversky>
0.169 

> <ROCS_RefTverskyCombo>
0.410 

> <ROCS_FitTversky>
1.760 

> <ROCS_FitColorTversky>
0.705 

> <ROCS_FitTverskyCombo>
2.465 

> <ROCS_ColorScore>
-5.137

> <ROCS_Overlap>
1670.146

> <ROCS_Rank>
191                 

$$$$
untitled-dbase-603_17
  -OEChem-11112309163D

 32 33  0     1  0  0  0  0  0999 V2000
    8.4421    9.5492   23.5595 C   0  0  0  0  0  0  0  0  0  0  0  0
    9.4974   10.4365   23.3487 C   0  0  0  0  0  0  0  0  0  0  0  0
    7.2970   11.2230   24.8726 C   0  0  0  0  0  0  0  0  0  0  0  0
    8.3524   12.1104   24.6618 C   0  0  0  0  0  0  0  0  0  0  0  0
    7.3418    9.9425   24.3214 C   0  0  0  0  0  0  0  0  0  0  0  0
    9.4527   11.7171   23.8999 C   0  0  0  0  0  0  0  0  0  0  0  0
   10.7784   14.6373   20.1159 C   0  0  0  0  0  0  0  0  0  0  0  0
   11.1571   13.4406   20.9770 C   0  0  0  0  0  0  0  0  0  0  0  0
    9.8148   14.9884   22.2710 C   0  0  0  0  0  0  0  0  0  0  0  0
   10.5610   15.7201   21.1589 C   0  0  2  0  0  0  0  0  0  0  0  0
    8.2731   13.4744   25.2657 C   0  0  0  0  0  0  0  0  0  0  0  0
   10.2933   13.5751   22.1836 N   0  0  2  0  0  0  0  0  0  0  0  0
    9.8481   16.8550   20.6506 N   0  0  0  0  0  0  0  0  0  0  0  0
   10.8245   13.7797   24.6978 O   0  0  0  0  0  0  0  0  0  0  0  0
   11.9791   12.0033   23.3343 O   0  0  0  0  0  0  0  0  0  0  0  0
    6.3274    9.0914   24.5229 F   0  0  0  0  0  0  0  0  0  0  0  0
   10.8080   12.8152   23.6128 S   0  0  0  0  0  0  0  0  0  0  0  0
    8.4755    8.5524   23.1297 H   0  0  0  0  0  0  0  0  0  0  0  0
   10.3485   10.1196   22.7520 H   0  0  0  0  0  0  0  0  0  0  0  0
    6.4349   11.5191   25.4645 H   0  0  0  0  0  0  0  0  0  0  0  0
   11.5515   14.8893   19.3889 H   0  0  0  0  0  0  0  0  0  0  0  0
    9.8519   14.4226   19.5742 H   0  0  0  0  0  0  0  0  0  0  0  0
   10.9898   12.5026   20.4478 H   0  0  0  0  0  0  0  0  0  0  0  0
   12.2002   13.4969   21.2933 H   0  0  0  0  0  0  0  0  0  0  0  0
   10.0395   15.4099   23.2595 H   0  0  0  0  0  0  0  0  0  0  0  0
    8.7261   15.0179   22.1118 H   0  0  0  0  0  0  0  0  0  0  0  0
   11.5477   16.0506   21.5428 H   0  0  0  0  0  0  0  0  0  0  0  0
    8.7159   13.4719   26.2683 H   0  0  0  0  0  0  0  0  0  0  0  0
    8.8038   14.2113   24.6506 H   0  0  0  0  0  0  0  0  0  0  0  0
    7.2326   13.8130   25.3435 H   0  0  0  0  0  0  0  0  0  0  0  0
    9.7236   17.5111   21.3887 H   0  0  0  0  0  0  0  0  0  0  0  0
   10.3799   17.2622   19.9143 H   0  0  0  0  0  0  0  0  0  0  0  0
  1  2  1  0  0  0  0
  1  5  2  0  0  0  0
  2  6  2  0  0  0  0
  3  4  2  0  0  0  0
  3  5  1  0  0  0  0
  4  6  1  0  0  0  0
  4 11  1  0  0  0  0
  5 16  1  0  0  0  0
  6 17  1  0  0  0  0
  7  8  1  0  0  0  0
  7 10  1  0  0  0  0
  8 12  1  0  0  0  0
  9 10  1  0  0  0  0
  9 12  1  0  0  0  0
 10 13  1  0  0  0  0
 12 17  1  0  0  0  0
 14 17  2  0  0  0  0
 15 17  2  0  0  0  0
  1 18  1  0  0  0  0
  2 19  1  0  0  0  0
  3 20  1  0  0  0  0
  7 21  1  0  0  0  0
  7 22  1  0  0  0  0
  8 23  1  0  0  0  0
  8 24  1  0  0  0  0
  9 25  1  0  0  0  0
  9 26  1  0  0  0  0
 10 27  1  0  0  0  0
 11 28  1  0  0  0  0
 11 29  1  0  0  0  0
 11 30  1  0  0  0  0
 13 31  1  0  0  0  0
 13 32  1  0  0  0  0
M  END
> <Catalog ID>
Z1491271120

> <PlateID>
1337959-R-08

> <Well>
E06

> <MW (desalted)>
258.312

> <CLogP>
1.461

> <HBD>
1

> <TPSA>
63.400

> <RotBonds>
1

> <ROCS_ShapeQuery>
A71EV2A-x0451_0A_A71EV2A-x0310_0A_A71EV2A-x0416_0A_peptide

> <ROCS_TanimotoCombo>
0.427 

> <ROCS_ShapeTanimoto>
0.284 

> <ROCS_ColorTanimoto>
0.143 

> <ROCS_RefTversky>
0.255 

> <ROCS_RefColorTversky>
0.155 

> <ROCS_RefTverskyCombo>
0.410 

> <ROCS_FitTversky>
1.673 

> <ROCS_FitColorTversky>
0.648 

> <ROCS_FitTverskyCombo>
2.321 

> <ROCS_ColorScore>
-4.723

> <ROCS_Overlap>
1765.055

> <ROCS_Rank>
192                 

$$$$
untitled-dbase-461_7
  -OEChem-11112309163D

 28 30  0     1  0  0  0  0  0999 V2000
    9.8757   10.6144   24.1578 C   0  0  0  0  0  0  0  0  0  0  0  0
    8.2989   10.9770   22.8200 C   0  0  0  0  0  0  0  0  0  0  0  0
    7.7405   10.9995   25.1863 C   0  0  0  0  0  0  0  0  0  0  0  0
    8.9685   13.0356   25.8297 C   0  0  0  0  0  0  0  0  0  0  0  0
    9.9326   13.1161   23.1300 C   0  0  0  0  0  0  0  0  0  0  0  0
    8.4017   10.1282   24.1274 C   0  0  0  0  0  0  0  0  0  0  0  0
    9.6657   14.2510   25.1981 C   0  0  1  0  0  0  0  0  0  0  0  0
    9.1775   11.9484   23.6901 C   0  0  0  0  0  0  0  0  0  0  0  0
   10.4536   15.0302   26.2425 C   0  0  0  0  0  0  0  0  0  0  0  0
    8.2400   12.3164   24.7829 N   0  0  1  0  0  0  0  0  0  0  0  0
    9.7133   15.0991   27.4589 N   0  0  0  0  0  0  0  0  0  0  0  0
   10.5943   13.8106   24.1943 O   0  0  0  0  0  0  0  0  0  0  0  0
   10.3793   10.6074   25.1287 H   0  0  0  0  0  0  0  0  0  0  0  0
   10.5479   10.1491   23.4262 H   0  0  0  0  0  0  0  0  0  0  0  0
    8.7858   10.5534   21.9336 H   0  0  0  0  0  0  0  0  0  0  0  0
    7.3008   11.3252   22.5344 H   0  0  0  0  0  0  0  0  0  0  0  0
    6.6490   10.9626   25.1112 H   0  0  0  0  0  0  0  0  0  0  0  0
    8.0365   10.6986   26.1979 H   0  0  0  0  0  0  0  0  0  0  0  0
    9.7141   12.3951   26.3166 H   0  0  0  0  0  0  0  0  0  0  0  0
    8.2636   13.3698   26.5995 H   0  0  0  0  0  0  0  0  0  0  0  0
   10.6967   12.7884   22.4182 H   0  0  0  0  0  0  0  0  0  0  0  0
    9.2721   13.8158   22.6044 H   0  0  0  0  0  0  0  0  0  0  0  0
    8.1968    9.0601   24.0873 H   0  0  0  0  0  0  0  0  0  0  0  0
    8.9338   14.9252   24.7343 H   0  0  0  0  0  0  0  0  0  0  0  0
   11.3962   14.5058   26.3995 H   0  0  0  0  0  0  0  0  0  0  0  0
   10.6251   16.0301   25.8439 H   0  0  0  0  0  0  0  0  0  0  0  0
    9.5144   14.1743   27.7950 H   0  0  0  0  0  0  0  0  0  0  0  0
   10.2417   15.5909   28.1567 H   0  0  0  0  0  0  0  0  0  0  0  0
  1  6  1  0  0  0  0
  1  8  1  0  0  0  0
  2  6  1  0  0  0  0
  2  8  1  0  0  0  0
  3  6  1  0  0  0  0
  3 10  1  0  0  0  0
  4  7  1  0  0  0  0
  4 10  1  0  0  0  0
  5  8  1  0  0  0  0
  5 12  1  0  0  0  0
  7  9  1  0  0  0  0
  7 12  1  0  0  0  0
  8 10  1  0  0  0  0
  9 11  1  0  0  0  0
  1 13  1  0  0  0  0
  1 14  1  0  0  0  0
  2 15  1  0  0  0  0
  2 16  1  0  0  0  0
  3 17  1  0  0  0  0
  3 18  1  0  0  0  0
  4 19  1  0  0  0  0
  4 20  1  0  0  0  0
  5 21  1  0  0  0  0
  5 22  1  0  0  0  0
  6 23  1  0  0  0  0
  7 24  1  0  0  0  0
  9 25  1  0  0  0  0
  9 26  1  0  0  0  0
 11 27  1  0  0  0  0
 11 28  1  0  0  0  0
M  END
> <Catalog ID>
Z2582430178

> <PlateID>
1337959-R-06

> <Well>
G03

> <MW (desalted)>
168.236

> <CLogP>
-0.454

> <HBD>
1

> <TPSA>
38.490

> <RotBonds>
1

> <ROCS_ShapeQuery>
A71EV2A-x0451_0A_A71EV2A-x0310_0A_A71EV2A-x0416_0A_peptide

> <ROCS_TanimotoCombo>
0.427 

> <ROCS_ShapeTanimoto>
0.196 

> <ROCS_ColorTanimoto>
0.231 

> <ROCS_RefTversky>
0.185 

> <ROCS_RefColorTversky>
0.266 

> <ROCS_RefTverskyCombo>
0.451 

> <ROCS_FitTversky>
1.454 

> <ROCS_FitColorTversky>
0.635 

> <ROCS_FitTverskyCombo>
2.088 

> <ROCS_ColorScore>
-8.171

> <ROCS_Overlap>
1279.315

> <ROCS_Rank>
193                 

$$$$
untitled-dbase-366_70
  -OEChem-11112309163D

 32 33  0     0  0  0  0  0  0999 V2000
    7.4530   10.7473   24.0924 C   0  0  0  0  0  0  0  0  0  0  0  0
    8.1082   10.3588   22.9239 C   0  0  0  0  0  0  0  0  0  0  0  0
    8.1294   11.4965   25.0551 C   0  0  0  0  0  0  0  0  0  0  0  0
    9.4398   10.7193   22.7182 C   0  0  0  0  0  0  0  0  0  0  0  0
    9.4611   11.8571   24.8494 C   0  0  0  0  0  0  0  0  0  0  0  0
   10.1163   11.4685   23.6809 C   0  0  0  0  0  0  0  0  0  0  0  0
    9.2327   15.5262   21.8784 C   0  0  0  0  0  0  0  0  0  0  0  0
   11.4437   16.2926   21.2840 C   0  0  0  0  0  0  0  0  0  0  0  0
    9.6384   14.0783   21.6226 C   0  0  0  0  0  0  0  0  0  0  0  0
   11.8954   14.8607   21.0157 C   0  0  0  0  0  0  0  0  0  0  0  0
   11.5461   11.8557   23.4608 C   0  0  0  0  0  0  0  0  0  0  0  0
   10.0074   16.4482   21.0454 N   0  0  0  0  0  0  0  0  0  0  0  0
   11.1020   13.9044   21.8369 N   0  0  0  0  0  0  0  0  0  0  0  0
   10.6272   14.1342   24.3502 O   0  0  0  0  0  0  0  0  0  0  0  0
   13.0186   14.0128   23.5428 O   0  0  0  0  0  0  0  0  0  0  0  0
   11.6285   13.6278   23.4377 S   0  0  0  0  0  0  0  0  0  0  0  0
    6.4157   10.4676   24.2518 H   0  0  0  0  0  0  0  0  0  0  0  0
    7.5813    9.7764   22.1737 H   0  0  0  0  0  0  0  0  0  0  0  0
    7.6193   11.8001   25.9645 H   0  0  0  0  0  0  0  0  0  0  0  0
    9.9424   10.4120   21.8048 H   0  0  0  0  0  0  0  0  0  0  0  0
    9.9802   12.4407   25.6051 H   0  0  0  0  0  0  0  0  0  0  0  0
    8.1677   15.6546   21.6575 H   0  0  0  0  0  0  0  0  0  0  0  0
    9.3711   15.7824   22.9359 H   0  0  0  0  0  0  0  0  0  0  0  0
   11.6779   16.5819   22.3157 H   0  0  0  0  0  0  0  0  0  0  0  0
   11.9907   16.9798   20.6298 H   0  0  0  0  0  0  0  0  0  0  0  0
    9.0901   13.4260   22.3173 H   0  0  0  0  0  0  0  0  0  0  0  0
    9.3768   13.7754   20.5972 H   0  0  0  0  0  0  0  0  0  0  0  0
   11.7861   14.6107   19.9493 H   0  0  0  0  0  0  0  0  0  0  0  0
   12.9592   14.7671   21.2768 H   0  0  0  0  0  0  0  0  0  0  0  0
   11.9290   11.4843   22.5061 H   0  0  0  0  0  0  0  0  0  0  0  0
   12.1966   11.4949   24.2626 H   0  0  0  0  0  0  0  0  0  0  0  0
    9.8126   16.2482   20.0628 H   0  0  0  0  0  0  0  0  0  0  0  0
  1  2  2  0  0  0  0
  1  3  1  0  0  0  0
  2  4  1  0  0  0  0
  3  5  2  0  0  0  0
  4  6  2  0  0  0  0
  5  6  1  0  0  0  0
  6 11  1  0  0  0  0
  7  9  1  0  0  0  0
  7 12  1  0  0  0  0
  8 10  1  0  0  0  0
  8 12  1  0  0  0  0
  9 13  1  0  0  0  0
 10 13  1  0  0  0  0
 11 16  1  0  0  0  0
 13 16  1  0  0  0  0
 14 16  2  0  0  0  0
 15 16  2  0  0  0  0
  1 17  1  0  0  0  0
  2 18  1  0  0  0  0
  3 19  1  0  0  0  0
  4 20  1  0  0  0  0
  5 21  1  0  0  0  0
  7 22  1  0  0  0  0
  7 23  1  0  0  0  0
  8 24  1  0  0  0  0
  8 25  1  0  0  0  0
  9 26  1  0  0  0  0
  9 27  1  0  0  0  0
 10 28  1  0  0  0  0
 10 29  1  0  0  0  0
 11 30  1  0  0  0  0
 11 31  1  0  0  0  0
 12 32  1  0  0  0  0
M  END
> <Catalog ID>
Z57032564

> <PlateID>
1337959-R-05

> <Well>
E08

> <MW (desalted)>
240.322

> <CLogP>
1.329

> <HBD>
1

> <TPSA>
49.410

> <RotBonds>
2

> <ROCS_ShapeQuery>
A71EV2A-x0451_0A_A71EV2A-x0310_0A_A71EV2A-x0416_0A_peptide

> <ROCS_TanimotoCombo>
0.427 

> <ROCS_ShapeTanimoto>
0.242 

> <ROCS_ColorTanimoto>
0.184 

> <ROCS_RefTversky>
0.223 

> <ROCS_RefColorTversky>
0.193 

> <ROCS_RefTverskyCombo>
0.416 

> <ROCS_FitTversky>
1.540 

> <ROCS_FitColorTversky>
0.805 

> <ROCS_FitTverskyCombo>
2.345 

> <ROCS_ColorScore>
-5.867

> <ROCS_Overlap>
1548.323

> <ROCS_Rank>
194                 

$$$$
untitled-dbase-1124_1
  -OEChem-11112309163D

 26 27  0     0  0  0  0  0  0999 V2000
    9.7284   11.0310   24.6308 C   0  0  0  0  0  0  0  0  0  0  0  0
    8.0980   11.4055   23.2466 C   0  0  0  0  0  0  0  0  0  0  0  0
   11.6047   12.6462   22.7601 C   0  0  0  0  0  0  0  0  0  0  0  0
   11.4002   14.0882   23.2062 C   0  0  0  0  0  0  0  0  0  0  0  0
    9.2726   13.5787   24.0766 C   0  0  0  0  0  0  0  0  0  0  0  0
    9.4117   12.1439   23.6003 C   0  0  0  0  0  0  0  0  0  0  0  0
    8.2752   10.5023   24.4969 C   0  0  0  0  0  0  0  0  0  0  0  0
    7.3684   10.8468   25.6714 C   0  0  0  0  0  0  0  0  0  0  0  0
   10.3176   12.0206   22.4443 N   0  0  0  0  0  0  0  0  0  0  0  0
   10.5639   14.1242   24.3635 O   0  0  0  0  0  0  0  0  0  0  0  0
    8.1854    9.0848   24.2316 O   0  0  0  0  0  0  0  0  0  0  0  0
    7.2775   12.1796   25.8138 F   0  0  0  0  0  0  0  0  0  0  0  0
    6.1364   10.3506   25.4692 F   0  0  0  0  0  0  0  0  0  0  0  0
    7.8608   10.3255   26.8077 F   0  0  0  0  0  0  0  0  0  0  0  0
   10.5095   10.3074   24.3677 H   0  0  0  0  0  0  0  0  0  0  0  0
    9.9710   11.4156   25.6316 H   0  0  0  0  0  0  0  0  0  0  0  0
    7.2043   12.0444   23.2894 H   0  0  0  0  0  0  0  0  0  0  0  0
    8.0709   10.8804   22.2832 H   0  0  0  0  0  0  0  0  0  0  0  0
   12.2459   12.6170   21.8741 H   0  0  0  0  0  0  0  0  0  0  0  0
   12.1121   12.0779   23.5459 H   0  0  0  0  0  0  0  0  0  0  0  0
   12.3628   14.5349   23.4776 H   0  0  0  0  0  0  0  0  0  0  0  0
   10.9607   14.7051   22.4117 H   0  0  0  0  0  0  0  0  0  0  0  0
    8.7766   14.2070   23.3275 H   0  0  0  0  0  0  0  0  0  0  0  0
    8.6784   13.6328   24.9939 H   0  0  0  0  0  0  0  0  0  0  0  0
    9.9444   12.4609   21.6003 H   0  0  0  0  0  0  0  0  0  0  0  0
    7.2420    8.8945   24.1730 H   0  0  0  0  0  0  0  0  0  0  0  0
  1  6  1  0  0  0  0
  1  7  1  0  0  0  0
  2  6  1  6  0  0  0
  2  7  1  0  0  0  0
  3  4  1  0  0  0  0
  3  9  1  0  0  0  0
  4 10  1  0  0  0  0
  5  6  1  0  0  0  0
  5 10  1  0  0  0  0
  6  9  1  0  0  0  0
  7  8  1  6  0  0  0
  7 11  1  1  0  0  0
  8 12  1  0  0  0  0
  8 13  1  0  0  0  0
  8 14  1  0  0  0  0
  1 15  1  0  0  0  0
  1 16  1  0  0  0  0
  2 17  1  0  0  0  0
  2 18  1  0  0  0  0
  3 19  1  0  0  0  0
  3 20  1  0  0  0  0
  4 21  1  0  0  0  0
  4 22  1  0  0  0  0
  5 23  1  0  0  0  0
  5 24  1  0  0  0  0
  9 25  1  0  0  0  0
 11 26  1  0  0  0  0
M  END
> <Catalog ID>
Z4657696854

> <PlateID>
1337959-R-15

> <Well>
A10

> <MW (desalted)>
211.182

> <CLogP>
-0.929

> <HBD>
2

> <TPSA>
41.490

> <RotBonds>
1

> <ROCS_ShapeQuery>
A71EV2A-x0451_0A_A71EV2A-x0310_0A_A71EV2A-x0416_0A_peptide

> <ROCS_TanimotoCombo>
0.427 

> <ROCS_ShapeTanimoto>
0.256 

> <ROCS_ColorTanimoto>
0.171 

> <ROCS_RefTversky>
0.232 

> <ROCS_RefColorTversky>
0.185 

> <ROCS_RefTverskyCombo>
0.417 

> <ROCS_FitTversky>
1.673 

> <ROCS_FitColorTversky>
0.685 

> <ROCS_FitTverskyCombo>
2.359 

> <ROCS_ColorScore>
-5.648

> <ROCS_Overlap>
1606.584

> <ROCS_Rank>
195                 

$$$$
untitled-dbase-1008_50
  -OEChem-11112309163D

 32 33  0     0  0  0  0  0  0999 V2000
    7.6798    9.7713   23.8083 C   0  0  0  0  0  0  0  0  0  0  0  0
    7.0752   10.8509   24.4703 C   0  0  0  0  0  0  0  0  0  0  0  0
    9.0208    9.8338   23.4238 C   0  0  0  0  0  0  0  0  0  0  0  0
    7.8036   12.0071   24.7572 C   0  0  0  0  0  0  0  0  0  0  0  0
    9.7322   10.9892   23.7031 C   0  0  0  0  0  0  0  0  0  0  0  0
    9.1304   12.0640   24.3624 C   0  0  0  0  0  0  0  0  0  0  0  0
   12.5935   13.1149   24.2766 C   0  0  0  0  0  0  0  0  0  0  0  0
   11.1696   14.8888   22.2616 C   0  0  0  0  0  0  0  0  0  0  0  0
   11.1758   11.2688   23.4163 C   0  0  0  0  0  0  0  0  0  0  0  0
   10.1067   13.1776   24.5881 C   0  0  0  0  0  0  0  0  0  0  0  0
   11.2552   12.7978   23.6286 C   0  0  0  0  0  0  0  0  0  0  0  0
   12.3452   15.5002   20.1116 C   0  0  0  0  0  0  0  0  0  0  0  0
   11.0132   15.3461   20.8231 C   0  0  0  0  0  0  0  0  0  0  0  0
   11.1277   13.5026   22.3698 N   0  0  0  0  0  0  0  0  0  0  0  0
   13.4529   13.8379   23.7948 O   0  0  0  0  0  0  0  0  0  0  0  0
   11.3168   15.6656   23.2013 O   0  0  0  0  0  0  0  0  0  0  0  0
   12.7098   12.4817   25.4695 O   0  0  0  0  0  0  0  0  0  0  0  0
    7.0967    8.8807   23.5898 H   0  0  0  0  0  0  0  0  0  0  0  0
    6.0291   10.7870   24.7574 H   0  0  0  0  0  0  0  0  0  0  0  0
    9.4876    8.9951   22.9191 H   0  0  0  0  0  0  0  0  0  0  0  0
    7.3359   12.8373   25.2751 H   0  0  0  0  0  0  0  0  0  0  0  0
   11.8329   10.7104   24.0863 H   0  0  0  0  0  0  0  0  0  0  0  0
   11.3850   10.9960   22.3780 H   0  0  0  0  0  0  0  0  0  0  0  0
    9.6351   14.1221   24.2993 H   0  0  0  0  0  0  0  0  0  0  0  0
   10.4228   13.2240   25.6335 H   0  0  0  0  0  0  0  0  0  0  0  0
   12.9829   16.2284   20.6238 H   0  0  0  0  0  0  0  0  0  0  0  0
   12.8746   14.5429   20.0824 H   0  0  0  0  0  0  0  0  0  0  0  0
   12.2035   15.8437   19.0816 H   0  0  0  0  0  0  0  0  0  0  0  0
   10.3955   14.6134   20.2913 H   0  0  0  0  0  0  0  0  0  0  0  0
   10.4818   16.3045   20.8188 H   0  0  0  0  0  0  0  0  0  0  0  0
   11.0007   12.9550   21.5198 H   0  0  0  0  0  0  0  0  0  0  0  0
   13.5687   12.6724   25.9033 H   0  0  0  0  0  0  0  0  0  0  0  0
  1  2  2  0  0  0  0
  1  3  1  0  0  0  0
  2  4  1  0  0  0  0
  3  5  2  0  0  0  0
  4  6  2  0  0  0  0
  5  6  1  0  0  0  0
  5  9  1  0  0  0  0
  6 10  1  0  0  0  0
  7 11  1  0  0  0  0
  7 15  2  0  0  0  0
  7 17  1  0  0  0  0
  8 13  1  0  0  0  0
  8 14  1  0  0  0  0
  8 16  2  0  0  0  0
  9 11  1  0  0  0  0
 10 11  1  0  0  0  0
 11 14  1  0  0  0  0
 12 13  1  0  0  0  0
  1 18  1  0  0  0  0
  2 19  1  0  0  0  0
  3 20  1  0  0  0  0
  4 21  1  0  0  0  0
  9 22  1  0  0  0  0
  9 23  1  0  0  0  0
 10 24  1  0  0  0  0
 10 25  1  0  0  0  0
 12 26  1  0  0  0  0
 12 27  1  0  0  0  0
 12 28  1  0  0  0  0
 13 29  1  0  0  0  0
 13 30  1  0  0  0  0
 14 31  1  0  0  0  0
 17 32  1  0  0  0  0
M  END
> <Catalog ID>
Z1444397255

> <PlateID>
1337959-R-13

> <Well>
F03

> <MW (desalted)>
233.263

> <CLogP>
1.354

> <HBD>
2

> <TPSA>
66.400

> <RotBonds>
3

> <ROCS_ShapeQuery>
A71EV2A-x0451_0A_A71EV2A-x0310_0A_A71EV2A-x0416_0A_peptide

> <ROCS_TanimotoCombo>
0.427 

> <ROCS_ShapeTanimoto>
0.297 

> <ROCS_ColorTanimoto>
0.130 

> <ROCS_RefTversky>
0.265 

> <ROCS_RefColorTversky>
0.149 

> <ROCS_RefTverskyCombo>
0.414 

> <ROCS_FitTversky>
1.690 

> <ROCS_FitColorTversky>
0.495 

> <ROCS_FitTverskyCombo>
2.185 

> <ROCS_ColorScore>
-4.558

> <ROCS_Overlap>
1836.341

> <ROCS_Rank>
196                 

$$$$
untitled-dbase-702_121
  -OEChem-11112309163D

 35 37  0     1  0  0  0  0  0999 V2000
   11.6787   12.7654   21.3526 C   0  0  0  0  0  0  0  0  0  0  0  0
   12.0633   13.4318   20.1534 C   0  0  0  0  0  0  0  0  0  0  0  0
   10.8722   13.5517   22.1456 C   0  0  0  0  0  0  0  0  0  0  0  0
   11.5358   14.7020   20.0753 C   0  0  0  0  0  0  0  0  0  0  0  0
   10.2687   13.2358   23.4507 C   0  0  0  0  0  0  0  0  0  0  0  0
    7.4075   13.3220   24.5705 C   0  0  0  0  0  0  0  0  0  0  0  0
    9.5220   10.9522   22.6788 C   0  0  0  0  0  0  0  0  0  0  0  0
    6.8547   13.3139   25.9839 C   0  0  0  0  0  0  0  0  0  0  0  0
    9.3713    9.6876   23.5110 C   0  0  0  0  0  0  0  0  0  0  0  0
    8.8301   12.0594   25.9836 C   0  0  0  0  0  0  0  0  0  0  0  0
    7.4160   10.8381   24.2838 C   0  0  0  0  0  0  0  0  0  0  0  0
    8.3046   12.0844   24.5445 C   0  0  1  0  0  0  0  0  0  0  0  0
   11.6986   15.7011   18.9973 C   0  0  0  0  0  0  0  0  0  0  0  0
    9.3893   12.1420   23.5318 N   0  0  0  0  0  0  0  0  0  0  0  0
   10.5798   13.9877   24.3733 O   0  0  0  0  0  0  0  0  0  0  0  0
    7.8028   12.6294   26.8127 O   0  0  0  0  0  0  0  0  0  0  0  0
    8.1621    9.6245   24.2599 O   0  0  0  0  0  0  0  0  0  0  0  0
   10.5815   15.0866   21.4441 S   0  0  0  0  0  0  0  0  0  0  0  0
   11.9813   11.7598   21.6161 H   0  0  0  0  0  0  0  0  0  0  0  0
   12.6951   12.9975   19.3888 H   0  0  0  0  0  0  0  0  0  0  0  0
    6.5759   13.2036   23.8671 H   0  0  0  0  0  0  0  0  0  0  0  0
    7.9044   14.2614   24.3227 H   0  0  0  0  0  0  0  0  0  0  0  0
   10.4722   10.9156   22.1621 H   0  0  0  0  0  0  0  0  0  0  0  0
    8.7237   11.0066   21.9434 H   0  0  0  0  0  0  0  0  0  0  0  0
    6.7310   14.3311   26.3720 H   0  0  0  0  0  0  0  0  0  0  0  0
    5.8850   12.8086   26.0449 H   0  0  0  0  0  0  0  0  0  0  0  0
    9.3925    8.8011   22.8433 H   0  0  0  0  0  0  0  0  0  0  0  0
   10.2385    9.5569   24.1970 H   0  0  0  0  0  0  0  0  0  0  0  0
    8.9762   11.0351   26.3385 H   0  0  0  0  0  0  0  0  0  0  0  0
    9.7762   12.5828   26.1253 H   0  0  0  0  0  0  0  0  0  0  0  0
    6.6172   10.7639   25.0384 H   0  0  0  0  0  0  0  0  0  0  0  0
    6.9112   10.9231   23.3111 H   0  0  0  0  0  0  0  0  0  0  0  0
   10.9096   15.5929   18.2366 H   0  0  0  0  0  0  0  0  0  0  0  0
   11.6561   16.7329   19.3832 H   0  0  0  0  0  0  0  0  0  0  0  0
   12.6725   15.6032   18.4898 H   0  0  0  0  0  0  0  0  0  0  0  0
  1  2  1  0  0  0  0
  1  3  2  0  0  0  0
  2  4  2  0  0  0  0
  3  5  1  0  0  0  0
  3 18  1  0  0  0  0
  4 13  1  0  0  0  0
  4 18  1  0  0  0  0
  5 14  1  0  0  0  0
  5 15  2  0  0  0  0
  6  8  1  0  0  0  0
  6 12  1  0  0  0  0
  7  9  1  0  0  0  0
  7 14  1  0  0  0  0
  8 16  1  0  0  0  0
  9 17  1  0  0  0  0
 10 12  1  0  0  0  0
 10 16  1  0  0  0  0
 11 12  1  0  0  0  0
 11 17  1  0  0  0  0
 12 14  1  0  0  0  0
  1 19  1  0  0  0  0
  2 20  1  0  0  0  0
  6 21  1  0  0  0  0
  6 22  1  0  0  0  0
  7 23  1  0  0  0  0
  7 24  1  0  0  0  0
  8 25  1  0  0  0  0
  8 26  1  0  0  0  0
  9 27  1  0  0  0  0
  9 28  1  0  0  0  0
 10 29  1  0  0  0  0
 10 30  1  0  0  0  0
 11 31  1  0  0  0  0
 11 32  1  0  0  0  0
 13 33  1  0  0  0  0
 13 34  1  0  0  0  0
 13 35  1  0  0  0  0
M  END
> <Catalog ID>
Z1995563297

> <PlateID>
1337959-R-09

> <Well>
G05

> <MW (desalted)>
267.344

> <CLogP>
0.896

> <HBD>
0

> <TPSA>
38.770

> <RotBonds>
1

> <ROCS_ShapeQuery>
A71EV2A-x0451_0A_A71EV2A-x0310_0A_A71EV2A-x0416_0A_peptide

> <ROCS_TanimotoCombo>
0.426 

> <ROCS_ShapeTanimoto>
0.292 

> <ROCS_ColorTanimoto>
0.134 

> <ROCS_RefTversky>
0.263 

> <ROCS_RefColorTversky>
0.147 

> <ROCS_RefTverskyCombo>
0.409 

> <ROCS_FitTversky>
1.625 

> <ROCS_FitColorTversky>
0.613 

> <ROCS_FitTverskyCombo>
2.238 

> <ROCS_ColorScore>
-4.469

> <ROCS_Overlap>
1820.894

> <ROCS_Rank>
197                 

$$$$
untitled-dbase-287_37
  -OEChem-11112309163D

 31 32  0     0  0  0  0  0  0999 V2000
    9.0233    9.8520   23.3599 C   0  0  0  0  0  0  0  0  0  0  0  0
    7.9199    9.9012   24.2117 C   0  0  0  0  0  0  0  0  0  0  0  0
    9.7563   11.0100   23.1004 C   0  0  0  0  0  0  0  0  0  0  0  0
    7.5493   11.1084   24.8039 C   0  0  0  0  0  0  0  0  0  0  0  0
    9.3857   12.2173   23.6927 C   0  0  0  0  0  0  0  0  0  0  0  0
    8.2822   12.2666   24.5445 C   0  0  0  0  0  0  0  0  0  0  0  0
   10.1596   13.4330   23.4170 C   0  0  0  0  0  0  0  0  0  0  0  0
    8.1675   14.7535   21.0081 C   0  0  0  0  0  0  0  0  0  0  0  0
    8.6019   16.1430   21.4791 C   0  0  0  0  0  0  0  0  0  0  0  0
    9.2217   13.6476   21.0679 C   0  0  0  0  0  0  0  0  0  0  0  0
   11.0176   16.2135   21.7348 C   0  0  0  0  0  0  0  0  0  0  0  0
   11.3627   14.7255   21.6946 C   0  0  0  0  0  0  0  0  0  0  0  0
    9.8702   16.5937   20.9031 N   0  0  0  0  0  0  0  0  0  0  0  0
   10.2467   13.8678   22.0906 N   0  0  0  0  0  0  0  0  0  0  0  0
   10.6712   13.9861   24.3890 O   0  0  0  0  0  0  0  0  0  0  0  0
    7.9163   13.4213   25.1194 F   0  0  0  0  0  0  0  0  0  0  0  0
    9.3117    8.9120   22.8986 H   0  0  0  0  0  0  0  0  0  0  0  0
    7.3492    8.9994   24.4138 H   0  0  0  0  0  0  0  0  0  0  0  0
   10.6144   10.9594   22.4351 H   0  0  0  0  0  0  0  0  0  0  0  0
    6.6902   11.1470   25.4672 H   0  0  0  0  0  0  0  0  0  0  0  0
    7.3088   14.4425   21.6332 H   0  0  0  0  0  0  0  0  0  0  0  0
    7.7582   14.8196   19.9807 H   0  0  0  0  0  0  0  0  0  0  0  0
    7.8307   16.8574   21.1822 H   0  0  0  0  0  0  0  0  0  0  0  0
    8.6453   16.1766   22.5702 H   0  0  0  0  0  0  0  0  0  0  0  0
    8.7662   12.6523   21.2221 H   0  0  0  0  0  0  0  0  0  0  0  0
    9.7153   13.5923   20.0809 H   0  0  0  0  0  0  0  0  0  0  0  0
   10.8980   16.5648   22.7736 H   0  0  0  0  0  0  0  0  0  0  0  0
   11.8915   16.7671   21.3554 H   0  0  0  0  0  0  0  0  0  0  0  0
   11.6770   14.4667   20.6917 H   0  0  0  0  0  0  0  0  0  0  0  0
   12.1797   14.5257   22.3777 H   0  0  0  0  0  0  0  0  0  0  0  0
    9.9810   16.2208   19.9615 H   0  0  0  0  0  0  0  0  0  0  0  0
  1  2  2  0  0  0  0
  1  3  1  0  0  0  0
  2  4  1  0  0  0  0
  3  5  2  0  0  0  0
  4  6  2  0  0  0  0
  5  6  1  0  0  0  0
  5  7  1  0  0  0  0
  6 16  1  0  0  0  0
  7 14  1  0  0  0  0
  7 15  2  0  0  0  0
  8  9  1  0  0  0  0
  8 10  1  0  0  0  0
  9 13  1  0  0  0  0
 10 14  1  0  0  0  0
 11 12  1  0  0  0  0
 11 13  1  0  0  0  0
 12 14  1  0  0  0  0
  1 17  1  0  0  0  0
  2 18  1  0  0  0  0
  3 19  1  0  0  0  0
  4 20  1  0  0  0  0
  8 21  1  0  0  0  0
  8 22  1  0  0  0  0
  9 23  1  0  0  0  0
  9 24  1  0  0  0  0
 10 25  1  0  0  0  0
 10 26  1  0  0  0  0
 11 27  1  0  0  0  0
 11 28  1  0  0  0  0
 12 29  1  0  0  0  0
 12 30  1  0  0  0  0
 13 31  1  0  0  0  0
M  END
> <Catalog ID>
Z228587480

> <PlateID>
1337959-R-04

> <Well>
E09

> <MW (desalted)>
222.259

> <CLogP>
0.847

> <HBD>
1

> <TPSA>
32.340

> <RotBonds>
1

> <ROCS_ShapeQuery>
A71EV2A-x0451_0A_A71EV2A-x0310_0A_A71EV2A-x0416_0A_peptide

> <ROCS_TanimotoCombo>
0.426 

> <ROCS_ShapeTanimoto>
0.255 

> <ROCS_ColorTanimoto>
0.172 

> <ROCS_RefTversky>
0.233 

> <ROCS_RefColorTversky>
0.177 

> <ROCS_RefTverskyCombo>
0.410 

> <ROCS_FitTversky>
1.566 

> <ROCS_FitColorTversky>
0.849 

> <ROCS_FitTverskyCombo>
2.415 

> <ROCS_ColorScore>
-5.376

> <ROCS_Overlap>
1616.723

> <ROCS_Rank>
198                 

$$$$
untitled-dbase-787_1113
  -OEChem-11112309163D

 38 39  0     1  0  0  0  0  0999 V2000
   11.6651   13.9987   20.0262 C   0  0  0  0  0  0  0  0  0  0  0  0
   13.0446   14.0986   20.2063 C   0  0  0  0  0  0  0  0  0  0  0  0
   10.8368   13.7328   21.1167 C   0  0  0  0  0  0  0  0  0  0  0  0
   13.5960   13.9326   21.4767 C   0  0  0  0  0  0  0  0  0  0  0  0
   11.3882   13.5668   22.3871 C   0  0  0  0  0  0  0  0  0  0  0  0
   12.7678   13.6667   22.5672 C   0  0  0  0  0  0  0  0  0  0  0  0
   10.4988   13.2877   23.5205 C   0  0  0  0  0  0  0  0  0  0  0  0
    9.3341    9.7426   22.8934 C   0  0  0  0  0  0  0  0  0  0  0  0
   10.2241   10.9742   22.7490 C   0  0  0  0  0  0  0  0  0  0  0  0
    8.3547   11.9993   24.0079 C   0  0  0  0  0  0  0  0  0  0  0  0
    8.2226   10.7175   24.8468 C   0  0  1  0  0  0  0  0  0  0  0  0
    6.7480   10.3909   25.0873 C   0  0  0  0  0  0  0  0  0  0  0  0
   15.2848   12.8480   25.0065 C   0  0  0  0  0  0  0  0  0  0  0  0
   14.2703   12.4530   23.9547 C   0  0  0  0  0  0  0  0  0  0  0  0
    8.9225    9.5554   24.2796 N   0  0  0  0  0  0  0  0  0  0  0  0
    9.7121   12.1349   23.4732 N   0  0  0  0  0  0  0  0  0  0  0  0
   10.5057   14.1053   24.4397 O   0  0  0  0  0  0  0  0  0  0  0  0
   13.3251   13.5095   23.8011 O   0  0  0  0  0  0  0  0  0  0  0  0
   11.2360   14.1280   19.0366 H   0  0  0  0  0  0  0  0  0  0  0  0
   13.6889   14.3051   19.3568 H   0  0  0  0  0  0  0  0  0  0  0  0
    9.7631   13.6576   20.9646 H   0  0  0  0  0  0  0  0  0  0  0  0
   14.6715   14.0118   21.6102 H   0  0  0  0  0  0  0  0  0  0  0  0
    8.4445    9.8611   22.2702 H   0  0  0  0  0  0  0  0  0  0  0  0
    9.8590    8.8522   22.5355 H   0  0  0  0  0  0  0  0  0  0  0  0
   11.2462   10.7205   23.0698 H   0  0  0  0  0  0  0  0  0  0  0  0
   10.2964   11.2680   21.6874 H   0  0  0  0  0  0  0  0  0  0  0  0
    7.6764   11.9781   23.1500 H   0  0  0  0  0  0  0  0  0  0  0  0
    8.0971   12.8716   24.6118 H   0  0  0  0  0  0  0  0  0  0  0  0
    8.6616   10.9246   25.8648 H   0  0  0  0  0  0  0  0  0  0  0  0
    6.2575   10.1785   24.1388 H   0  0  0  0  0  0  0  0  0  0  0  0
    6.2551   11.2377   25.5619 H   0  0  0  0  0  0  0  0  0  0  0  0
    6.6638    9.5200   25.7353 H   0  0  0  0  0  0  0  0  0  0  0  0
   15.8201   13.7548   24.7113 H   0  0  0  0  0  0  0  0  0  0  0  0
   14.7940   13.0248   25.9692 H   0  0  0  0  0  0  0  0  0  0  0  0
   16.0116   12.0440   25.1628 H   0  0  0  0  0  0  0  0  0  0  0  0
   13.7386   11.5455   24.2561 H   0  0  0  0  0  0  0  0  0  0  0  0
   14.7623   12.2776   22.9933 H   0  0  0  0  0  0  0  0  0  0  0  0
    8.3032    8.7335   24.3366 H   0  0  0  0  0  0  0  0  0  0  0  0
  1  2  2  0  0  0  0
  1  3  1  0  0  0  0
  2  4  1  0  0  0  0
  3  5  2  0  0  0  0
  4  6  2  0  0  0  0
  5  6  1  0  0  0  0
  5  7  1  0  0  0  0
  6 18  1  0  0  0  0
  7 16  1  0  0  0  0
  7 17  2  0  0  0  0
  8  9  1  0  0  0  0
  8 15  1  0  0  0  0
  9 16  1  0  0  0  0
 10 11  1  0  0  0  0
 10 16  1  0  0  0  0
 11 12  1  6  0  0  0
 11 15  1  0  0  0  0
 13 14  1  0  0  0  0
 14 18  1  0  0  0  0
  1 19  1  0  0  0  0
  2 20  1  0  0  0  0
  3 21  1  0  0  0  0
  4 22  1  0  0  0  0
  8 23  1  0  0  0  0
  8 24  1  0  0  0  0
  9 25  1  0  0  0  0
  9 26  1  0  0  0  0
 10 27  1  0  0  0  0
 10 28  1  0  0  0  0
 11 29  1  0  0  0  0
 12 30  1  0  0  0  0
 12 31  1  0  0  0  0
 12 32  1  0  0  0  0
 13 33  1  0  0  0  0
 13 34  1  0  0  0  0
 13 35  1  0  0  0  0
 14 36  1  0  0  0  0
 14 37  1  0  0  0  0
 15 38  1  0  0  0  0
M  END
> <Catalog ID>
Z1766224104

> <PlateID>
1337959-R-10

> <Well>
G10

> <MW (desalted)>
248.321

> <CLogP>
2.026

> <HBD>
1

> <TPSA>
41.570

> <RotBonds>
3

> <ROCS_ShapeQuery>
A71EV2A-x0451_0A_A71EV2A-x0310_0A_A71EV2A-x0416_0A_peptide

> <ROCS_TanimotoCombo>
0.426 

> <ROCS_ShapeTanimoto>
0.282 

> <ROCS_ColorTanimoto>
0.144 

> <ROCS_RefTversky>
0.255 

> <ROCS_RefColorTversky>
0.156 

> <ROCS_RefTverskyCombo>
0.411 

> <ROCS_FitTversky>
1.591 

> <ROCS_FitColorTversky>
0.653 

> <ROCS_FitTverskyCombo>
2.244 

> <ROCS_ColorScore>
-4.757

> <ROCS_Overlap>
1769.324

> <ROCS_Rank>
199                 

$$$$
untitled-dbase-686_24
  -OEChem-11112309163D

 28 28  0     0  0  0  0  0  0999 V2000
    9.0955    9.6636   23.9738 C   0  0  0  0  0  0  0  0  0  0  0  0
    9.9031   10.7518   23.6623 C   0  0  0  0  0  0  0  0  0  0  0  0
    7.8310    9.9181   24.4797 C   0  0  0  0  0  0  0  0  0  0  0  0
    9.4282   12.0430   23.8635 C   0  0  0  0  0  0  0  0  0  0  0  0
    8.1487   12.1911   24.3741 C   0  0  0  0  0  0  0  0  0  0  0  0
   10.2949   13.1652   23.5281 C   0  0  0  0  0  0  0  0  0  0  0  0
    5.9539   12.8858   26.7679 C   0  0  0  0  0  0  0  0  0  0  0  0
    4.8457   14.4619   25.1468 C   0  0  0  0  0  0  0  0  0  0  0  0
   11.5950   14.3051   21.7160 C   0  0  0  0  0  0  0  0  0  0  0  0
    5.8257   13.3061   25.3087 C   0  0  0  0  0  0  0  0  0  0  0  0
    7.3350   11.1583   24.6886 N   0  0  0  0  0  0  0  0  0  0  0  0
   10.7162   13.2640   22.1983 N   0  0  0  0  0  0  0  0  0  0  0  0
   10.6466   13.9718   24.4053 O   0  0  0  0  0  0  0  0  0  0  0  0
    7.4613   13.7909   24.6618 S   0  0  0  0  0  0  0  0  0  0  0  0
    9.4447    8.6484   23.8255 H   0  0  0  0  0  0  0  0  0  0  0  0
   10.8995   10.5791   23.2636 H   0  0  0  0  0  0  0  0  0  0  0  0
    7.1626    9.1038   24.7390 H   0  0  0  0  0  0  0  0  0  0  0  0
    6.3032   13.7270   27.3770 H   0  0  0  0  0  0  0  0  0  0  0  0
    4.9891   12.5659   27.1770 H   0  0  0  0  0  0  0  0  0  0  0  0
    6.6709   12.0669   26.8961 H   0  0  0  0  0  0  0  0  0  0  0  0
    5.1779   15.3274   25.7310 H   0  0  0  0  0  0  0  0  0  0  0  0
    3.8465   14.1908   25.5055 H   0  0  0  0  0  0  0  0  0  0  0  0
    4.7611   14.7829   24.1023 H   0  0  0  0  0  0  0  0  0  0  0  0
   10.9952   15.1330   21.3099 H   0  0  0  0  0  0  0  0  0  0  0  0
   12.2154   14.6746   22.5458 H   0  0  0  0  0  0  0  0  0  0  0  0
   12.2436   13.9002   20.9252 H   0  0  0  0  0  0  0  0  0  0  0  0
    5.4760   12.4527   24.7180 H   0  0  0  0  0  0  0  0  0  0  0  0
   10.4498   12.5418   21.5370 H   0  0  0  0  0  0  0  0  0  0  0  0
  1  2  1  0  0  0  0
  1  3  2  0  0  0  0
  2  4  2  0  0  0  0
  3 11  1  0  0  0  0
  4  5  1  0  0  0  0
  4  6  1  0  0  0  0
  5 11  2  0  0  0  0
  5 14  1  0  0  0  0
  6 12  1  0  0  0  0
  6 13  2  0  0  0  0
  7 10  1  0  0  0  0
  8 10  1  0  0  0  0
  9 12  1  0  0  0  0
 10 14  1  0  0  0  0
  1 15  1  0  0  0  0
  2 16  1  0  0  0  0
  3 17  1  0  0  0  0
  7 18  1  0  0  0  0
  7 19  1  0  0  0  0
  7 20  1  0  0  0  0
  8 21  1  0  0  0  0
  8 22  1  0  0  0  0
  8 23  1  0  0  0  0
  9 24  1  0  0  0  0
  9 25  1  0  0  0  0
  9 26  1  0  0  0  0
 10 27  1  0  0  0  0
 12 28  1  0  0  0  0
M  END
> <Catalog ID>
Z434462422

> <PlateID>
1337959-R-09

> <Well>
E09

> <MW (desalted)>
210.296

> <CLogP>
1.392

> <HBD>
1

> <TPSA>
41.990

> <RotBonds>
3

> <ROCS_ShapeQuery>
A71EV2A-x0451_0A_A71EV2A-x0310_0A_A71EV2A-x0416_0A_peptide

> <ROCS_TanimotoCombo>
0.426 

> <ROCS_ShapeTanimoto>
0.264 

> <ROCS_ColorTanimoto>
0.162 

> <ROCS_RefTversky>
0.236 

> <ROCS_RefColorTversky>
0.169 

> <ROCS_RefTverskyCombo>
0.405 

> <ROCS_FitTversky>
1.789 

> <ROCS_FitColorTversky>
0.809 

> <ROCS_FitTverskyCombo>
2.598 

> <ROCS_ColorScore>
-5.126

> <ROCS_Overlap>
1635.408

> <ROCS_Rank>
200                 

$$$$
untitled-dbase-928_97
  -OEChem-11112309163D

 31 32  0     0  0  0  0  0  0999 V2000
   10.0060   17.4755   20.0804 C   0  0  0  0  0  0  0  0  0  0  0  0
    9.2498   16.5947   20.8537 C   0  0  0  0  0  0  0  0  0  0  0  0
   11.3611   17.2261   19.8633 C   0  0  0  0  0  0  0  0  0  0  0  0
    9.8488   15.4645   21.4100 C   0  0  0  0  0  0  0  0  0  0  0  0
    8.0417   10.0177   24.0359 C   0  0  0  0  0  0  0  0  0  0  0  0
   11.9601   16.0958   20.4197 C   0  0  0  0  0  0  0  0  0  0  0  0
   11.2040   15.2150   21.1930 C   0  0  0  0  0  0  0  0  0  0  0  0
    9.3020   12.0645   23.8791 C   0  0  0  0  0  0  0  0  0  0  0  0
    8.2148   12.0918   24.7272 C   0  0  0  0  0  0  0  0  0  0  0  0
   10.2879   13.1231   23.5405 C   0  0  0  0  0  0  0  0  0  0  0  0
   13.4122   15.8484   20.1729 C   0  0  0  0  0  0  0  0  0  0  0  0
    7.7670   13.2478   25.5314 C   0  0  0  0  0  0  0  0  0  0  0  0
   11.8234   13.9988   21.7994 C   0  0  0  0  0  0  0  0  0  0  0  0
    7.4907   10.9192   24.8181 N   0  0  0  0  0  0  0  0  0  0  0  0
   10.8370   13.0593   22.2667 N   0  0  0  0  0  0  0  0  0  0  0  0
   10.5767   13.9664   24.3854 O   0  0  0  0  0  0  0  0  0  0  0  0
    9.4337   10.5120   23.1624 S   0  0  0  0  0  0  0  0  0  0  0  0
    9.5395   18.3557   19.6482 H   0  0  0  0  0  0  0  0  0  0  0  0
    8.1948   16.7897   21.0226 H   0  0  0  0  0  0  0  0  0  0  0  0
   11.9419   17.9194   19.2606 H   0  0  0  0  0  0  0  0  0  0  0  0
    9.2511   14.7838   22.0107 H   0  0  0  0  0  0  0  0  0  0  0  0
    7.6443    9.0163   23.9435 H   0  0  0  0  0  0  0  0  0  0  0  0
   14.0167   16.3251   20.9532 H   0  0  0  0  0  0  0  0  0  0  0  0
   13.6355   14.7744   20.1649 H   0  0  0  0  0  0  0  0  0  0  0  0
   13.7220   16.2462   19.1986 H   0  0  0  0  0  0  0  0  0  0  0  0
    7.0486   13.8661   24.9697 H   0  0  0  0  0  0  0  0  0  0  0  0
    7.2792   12.9334   26.4691 H   0  0  0  0  0  0  0  0  0  0  0  0
    8.6094   13.8954   25.8269 H   0  0  0  0  0  0  0  0  0  0  0  0
   12.4601   13.4769   21.0726 H   0  0  0  0  0  0  0  0  0  0  0  0
   12.4618   14.2580   22.6542 H   0  0  0  0  0  0  0  0  0  0  0  0
   10.5924   12.2918   21.6457 H   0  0  0  0  0  0  0  0  0  0  0  0
  1  2  2  0  0  0  0
  1  3  1  0  0  0  0
  2  4  1  0  0  0  0
  3  6  2  0  0  0  0
  4  7  2  0  0  0  0
  5 14  2  0  0  0  0
  5 17  1  0  0  0  0
  6  7  1  0  0  0  0
  6 11  1  0  0  0  0
  7 13  1  0  0  0  0
  8  9  2  0  0  0  0
  8 10  1  0  0  0  0
  8 17  1  0  0  0  0
  9 12  1  0  0  0  0
  9 14  1  0  0  0  0
 10 15  1  0  0  0  0
 10 16  2  0  0  0  0
 13 15  1  0  0  0  0
  1 18  1  0  0  0  0
  2 19  1  0  0  0  0
  3 20  1  0  0  0  0
  4 21  1  0  0  0  0
  5 22  1  0  0  0  0
 11 23  1  0  0  0  0
 11 24  1  0  0  0  0
 11 25  1  0  0  0  0
 12 26  1  0  0  0  0
 12 27  1  0  0  0  0
 12 28  1  0  0  0  0
 13 29  1  0  0  0  0
 13 30  1  0  0  0  0
 15 31  1  0  0  0  0
M  END
> <Catalog ID>
Z420031520

> <PlateID>
1337959-R-12

> <Well>
F02

> <MW (desalted)>
246.328

> <CLogP>
2.541

> <HBD>
1

> <TPSA>
41.990

> <RotBonds>
3

> <ROCS_ShapeQuery>
A71EV2A-x0451_0A_A71EV2A-x0310_0A_A71EV2A-x0416_0A_peptide

> <ROCS_TanimotoCombo>
0.426 

> <ROCS_ShapeTanimoto>
0.261 

> <ROCS_ColorTanimoto>
0.165 

> <ROCS_RefTversky>
0.239 

> <ROCS_RefColorTversky>
0.171 

> <ROCS_RefTverskyCombo>
0.410 

> <ROCS_FitTversky>
1.554 

> <ROCS_FitColorTversky>
0.820 

> <ROCS_FitTverskyCombo>
2.375 

> <ROCS_ColorScore>
-5.197

> <ROCS_Overlap>
1654.953

> <ROCS_Rank>
201                 

$$$$
untitled-dbase-891_5
  -OEChem-11112309163D

 33 34  0     0  0  0  0  0  0999 V2000
    7.1767    7.5878   24.4144 C   0  0  0  0  0  0  0  0  0  0  0  0
    6.8810    8.8070   24.8764 C   0  0  0  0  0  0  0  0  0  0  0  0
    8.2970    7.3841   23.5395 C   0  0  0  0  0  0  0  0  0  0  0  0
    8.2255   12.1875   24.5446 C   0  0  0  0  0  0  0  0  0  0  0  0
    9.0589    8.4222   23.1776 C   0  0  0  0  0  0  0  0  0  0  0  0
    9.2855   12.0884   23.7347 C   0  0  0  0  0  0  0  0  0  0  0  0
    7.7243    9.9739   24.4794 C   0  0  0  0  0  0  0  0  0  0  0  0
    9.6497   10.7516   23.1986 C   0  0  0  0  0  0  0  0  0  0  0  0
   10.0293   13.3110   23.4229 C   0  0  0  0  0  0  0  0  0  0  0  0
   12.3108   13.4811   21.0491 C   0  0  0  0  0  0  0  0  0  0  0  0
    8.0537   14.4980   21.0701 C   0  0  0  0  0  0  0  0  0  0  0  0
   11.2679   14.4212   21.5506 C   0  0  0  0  0  0  0  0  0  0  0  0
    9.0613   13.4003   21.1185 C   0  0  0  0  0  0  0  0  0  0  0  0
    7.4230   11.1524   24.9375 N   0  0  0  0  0  0  0  0  0  0  0  0
    8.8062    9.7158   23.6221 N   0  0  0  0  0  0  0  0  0  0  0  0
   10.1154   13.6961   22.0801 N   0  0  0  0  0  0  0  0  0  0  0  0
   10.6196   10.6350   22.4521 O   0  0  0  0  0  0  0  0  0  0  0  0
   10.5537   13.9350   24.3545 O   0  0  0  0  0  0  0  0  0  0  0  0
    6.5775    6.7276   24.6902 H   0  0  0  0  0  0  0  0  0  0  0  0
    6.0391    8.9767   25.5372 H   0  0  0  0  0  0  0  0  0  0  0  0
    8.5061    6.3815   23.1853 H   0  0  0  0  0  0  0  0  0  0  0  0
    7.9332   13.1505   24.9533 H   0  0  0  0  0  0  0  0  0  0  0  0
    9.9067    8.2769   22.5172 H   0  0  0  0  0  0  0  0  0  0  0  0
   11.8873   12.8556   20.2495 H   0  0  0  0  0  0  0  0  0  0  0  0
   13.1619   14.0550   20.6537 H   0  0  0  0  0  0  0  0  0  0  0  0
   12.6530   12.8393   21.8742 H   0  0  0  0  0  0  0  0  0  0  0  0
    8.5471   15.4367   20.7779 H   0  0  0  0  0  0  0  0  0  0  0  0
    7.2751   14.2487   20.3342 H   0  0  0  0  0  0  0  0  0  0  0  0
    7.5950   14.6186   22.0626 H   0  0  0  0  0  0  0  0  0  0  0  0
   11.6990   15.0427   22.3493 H   0  0  0  0  0  0  0  0  0  0  0  0
   10.9373   15.0656   20.7227 H   0  0  0  0  0  0  0  0  0  0  0  0
    8.5603   12.4657   21.4112 H   0  0  0  0  0  0  0  0  0  0  0  0
    9.5088   13.2795   20.1210 H   0  0  0  0  0  0  0  0  0  0  0  0
  1  2  2  0  0  0  0
  1  3  1  0  0  0  0
  2  7  1  0  0  0  0
  3  5  2  0  0  0  0
  4  6  2  0  0  0  0
  4 14  1  0  0  0  0
  5 15  1  0  0  0  0
  6  8  1  0  0  0  0
  6  9  1  0  0  0  0
  7 14  2  0  0  0  0
  7 15  1  0  0  0  0
  8 15  1  0  0  0  0
  8 17  2  0  0  0  0
  9 16  1  0  0  0  0
  9 18  2  0  0  0  0
 10 12  1  0  0  0  0
 11 13  1  0  0  0  0
 12 16  1  0  0  0  0
 13 16  1  0  0  0  0
  1 19  1  0  0  0  0
  2 20  1  0  0  0  0
  3 21  1  0  0  0  0
  4 22  1  0  0  0  0
  5 23  1  0  0  0  0
 10 24  1  0  0  0  0
 10 25  1  0  0  0  0
 10 26  1  0  0  0  0
 11 27  1  0  0  0  0
 11 28  1  0  0  0  0
 11 29  1  0  0  0  0
 12 30  1  0  0  0  0
 12 31  1  0  0  0  0
 13 32  1  0  0  0  0
 13 33  1  0  0  0  0
M  END
> <Catalog ID>
Z240162048

> <PlateID>
1337959-R-12

> <Well>
B05

> <MW (desalted)>
245.277

> <CLogP>
0.059

> <HBD>
0

> <TPSA>
52.980

> <RotBonds>
3

> <ROCS_ShapeQuery>
A71EV2A-x0451_0A_A71EV2A-x0310_0A_A71EV2A-x0416_0A_peptide

> <ROCS_TanimotoCombo>
0.426 

> <ROCS_ShapeTanimoto>
0.294 

> <ROCS_ColorTanimoto>
0.132 

> <ROCS_RefTversky>
0.265 

> <ROCS_RefColorTversky>
0.141 

> <ROCS_RefTverskyCombo>
0.405 

> <ROCS_FitTversky>
1.615 

> <ROCS_FitColorTversky>
0.674 

> <ROCS_FitTverskyCombo>
2.289 

> <ROCS_ColorScore>
-4.272

> <ROCS_Overlap>
1834.847

> <ROCS_Rank>
202                 

$$$$
untitled-dbase-804_124
  -OEChem-11112309163D

 28 29  0     0  0  0  0  0  0999 V2000
    9.2245   16.5703   20.8583 C   0  0  0  0  0  0  0  0  0  0  0  0
    9.9648   17.4593   20.0791 C   0  0  0  0  0  0  0  0  0  0  0  0
    9.8408   15.4483   21.4123 C   0  0  0  0  0  0  0  0  0  0  0  0
   11.3215   17.2263   19.8538 C   0  0  0  0  0  0  0  0  0  0  0  0
    8.0424   10.0183   24.0382 C   0  0  0  0  0  0  0  0  0  0  0  0
   11.1975   15.2152   21.1869 C   0  0  0  0  0  0  0  0  0  0  0  0
   11.9378   16.1042   20.4077 C   0  0  0  0  0  0  0  0  0  0  0  0
    9.3005   12.0663   23.8787 C   0  0  0  0  0  0  0  0  0  0  0  0
    8.2133   12.0935   24.7268 C   0  0  0  0  0  0  0  0  0  0  0  0
   10.2852   13.1255   23.5387 C   0  0  0  0  0  0  0  0  0  0  0  0
    7.7643   13.2500   25.5295 C   0  0  0  0  0  0  0  0  0  0  0  0
   11.8197   14.0006   21.7965 C   0  0  0  0  0  0  0  0  0  0  0  0
    7.4904   10.9202   24.8192 N   0  0  0  0  0  0  0  0  0  0  0  0
   10.8347   13.0609   22.2649 N   0  0  0  0  0  0  0  0  0  0  0  0
   10.5732   13.9702   24.3826 O   0  0  0  0  0  0  0  0  0  0  0  0
    9.4338   10.5130   23.1640 S   0  0  0  0  0  0  0  0  0  0  0  0
   13.6182   15.8490   20.1072 Cl  0  0  0  0  0  0  0  0  0  0  0  0
    8.1682   16.7524   21.0344 H   0  0  0  0  0  0  0  0  0  0  0  0
    9.4848   18.3335   19.6490 H   0  0  0  0  0  0  0  0  0  0  0  0
    9.2548   14.7621   22.0182 H   0  0  0  0  0  0  0  0  0  0  0  0
   11.8845   17.9294   19.2452 H   0  0  0  0  0  0  0  0  0  0  0  0
    7.6461    9.0163   23.9470 H   0  0  0  0  0  0  0  0  0  0  0  0
    7.0452   13.8668   24.9670 H   0  0  0  0  0  0  0  0  0  0  0  0
    7.2768   12.9363   26.4677 H   0  0  0  0  0  0  0  0  0  0  0  0
    8.6060   13.8989   25.8242 H   0  0  0  0  0  0  0  0  0  0  0  0
   12.4573   13.4794   21.0704 H   0  0  0  0  0  0  0  0  0  0  0  0
   12.4569   14.2637   22.6505 H   0  0  0  0  0  0  0  0  0  0  0  0
   10.5906   12.2921   21.6450 H   0  0  0  0  0  0  0  0  0  0  0  0
  1  2  2  0  0  0  0
  1  3  1  0  0  0  0
  2  4  1  0  0  0  0
  3  6  2  0  0  0  0
  4  7  2  0  0  0  0
  5 13  2  0  0  0  0
  5 16  1  0  0  0  0
  6  7  1  0  0  0  0
  6 12  1  0  0  0  0
  7 17  1  0  0  0  0
  8  9  2  0  0  0  0
  8 10  1  0  0  0  0
  8 16  1  0  0  0  0
  9 11  1  0  0  0  0
  9 13  1  0  0  0  0
 10 14  1  0  0  0  0
 10 15  2  0  0  0  0
 12 14  1  0  0  0  0
  1 18  1  0  0  0  0
  2 19  1  0  0  0  0
  3 20  1  0  0  0  0
  4 21  1  0  0  0  0
  5 22  1  0  0  0  0
 11 23  1  0  0  0  0
 11 24  1  0  0  0  0
 11 25  1  0  0  0  0
 12 26  1  0  0  0  0
 12 27  1  0  0  0  0
 14 28  1  0  0  0  0
M  END
> <Catalog ID>
Z420000170

> <PlateID>
1337959-R-11

> <Well>
A07

> <MW (desalted)>
266.747

> <CLogP>
2.805

> <HBD>
1

> <TPSA>
41.990

> <RotBonds>
3

> <ROCS_ShapeQuery>
A71EV2A-x0451_0A_A71EV2A-x0310_0A_A71EV2A-x0416_0A_peptide

> <ROCS_TanimotoCombo>
0.426 

> <ROCS_ShapeTanimoto>
0.261 

> <ROCS_ColorTanimoto>
0.165 

> <ROCS_RefTversky>
0.238 

> <ROCS_RefColorTversky>
0.171 

> <ROCS_RefTverskyCombo>
0.410 

> <ROCS_FitTversky>
1.562 

> <ROCS_FitColorTversky>
0.820 

> <ROCS_FitTverskyCombo>
2.383 

> <ROCS_ColorScore>
-5.197

> <ROCS_Overlap>
1652.825

> <ROCS_Rank>
203                 

$$$$
untitled-dbase-1027_331
  -OEChem-11112309163D

 31 32  0     1  0  0  0  0  0999 V2000
   14.0281   14.7062   24.6825 C   0  0  0  0  0  0  0  0  0  0  0  0
   13.9002   16.0633   24.9566 C   0  0  0  0  0  0  0  0  0  0  0  0
   13.3184   14.1461   23.6261 C   0  0  0  0  0  0  0  0  0  0  0  0
    8.6552    9.8549   23.6853 C   0  0  0  0  0  0  0  0  0  0  0  0
   13.0565   16.8109   24.1511 C   0  0  0  0  0  0  0  0  0  0  0  0
    7.8235   10.4762   24.5907 C   0  0  0  0  0  0  0  0  0  0  0  0
    9.6388   10.7444   23.1641 C   0  0  0  0  0  0  0  0  0  0  0  0
    9.5212   12.0118   23.6910 C   0  0  0  0  0  0  0  0  0  0  0  0
   12.5006   14.9795   22.8802 C   0  0  0  0  0  0  0  0  0  0  0  0
   10.3374   13.2228   23.4181 C   0  0  0  0  0  0  0  0  0  0  0  0
   10.6628   10.3388   22.1711 C   0  0  0  0  0  0  0  0  0  0  0  0
   10.8768   15.4600   21.0028 C   0  0  0  0  0  0  0  0  0  0  0  0
   11.7240   14.4121   21.7392 C   0  0  2  0  0  0  0  0  0  0  0  0
   12.3508   16.3022   23.1162 N   0  0  0  0  0  0  0  0  0  0  0  0
   10.8820   13.3021   22.1506 N   0  0  0  0  0  0  0  0  0  0  0  0
   10.4974   14.0521   24.3099 O   0  0  0  0  0  0  0  0  0  0  0  0
    8.2294   12.1254   24.8093 S   0  0  0  0  0  0  0  0  0  0  0  0
   14.6797   14.0863   25.2910 H   0  0  0  0  0  0  0  0  0  0  0  0
   14.4438   16.5213   25.7750 H   0  0  0  0  0  0  0  0  0  0  0  0
   13.4094   13.0887   23.4018 H   0  0  0  0  0  0  0  0  0  0  0  0
    8.5583    8.8114   23.4133 H   0  0  0  0  0  0  0  0  0  0  0  0
   12.9220   17.8738   24.3232 H   0  0  0  0  0  0  0  0  0  0  0  0
    6.9970   10.0406   25.1342 H   0  0  0  0  0  0  0  0  0  0  0  0
   10.2941   10.4904   21.1460 H   0  0  0  0  0  0  0  0  0  0  0  0
   11.5933   10.9153   22.2875 H   0  0  0  0  0  0  0  0  0  0  0  0
   10.9387    9.2786   22.2810 H   0  0  0  0  0  0  0  0  0  0  0  0
   10.1688   15.9372   21.6892 H   0  0  0  0  0  0  0  0  0  0  0  0
   11.5061   16.2433   20.5657 H   0  0  0  0  0  0  0  0  0  0  0  0
   10.3034   15.0130   20.1829 H   0  0  0  0  0  0  0  0  0  0  0  0
   12.4095   13.9753   20.9920 H   0  0  0  0  0  0  0  0  0  0  0  0
   10.7619   12.5516   21.4833 H   0  0  0  0  0  0  0  0  0  0  0  0
  1  2  2  0  0  0  0
  1  3  1  0  0  0  0
  2  5  1  0  0  0  0
  3  9  2  0  0  0  0
  4  6  2  0  0  0  0
  4  7  1  0  0  0  0
  5 14  2  0  0  0  0
  6 17  1  0  0  0  0
  7  8  2  0  0  0  0
  7 11  1  0  0  0  0
  8 10  1  0  0  0  0
  8 17  1  0  0  0  0
  9 13  1  0  0  0  0
  9 14  1  0  0  0  0
 10 15  1  0  0  0  0
 10 16  2  0  0  0  0
 12 13  1  0  0  0  0
 13 15  1  0  0  0  0
  1 18  1  0  0  0  0
  2 19  1  0  0  0  0
  3 20  1  0  0  0  0
  4 21  1  0  0  0  0
  5 22  1  0  0  0  0
  6 23  1  0  0  0  0
 11 24  1  0  0  0  0
 11 25  1  0  0  0  0
 11 26  1  0  0  0  0
 12 27  1  0  0  0  0
 12 28  1  0  0  0  0
 12 29  1  0  0  0  0
 13 30  1  0  0  0  0
 15 31  1  0  0  0  0
M  END
> <Catalog ID>
Z27633445

> <PlateID>
1337959-R-13

> <Well>
H02

> <MW (desalted)>
246.328

> <CLogP>
1.638

> <HBD>
1

> <TPSA>
41.990

> <RotBonds>
3

> <ROCS_ShapeQuery>
A71EV2A-x0451_0A_A71EV2A-x0310_0A_A71EV2A-x0416_0A_peptide

> <ROCS_TanimotoCombo>
0.426 

> <ROCS_ShapeTanimoto>
0.255 

> <ROCS_ColorTanimoto>
0.171 

> <ROCS_RefTversky>
0.234 

> <ROCS_RefColorTversky>
0.176 

> <ROCS_RefTverskyCombo>
0.411 

> <ROCS_FitTversky>
1.525 

> <ROCS_FitColorTversky>
0.845 

> <ROCS_FitTverskyCombo>
2.370 

> <ROCS_ColorScore>
-5.354

> <ROCS_Overlap>
1624.853

> <ROCS_Rank>
204                 

$$$$
untitled-dbase-593_147
  -OEChem-11112309163D

 29 30  0     0  0  0  0  0  0999 V2000
   13.0292   15.7767   18.3164 C   0  0  0  0  0  0  0  0  0  0  0  0
    9.4070    9.6711   23.3017 C   0  0  0  0  0  0  0  0  0  0  0  0
   13.9740   16.4301   19.0998 C   0  0  0  0  0  0  0  0  0  0  0  0
    8.1080    9.8865   23.7618 C   0  0  0  0  0  0  0  0  0  0  0  0
   10.3099   10.7325   23.2397 C   0  0  0  0  0  0  0  0  0  0  0  0
   12.2320   14.7865   18.8796 C   0  0  0  0  0  0  0  0  0  0  0  0
    8.6147   12.2247   24.0977 C   0  0  0  0  0  0  0  0  0  0  0  0
   14.0815   16.0593   20.4305 C   0  0  0  0  0  0  0  0  0  0  0  0
    7.7118   11.1633   24.1598 C   0  0  0  0  0  0  0  0  0  0  0  0
    9.9138   12.0093   23.6377 C   0  0  0  0  0  0  0  0  0  0  0  0
   12.4176   14.4892   20.2201 C   0  0  0  0  0  0  0  0  0  0  0  0
   11.5743   13.4252   20.8613 C   0  0  0  0  0  0  0  0  0  0  0  0
   13.3249   15.1023   21.0129 N   0  0  0  0  0  0  0  0  0  0  0  0
   10.7889   13.9502   21.9875 N   0  0  0  0  0  0  0  0  0  0  0  0
   10.6417   14.3519   24.5279 O   0  0  0  0  0  0  0  0  0  0  0  0
   12.3892   12.7809   23.6321 O   0  0  0  0  0  0  0  0  0  0  0  0
    6.4641   11.3699   24.6013 F   0  0  0  0  0  0  0  0  0  0  0  0
   11.0444   13.3371   23.5624 S   0  0  0  0  0  0  0  0  0  0  0  0
   12.9145   16.0389   17.2689 H   0  0  0  0  0  0  0  0  0  0  0  0
    9.7149    8.6768   22.9917 H   0  0  0  0  0  0  0  0  0  0  0  0
   14.6063   17.2051   18.6820 H   0  0  0  0  0  0  0  0  0  0  0  0
    7.4048    9.0601   23.8100 H   0  0  0  0  0  0  0  0  0  0  0  0
   11.3199   10.5532   22.8804 H   0  0  0  0  0  0  0  0  0  0  0  0
   11.4913   14.2693   18.2793 H   0  0  0  0  0  0  0  0  0  0  0  0
    8.2945   13.2152   24.4101 H   0  0  0  0  0  0  0  0  0  0  0  0
   14.8030   16.5386   21.0840 H   0  0  0  0  0  0  0  0  0  0  0  0
   10.8763   12.9956   20.1346 H   0  0  0  0  0  0  0  0  0  0  0  0
   12.1953   12.6062   21.2392 H   0  0  0  0  0  0  0  0  0  0  0  0
   10.4342   14.9085   21.8816 H   0  0  0  0  0  0  0  0  0  0  0  0
  1  3  2  0  0  0  0
  1  6  1  0  0  0  0
  2  4  1  0  0  0  0
  2  5  2  0  0  0  0
  3  8  1  0  0  0  0
  4  9  2  0  0  0  0
  5 10  1  0  0  0  0
  6 11  2  0  0  0  0
  7  9  1  0  0  0  0
  7 10  2  0  0  0  0
  8 13  2  0  0  0  0
  9 17  1  0  0  0  0
 10 18  1  0  0  0  0
 11 12  1  0  0  0  0
 11 13  1  0  0  0  0
 12 14  1  0  0  0  0
 14 18  1  0  0  0  0
 15 18  2  0  0  0  0
 16 18  2  0  0  0  0
  1 19  1  0  0  0  0
  2 20  1  0  0  0  0
  3 21  1  0  0  0  0
  4 22  1  0  0  0  0
  5 23  1  0  0  0  0
  6 24  1  0  0  0  0
  7 25  1  0  0  0  0
  8 26  1  0  0  0  0
 12 27  1  0  0  0  0
 12 28  1  0  0  0  0
 14 29  1  0  0  0  0
M  END
> <Catalog ID>
Z45524387

> <PlateID>
1337959-R-08

> <Well>
D05

> <MW (desalted)>
266.291

> <CLogP>
1.637

> <HBD>
1

> <TPSA>
59.060

> <RotBonds>
3

> <ROCS_ShapeQuery>
A71EV2A-x0451_0A_A71EV2A-x0310_0A_A71EV2A-x0416_0A_peptide

> <ROCS_TanimotoCombo>
0.426 

> <ROCS_ShapeTanimoto>
0.286 

> <ROCS_ColorTanimoto>
0.140 

> <ROCS_RefTversky>
0.258 

> <ROCS_RefColorTversky>
0.152 

> <ROCS_RefTverskyCombo>
0.410 

> <ROCS_FitTversky>
1.613 

> <ROCS_FitColorTversky>
0.634 

> <ROCS_FitTverskyCombo>
2.247 

> <ROCS_ColorScore>
-4.622

> <ROCS_Overlap>
1788.803

> <ROCS_Rank>
205                 

$$$$
untitled-dbase-727_43
  -OEChem-11112309163D

 40 41  0     1  0  0  0  0  0999 V2000
    7.8142   10.8420   24.3838 C   0  0  0  0  0  0  0  0  0  0  0  0
   10.5333   13.2383   23.7521 C   0  0  0  0  0  0  0  0  0  0  0  0
    8.4572   12.1669   24.7312 C   0  0  0  0  0  0  0  0  0  0  0  0
   13.3967   14.3379   23.1651 C   0  0  0  0  0  0  0  0  0  0  0  0
   12.6611   13.1766   22.4993 C   0  0  0  0  0  0  0  0  0  0  0  0
   12.9964   15.6670   22.5421 C   0  0  0  0  0  0  0  0  0  0  0  0
    9.6826   11.0453   22.9950 C   0  0  0  0  0  0  0  0  0  0  0  0
   11.1564   13.4405   22.3939 C   0  0  2  0  0  0  0  0  0  0  0  0
   10.8859   14.8444   21.8326 C   0  0  1  0  0  0  0  0  0  0  0  0
    8.6124   14.2636   20.9709 C   0  0  0  0  0  0  0  0  0  0  0  0
    8.9700    7.8566   23.4907 C   0  0  0  0  0  0  0  0  0  0  0  0
    9.4053   15.2083   21.8149 C   0  0  0  0  0  0  0  0  0  0  0  0
    8.2907    8.9647   22.7605 C   0  0  0  0  0  0  0  0  0  0  0  0
    8.5631   10.2428   23.3809 N   0  0  0  0  0  0  0  0  0  0  0  0
    9.6029   12.2169   23.8337 N   0  0  0  0  0  0  0  0  0  0  0  0
    6.8038   10.4114   24.9225 O   0  0  0  0  0  0  0  0  0  0  0  0
   10.8564   13.9545   24.7011 O   0  0  0  0  0  0  0  0  0  0  0  0
   11.5813   15.8428   22.5871 O   0  0  0  0  0  0  0  0  0  0  0  0
    7.7802   12.9971   24.5179 H   0  0  0  0  0  0  0  0  0  0  0  0
    8.7958   12.1767   25.7697 H   0  0  0  0  0  0  0  0  0  0  0  0
   13.1449   14.3515   24.2324 H   0  0  0  0  0  0  0  0  0  0  0  0
   14.4796   14.1933   23.0881 H   0  0  0  0  0  0  0  0  0  0  0  0
   13.0666   13.0369   21.4891 H   0  0  0  0  0  0  0  0  0  0  0  0
   12.8599   12.2510   23.0526 H   0  0  0  0  0  0  0  0  0  0  0  0
   13.4524   16.4911   23.0999 H   0  0  0  0  0  0  0  0  0  0  0  0
   13.3417   15.7411   21.5041 H   0  0  0  0  0  0  0  0  0  0  0  0
   10.6211   10.5141   23.1808 H   0  0  0  0  0  0  0  0  0  0  0  0
    9.6065   11.3327   21.9418 H   0  0  0  0  0  0  0  0  0  0  0  0
   10.7065   12.6880   21.7347 H   0  0  0  0  0  0  0  0  0  0  0  0
   11.2484   14.8891   20.7967 H   0  0  0  0  0  0  0  0  0  0  0  0
    8.9966   14.2741   19.9441 H   0  0  0  0  0  0  0  0  0  0  0  0
    7.5578   14.5577   20.9417 H   0  0  0  0  0  0  0  0  0  0  0  0
    8.6909   13.2401   21.3525 H   0  0  0  0  0  0  0  0  0  0  0  0
    8.6131    7.8293   24.5309 H   0  0  0  0  0  0  0  0  0  0  0  0
    8.7412    6.8994   22.9994 H   0  0  0  0  0  0  0  0  0  0  0  0
   10.0573    8.0233   23.4806 H   0  0  0  0  0  0  0  0  0  0  0  0
    9.0194   15.1953   22.8384 H   0  0  0  0  0  0  0  0  0  0  0  0
    9.2896   16.2260   21.4308 H   0  0  0  0  0  0  0  0  0  0  0  0
    8.6528    8.9853   21.7220 H   0  0  0  0  0  0  0  0  0  0  0  0
    7.2053    8.7866   22.7669 H   0  0  0  0  0  0  0  0  0  0  0  0
  1  3  1  0  0  0  0
  1 14  1  0  0  0  0
  1 16  2  0  0  0  0
  2  8  1  0  0  0  0
  2 15  1  0  0  0  0
  2 17  2  0  0  0  0
  3 15  1  0  0  0  0
  4  5  1  0  0  0  0
  4  6  1  0  0  0  0
  5  8  1  0  0  0  0
  6 18  1  0  0  0  0
  7 14  1  0  0  0  0
  7 15  1  0  0  0  0
  8  9  1  0  0  0  0
  9 12  1  0  0  0  0
  9 18  1  0  0  0  0
 10 12  1  0  0  0  0
 11 13  1  0  0  0  0
 13 14  1  0  0  0  0
  3 19  1  0  0  0  0
  3 20  1  0  0  0  0
  4 21  1  0  0  0  0
  4 22  1  0  0  0  0
  5 23  1  0  0  0  0
  5 24  1  0  0  0  0
  6 25  1  0  0  0  0
  6 26  1  0  0  0  0
  7 27  1  0  0  0  0
  7 28  1  0  0  0  0
  8 29  1  0  0  0  0
  9 30  1  0  0  0  0
 10 31  1  0  0  0  0
 10 32  1  0  0  0  0
 10 33  1  0  0  0  0
 11 34  1  0  0  0  0
 11 35  1  0  0  0  0
 11 36  1  0  0  0  0
 12 37  1  0  0  0  0
 12 38  1  0  0  0  0
 13 39  1  0  0  0  0
 13 40  1  0  0  0  0
M  END
> <Catalog ID>
Z1866805849

> <PlateID>
1337959-R-10

> <Well>
A10

> <MW (desalted)>
254.325

> <CLogP>
1.599

> <HBD>
0

> <TPSA>
49.850

> <RotBonds>
3

> <ROCS_ShapeQuery>
A71EV2A-x0451_0A_A71EV2A-x0310_0A_A71EV2A-x0416_0A_peptide

> <ROCS_TanimotoCombo>
0.426 

> <ROCS_ShapeTanimoto>
0.297 

> <ROCS_ColorTanimoto>
0.128 

> <ROCS_RefTversky>
0.266 

> <ROCS_RefColorTversky>
0.141 

> <ROCS_RefTverskyCombo>
0.407 

> <ROCS_FitTversky>
1.659 

> <ROCS_FitColorTversky>
0.588 

> <ROCS_FitTverskyCombo>
2.247 

> <ROCS_ColorScore>
-4.287

> <ROCS_Overlap>
1844.106

> <ROCS_Rank>
206                 

$$$$
untitled-dbase-633_298
  -OEChem-11112309163D

 33 34  0     0  0  0  0  0  0999 V2000
   12.0300   15.8367   22.4107 C   0  0  0  0  0  0  0  0  0  0  0  0
    7.7535    9.7131   24.1484 C   0  0  0  0  0  0  0  0  0  0  0  0
    9.0599    9.9454   23.6292 C   0  0  0  0  0  0  0  0  0  0  0  0
    7.2641   10.8076   24.8268 C   0  0  0  0  0  0  0  0  0  0  0  0
    9.5192   11.2088   23.9304 C   0  0  0  0  0  0  0  0  0  0  0  0
   10.7513   13.3378   23.3587 C   0  0  0  0  0  0  0  0  0  0  0  0
    9.6896   16.7995   20.6403 C   0  0  0  0  0  0  0  0  0  0  0  0
   10.8062   16.4731   19.6492 C   0  0  0  0  0  0  0  0  0  0  0  0
    9.6727   15.6570   21.6547 C   0  0  0  0  0  0  0  0  0  0  0  0
   11.4090   15.1466   20.1089 C   0  0  0  0  0  0  0  0  0  0  0  0
   11.0794   15.0541   21.6015 C   0  0  0  0  0  0  0  0  0  0  0  0
    5.9584   10.9627   25.5041 C   0  0  0  0  0  0  0  0  0  0  0  0
   10.8380   11.8380   23.5666 C   0  0  0  0  0  0  0  0  0  0  0  0
   12.7786   16.4530   23.0480 N   0  0  0  0  0  0  0  0  0  0  0  0
   11.0864   13.6882   22.0604 N   0  0  0  0  0  0  0  0  0  0  0  0
   10.4200   14.1265   24.2401 O   0  0  0  0  0  0  0  0  0  0  0  0
    8.3777   12.1085   24.8358 S   0  0  0  0  0  0  0  0  0  0  0  0
    7.2034    8.7885   24.0269 H   0  0  0  0  0  0  0  0  0  0  0  0
    9.6297    9.2201   23.0625 H   0  0  0  0  0  0  0  0  0  0  0  0
    9.8512   17.7643   21.1324 H   0  0  0  0  0  0  0  0  0  0  0  0
    8.7296   16.8579   20.1139 H   0  0  0  0  0  0  0  0  0  0  0  0
   10.3922   16.3770   18.6388 H   0  0  0  0  0  0  0  0  0  0  0  0
   11.5641   17.2627   19.6169 H   0  0  0  0  0  0  0  0  0  0  0  0
    9.4613   16.0658   22.6536 H   0  0  0  0  0  0  0  0  0  0  0  0
    8.8809   14.9278   21.4408 H   0  0  0  0  0  0  0  0  0  0  0  0
   11.0268   14.2975   19.5285 H   0  0  0  0  0  0  0  0  0  0  0  0
   12.4969   15.1713   19.9501 H   0  0  0  0  0  0  0  0  0  0  0  0
    6.0204   10.6465   26.5571 H   0  0  0  0  0  0  0  0  0  0  0  0
    5.6074   12.0074   25.4853 H   0  0  0  0  0  0  0  0  0  0  0  0
    5.1700   10.3650   25.0178 H   0  0  0  0  0  0  0  0  0  0  0  0
   11.5733   11.6322   24.3549 H   0  0  0  0  0  0  0  0  0  0  0  0
   11.2271   11.3789   22.6490 H   0  0  0  0  0  0  0  0  0  0  0  0
   11.3464   12.9557   21.4089 H   0  0  0  0  0  0  0  0  0  0  0  0
  1 11  1  0  0  0  0
  1 14  3  0  0  0  0
  2  3  1  0  0  0  0
  2  4  2  0  0  0  0
  3  5  2  0  0  0  0
  4 12  1  0  0  0  0
  4 17  1  0  0  0  0
  5 13  1  0  0  0  0
  5 17  1  0  0  0  0
  6 13  1  0  0  0  0
  6 15  1  0  0  0  0
  6 16  2  0  0  0  0
  7  8  1  0  0  0  0
  7  9  1  0  0  0  0
  8 10  1  0  0  0  0
  9 11  1  0  0  0  0
 10 11  1  0  0  0  0
 11 15  1  0  0  0  0
  2 18  1  0  0  0  0
  3 19  1  0  0  0  0
  7 20  1  0  0  0  0
  7 21  1  0  0  0  0
  8 22  1  0  0  0  0
  8 23  1  0  0  0  0
  9 24  1  0  0  0  0
  9 25  1  0  0  0  0
 10 26  1  0  0  0  0
 10 27  1  0  0  0  0
 12 28  1  0  0  0  0
 12 29  1  0  0  0  0
 12 30  1  0  0  0  0
 13 31  1  0  0  0  0
 13 32  1  0  0  0  0
 15 33  1  0  0  0  0
M  END
> <Catalog ID>
Z1005547924

> <PlateID>
1337959-R-08

> <Well>
H06

> <MW (desalted)>
248.344

> <CLogP>
1.800

> <HBD>
1

> <TPSA>
52.890

> <RotBonds>
3

> <ROCS_ShapeQuery>
A71EV2A-x0451_0A_A71EV2A-x0310_0A_A71EV2A-x0416_0A_peptide

> <ROCS_TanimotoCombo>
0.425 

> <ROCS_ShapeTanimoto>
0.277 

> <ROCS_ColorTanimoto>
0.149 

> <ROCS_RefTversky>
0.250 

> <ROCS_RefColorTversky>
0.156 

> <ROCS_RefTverskyCombo>
0.406 

> <ROCS_FitTversky>
1.648 

> <ROCS_FitColorTversky>
0.749 

> <ROCS_FitTverskyCombo>
2.397 

> <ROCS_ColorScore>
-4.747

> <ROCS_Overlap>
1731.269

> <ROCS_Rank>
207                 

$$$$
untitled-dbase-1097_40
  -OEChem-11112309163D

 36 37  0     1  0  0  0  0  0999 V2000
    8.0119   10.2135   23.7267 C   0  0  0  0  0  0  0  0  0  0  0  0
    9.2917   12.2465   23.9034 C   0  0  0  0  0  0  0  0  0  0  0  0
    8.1729   12.1692   24.7061 C   0  0  0  0  0  0  0  0  0  0  0  0
   10.2878   13.3193   23.7538 C   0  0  0  0  0  0  0  0  0  0  0  0
   11.5024   14.7715   20.5894 C   0  0  0  0  0  0  0  0  0  0  0  0
   11.7096   14.4401   22.0602 C   0  0  0  0  0  0  0  0  0  0  0  0
    9.3976   14.0886   21.4863 C   0  0  0  0  0  0  0  0  0  0  0  0
   10.0049   15.0745   20.4878 C   0  0  1  0  0  0  0  0  0  0  0  0
    7.3864   14.5535   24.9119 C   0  0  0  0  0  0  0  0  0  0  0  0
    8.7733   13.5243   26.7432 C   0  0  0  0  0  0  0  0  0  0  0  0
    6.3942   12.8666   26.4455 C   0  0  0  0  0  0  0  0  0  0  0  0
    7.7026   13.2078   25.6461 C   0  0  0  0  0  0  0  0  0  0  0  0
    7.4375   11.0043   24.6058 N   0  0  0  0  0  0  0  0  0  0  0  0
   10.4368   13.8859   22.4971 N   0  0  0  0  0  0  0  0  0  0  0  0
    9.7196   16.4490   20.8936 N   0  0  0  0  0  0  0  0  0  0  0  0
   10.9165   13.6499   24.7573 O   0  0  0  0  0  0  0  0  0  0  0  0
    9.4399   10.8071   22.9828 S   0  0  0  0  0  0  0  0  0  0  0  0
    7.6113    9.2396   23.4810 H   0  0  0  0  0  0  0  0  0  0  0  0
   12.1045   15.6544   20.3192 H   0  0  0  0  0  0  0  0  0  0  0  0
   11.8070   13.9468   19.9289 H   0  0  0  0  0  0  0  0  0  0  0  0
   12.4732   13.6661   22.1947 H   0  0  0  0  0  0  0  0  0  0  0  0
   11.9820   15.3120   22.6622 H   0  0  0  0  0  0  0  0  0  0  0  0
    8.5171   14.5004   22.0012 H   0  0  0  0  0  0  0  0  0  0  0  0
    9.1111   13.1376   21.0177 H   0  0  0  0  0  0  0  0  0  0  0  0
    9.6418   14.8972   19.5033 H   0  0  0  0  0  0  0  0  0  0  0  0
    7.0351   15.3420   25.5877 H   0  0  0  0  0  0  0  0  0  0  0  0
    8.2720   14.9436   24.3984 H   0  0  0  0  0  0  0  0  0  0  0  0
    6.6105   14.3934   24.1540 H   0  0  0  0  0  0  0  0  0  0  0  0
    8.4169   14.2948   27.4356 H   0  0  0  0  0  0  0  0  0  0  0  0
    9.0434   12.6507   27.3479 H   0  0  0  0  0  0  0  0  0  0  0  0
    9.6898   13.9018   26.2744 H   0  0  0  0  0  0  0  0  0  0  0  0
    6.0861   13.6671   27.1289 H   0  0  0  0  0  0  0  0  0  0  0  0
    5.5577   12.6899   25.7592 H   0  0  0  0  0  0  0  0  0  0  0  0
    6.5362   11.9637   27.0507 H   0  0  0  0  0  0  0  0  0  0  0  0
   10.1686   17.0686   20.2575 H   0  0  0  0  0  0  0  0  0  0  0  0
    8.7346   16.5885   20.8736 H   0  0  0  0  0  0  0  0  0  0  0  0
  1 13  2  0  0  0  0
  1 17  1  0  0  0  0
  2  3  2  0  0  0  0
  2  4  1  0  0  0  0
  2 17  1  0  0  0  0
  3 12  1  0  0  0  0
  3 13  1  0  0  0  0
  4 14  1  0  0  0  0
  4 16  2  0  0  0  0
  5  6  1  0  0  0  0
  5  8  1  0  0  0  0
  6 14  1  0  0  0  0
  7  8  1  0  0  0  0
  7 14  1  0  0  0  0
  8 15  1  0  0  0  0
  9 12  1  0  0  0  0
 10 12  1  0  0  0  0
 11 12  1  0  0  0  0
  1 18  1  0  0  0  0
  5 19  1  0  0  0  0
  5 20  1  0  0  0  0
  6 21  1  0  0  0  0
  6 22  1  0  0  0  0
  7 23  1  0  0  0  0
  7 24  1  0  0  0  0
  8 25  1  0  0  0  0
  9 26  1  0  0  0  0
  9 27  1  0  0  0  0
  9 28  1  0  0  0  0
 10 29  1  0  0  0  0
 10 30  1  0  0  0  0
 10 31  1  0  0  0  0
 11 32  1  0  0  0  0
 11 33  1  0  0  0  0
 11 34  1  0  0  0  0
 15 35  1  0  0  0  0
 15 36  1  0  0  0  0
M  END
> <Catalog ID>
Z2379811839

> <PlateID>
1337959-R-14

> <Well>
G03

> <MW (desalted)>
253.364

> <CLogP>
0.811

> <HBD>
1

> <TPSA>
59.220

> <RotBonds>
2

> <ROCS_ShapeQuery>
A71EV2A-x0451_0A_A71EV2A-x0310_0A_A71EV2A-x0416_0A_peptide

> <ROCS_TanimotoCombo>
0.425 

> <ROCS_ShapeTanimoto>
0.258 

> <ROCS_ColorTanimoto>
0.167 

> <ROCS_RefTversky>
0.237 

> <ROCS_RefColorTversky>
0.182 

> <ROCS_RefTverskyCombo>
0.418 

> <ROCS_FitTversky>
1.553 

> <ROCS_FitColorTversky>
0.673 

> <ROCS_FitTverskyCombo>
2.226 

> <ROCS_ColorScore>
-5.540

> <ROCS_Overlap>
1640.040

> <ROCS_Rank>
208                 

$$$$
untitled-dbase-786_64
  -OEChem-11112309163D

 38 40  0     1  0  0  0  0  0999 V2000
    9.2427   10.5680   23.6860 C   0  0  0  0  0  0  0  0  0  0  0  0
    9.1318   11.9194   23.8971 C   0  0  0  0  0  0  0  0  0  0  0  0
   10.0118   13.0064   23.4850 C   0  0  0  0  0  0  0  0  0  0  0  0
   13.5553   16.6549   21.5266 C   0  0  0  0  0  0  0  0  0  0  0  0
   13.3197   16.4339   23.0217 C   0  0  0  0  0  0  0  0  0  0  0  0
   10.6786   12.7593   19.8280 C   0  0  0  0  0  0  0  0  0  0  0  0
   12.3796   15.9976   20.8103 C   0  0  0  0  0  0  0  0  0  0  0  0
   12.0041   15.6706   23.1337 C   0  0  0  0  0  0  0  0  0  0  0  0
   10.2584   14.2134   20.0068 C   0  0  0  0  0  0  0  0  0  0  0  0
   10.1686   12.1005   21.1008 C   0  0  0  0  0  0  0  0  0  0  0  0
   11.8852   14.9448   21.7974 C   0  0  0  0  0  0  0  0  0  0  0  0
   10.4762   14.4616   21.5017 C   0  0  2  0  0  0  0  0  0  0  0  0
    7.3569   13.2407   25.1039 C   0  0  0  0  0  0  0  0  0  0  0  0
    8.1790    9.9251   24.2558 N   0  0  0  0  0  0  0  0  0  0  0  0
    7.4015   10.8431   24.8196 N   0  0  0  0  0  0  0  0  0  0  0  0
    7.9745   12.0382   24.6032 N   0  0  0  0  0  0  0  0  0  0  0  0
   10.2135   13.1561   22.1140 N   0  0  0  0  0  0  0  0  0  0  0  0
   10.5443   13.7199   24.3335 O   0  0  0  0  0  0  0  0  0  0  0  0
   10.0181   10.0291   23.1619 H   0  0  0  0  0  0  0  0  0  0  0  0
   13.6273   17.7189   21.2788 H   0  0  0  0  0  0  0  0  0  0  0  0
   14.4983   16.1836   21.2260 H   0  0  0  0  0  0  0  0  0  0  0  0
   14.1411   15.8421   23.4419 H   0  0  0  0  0  0  0  0  0  0  0  0
   13.2812   17.3789   23.5728 H   0  0  0  0  0  0  0  0  0  0  0  0
   10.2487   12.3123   18.9273 H   0  0  0  0  0  0  0  0  0  0  0  0
   11.7699   12.6799   19.7662 H   0  0  0  0  0  0  0  0  0  0  0  0
   11.6014   16.7458   20.6147 H   0  0  0  0  0  0  0  0  0  0  0  0
   12.6754   15.5629   19.8504 H   0  0  0  0  0  0  0  0  0  0  0  0
   12.0007   14.9824   23.9844 H   0  0  0  0  0  0  0  0  0  0  0  0
   11.1764   16.3777   23.2697 H   0  0  0  0  0  0  0  0  0  0  0  0
   10.8306   14.8895   19.3647 H   0  0  0  0  0  0  0  0  0  0  0  0
    9.1952   14.3241   19.7607 H   0  0  0  0  0  0  0  0  0  0  0  0
    9.1261   11.7801   20.9954 H   0  0  0  0  0  0  0  0  0  0  0  0
   10.7772   11.2434   21.4033 H   0  0  0  0  0  0  0  0  0  0  0  0
   12.5733   14.0882   21.7880 H   0  0  0  0  0  0  0  0  0  0  0  0
    9.7600   15.1952   21.8870 H   0  0  0  0  0  0  0  0  0  0  0  0
    6.6804   13.6187   24.3329 H   0  0  0  0  0  0  0  0  0  0  0  0
    6.8038   13.0121   26.0192 H   0  0  0  0  0  0  0  0  0  0  0  0
    8.1322   13.9784   25.3289 H   0  0  0  0  0  0  0  0  0  0  0  0
  1  2  2  0  0  0  0
  1 14  1  0  0  0  0
  2  3  1  0  0  0  0
  2 16  1  0  0  0  0
  3 17  1  0  0  0  0
  3 18  2  0  0  0  0
  4  5  1  0  0  0  0
  4  7  1  0  0  0  0
  5  8  1  0  0  0  0
  6  9  1  0  0  0  0
  6 10  1  0  0  0  0
  7 11  1  0  0  0  0
  8 11  1  0  0  0  0
  9 12  1  0  0  0  0
 10 17  1  0  0  0  0
 11 12  1  0  0  0  0
 12 17  1  0  0  0  0
 13 16  1  0  0  0  0
 14 15  2  0  0  0  0
 15 16  1  0  0  0  0
  1 19  1  0  0  0  0
  4 20  1  0  0  0  0
  4 21  1  0  0  0  0
  5 22  1  0  0  0  0
  5 23  1  0  0  0  0
  6 24  1  0  0  0  0
  6 25  1  0  0  0  0
  7 26  1  0  0  0  0
  7 27  1  0  0  0  0
  8 28  1  0  0  0  0
  8 29  1  0  0  0  0
  9 30  1  0  0  0  0
  9 31  1  0  0  0  0
 10 32  1  0  0  0  0
 10 33  1  0  0  0  0
 11 34  1  0  0  0  0
 12 35  1  0  0  0  0
 13 36  1  0  0  0  0
 13 37  1  0  0  0  0
 13 38  1  0  0  0  0
M  END
> <Catalog ID>
Z1986423857

> <PlateID>
1337959-R-10

> <Well>
G09

> <MW (desalted)>
248.324

> <CLogP>
1.017

> <HBD>
0

> <TPSA>
51.020

> <RotBonds>
2

> <ROCS_ShapeQuery>
A71EV2A-x0451_0A_A71EV2A-x0310_0A_A71EV2A-x0416_0A_peptide

> <ROCS_TanimotoCombo>
0.425 

> <ROCS_ShapeTanimoto>
0.271 

> <ROCS_ColorTanimoto>
0.155 

> <ROCS_RefTversky>
0.248 

> <ROCS_RefColorTversky>
0.167 

> <ROCS_RefTverskyCombo>
0.415 

> <ROCS_FitTversky>
1.513 

> <ROCS_FitColorTversky>
0.670 

> <ROCS_FitTverskyCombo>
2.183 

> <ROCS_ColorScore>
-5.097

> <ROCS_Overlap>
1719.636

> <ROCS_Rank>
209                 

$$$$
untitled-dbase-538_68
  -OEChem-11112309163D

 35 36  0     1  0  0  0  0  0999 V2000
    9.4241    9.9513   23.5978 C   0  0  0  0  0  0  0  0  0  0  0  0
    9.7299   11.2453   23.1764 C   0  0  0  0  0  0  0  0  0  0  0  0
    7.6263   10.8193   24.9586 C   0  0  0  0  0  0  0  0  0  0  0  0
    8.3722    9.7383   24.4889 C   0  0  0  0  0  0  0  0  0  0  0  0
    8.9840   12.3264   23.6461 C   0  0  0  0  0  0  0  0  0  0  0  0
    7.9322   12.1134   24.5372 C   0  0  0  0  0  0  0  0  0  0  0  0
   12.2706   14.5422   21.2076 C   0  0  0  0  0  0  0  0  0  0  0  0
   11.7603   15.3063   19.9857 C   0  0  0  0  0  0  0  0  0  0  0  0
   11.4799   13.2582   21.4189 C   0  0  0  0  0  0  0  0  0  0  0  0
    9.4775   14.2759   20.3537 C   0  0  0  0  0  0  0  0  0  0  0  0
   10.2511   15.5638   20.0600 C   0  0  1  0  0  0  0  0  0  0  0  0
    8.0457    8.3545   24.9387 C   0  0  0  0  0  0  0  0  0  0  0  0
   10.0295   13.5568   21.5359 N   0  0  2  0  0  0  0  0  0  0  0  0
    9.9448   16.5974   21.0225 N   0  0  0  0  0  0  0  0  0  0  0  0
    8.1951   14.6991   22.9243 O   0  0  0  0  0  0  0  0  0  0  0  0
   10.5005   14.4283   23.9038 O   0  0  0  0  0  0  0  0  0  0  0  0
    9.4175   13.9403   23.0777 S   0  0  0  0  0  0  0  0  0  0  0  0
    6.9779   13.4172   25.1472 Cl  0  0  0  0  0  0  0  0  0  0  0  0
   10.0093    9.1145   23.2261 H   0  0  0  0  0  0  0  0  0  0  0  0
   10.5509   11.3971   22.4807 H   0  0  0  0  0  0  0  0  0  0  0  0
    6.8075   10.6447   25.6533 H   0  0  0  0  0  0  0  0  0  0  0  0
   13.3303   14.3042   21.0731 H   0  0  0  0  0  0  0  0  0  0  0  0
   12.1955   15.1748   22.0982 H   0  0  0  0  0  0  0  0  0  0  0  0
   12.3110   16.2482   19.8787 H   0  0  0  0  0  0  0  0  0  0  0  0
   11.9737   14.7165   19.0856 H   0  0  0  0  0  0  0  0  0  0  0  0
   11.6496   12.5573   20.5875 H   0  0  0  0  0  0  0  0  0  0  0  0
   11.8313   12.7738   22.3416 H   0  0  0  0  0  0  0  0  0  0  0  0
    8.4127   14.5102   20.5278 H   0  0  0  0  0  0  0  0  0  0  0  0
    9.5155   13.6078   19.4749 H   0  0  0  0  0  0  0  0  0  0  0  0
    9.9280   15.9362   19.0673 H   0  0  0  0  0  0  0  0  0  0  0  0
    8.6109    8.1039   25.8447 H   0  0  0  0  0  0  0  0  0  0  0  0
    6.9749    8.2483   25.1562 H   0  0  0  0  0  0  0  0  0  0  0  0
    8.2867    7.6160   24.1628 H   0  0  0  0  0  0  0  0  0  0  0  0
   10.4437   17.4125   20.7624 H   0  0  0  0  0  0  0  0  0  0  0  0
    8.9674   16.7555   20.9973 H   0  0  0  0  0  0  0  0  0  0  0  0
  1  2  1  0  0  0  0
  1  4  2  0  0  0  0
  2  5  2  0  0  0  0
  3  4  1  0  0  0  0
  3  6  2  0  0  0  0
  4 12  1  0  0  0  0
  5  6  1  0  0  0  0
  5 17  1  0  0  0  0
  6 18  1  0  0  0  0
  7  8  1  0  0  0  0
  7  9  1  0  0  0  0
  8 11  1  0  0  0  0
  9 13  1  0  0  0  0
 10 11  1  0  0  0  0
 10 13  1  0  0  0  0
 11 14  1  0  0  0  0
 13 17  1  0  0  0  0
 15 17  2  0  0  0  0
 16 17  2  0  0  0  0
  1 19  1  0  0  0  0
  2 20  1  0  0  0  0
  3 21  1  0  0  0  0
  7 22  1  0  0  0  0
  7 23  1  0  0  0  0
  8 24  1  0  0  0  0
  8 25  1  0  0  0  0
  9 26  1  0  0  0  0
  9 27  1  0  0  0  0
 10 28  1  0  0  0  0
 10 29  1  0  0  0  0
 11 30  1  0  0  0  0
 12 31  1  0  0  0  0
 12 32  1  0  0  0  0
 12 33  1  0  0  0  0
 14 34  1  0  0  0  0
 14 35  1  0  0  0  0
M  END
> <Catalog ID>
Z439712676

> <PlateID>
1337959-R-07

> <Well>
F10

> <MW (desalted)>
288.794

> <CLogP>
2.290

> <HBD>
1

> <TPSA>
63.400

> <RotBonds>
1

> <ROCS_ShapeQuery>
A71EV2A-x0451_0A_A71EV2A-x0310_0A_A71EV2A-x0416_0A_peptide

> <ROCS_TanimotoCombo>
0.425 

> <ROCS_ShapeTanimoto>
0.267 

> <ROCS_ColorTanimoto>
0.159 

> <ROCS_RefTversky>
0.243 

> <ROCS_RefColorTversky>
0.170 

> <ROCS_RefTverskyCombo>
0.413 

> <ROCS_FitTversky>
1.562 

> <ROCS_FitColorTversky>
0.708 

> <ROCS_FitTverskyCombo>
2.270 

> <ROCS_ColorScore>
-5.160

> <ROCS_Overlap>
1688.078

> <ROCS_Rank>
210                 

$$$$
untitled-dbase-607_11
  -OEChem-11112309163D

 29 30  0     0  0  0  0  0  0999 V2000
    7.2992   11.6830   24.1376 C   0  0  0  0  0  0  0  0  0  0  0  0
    8.3610   12.5755   23.9823 C   0  0  0  0  0  0  0  0  0  0  0  0
    9.9549   10.7357   23.9203 C   0  0  0  0  0  0  0  0  0  0  0  0
    7.5866   10.3301   24.1685 C   0  0  0  0  0  0  0  0  0  0  0  0
    8.8948    9.8553   24.0449 C   0  0  0  0  0  0  0  0  0  0  0  0
    9.6800   12.1055   23.8777 C   0  0  0  0  0  0  0  0  0  0  0  0
    6.6610    9.1770   24.3795 C   0  0  0  0  0  0  0  0  0  0  0  0
    7.5885    7.9795   24.0801 C   0  0  0  0  0  0  0  0  0  0  0  0
   11.0915   15.7270   21.2220 C   0  0  0  0  0  0  0  0  0  0  0  0
   10.3278   14.4502   21.3178 C   0  0  0  0  0  0  0  0  0  0  0  0
    8.9595    8.4680   24.1624 N   0  0  0  0  0  0  0  0  0  0  0  0
   11.1102   13.4147   22.0078 N   0  0  0  0  0  0  0  0  0  0  0  0
   10.5793   14.5234   24.2718 O   0  0  0  0  0  0  0  0  0  0  0  0
   12.2044   12.6058   24.1944 O   0  0  0  0  0  0  0  0  0  0  0  0
   10.9920   13.2467   23.7042 S   0  0  0  0  0  0  0  0  0  0  0  0
    6.2823   12.0451   24.2414 H   0  0  0  0  0  0  0  0  0  0  0  0
    8.1559   13.6428   23.9550 H   0  0  0  0  0  0  0  0  0  0  0  0
   10.9748   10.3694   23.8558 H   0  0  0  0  0  0  0  0  0  0  0  0
    6.3152    9.1555   25.4178 H   0  0  0  0  0  0  0  0  0  0  0  0
    5.8093    9.2029   23.6941 H   0  0  0  0  0  0  0  0  0  0  0  0
    7.4169    7.1568   24.7816 H   0  0  0  0  0  0  0  0  0  0  0  0
    7.4001    7.6027   23.0671 H   0  0  0  0  0  0  0  0  0  0  0  0
   12.0239   15.5561   20.6640 H   0  0  0  0  0  0  0  0  0  0  0  0
   10.4835   16.4793   20.6982 H   0  0  0  0  0  0  0  0  0  0  0  0
   11.3304   16.0879   22.2332 H   0  0  0  0  0  0  0  0  0  0  0  0
    9.3975   14.6294   21.8767 H   0  0  0  0  0  0  0  0  0  0  0  0
   10.0846   14.1003   20.3037 H   0  0  0  0  0  0  0  0  0  0  0  0
    9.7561    7.9398   23.8347 H   0  0  0  0  0  0  0  0  0  0  0  0
   11.3644   12.5929   21.4462 H   0  0  0  0  0  0  0  0  0  0  0  0
  1  2  1  0  0  0  0
  1  4  2  0  0  0  0
  2  6  2  0  0  0  0
  3  5  2  0  0  0  0
  3  6  1  0  0  0  0
  4  5  1  0  0  0  0
  4  7  1  0  0  0  0
  5 11  1  0  0  0  0
  6 15  1  0  0  0  0
  7  8  1  0  0  0  0
  8 11  1  0  0  0  0
  9 10  1  0  0  0  0
 10 12  1  0  0  0  0
 12 15  1  0  0  0  0
 13 15  2  0  0  0  0
 14 15  2  0  0  0  0
  1 16  1  0  0  0  0
  2 17  1  0  0  0  0
  3 18  1  0  0  0  0
  7 19  1  0  0  0  0
  7 20  1  0  0  0  0
  8 21  1  0  0  0  0
  8 22  1  0  0  0  0
  9 23  1  0  0  0  0
  9 24  1  0  0  0  0
  9 25  1  0  0  0  0
 10 26  1  0  0  0  0
 10 27  1  0  0  0  0
 11 28  1  0  0  0  0
 12 29  1  0  0  0  0
M  END
> <Catalog ID>
Z1217169314

> <PlateID>
1337959-R-08

> <Well>
E10

> <MW (desalted)>
226.295

> <CLogP>
1.462

> <HBD>
2

> <TPSA>
58.200

> <RotBonds>
2

> <ROCS_ShapeQuery>
A71EV2A-x0451_0A_A71EV2A-x0310_0A_A71EV2A-x0416_0A_peptide

> <ROCS_TanimotoCombo>
0.425 

> <ROCS_ShapeTanimoto>
0.273 

> <ROCS_ColorTanimoto>
0.152 

> <ROCS_RefTversky>
0.245 

> <ROCS_RefColorTversky>
0.164 

> <ROCS_RefTverskyCombo>
0.408 

> <ROCS_FitTversky>
1.745 

> <ROCS_FitColorTversky>
0.681 

> <ROCS_FitTverskyCombo>
2.426 

> <ROCS_ColorScore>
-4.977

> <ROCS_Overlap>
1695.911

> <ROCS_Rank>
211                 

$$$$
untitled-dbase-746_0
  -OEChem-11112309163D

 39 41  0     0  0  0  0  0  0999 V2000
    9.8212   13.6898   23.4784 C   0  0  0  0  0  0  0  0  0  0  0  0
    9.2836    9.5019   24.3671 C   0  0  0  0  0  0  0  0  0  0  0  0
    7.4217   10.7262   25.5186 C   0  0  0  0  0  0  0  0  0  0  0  0
    7.2651   10.2264   23.0660 C   0  0  0  0  0  0  0  0  0  0  0  0
    9.6276   11.8600   25.1488 C   0  0  0  0  0  0  0  0  0  0  0  0
    9.4706   11.3592   22.6920 C   0  0  0  0  0  0  0  0  0  0  0  0
    7.6070   12.5860   23.8454 C   0  0  0  0  0  0  0  0  0  0  0  0
    8.9456   10.5189   25.4709 C   0  0  0  0  0  0  0  0  0  0  0  0
    8.7881   10.0160   23.0044 C   0  0  0  0  0  0  0  0  0  0  0  0
    6.9159   11.2481   24.1623 C   0  0  0  0  0  0  0  0  0  0  0  0
    9.1348   12.3905   23.7876 C   0  0  0  0  0  0  0  0  0  0  0  0
   11.3151   15.3450   21.0522 C   0  0  0  0  0  0  0  0  0  0  0  0
    8.5143   13.7288   21.3485 C   0  0  0  0  0  0  0  0  0  0  0  0
   10.0750   15.5710   21.8482 C   0  0  0  0  0  0  0  0  0  0  0  0
    9.4829   14.3049   22.2725 N   0  0  0  0  0  0  0  0  0  0  0  0
   10.6357   14.1470   24.2847 O   0  0  0  0  0  0  0  0  0  0  0  0
   10.3670    9.3336   24.3322 H   0  0  0  0  0  0  0  0  0  0  0  0
    8.8177    8.5353   24.5940 H   0  0  0  0  0  0  0  0  0  0  0  0
    6.9231    9.7809   25.7654 H   0  0  0  0  0  0  0  0  0  0  0  0
    7.1654   11.4382   26.3127 H   0  0  0  0  0  0  0  0  0  0  0  0
    6.8959   10.5784   22.0948 H   0  0  0  0  0  0  0  0  0  0  0  0
    6.7636    9.2724   23.2700 H   0  0  0  0  0  0  0  0  0  0  0  0
    9.4146   12.5886   25.9420 H   0  0  0  0  0  0  0  0  0  0  0  0
   10.7179   11.7297   25.1369 H   0  0  0  0  0  0  0  0  0  0  0  0
   10.5570   11.2169   22.6196 H   0  0  0  0  0  0  0  0  0  0  0  0
    9.1438   11.7257   21.7100 H   0  0  0  0  0  0  0  0  0  0  0  0
    7.2354   12.9811   22.8908 H   0  0  0  0  0  0  0  0  0  0  0  0
    7.3454   13.3309   24.6085 H   0  0  0  0  0  0  0  0  0  0  0  0
    9.2992   10.1466   26.4386 H   0  0  0  0  0  0  0  0  0  0  0  0
    9.0299    9.2870   22.2231 H   0  0  0  0  0  0  0  0  0  0  0  0
    5.8307   11.3923   24.2022 H   0  0  0  0  0  0  0  0  0  0  0  0
   11.0747   14.7489   20.1594 H   0  0  0  0  0  0  0  0  0  0  0  0
   11.7345   16.3140   20.7439 H   0  0  0  0  0  0  0  0  0  0  0  0
   12.0513   14.8053   21.6659 H   0  0  0  0  0  0  0  0  0  0  0  0
    7.5081   14.1000   21.5929 H   0  0  0  0  0  0  0  0  0  0  0  0
    8.7721   14.0190   20.3193 H   0  0  0  0  0  0  0  0  0  0  0  0
    8.5317   12.6324   21.4357 H   0  0  0  0  0  0  0  0  0  0  0  0
   10.3236   16.1673   22.7385 H   0  0  0  0  0  0  0  0  0  0  0  0
    9.3473   16.1188   21.2315 H   0  0  0  0  0  0  0  0  0  0  0  0
  1 11  1  0  0  0  0
  1 15  1  0  0  0  0
  1 16  2  0  0  0  0
  2  8  1  0  0  0  0
  2  9  1  0  0  0  0
  3  8  1  0  0  0  0
  3 10  1  0  0  0  0
  4  9  1  0  0  0  0
  4 10  1  0  0  0  0
  5  8  1  0  0  0  0
  5 11  1  0  0  0  0
  6  9  1  0  0  0  0
  6 11  1  0  0  0  0
  7 10  1  0  0  0  0
  7 11  1  0  0  0  0
 12 14  1  0  0  0  0
 13 15  1  0  0  0  0
 14 15  1  0  0  0  0
  2 17  1  0  0  0  0
  2 18  1  0  0  0  0
  3 19  1  0  0  0  0
  3 20  1  0  0  0  0
  4 21  1  0  0  0  0
  4 22  1  0  0  0  0
  5 23  1  0  0  0  0
  5 24  1  0  0  0  0
  6 25  1  0  0  0  0
  6 26  1  0  0  0  0
  7 27  1  0  0  0  0
  7 28  1  0  0  0  0
  8 29  1  0  0  0  0
  9 30  1  0  0  0  0
 10 31  1  0  0  0  0
 12 32  1  0  0  0  0
 12 33  1  0  0  0  0
 12 34  1  0  0  0  0
 13 35  1  0  0  0  0
 13 36  1  0  0  0  0
 13 37  1  0  0  0  0
 14 38  1  0  0  0  0
 14 39  1  0  0  0  0
M  END
> <Catalog ID>
Z352125154

> <PlateID>
1337959-R-10

> <Well>
C09

> <MW (desalted)>
221.339

> <CLogP>
2.386

> <HBD>
0

> <TPSA>
20.310

> <RotBonds>
2

> <ROCS_ShapeQuery>
A71EV2A-x0451_0A_A71EV2A-x0310_0A_A71EV2A-x0416_0A_peptide

> <ROCS_TanimotoCombo>
0.425 

> <ROCS_ShapeTanimoto>
0.245 

> <ROCS_ColorTanimoto>
0.181 

> <ROCS_RefTversky>
0.226 

> <ROCS_RefColorTversky>
0.197 

> <ROCS_RefTverskyCombo>
0.423 

> <ROCS_FitTversky>
1.504 

> <ROCS_FitColorTversky>
0.690 

> <ROCS_FitTverskyCombo>
2.194 

> <ROCS_ColorScore>
-5.995

> <ROCS_Overlap>
1567.122

> <ROCS_Rank>
212                 

$$$$
untitled-dbase-871_61
  -OEChem-11112309163D

 40 41  0     1  0  0  0  0  0999 V2000
    8.1776   12.1495   24.2469 C   0  0  0  0  0  0  0  0  0  0  0  0
    9.3105   11.6887   23.5497 C   0  0  0  0  0  0  0  0  0  0  0  0
    9.2552   10.3216   23.6701 C   0  0  0  0  0  0  0  0  0  0  0  0
   10.3398   12.4581   22.8424 C   0  0  0  0  0  0  0  0  0  0  0  0
   11.6850   14.7764   25.2998 C   0  0  0  0  0  0  0  0  0  0  0  0
   12.0088   16.0222   24.4828 C   0  0  0  0  0  0  0  0  0  0  0  0
   10.4845   14.0287   24.7353 C   0  0  0  0  0  0  0  0  0  0  0  0
   12.1865   15.6713   23.0001 C   0  0  1  0  0  0  0  0  0  0  0  0
   10.9659   14.9047   22.4349 C   0  0  2  0  0  0  0  0  0  0  0  0
   10.1490    9.2603   23.1673 C   0  0  0  0  0  0  0  0  0  0  0  0
   12.5319   16.9223   22.1914 C   0  0  0  0  0  0  0  0  0  0  0  0
    7.6468    8.7579   24.8031 C   0  0  0  0  0  0  0  0  0  0  0  0
    9.7164   15.7674   22.2189 C   0  0  0  0  0  0  0  0  0  0  0  0
    7.4553   11.1558   24.7712 N   0  0  0  0  0  0  0  0  0  0  0  0
    8.1360   10.0569   24.4032 N   0  0  0  0  0  0  0  0  0  0  0  0
   10.6384   13.7465   23.3053 N   0  0  0  0  0  0  0  0  0  0  0  0
    9.8453   16.4964   21.0047 N   0  0  0  0  0  0  0  0  0  0  0  0
   10.8622   11.8999   21.8786 O   0  0  0  0  0  0  0  0  0  0  0  0
    7.8460   13.1675   24.3945 H   0  0  0  0  0  0  0  0  0  0  0  0
   12.5561   14.1096   25.3127 H   0  0  0  0  0  0  0  0  0  0  0  0
   11.4869   15.0602   26.3396 H   0  0  0  0  0  0  0  0  0  0  0  0
   11.2087   16.7618   24.6079 H   0  0  0  0  0  0  0  0  0  0  0  0
   12.9254   16.4807   24.8729 H   0  0  0  0  0  0  0  0  0  0  0  0
   10.3366   13.1012   25.2981 H   0  0  0  0  0  0  0  0  0  0  0  0
    9.5715   14.6226   24.8571 H   0  0  0  0  0  0  0  0  0  0  0  0
   13.0515   14.9965   22.9226 H   0  0  0  0  0  0  0  0  0  0  0  0
   11.2590   14.5339   21.4486 H   0  0  0  0  0  0  0  0  0  0  0  0
   10.9411    9.0284   23.8981 H   0  0  0  0  0  0  0  0  0  0  0  0
    9.6032    8.3246   22.9568 H   0  0  0  0  0  0  0  0  0  0  0  0
   10.6395    9.5460   22.2209 H   0  0  0  0  0  0  0  0  0  0  0  0
   11.7045   17.6277   22.2350 H   0  0  0  0  0  0  0  0  0  0  0  0
   12.7160   16.6497   21.1543 H   0  0  0  0  0  0  0  0  0  0  0  0
   13.4239   17.3905   22.6027 H   0  0  0  0  0  0  0  0  0  0  0  0
    8.0917    8.5134   25.7713 H   0  0  0  0  0  0  0  0  0  0  0  0
    6.5563    8.7873   24.8799 H   0  0  0  0  0  0  0  0  0  0  0  0
    7.9330    8.0169   24.0516 H   0  0  0  0  0  0  0  0  0  0  0  0
    8.8674   15.0900   22.1761 H   0  0  0  0  0  0  0  0  0  0  0  0
    9.6453   16.4404   23.0695 H   0  0  0  0  0  0  0  0  0  0  0  0
    9.9814   15.8672   20.2327 H   0  0  0  0  0  0  0  0  0  0  0  0
    9.0166   17.0392   20.8346 H   0  0  0  0  0  0  0  0  0  0  0  0
  1  2  1  0  0  0  0
  1 14  2  0  0  0  0
  2  3  2  0  0  0  0
  2  4  1  0  0  0  0
  3 10  1  0  0  0  0
  3 15  1  0  0  0  0
  4 16  1  0  0  0  0
  4 18  2  0  0  0  0
  5  6  1  0  0  0  0
  5  7  1  0  0  0  0
  6  8  1  0  0  0  0
  7 16  1  0  0  0  0
  8  9  1  0  0  0  0
  8 11  1  0  0  0  0
  9 13  1  0  0  0  0
  9 16  1  0  0  0  0
 12 15  1  0  0  0  0
 13 17  1  0  0  0  0
 14 15  1  0  0  0  0
  1 19  1  0  0  0  0
  5 20  1  0  0  0  0
  5 21  1  0  0  0  0
  6 22  1  0  0  0  0
  6 23  1  0  0  0  0
  7 24  1  0  0  0  0
  7 25  1  0  0  0  0
  8 26  1  0  0  0  0
  9 27  1  0  0  0  0
 10 28  1  0  0  0  0
 10 29  1  0  0  0  0
 10 30  1  0  0  0  0
 11 31  1  0  0  0  0
 11 32  1  0  0  0  0
 11 33  1  0  0  0  0
 12 34  1  0  0  0  0
 12 35  1  0  0  0  0
 12 36  1  0  0  0  0
 13 37  1  0  0  0  0
 13 38  1  0  0  0  0
 17 39  1  0  0  0  0
 17 40  1  0  0  0  0
M  END
> <Catalog ID>
Z1457464778

> <PlateID>
1337959-R-11

> <Well>
H05

> <MW (desalted)>
250.340

> <CLogP>
0.626

> <HBD>
1

> <TPSA>
64.150

> <RotBonds>
2

> <ROCS_ShapeQuery>
A71EV2A-x0451_0A_A71EV2A-x0310_0A_A71EV2A-x0416_0A_peptide

> <ROCS_TanimotoCombo>
0.425 

> <ROCS_ShapeTanimoto>
0.292 

> <ROCS_ColorTanimoto>
0.133 

> <ROCS_RefTversky>
0.262 

> <ROCS_RefColorTversky>
0.146 

> <ROCS_RefTverskyCombo>
0.408 

> <ROCS_FitTversky>
1.631 

> <ROCS_FitColorTversky>
0.609 

> <ROCS_FitTverskyCombo>
2.240 

> <ROCS_ColorScore>
-4.438

> <ROCS_Overlap>
1818.377

> <ROCS_Rank>
213                 

$$$$
untitled-dbase-954_69
  -OEChem-11112309163D

 34 35  0     0  0  0  0  0  0999 V2000
   10.1713   17.9596   21.8271 C   0  0  0  0  0  0  0  0  0  0  0  0
    9.3243   16.8665   21.6454 C   0  0  0  0  0  0  0  0  0  0  0  0
   11.5422   17.7602   21.9906 C   0  0  0  0  0  0  0  0  0  0  0  0
    9.8480   15.5738   21.6274 C   0  0  0  0  0  0  0  0  0  0  0  0
   12.0659   16.4675   21.9726 C   0  0  0  0  0  0  0  0  0  0  0  0
    7.5789   10.6045   24.8005 C   0  0  0  0  0  0  0  0  0  0  0  0
   11.2188   15.3743   21.7910 C   0  0  0  0  0  0  0  0  0  0  0  0
    9.3560   11.9434   23.8777 C   0  0  0  0  0  0  0  0  0  0  0  0
    9.3136   10.6301   23.4588 C   0  0  0  0  0  0  0  0  0  0  0  0
   10.2952   13.0388   23.5236 C   0  0  0  0  0  0  0  0  0  0  0  0
   10.2478    9.9881   22.5109 C   0  0  0  0  0  0  0  0  0  0  0  0
   12.1796   13.5547   20.3343 C   0  0  0  0  0  0  0  0  0  0  0  0
   13.0416   13.8718   22.6726 C   0  0  0  0  0  0  0  0  0  0  0  0
   11.7956   13.9524   21.7715 C   0  0  0  0  0  0  0  0  0  0  0  0
    8.2954    9.8607   23.9873 N   0  0  0  0  0  0  0  0  0  0  0  0
   10.8384   12.9664   22.2580 N   0  0  0  0  0  0  0  0  0  0  0  0
   10.5444   13.9076   24.3551 O   0  0  0  0  0  0  0  0  0  0  0  0
    8.0727   12.2386   24.9764 S   0  0  0  0  0  0  0  0  0  0  0  0
    9.7636   18.9662   21.8398 H   0  0  0  0  0  0  0  0  0  0  0  0
    8.2570   17.0217   21.5170 H   0  0  0  0  0  0  0  0  0  0  0  0
   12.2021   18.6111   22.1309 H   0  0  0  0  0  0  0  0  0  0  0  0
    9.1803   14.7280   21.4855 H   0  0  0  0  0  0  0  0  0  0  0  0
   13.1352   16.3216   22.1009 H   0  0  0  0  0  0  0  0  0  0  0  0
    6.7226   10.2139   25.3330 H   0  0  0  0  0  0  0  0  0  0  0  0
   11.1074    9.5468   23.0402 H   0  0  0  0  0  0  0  0  0  0  0  0
    9.7610    9.1856   21.9320 H   0  0  0  0  0  0  0  0  0  0  0  0
   10.6405   10.7047   21.7702 H   0  0  0  0  0  0  0  0  0  0  0  0
   12.5939   12.5396   20.3046 H   0  0  0  0  0  0  0  0  0  0  0  0
   11.3041   13.5670   19.6735 H   0  0  0  0  0  0  0  0  0  0  0  0
   12.9293   14.2267   19.9027 H   0  0  0  0  0  0  0  0  0  0  0  0
   13.4651   12.8601   22.6685 H   0  0  0  0  0  0  0  0  0  0  0  0
   12.7932   14.1150   23.7131 H   0  0  0  0  0  0  0  0  0  0  0  0
   13.8324   14.5588   22.3522 H   0  0  0  0  0  0  0  0  0  0  0  0
   10.6411   12.1908   21.6434 H   0  0  0  0  0  0  0  0  0  0  0  0
  1  2  2  0  0  0  0
  1  3  1  0  0  0  0
  2  4  1  0  0  0  0
  3  5  2  0  0  0  0
  4  7  2  0  0  0  0
  5  7  1  0  0  0  0
  6 15  2  0  0  0  0
  6 18  1  0  0  0  0
  7 14  1  0  0  0  0
  8  9  2  0  0  0  0
  8 10  1  0  0  0  0
  8 18  1  0  0  0  0
  9 11  1  0  0  0  0
  9 15  1  0  0  0  0
 10 16  1  0  0  0  0
 10 17  2  0  0  0  0
 12 14  1  0  0  0  0
 13 14  1  0  0  0  0
 14 16  1  0  0  0  0
  1 19  1  0  0  0  0
  2 20  1  0  0  0  0
  3 21  1  0  0  0  0
  4 22  1  0  0  0  0
  5 23  1  0  0  0  0
  6 24  1  0  0  0  0
 11 25  1  0  0  0  0
 11 26  1  0  0  0  0
 11 27  1  0  0  0  0
 12 28  1  0  0  0  0
 12 29  1  0  0  0  0
 12 30  1  0  0  0  0
 13 31  1  0  0  0  0
 13 32  1  0  0  0  0
 13 33  1  0  0  0  0
 16 34  1  0  0  0  0
M  END
> <Catalog ID>
Z875665466

> <PlateID>
1337959-R-12

> <Well>
H08

> <MW (desalted)>
260.355

> <CLogP>
2.800

> <HBD>
1

> <TPSA>
41.990

> <RotBonds>
3

> <ROCS_ShapeQuery>
A71EV2A-x0451_0A_A71EV2A-x0310_0A_A71EV2A-x0416_0A_peptide

> <ROCS_TanimotoCombo>
0.425 

> <ROCS_ShapeTanimoto>
0.268 

> <ROCS_ColorTanimoto>
0.157 

> <ROCS_RefTversky>
0.245 

> <ROCS_RefColorTversky>
0.168 

> <ROCS_RefTverskyCombo>
0.413 

> <ROCS_FitTversky>
1.530 

> <ROCS_FitColorTversky>
0.703 

> <ROCS_FitTverskyCombo>
2.233 

> <ROCS_ColorScore>
-5.121

> <ROCS_Overlap>
1700.088

> <ROCS_Rank>
214                 

$$$$
untitled-dbase-6_100
  -OEChem-11112309163D

 28 29  0     0  0  0  0  0  0999 V2000
   10.3196   11.0324   23.1893 C   0  0  0  0  0  0  0  0  0  0  0  0
    9.5954    9.8403   23.1785 C   0  0  0  0  0  0  0  0  0  0  0  0
   13.4910   15.9803   20.4904 C   0  0  0  0  0  0  0  0  0  0  0  0
   11.8703   14.3693   19.7404 C   0  0  0  0  0  0  0  0  0  0  0  0
    7.6152   11.0370   23.8742 C   0  0  0  0  0  0  0  0  0  0  0  0
   13.9276   16.0716   19.1786 C   0  0  0  0  0  0  0  0  0  0  0  0
   12.3793   14.5328   18.4621 C   0  0  0  0  0  0  0  0  0  0  0  0
    9.6916   12.2268   23.5427 C   0  0  0  0  0  0  0  0  0  0  0  0
   12.4423   15.1106   20.7683 C   0  0  0  0  0  0  0  0  0  0  0  0
    8.2432    9.8426   23.5208 C   0  0  0  0  0  0  0  0  0  0  0  0
    8.3395   12.2291   23.8851 C   0  0  0  0  0  0  0  0  0  0  0  0
   10.4889   13.4473   23.5397 C   0  0  0  0  0  0  0  0  0  0  0  0
   11.9301   14.9720   22.1728 C   0  0  0  0  0  0  0  0  0  0  0  0
   13.3969   15.3678   18.1536 N   0  0  0  0  0  0  0  0  0  0  0  0
   11.0919   13.8052   22.3301 N   0  0  0  0  0  0  0  0  0  0  0  0
   10.6276   14.1091   24.5815 O   0  0  0  0  0  0  0  0  0  0  0  0
    7.5477    8.6979   23.5090 F   0  0  0  0  0  0  0  0  0  0  0  0
    7.5247   13.6861   24.3273 Cl  0  0  0  0  0  0  0  0  0  0  0  0
   11.3730   11.0167   22.9209 H   0  0  0  0  0  0  0  0  0  0  0  0
   10.0839    8.9095   22.9059 H   0  0  0  0  0  0  0  0  0  0  0  0
   13.9592   16.5719   21.2699 H   0  0  0  0  0  0  0  0  0  0  0  0
   11.0512   13.6830   19.9256 H   0  0  0  0  0  0  0  0  0  0  0  0
    6.5607   11.0206   24.1373 H   0  0  0  0  0  0  0  0  0  0  0  0
   14.7434   16.7346   18.9097 H   0  0  0  0  0  0  0  0  0  0  0  0
   11.9678   13.9776   17.6258 H   0  0  0  0  0  0  0  0  0  0  0  0
   12.7619   14.8876   22.8806 H   0  0  0  0  0  0  0  0  0  0  0  0
   11.3422   15.8484   22.4650 H   0  0  0  0  0  0  0  0  0  0  0  0
   10.9964   13.1937   21.5259 H   0  0  0  0  0  0  0  0  0  0  0  0
  1  2  1  0  0  0  0
  1  8  2  0  0  0  0
  2 10  2  0  0  0  0
  3  6  1  0  0  0  0
  3  9  2  0  0  0  0
  4  7  2  0  0  0  0
  4  9  1  0  0  0  0
  5 10  1  0  0  0  0
  5 11  2  0  0  0  0
  6 14  2  0  0  0  0
  7 14  1  0  0  0  0
  8 11  1  0  0  0  0
  8 12  1  0  0  0  0
  9 13  1  0  0  0  0
 10 17  1  0  0  0  0
 11 18  1  0  0  0  0
 12 15  1  0  0  0  0
 12 16  2  0  0  0  0
 13 15  1  0  0  0  0
  1 19  1  0  0  0  0
  2 20  1  0  0  0  0
  3 21  1  0  0  0  0
  4 22  1  0  0  0  0
  5 23  1  0  0  0  0
  6 24  1  0  0  0  0
  7 25  1  0  0  0  0
 13 26  1  0  0  0  0
 13 27  1  0  0  0  0
 15 28  1  0  0  0  0
M  END
> <Catalog ID>
Z30168858

> <PlateID>
1337959-R-01

> <Well>
A07

> <MW (desalted)>
264.683

> <CLogP>
1.630

> <HBD>
1

> <TPSA>
41.990

> <RotBonds>
3

> <ROCS_ShapeQuery>
A71EV2A-x0451_0A_A71EV2A-x0310_0A_A71EV2A-x0416_0A_peptide

> <ROCS_TanimotoCombo>
0.425 

> <ROCS_ShapeTanimoto>
0.286 

> <ROCS_ColorTanimoto>
0.139 

> <ROCS_RefTversky>
0.258 

> <ROCS_RefColorTversky>
0.148 

> <ROCS_RefTverskyCombo>
0.406 

> <ROCS_FitTversky>
1.598 

> <ROCS_FitColorTversky>
0.708 

> <ROCS_FitTverskyCombo>
2.307 

> <ROCS_ColorScore>
-4.487

> <ROCS_Overlap>
1790.016

> <ROCS_Rank>
215                 

$$$$
untitled-dbase-842_143
  -OEChem-11112309163D

 36 37  0     1  0  0  0  0  0999 V2000
    8.0858   12.3086   24.2376 C   0  0  0  0  0  0  0  0  0  0  0  0
    8.8709   11.1245   24.1292 C   0  0  0  0  0  0  0  0  0  0  0  0
    6.9765   12.1229   25.0329 C   0  0  0  0  0  0  0  0  0  0  0  0
    8.3317   10.0789   24.8461 C   0  0  0  0  0  0  0  0  0  0  0  0
   10.6023   13.4815   23.2352 C   0  0  0  0  0  0  0  0  0  0  0  0
    8.9200   15.9951   22.2399 C   0  0  0  0  0  0  0  0  0  0  0  0
    9.6362   14.9339   21.4393 C   0  0  0  0  0  0  0  0  0  0  0  0
   10.0705   16.7360   22.8819 C   0  0  0  0  0  0  0  0  0  0  0  0
   10.8453   14.6221   22.2999 C   0  0  1  0  0  0  0  0  0  0  0  0
    5.9250   13.1009   25.3878 C   0  0  0  0  0  0  0  0  0  0  0  0
    8.8355    8.6945   24.9916 C   0  0  0  0  0  0  0  0  0  0  0  0
   11.3548   10.6546   24.1680 C   0  0  0  0  0  0  0  0  0  0  0  0
   10.1456   11.0388   23.3177 C   0  0  2  0  0  0  0  0  0  0  0  0
   10.3965   12.2699   22.6034 N   0  0  0  0  0  0  0  0  0  0  0  0
   10.6022   13.6811   24.4443 O   0  0  0  0  0  0  0  0  0  0  0  0
   11.0902   15.7598   23.1321 O   0  0  0  0  0  0  0  0  0  0  0  0
    6.8848   10.5263   25.6451 S   0  0  0  0  0  0  0  0  0  0  0  0
    8.3220   13.2494   23.7558 H   0  0  0  0  0  0  0  0  0  0  0  0
    8.2786   16.6419   21.6357 H   0  0  0  0  0  0  0  0  0  0  0  0
    8.3012   15.5230   23.0120 H   0  0  0  0  0  0  0  0  0  0  0  0
    9.0070   14.0658   21.2215 H   0  0  0  0  0  0  0  0  0  0  0  0
    9.9660   15.3613   20.4846 H   0  0  0  0  0  0  0  0  0  0  0  0
   10.4852   17.4895   22.2035 H   0  0  0  0  0  0  0  0  0  0  0  0
    9.7887   17.2246   23.8186 H   0  0  0  0  0  0  0  0  0  0  0  0
   11.7366   14.4008   21.7053 H   0  0  0  0  0  0  0  0  0  0  0  0
    5.1012   13.0764   24.6575 H   0  0  0  0  0  0  0  0  0  0  0  0
    5.4988   12.9020   26.3846 H   0  0  0  0  0  0  0  0  0  0  0  0
    6.3165   14.1309   25.4210 H   0  0  0  0  0  0  0  0  0  0  0  0
    9.5134    8.6118   25.8549 H   0  0  0  0  0  0  0  0  0  0  0  0
    8.0151    7.9731   25.1348 H   0  0  0  0  0  0  0  0  0  0  0  0
    9.3851    8.3625   24.0962 H   0  0  0  0  0  0  0  0  0  0  0  0
   11.5253   11.3867   24.9650 H   0  0  0  0  0  0  0  0  0  0  0  0
   11.2006    9.6750   24.6343 H   0  0  0  0  0  0  0  0  0  0  0  0
   12.2709   10.5860   23.5706 H   0  0  0  0  0  0  0  0  0  0  0  0
   10.0269   10.2724   22.5418 H   0  0  0  0  0  0  0  0  0  0  0  0
   10.4228   12.2433   21.5885 H   0  0  0  0  0  0  0  0  0  0  0  0
  1  2  1  0  0  0  0
  1  3  2  0  0  0  0
  2  4  2  0  0  0  0
  2 13  1  0  0  0  0
  3 10  1  0  0  0  0
  3 17  1  0  0  0  0
  4 11  1  0  0  0  0
  4 17  1  0  0  0  0
  5  9  1  0  0  0  0
  5 14  1  0  0  0  0
  5 15  2  0  0  0  0
  6  7  1  0  0  0  0
  6  8  1  0  0  0  0
  7  9  1  0  0  0  0
  8 16  1  0  0  0  0
  9 16  1  0  0  0  0
 12 13  1  0  0  0  0
 13 14  1  0  0  0  0
  1 18  1  0  0  0  0
  6 19  1  0  0  0  0
  6 20  1  0  0  0  0
  7 21  1  0  0  0  0
  7 22  1  0  0  0  0
  8 23  1  0  0  0  0
  8 24  1  0  0  0  0
  9 25  1  0  0  0  0
 10 26  1  0  0  0  0
 10 27  1  0  0  0  0
 10 28  1  0  0  0  0
 11 29  1  0  0  0  0
 11 30  1  0  0  0  0
 11 31  1  0  0  0  0
 12 32  1  0  0  0  0
 12 33  1  0  0  0  0
 12 34  1  0  0  0  0
 13 35  1  0  0  0  0
 14 36  1  0  0  0  0
M  END
> <Catalog ID>
Z364389966

> <PlateID>
1337959-R-11

> <Well>
E06

> <MW (desalted)>
253.360

> <CLogP>
2.336

> <HBD>
1

> <TPSA>
38.330

> <RotBonds>
3

> <ROCS_ShapeQuery>
A71EV2A-x0451_0A_A71EV2A-x0310_0A_A71EV2A-x0416_0A_peptide

> <ROCS_TanimotoCombo>
0.425 

> <ROCS_ShapeTanimoto>
0.275 

> <ROCS_ColorTanimoto>
0.150 

> <ROCS_RefTversky>
0.249 

> <ROCS_RefColorTversky>
0.157 

> <ROCS_RefTverskyCombo>
0.406 

> <ROCS_FitTversky>
1.638 

> <ROCS_FitColorTversky>
0.755 

> <ROCS_FitTverskyCombo>
2.392 

> <ROCS_ColorScore>
-4.781

> <ROCS_Overlap>
1722.927

> <ROCS_Rank>
216                 

$$$$
untitled-dbase-667_246
  -OEChem-11112309163D

 35 36  0     1  0  0  0  0  0999 V2000
    8.7457    9.6547   23.5869 C   0  0  0  0  0  0  0  0  0  0  0  0
    9.7132   10.6121   23.2824 C   0  0  0  0  0  0  0  0  0  0  0  0
    7.6099   10.0167   24.3113 C   0  0  0  0  0  0  0  0  0  0  0  0
    8.4093   12.2936   24.4267 C   0  0  0  0  0  0  0  0  0  0  0  0
    9.5450   11.9316   23.7023 C   0  0  0  0  0  0  0  0  0  0  0  0
    7.4417   11.3361   24.7312 C   0  0  0  0  0  0  0  0  0  0  0  0
    8.6400   12.8869   20.1818 C   0  0  0  0  0  0  0  0  0  0  0  0
    8.3539   14.3532   20.4390 C   0  0  0  0  0  0  0  0  0  0  0  0
   10.0562   12.7145   20.7115 C   0  0  0  0  0  0  0  0  0  0  0  0
    8.9542   14.5638   21.8277 C   0  0  2  0  0  0  0  0  0  0  0  0
   11.2977   16.2359   20.7591 C   0  0  0  0  0  0  0  0  0  0  0  0
    9.3123   16.0154   22.0896 C   0  0  0  0  0  0  0  0  0  0  0  0
   10.1833   13.7083   21.8206 N   0  0  1  0  0  0  0  0  0  0  0  0
    9.8851   16.5990   20.9198 N   0  0  0  0  0  0  0  0  0  0  0  0
   10.6662   14.2018   24.3043 O   0  0  0  0  0  0  0  0  0  0  0  0
   12.0271   12.4514   23.1079 O   0  0  0  0  0  0  0  0  0  0  0  0
   10.7703   13.1451   23.3160 S   0  0  0  0  0  0  0  0  0  0  0  0
    6.0411   11.7820   25.6262 Cl  0  0  0  0  0  0  0  0  0  0  0  0
    8.8766    8.6274   23.2596 H   0  0  0  0  0  0  0  0  0  0  0  0
   10.5937   10.3187   22.7173 H   0  0  0  0  0  0  0  0  0  0  0  0
    6.8643    9.2602   24.5422 H   0  0  0  0  0  0  0  0  0  0  0  0
    8.2827   13.3233   24.7538 H   0  0  0  0  0  0  0  0  0  0  0  0
    7.9445   12.2619   20.7549 H   0  0  0  0  0  0  0  0  0  0  0  0
    8.5535   12.6140   19.1264 H   0  0  0  0  0  0  0  0  0  0  0  0
    8.8597   14.9709   19.6866 H   0  0  0  0  0  0  0  0  0  0  0  0
    7.2850   14.5836   20.4093 H   0  0  0  0  0  0  0  0  0  0  0  0
   10.2303   11.6888   21.0495 H   0  0  0  0  0  0  0  0  0  0  0  0
   10.7981   12.9619   19.9448 H   0  0  0  0  0  0  0  0  0  0  0  0
    8.2575   14.1944   22.5905 H   0  0  0  0  0  0  0  0  0  0  0  0
   11.3925   15.1409   20.7147 H   0  0  0  0  0  0  0  0  0  0  0  0
   11.6856   16.6754   19.8284 H   0  0  0  0  0  0  0  0  0  0  0  0
   11.8742   16.6193   21.6139 H   0  0  0  0  0  0  0  0  0  0  0  0
    8.3947   16.5397   22.3625 H   0  0  0  0  0  0  0  0  0  0  0  0
   10.0293   16.0373   22.9122 H   0  0  0  0  0  0  0  0  0  0  0  0
    9.8260   17.6263   20.9583 H   0  0  0  0  0  0  0  0  0  0  0  0
  1  2  1  0  0  0  0
  1  3  2  0  0  0  0
  2  5  2  0  0  0  0
  3  6  1  0  0  0  0
  4  5  1  0  0  0  0
  4  6  2  0  0  0  0
  5 17  1  0  0  0  0
  6 18  1  0  0  0  0
  7  8  1  0  0  0  0
  7  9  1  0  0  0  0
  8 10  1  0  0  0  0
  9 13  1  0  0  0  0
 10 12  1  0  0  0  0
 10 13  1  0  0  0  0
 11 14  1  0  0  0  0
 12 14  1  0  0  0  0
 13 17  1  0  0  0  0
 15 17  2  0  0  0  0
 16 17  2  0  0  0  0
  1 19  1  0  0  0  0
  2 20  1  0  0  0  0
  3 21  1  0  0  0  0
  4 22  1  0  0  0  0
  7 23  1  0  0  0  0
  7 24  1  0  0  0  0
  8 25  1  0  0  0  0
  8 26  1  0  0  0  0
  9 27  1  0  0  0  0
  9 28  1  0  0  0  0
 10 29  1  0  0  0  0
 11 30  1  0  0  0  0
 11 31  1  0  0  0  0
 11 32  1  0  0  0  0
 12 33  1  0  0  0  0
 12 34  1  0  0  0  0
 14 35  1  0  0  0  0
M  END
> <Catalog ID>
Z1480927085

> <PlateID>
1337959-R-09

> <Well>
C10

> <MW (desalted)>
288.794

> <CLogP>
2.437

> <HBD>
1

> <TPSA>
49.410

> <RotBonds>
3

> <ROCS_ShapeQuery>
A71EV2A-x0451_0A_A71EV2A-x0310_0A_A71EV2A-x0416_0A_peptide

> <ROCS_TanimotoCombo>
0.425 

> <ROCS_ShapeTanimoto>
0.259 

> <ROCS_ColorTanimoto>
0.165 

> <ROCS_RefTversky>
0.238 

> <ROCS_RefColorTversky>
0.176 

> <ROCS_RefTverskyCombo>
0.414 

> <ROCS_FitTversky>
1.528 

> <ROCS_FitColorTversky>
0.734 

> <ROCS_FitTverskyCombo>
2.262 

> <ROCS_ColorScore>
-5.348

> <ROCS_Overlap>
1651.077

> <ROCS_Rank>
217                 

$$$$
untitled-dbase-592_3
  -OEChem-11112309163D

 37 38  0     1  0  0  0  0  0999 V2000
   11.6934   12.2280   21.6919 C   0  0  0  0  0  0  0  0  0  0  0  0
   10.2973   13.2229   23.3941 C   0  0  0  0  0  0  0  0  0  0  0  0
   11.1428   15.7742   21.3661 C   0  0  0  0  0  0  0  0  0  0  0  0
   10.3995   15.0256   20.2765 C   0  0  0  0  0  0  0  0  0  0  0  0
   11.8867   14.6673   22.1042 C   0  0  0  0  0  0  0  0  0  0  0  0
    9.8812   13.7836   20.9932 C   0  0  0  0  0  0  0  0  0  0  0  0
    8.2761   12.2288   24.4197 C   0  0  0  0  0  0  0  0  0  0  0  0
    9.3854   10.9804   22.6144 C   0  0  0  0  0  0  0  0  0  0  0  0
    8.1630   10.9185   25.1989 C   0  0  1  0  0  0  0  0  0  0  0  0
    9.2280    9.7133   23.4575 C   0  0  2  0  0  0  0  0  0  0  0  0
   10.9488   13.4447   22.0526 C   0  0  0  0  0  0  0  0  0  0  0  0
    6.9224   10.9086   26.0798 C   0  0  0  0  0  0  0  0  0  0  0  0
    9.0639    8.4839   22.5758 C   0  0  0  0  0  0  0  0  0  0  0  0
   12.2806   11.2686   21.4073 N   0  0  0  0  0  0  0  0  0  0  0  0
    9.3960   12.1642   23.4806 N   0  0  0  0  0  0  0  0  0  0  0  0
   10.5837   13.9665   24.3358 O   0  0  0  0  0  0  0  0  0  0  0  0
    8.0610    9.8190   24.2841 O   0  0  0  0  0  0  0  0  0  0  0  0
   11.8208   16.5324   20.9641 H   0  0  0  0  0  0  0  0  0  0  0  0
   10.4342   16.2695   22.0405 H   0  0  0  0  0  0  0  0  0  0  0  0
    9.5915   15.6190   19.8391 H   0  0  0  0  0  0  0  0  0  0  0  0
   11.0884   14.7392   19.4731 H   0  0  0  0  0  0  0  0  0  0  0  0
   12.8311   14.4644   21.5820 H   0  0  0  0  0  0  0  0  0  0  0  0
   12.1431   14.9852   23.1207 H   0  0  0  0  0  0  0  0  0  0  0  0
    8.9166   14.0226   21.4597 H   0  0  0  0  0  0  0  0  0  0  0  0
    9.6998   12.9711   20.2800 H   0  0  0  0  0  0  0  0  0  0  0  0
    7.3770   12.3986   23.8145 H   0  0  0  0  0  0  0  0  0  0  0  0
    8.3862   13.0768   25.1031 H   0  0  0  0  0  0  0  0  0  0  0  0
   10.2853   10.9143   21.9999 H   0  0  0  0  0  0  0  0  0  0  0  0
    8.5285   11.1045   21.9407 H   0  0  0  0  0  0  0  0  0  0  0  0
    9.0460   10.7727   25.8348 H   0  0  0  0  0  0  0  0  0  0  0  0
   10.1071    9.5693   24.0993 H   0  0  0  0  0  0  0  0  0  0  0  0
    6.0294   11.0519   25.4705 H   0  0  0  0  0  0  0  0  0  0  0  0
    6.9794   11.7114   26.8157 H   0  0  0  0  0  0  0  0  0  0  0  0
    6.8427    9.9552   26.6034 H   0  0  0  0  0  0  0  0  0  0  0  0
    8.1953    8.6019   21.9270 H   0  0  0  0  0  0  0  0  0  0  0  0
    8.9244    7.5962   23.1937 H   0  0  0  0  0  0  0  0  0  0  0  0
    9.9508    8.3467   21.9563 H   0  0  0  0  0  0  0  0  0  0  0  0
  1 11  1  0  0  0  0
  1 14  3  0  0  0  0
  2 11  1  0  0  0  0
  2 15  1  0  0  0  0
  2 16  2  0  0  0  0
  3  4  1  0  0  0  0
  3  5  1  0  0  0  0
  4  6  1  0  0  0  0
  5 11  1  0  0  0  0
  6 11  1  0  0  0  0
  7  9  1  0  0  0  0
  7 15  1  0  0  0  0
  8 10  1  0  0  0  0
  8 15  1  0  0  0  0
  9 12  1  0  0  0  0
  9 17  1  0  0  0  0
 10 13  1  0  0  0  0
 10 17  1  0  0  0  0
  3 18  1  0  0  0  0
  3 19  1  0  0  0  0
  4 20  1  0  0  0  0
  4 21  1  0  0  0  0
  5 22  1  0  0  0  0
  5 23  1  0  0  0  0
  6 24  1  0  0  0  0
  6 25  1  0  0  0  0
  7 26  1  0  0  0  0
  7 27  1  0  0  0  0
  8 28  1  0  0  0  0
  8 29  1  0  0  0  0
  9 30  1  0  0  0  0
 10 31  1  0  0  0  0
 12 32  1  0  0  0  0
 12 33  1  0  0  0  0
 12 34  1  0  0  0  0
 13 35  1  0  0  0  0
 13 36  1  0  0  0  0
 13 37  1  0  0  0  0
M  END
> <Catalog ID>
Z131152562

> <PlateID>
1337959-R-08

> <Well>
D04

> <MW (desalted)>
236.310

> <CLogP>
1.538

> <HBD>
0

> <TPSA>
53.330

> <RotBonds>
1

> <ROCS_ShapeQuery>
A71EV2A-x0451_0A_A71EV2A-x0310_0A_A71EV2A-x0416_0A_peptide

> <ROCS_TanimotoCombo>
0.425 

> <ROCS_ShapeTanimoto>
0.290 

> <ROCS_ColorTanimoto>
0.134 

> <ROCS_RefTversky>
0.260 

> <ROCS_RefColorTversky>
0.143 

> <ROCS_RefTverskyCombo>
0.403 

> <ROCS_FitTversky>
1.687 

> <ROCS_FitColorTversky>
0.686 

> <ROCS_FitTverskyCombo>
2.373 

> <ROCS_ColorScore>
-4.343

> <ROCS_Overlap>
1800.821

> <ROCS_Rank>
218                 

$$$$
untitled-dbase-725_798
  -OEChem-11112309163D

 31 32  0     0  0  0  0  0  0999 V2000
   11.8787   13.2535   20.0205 C   0  0  0  0  0  0  0  0  0  0  0  0
   13.2492   13.3977   20.2355 C   0  0  0  0  0  0  0  0  0  0  0  0
   11.0024   13.2182   21.1052 C   0  0  0  0  0  0  0  0  0  0  0  0
   13.7436   13.5065   21.5353 C   0  0  0  0  0  0  0  0  0  0  0  0
   11.4968   13.3270   22.4050 C   0  0  0  0  0  0  0  0  0  0  0  0
   12.8674   13.4712   22.6201 C   0  0  0  0  0  0  0  0  0  0  0  0
   10.5545   13.2872   23.5354 C   0  0  0  0  0  0  0  0  0  0  0  0
    9.8045   10.9642   22.8249 C   0  0  0  0  0  0  0  0  0  0  0  0
    8.8658   12.0505   24.8427 C   0  0  0  0  0  0  0  0  0  0  0  0
    9.4086    9.7175   23.6054 C   0  0  0  0  0  0  0  0  0  0  0  0
    7.6927   11.1373   24.5179 C   0  0  0  0  0  0  0  0  0  0  0  0
   13.1336   12.4993   24.7745 C   0  0  0  0  0  0  0  0  0  0  0  0
    9.7678   12.1448   23.6965 N   0  0  0  0  0  0  0  0  0  0  0  0
   10.5237   14.2766   24.2659 O   0  0  0  0  0  0  0  0  0  0  0  0
    8.0997    9.8116   24.1711 O   0  0  0  0  0  0  0  0  0  0  0  0
   13.3694   13.5810   23.8825 O   0  0  0  0  0  0  0  0  0  0  0  0
   12.4199   11.5617   24.0993 F   0  0  0  0  0  0  0  0  0  0  0  0
   14.3172   11.9232   25.0987 F   0  0  0  0  0  0  0  0  0  0  0  0
   11.4940   13.1688   19.0081 H   0  0  0  0  0  0  0  0  0  0  0  0
   13.9310   13.4246   19.3906 H   0  0  0  0  0  0  0  0  0  0  0  0
    9.9362   13.1058   20.9256 H   0  0  0  0  0  0  0  0  0  0  0  0
   14.8125   13.6188   21.6959 H   0  0  0  0  0  0  0  0  0  0  0  0
   10.7872   10.8252   22.3669 H   0  0  0  0  0  0  0  0  0  0  0  0
    9.0802   11.1516   22.0226 H   0  0  0  0  0  0  0  0  0  0  0  0
    8.5105   13.0679   25.0424 H   0  0  0  0  0  0  0  0  0  0  0  0
    9.3964   11.6947   25.7305 H   0  0  0  0  0  0  0  0  0  0  0  0
    9.4141    8.8415   22.9339 H   0  0  0  0  0  0  0  0  0  0  0  0
   10.1389    9.4983   24.4073 H   0  0  0  0  0  0  0  0  0  0  0  0
    6.9730   11.0915   25.3602 H   0  0  0  0  0  0  0  0  0  0  0  0
    7.1309   11.5453   23.6574 H   0  0  0  0  0  0  0  0  0  0  0  0
   12.5730   12.7869   25.6704 H   0  0  0  0  0  0  0  0  0  0  0  0
  1  2  2  0  0  0  0
  1  3  1  0  0  0  0
  2  4  1  0  0  0  0
  3  5  2  0  0  0  0
  4  6  2  0  0  0  0
  5  6  1  0  0  0  0
  5  7  1  0  0  0  0
  6 16  1  0  0  0  0
  7 13  1  0  0  0  0
  7 14  2  0  0  0  0
  8 10  1  0  0  0  0
  8 13  1  0  0  0  0
  9 11  1  0  0  0  0
  9 13  1  0  0  0  0
 10 15  1  0  0  0  0
 11 15  1  0  0  0  0
 12 16  1  0  0  0  0
 12 17  1  0  0  0  0
 12 18  1  0  0  0  0
  1 19  1  0  0  0  0
  2 20  1  0  0  0  0
  3 21  1  0  0  0  0
  4 22  1  0  0  0  0
  8 23  1  0  0  0  0
  8 24  1  0  0  0  0
  9 25  1  0  0  0  0
  9 26  1  0  0  0  0
 10 27  1  0  0  0  0
 10 28  1  0  0  0  0
 11 29  1  0  0  0  0
 11 30  1  0  0  0  0
 12 31  1  0  0  0  0
M  END
> <Catalog ID>
Z54409144

> <PlateID>
1337959-R-10

> <Well>
A08

> <MW (desalted)>
257.233

> <CLogP>
1.438

> <HBD>
0

> <TPSA>
38.770

> <RotBonds>
3

> <ROCS_ShapeQuery>
A71EV2A-x0451_0A_A71EV2A-x0310_0A_A71EV2A-x0416_0A_peptide

> <ROCS_TanimotoCombo>
0.425 

> <ROCS_ShapeTanimoto>
0.262 

> <ROCS_ColorTanimoto>
0.162 

> <ROCS_RefTversky>
0.242 

> <ROCS_RefColorTversky>
0.169 

> <ROCS_RefTverskyCombo>
0.410 

> <ROCS_FitTversky>
1.485 

> <ROCS_FitColorTversky>
0.809 

> <ROCS_FitTverskyCombo>
2.295 

> <ROCS_ColorScore>
-5.127

> <ROCS_Overlap>
1675.549

> <ROCS_Rank>
219                 

$$$$
untitled-dbase-953_361
  -OEChem-11112309163D

 38 40  0     1  0  0  0  0  0999 V2000
   11.4259   15.0098   22.4687 C   0  0  0  0  0  0  0  0  0  0  0  0
   11.4903   13.6088   22.2777 C   0  0  0  0  0  0  0  0  0  0  0  0
   10.8782   15.2005   23.7159 C   0  0  0  0  0  0  0  0  0  0  0  0
   10.9776   13.0433   23.4220 C   0  0  0  0  0  0  0  0  0  0  0  0
    9.6987    8.2044   22.5384 C   0  0  0  0  0  0  0  0  0  0  0  0
    8.3628    8.9015   22.8563 C   0  0  0  0  0  0  0  0  0  0  0  0
   10.1991    8.6663   23.9190 C   0  0  0  0  0  0  0  0  0  0  0  0
    8.5017   11.9776   23.0846 C   0  0  0  0  0  0  0  0  0  0  0  0
    7.7990   12.2321   24.4167 C   0  0  0  0  0  0  0  0  0  0  0  0
    8.3871   10.0857   25.1955 C   0  0  0  0  0  0  0  0  0  0  0  0
    9.1213    9.7947   23.8971 C   0  0  0  0  0  0  0  0  0  0  0  0
   11.5025   17.5741   24.2285 C   0  0  0  0  0  0  0  0  0  0  0  0
   10.5500   16.4010   24.4976 C   0  0  0  0  0  0  0  0  0  0  0  0
   10.7649   11.6228   23.8590 C   0  0  0  0  0  0  0  0  0  0  0  0
    9.6123   11.0100   23.1912 N   0  0  2  0  0  0  0  0  0  0  0  0
   10.6022   14.0068   24.3037 O   0  0  0  0  0  0  0  0  0  0  0  0
    7.3164   11.0025   24.9566 O   0  0  0  0  0  0  0  0  0  0  0  0
   11.7401   15.7822   21.7814 H   0  0  0  0  0  0  0  0  0  0  0  0
   11.8647   13.0805   21.4125 H   0  0  0  0  0  0  0  0  0  0  0  0
    9.6194    7.1146   22.4334 H   0  0  0  0  0  0  0  0  0  0  0  0
   10.2479    8.5988   21.6771 H   0  0  0  0  0  0  0  0  0  0  0  0
    7.9499    9.4270   21.9832 H   0  0  0  0  0  0  0  0  0  0  0  0
    7.5815    8.2504   23.2655 H   0  0  0  0  0  0  0  0  0  0  0  0
   10.1078    7.9182   24.7204 H   0  0  0  0  0  0  0  0  0  0  0  0
   11.2492    9.0044   23.8976 H   0  0  0  0  0  0  0  0  0  0  0  0
    7.7773   11.6466   22.3309 H   0  0  0  0  0  0  0  0  0  0  0  0
    8.9102   12.9259   22.7128 H   0  0  0  0  0  0  0  0  0  0  0  0
    8.5123   12.6488   25.1345 H   0  0  0  0  0  0  0  0  0  0  0  0
    6.9728   12.9451   24.3263 H   0  0  0  0  0  0  0  0  0  0  0  0
    7.9887    9.1752   25.6606 H   0  0  0  0  0  0  0  0  0  0  0  0
    9.0513   10.5497   25.9338 H   0  0  0  0  0  0  0  0  0  0  0  0
   12.5407   17.2790   24.4147 H   0  0  0  0  0  0  0  0  0  0  0  0
   11.2735   18.4314   24.8692 H   0  0  0  0  0  0  0  0  0  0  0  0
   11.4279   17.9004   23.1856 H   0  0  0  0  0  0  0  0  0  0  0  0
    9.5145   16.7456   24.2966 H   0  0  0  0  0  0  0  0  0  0  0  0
   10.5617   16.1914   25.5873 H   0  0  0  0  0  0  0  0  0  0  0  0
   11.6475   11.0137   23.6351 H   0  0  0  0  0  0  0  0  0  0  0  0
   10.5955   11.5651   24.9393 H   0  0  0  0  0  0  0  0  0  0  0  0
  1  2  1  0  0  0  0
  1  3  2  0  0  0  0
  2  4  2  0  0  0  0
  3 13  1  0  0  0  0
  3 16  1  0  0  0  0
  4 14  1  0  0  0  0
  4 16  1  0  0  0  0
  5  6  1  0  0  0  0
  5  7  1  0  0  0  0
  6 11  1  0  0  0  0
  7 11  1  0  0  0  0
  8  9  1  0  0  0  0
  8 15  1  0  0  0  0
  9 17  1  0  0  0  0
 10 11  1  0  0  0  0
 10 17  1  0  0  0  0
 11 15  1  0  0  0  0
 12 13  1  0  0  0  0
 14 15  1  0  0  0  0
  1 18  1  0  0  0  0
  2 19  1  0  0  0  0
  5 20  1  0  0  0  0
  5 21  1  0  0  0  0
  6 22  1  0  0  0  0
  6 23  1  0  0  0  0
  7 24  1  0  0  0  0
  7 25  1  0  0  0  0
  8 26  1  0  0  0  0
  8 27  1  0  0  0  0
  9 28  1  0  0  0  0
  9 29  1  0  0  0  0
 10 30  1  0  0  0  0
 10 31  1  0  0  0  0
 12 32  1  0  0  0  0
 12 33  1  0  0  0  0
 12 34  1  0  0  0  0
 13 35  1  0  0  0  0
 13 36  1  0  0  0  0
 14 37  1  0  0  0  0
 14 38  1  0  0  0  0
M  END
> <Catalog ID>
Z1569171170

> <PlateID>
1337959-R-12

> <Well>
H07

> <MW (desalted)>
235.322

> <CLogP>
2.966

> <HBD>
0

> <TPSA>
25.610

> <RotBonds>
3

> <ROCS_ShapeQuery>
A71EV2A-x0451_0A_A71EV2A-x0310_0A_A71EV2A-x0416_0A_peptide

> <ROCS_TanimotoCombo>
0.424 

> <ROCS_ShapeTanimoto>
0.297 

> <ROCS_ColorTanimoto>
0.127 

> <ROCS_RefTversky>
0.265 

> <ROCS_RefColorTversky>
0.143 

> <ROCS_RefTverskyCombo>
0.408 

> <ROCS_FitTversky>
1.698 

> <ROCS_FitColorTversky>
0.529 

> <ROCS_FitTverskyCombo>
2.226 

> <ROCS_ColorScore>
-4.356

> <ROCS_Overlap>
1837.716

> <ROCS_Rank>
220                 

$$$$
untitled-dbase-367_7
  -OEChem-11112309163D

 29 30  0     0  0  0  0  0  0999 V2000
    7.7308   10.0993   24.2125 C   0  0  0  0  0  0  0  0  0  0  0  0
    7.6979   11.3248   24.8777 C   0  0  0  0  0  0  0  0  0  0  0  0
    8.7163    9.8504   23.2573 C   0  0  0  0  0  0  0  0  0  0  0  0
    8.6505   12.3016   24.5877 C   0  0  0  0  0  0  0  0  0  0  0  0
    9.6690   10.8272   22.9672 C   0  0  0  0  0  0  0  0  0  0  0  0
    9.6361   12.0528   23.6324 C   0  0  0  0  0  0  0  0  0  0  0  0
    8.9374   15.7690   21.8467 C   0  0  0  0  0  0  0  0  0  0  0  0
   11.2478   15.9827   21.1791 C   0  0  0  0  0  0  0  0  0  0  0  0
    8.9624   14.2740   21.5456 C   0  0  0  0  0  0  0  0  0  0  0  0
   11.3208   14.4921   20.8640 C   0  0  0  0  0  0  0  0  0  0  0  0
    9.8876   16.4952   21.0018 N   0  0  0  0  0  0  0  0  0  0  0  0
   10.3436   13.7376   21.6972 N   0  0  0  0  0  0  0  0  0  0  0  0
   10.6142   14.4043   24.1682 O   0  0  0  0  0  0  0  0  0  0  0  0
   12.1328   12.6482   23.1894 O   0  0  0  0  0  0  0  0  0  0  0  0
   10.6109   10.5768   22.0470 F   0  0  0  0  0  0  0  0  0  0  0  0
   10.8394   13.2925   23.2695 S   0  0  0  0  0  0  0  0  0  0  0  0
    6.9891    9.3387   24.4384 H   0  0  0  0  0  0  0  0  0  0  0  0
    6.9309   11.5182   25.6220 H   0  0  0  0  0  0  0  0  0  0  0  0
    8.7422    8.8964   22.7392 H   0  0  0  0  0  0  0  0  0  0  0  0
    8.6155   13.2528   25.1121 H   0  0  0  0  0  0  0  0  0  0  0  0
    7.9306   16.1630   21.6716 H   0  0  0  0  0  0  0  0  0  0  0  0
    9.1710   15.9518   22.9027 H   0  0  0  0  0  0  0  0  0  0  0  0
   11.5814   16.1746   22.2061 H   0  0  0  0  0  0  0  0  0  0  0  0
   11.9255   16.5325   20.5173 H   0  0  0  0  0  0  0  0  0  0  0  0
    8.2935   13.7571   22.2486 H   0  0  0  0  0  0  0  0  0  0  0  0
    8.5990   14.0755   20.5258 H   0  0  0  0  0  0  0  0  0  0  0  0
   11.1167   14.3084   19.7981 H   0  0  0  0  0  0  0  0  0  0  0  0
   12.3365   14.1310   21.0800 H   0  0  0  0  0  0  0  0  0  0  0  0
    9.6159   16.3786   20.0241 H   0  0  0  0  0  0  0  0  0  0  0  0
  1  2  2  0  0  0  0
  1  3  1  0  0  0  0
  2  4  1  0  0  0  0
  3  5  2  0  0  0  0
  4  6  2  0  0  0  0
  5  6  1  0  0  0  0
  5 15  1  0  0  0  0
  6 16  1  0  0  0  0
  7  9  1  0  0  0  0
  7 11  1  0  0  0  0
  8 10  1  0  0  0  0
  8 11  1  0  0  0  0
  9 12  1  0  0  0  0
 10 12  1  0  0  0  0
 12 16  1  0  0  0  0
 13 16  2  0  0  0  0
 14 16  2  0  0  0  0
  1 17  1  0  0  0  0
  2 18  1  0  0  0  0
  3 19  1  0  0  0  0
  4 20  1  0  0  0  0
  7 21  1  0  0  0  0
  7 22  1  0  0  0  0
  8 23  1  0  0  0  0
  8 24  1  0  0  0  0
  9 25  1  0  0  0  0
  9 26  1  0  0  0  0
 10 27  1  0  0  0  0
 10 28  1  0  0  0  0
 11 29  1  0  0  0  0
M  END
> <Catalog ID>
Z295451046

> <PlateID>
1337959-R-05

> <Well>
E09

> <MW (desalted)>
244.286

> <CLogP>
1.412

> <HBD>
1

> <TPSA>
49.410

> <RotBonds>
1

> <ROCS_ShapeQuery>
A71EV2A-x0451_0A_A71EV2A-x0310_0A_A71EV2A-x0416_0A_peptide

> <ROCS_TanimotoCombo>
0.424 

> <ROCS_ShapeTanimoto>
0.262 

> <ROCS_ColorTanimoto>
0.162 

> <ROCS_RefTversky>
0.238 

> <ROCS_RefColorTversky>
0.173 

> <ROCS_RefTverskyCombo>
0.411 

> <ROCS_FitTversky>
1.622 

> <ROCS_FitColorTversky>
0.723 

> <ROCS_FitTverskyCombo>
2.345 

> <ROCS_ColorScore>
-5.268

> <ROCS_Overlap>
1648.938

> <ROCS_Rank>
221                 

$$$$
untitled-dbase-915_2458
  -OEChem-11112309163D

 39 40  0     1  0  0  0  0  0999 V2000
   12.0418   16.2672   20.9166 C   0  0  0  0  0  0  0  0  0  0  0  0
   10.9986   15.8350   20.2041 C   0  0  0  0  0  0  0  0  0  0  0  0
   10.8598   13.8709   22.8667 C   0  0  0  0  0  0  0  0  0  0  0  0
    7.4217   12.1710   25.3318 C   0  0  0  0  0  0  0  0  0  0  0  0
   12.6452   15.1808   21.7441 C   0  0  0  0  0  0  0  0  0  0  0  0
   10.7251   14.3850   20.4325 C   0  0  0  0  0  0  0  0  0  0  0  0
    8.4677    9.4206   23.3314 C   0  0  0  0  0  0  0  0  0  0  0  0
    8.0234   10.4550   22.3086 C   0  0  0  0  0  0  0  0  0  0  0  0
    9.8947    9.6450   23.8164 C   0  0  0  0  0  0  0  0  0  0  0  0
    7.4572   11.7544   22.8752 C   0  0  0  0  0  0  0  0  0  0  0  0
   10.0667   10.8149   24.7763 C   0  0  0  0  0  0  0  0  0  0  0  0
   11.6436   14.0299   21.6062 C   0  0  0  0  0  0  0  0  0  0  0  0
    8.1652   12.4392   24.0513 C   0  0  2  0  0  0  0  0  0  0  0  0
    9.6696   12.2048   24.2598 C   0  0  2  0  0  0  0  0  0  0  0  0
   10.4400   12.5804   23.0981 N   0  0  0  0  0  0  0  0  0  0  0  0
   10.6532   14.8479   23.5769 O   0  0  0  0  0  0  0  0  0  0  0  0
    7.2680   12.9781   26.2364 O   0  0  0  0  0  0  0  0  0  0  0  0
    6.9426   10.9031   25.3507 O   0  0  0  0  0  0  0  0  0  0  0  0
   12.4231   17.2775   20.8834 H   0  0  0  0  0  0  0  0  0  0  0  0
   10.4310   16.4519   19.5225 H   0  0  0  0  0  0  0  0  0  0  0  0
   13.6239   14.9088   21.3344 H   0  0  0  0  0  0  0  0  0  0  0  0
   12.7773   15.5044   22.7816 H   0  0  0  0  0  0  0  0  0  0  0  0
    9.6673   14.2146   20.6568 H   0  0  0  0  0  0  0  0  0  0  0  0
   10.9885   13.8164   19.5340 H   0  0  0  0  0  0  0  0  0  0  0  0
    7.8063    9.4765   24.1938 H   0  0  0  0  0  0  0  0  0  0  0  0
    8.3762    8.4197   22.9167 H   0  0  0  0  0  0  0  0  0  0  0  0
    8.9184   10.7201   21.7054 H   0  0  0  0  0  0  0  0  0  0  0  0
    7.3209   10.0030   21.5745 H   0  0  0  0  0  0  0  0  0  0  0  0
   10.2696    8.7262   24.2794 H   0  0  0  0  0  0  0  0  0  0  0  0
   10.5220    9.8236   22.9363 H   0  0  0  0  0  0  0  0  0  0  0  0
    7.3563   12.4947   22.0455 H   0  0  0  0  0  0  0  0  0  0  0  0
    6.3969   11.5602   23.1673 H   0  0  0  0  0  0  0  0  0  0  0  0
    9.4407   10.5726   25.6680 H   0  0  0  0  0  0  0  0  0  0  0  0
   11.1078   10.8337   25.1826 H   0  0  0  0  0  0  0  0  0  0  0  0
   12.1625   13.0785   21.4259 H   0  0  0  0  0  0  0  0  0  0  0  0
    8.0178   13.5505   23.8770 H   0  0  0  0  0  0  0  0  0  0  0  0
   10.0318   12.9554   25.0413 H   0  0  0  0  0  0  0  0  0  0  0  0
   10.6816   11.8650   22.4255 H   0  0  0  0  0  0  0  0  0  0  0  0
    6.4556   10.7078   26.1795 H   0  0  0  0  0  0  0  0  0  0  0  0
  1  2  2  0  0  0  0
  1  5  1  0  0  0  0
  2  6  1  0  0  0  0
  3 12  1  0  0  0  0
  3 15  1  0  0  0  0
  3 16  2  0  0  0  0
  4 13  1  0  0  0  0
  4 17  2  0  0  0  0
  4 18  1  0  0  0  0
  5 12  1  0  0  0  0
  6 12  1  0  0  0  0
  7  8  1  0  0  0  0
  7  9  1  0  0  0  0
  8 10  1  0  0  0  0
  9 11  1  0  0  0  0
 10 13  1  0  0  0  0
 11 14  1  0  0  0  0
 13 14  1  0  0  0  0
 14 15  1  0  0  0  0
  1 19  1  0  0  0  0
  2 20  1  0  0  0  0
  5 21  1  0  0  0  0
  5 22  1  0  0  0  0
  6 23  1  0  0  0  0
  6 24  1  0  0  0  0
  7 25  1  0  0  0  0
  7 26  1  0  0  0  0
  8 27  1  0  0  0  0
  8 28  1  0  0  0  0
  9 29  1  0  0  0  0
  9 30  1  0  0  0  0
 10 31  1  0  0  0  0
 10 32  1  0  0  0  0
 11 33  1  0  0  0  0
 11 34  1  0  0  0  0
 12 35  1  0  0  0  0
 13 36  1  0  0  0  0
 14 37  1  0  0  0  0
 15 38  1  0  0  0  0
 18 39  1  0  0  0  0
M  END
> <Catalog ID>
Z1385253302

> <PlateID>
1337959-R-12

> <Well>
D09

> <MW (desalted)>
251.321

> <CLogP>
1.966

> <HBD>
2

> <TPSA>
66.400

> <RotBonds>
3

> <ROCS_ShapeQuery>
A71EV2A-x0451_0A_A71EV2A-x0310_0A_A71EV2A-x0416_0A_peptide

> <ROCS_TanimotoCombo>
0.424 

> <ROCS_ShapeTanimoto>
0.293 

> <ROCS_ColorTanimoto>
0.131 

> <ROCS_RefTversky>
0.263 

> <ROCS_RefColorTversky>
0.147 

> <ROCS_RefTverskyCombo>
0.410 

> <ROCS_FitTversky>
1.658 

> <ROCS_FitColorTversky>
0.543 

> <ROCS_FitTverskyCombo>
2.202 

> <ROCS_ColorScore>
-4.479

> <ROCS_Overlap>
1821.216

> <ROCS_Rank>
222                 

$$$$
untitled-dbase-295_41
  -OEChem-11112309163D

 35 37  0     0  0  0  0  0  0999 V2000
    6.6098   10.2214   25.3091 C   0  0  0  0  0  0  0  0  0  0  0  0
    8.1614   11.3136   24.3469 C   0  0  0  0  0  0  0  0  0  0  0  0
    8.3899    9.9897   24.0543 C   0  0  0  0  0  0  0  0  0  0  0  0
   11.0901   15.7860   22.8154 C   0  0  0  0  0  0  0  0  0  0  0  0
    9.4988    9.4698   23.2318 C   0  0  0  0  0  0  0  0  0  0  0  0
    9.8950   12.9670   25.0821 C   0  0  0  0  0  0  0  0  0  0  0  0
    8.2343   13.6020   23.2908 C   0  0  0  0  0  0  0  0  0  0  0  0
   10.5481   10.5908   23.0745 C   0  0  0  0  0  0  0  0  0  0  0  0
   10.8577   14.0824   24.6656 C   0  0  0  0  0  0  0  0  0  0  0  0
    8.8568   14.9863   23.5062 C   0  0  0  0  0  0  0  0  0  0  0  0
    9.0558   12.4317   23.8972 C   0  0  0  0  0  0  0  0  0  0  0  0
   10.5719   16.0524   21.4231 C   0  0  0  0  0  0  0  0  0  0  0  0
    7.0542   11.4512   25.1439 N   0  0  0  0  0  0  0  0  0  0  0  0
    7.3903    9.2962   24.6638 N   0  0  0  0  0  0  0  0  0  0  0  0
    9.9311   11.9029   22.8044 N   0  0  0  0  0  0  0  0  0  0  0  0
   10.3112   14.9440   23.6118 N   0  0  0  0  0  0  0  0  0  0  0  0
   12.1423   16.3135   23.1829 O   0  0  0  0  0  0  0  0  0  0  0  0
    5.7360    9.9338   25.8766 H   0  0  0  0  0  0  0  0  0  0  0  0
    9.9510    8.6075   23.7349 H   0  0  0  0  0  0  0  0  0  0  0  0
    9.1474    9.1447   22.2474 H   0  0  0  0  0  0  0  0  0  0  0  0
   10.4971   12.1555   25.5023 H   0  0  0  0  0  0  0  0  0  0  0  0
    9.2491   13.3362   25.8823 H   0  0  0  0  0  0  0  0  0  0  0  0
    7.2114   13.6154   23.6991 H   0  0  0  0  0  0  0  0  0  0  0  0
    8.1251   13.4470   22.2042 H   0  0  0  0  0  0  0  0  0  0  0  0
   11.1417   10.6577   23.9932 H   0  0  0  0  0  0  0  0  0  0  0  0
   11.2538   10.3395   22.2739 H   0  0  0  0  0  0  0  0  0  0  0  0
   11.1098   14.7321   25.5167 H   0  0  0  0  0  0  0  0  0  0  0  0
   11.8078   13.6331   24.3394 H   0  0  0  0  0  0  0  0  0  0  0  0
    8.5247   15.6482   22.6923 H   0  0  0  0  0  0  0  0  0  0  0  0
    8.4744   15.4456   24.4338 H   0  0  0  0  0  0  0  0  0  0  0  0
    9.9296   16.9266   21.4448 H   0  0  0  0  0  0  0  0  0  0  0  0
   10.0110   15.1884   21.0813 H   0  0  0  0  0  0  0  0  0  0  0  0
   11.4123   16.2258   20.7587 H   0  0  0  0  0  0  0  0  0  0  0  0
    7.2471    8.2950   24.6484 H   0  0  0  0  0  0  0  0  0  0  0  0
   10.6767   12.5757   22.6182 H   0  0  0  0  0  0  0  0  0  0  0  0
  1 13  2  0  0  0  0
  1 14  1  0  0  0  0
  2  3  2  0  0  0  0
  2 11  1  0  0  0  0
  2 13  1  0  0  0  0
  3  5  1  0  0  0  0
  3 14  1  0  0  0  0
  4 12  1  0  0  0  0
  4 16  1  0  0  0  0
  4 17  2  0  0  0  0
  5  8  1  0  0  0  0
  6  9  1  0  0  0  0
  6 11  1  0  0  0  0
  7 10  1  0  0  0  0
  7 11  1  0  0  0  0
  8 15  1  0  0  0  0
  9 16  1  0  0  0  0
 10 16  1  0  0  0  0
 11 15  1  0  0  0  0
  1 18  1  0  0  0  0
  5 19  1  0  0  0  0
  5 20  1  0  0  0  0
  6 21  1  0  0  0  0
  6 22  1  0  0  0  0
  7 23  1  0  0  0  0
  7 24  1  0  0  0  0
  8 25  1  0  0  0  0
  8 26  1  0  0  0  0
  9 27  1  0  0  0  0
  9 28  1  0  0  0  0
 10 29  1  0  0  0  0
 10 30  1  0  0  0  0
 12 31  1  0  0  0  0
 12 32  1  0  0  0  0
 12 33  1  0  0  0  0
 14 34  1  0  0  0  0
 15 35  1  0  0  0  0
M  END
> <Catalog ID>
Z1824566820

> <PlateID>
1337959-R-04

> <Well>
F07

> <MW (desalted)>
234.298

> <CLogP>
-2.188

> <HBD>
2

> <TPSA>
61.020

> <RotBonds>
0

> <ROCS_ShapeQuery>
A71EV2A-x0451_0A_A71EV2A-x0310_0A_A71EV2A-x0416_0A_peptide

> <ROCS_TanimotoCombo>
0.424 

> <ROCS_ShapeTanimoto>
0.279 

> <ROCS_ColorTanimoto>
0.145 

> <ROCS_RefTversky>
0.253 

> <ROCS_RefColorTversky>
0.168 

> <ROCS_RefTverskyCombo>
0.421 

> <ROCS_FitTversky>
1.598 

> <ROCS_FitColorTversky>
0.507 

> <ROCS_FitTverskyCombo>
2.105 

> <ROCS_ColorScore>
-5.149

> <ROCS_Overlap>
1753.085

> <ROCS_Rank>
223                 

$$$$
untitled-dbase-473_0
  -OEChem-11112309163D

 20 21  0     0  0  0  0  0  0999 V2000
   10.1320   13.0166   23.5383 C   0  0  0  0  0  0  0  0  0  0  0  0
    8.4404   11.2139   22.6762 C   0  0  0  0  0  0  0  0  0  0  0  0
    9.6260   10.5527   24.2645 C   0  0  0  0  0  0  0  0  0  0  0  0
    8.0156   12.3236   24.8292 C   0  0  0  0  0  0  0  0  0  0  0  0
    9.1418   11.9787   23.8454 C   0  0  0  0  0  0  0  0  0  0  0  0
    8.1106   10.2791   23.9075 C   0  0  0  0  0  0  0  0  0  0  0  0
    7.5923    8.8868   23.7149 C   0  0  0  0  0  0  0  0  0  0  0  0
   10.6483   13.5827   24.5414 O   0  5  0  0  0  0  0  0  0  0  0  0
   10.3363   13.2058   22.3064 O   0  0  0  0  0  0  0  0  0  0  0  0
    7.3102   11.0687   24.8338 O   0  0  0  0  0  0  0  0  0  0  0  0
    7.3929    8.2709   24.9843 O   0  0  0  0  0  0  0  0  0  0  0  0
    7.5833   11.7140   22.2155 H   0  0  0  0  0  0  0  0  0  0  0  0
    9.0817   10.7966   21.8919 H   0  0  0  0  0  0  0  0  0  0  0  0
   10.3806   10.0724   23.6316 H   0  0  0  0  0  0  0  0  0  0  0  0
    9.8986   10.4224   25.3160 H   0  0  0  0  0  0  0  0  0  0  0  0
    8.3798   12.5459   25.8363 H   0  0  0  0  0  0  0  0  0  0  0  0
    7.3558   13.1158   24.4640 H   0  0  0  0  0  0  0  0  0  0  0  0
    8.3030    8.2713   23.1444 H   0  0  0  0  0  0  0  0  0  0  0  0
    6.6308    8.8884   23.1811 H   0  0  0  0  0  0  0  0  0  0  0  0
    6.7467    8.8172   25.4582 H   0  0  0  0  0  0  0  0  0  0  0  0
  1  5  1  0  0  0  0
  1  8  1  0  0  0  0
  1  9  2  0  0  0  0
  2  5  1  0  0  0  0
  2  6  1  0  0  0  0
  3  5  1  0  0  0  0
  3  6  1  0  0  0  0
  4  5  1  0  0  0  0
  4 10  1  0  0  0  0
  6  7  1  0  0  0  0
  6 10  1  0  0  0  0
  7 11  1  0  0  0  0
  2 12  1  0  0  0  0
  2 13  1  0  0  0  0
  3 14  1  0  0  0  0
  3 15  1  0  0  0  0
  4 16  1  0  0  0  0
  4 17  1  0  0  0  0
  7 18  1  0  0  0  0
  7 19  1  0  0  0  0
 11 20  1  0  0  0  0
M  CHG  1   8  -1
M  END
> <Catalog ID>
Z4444401034

> <PlateID>
1337959-R-06

> <Well>
H05

> <MW (desalted)>
158.152

> <CLogP>
-3.463

> <HBD>
1

> <TPSA>
69.590

> <RotBonds>
2

> <ROCS_ShapeQuery>
A71EV2A-x0451_0A_A71EV2A-x0310_0A_A71EV2A-x0416_0A_peptide

> <ROCS_TanimotoCombo>
0.424 

> <ROCS_ShapeTanimoto>
0.220 

> <ROCS_ColorTanimoto>
0.204 

> <ROCS_RefTversky>
0.202 

> <ROCS_RefColorTversky>
0.245 

> <ROCS_RefTverskyCombo>
0.447 

> <ROCS_FitTversky>
1.683 

> <ROCS_FitColorTversky>
0.549 

> <ROCS_FitTverskyCombo>
2.232 

> <ROCS_ColorScore>
-7.540

> <ROCS_Overlap>
1397.222

> <ROCS_Rank>
224                 

$$$$
untitled-dbase-562_302
  -OEChem-11112309163D

 36 37  0     0  0  0  0  0  0999 V2000
   11.8888   15.7797   22.1623 C   0  0  0  0  0  0  0  0  0  0  0  0
    8.1641    9.5294   23.1948 C   0  0  0  0  0  0  0  0  0  0  0  0
    9.4151   10.1453   23.2313 C   0  0  0  0  0  0  0  0  0  0  0  0
    7.1187   10.0272   23.9726 C   0  0  0  0  0  0  0  0  0  0  0  0
    8.5753   11.7566   24.8236 C   0  0  0  0  0  0  0  0  0  0  0  0
    9.6207   11.2589   24.0457 C   0  0  0  0  0  0  0  0  0  0  0  0
    7.3243   11.1408   24.7870 C   0  0  0  0  0  0  0  0  0  0  0  0
   10.8349   13.3802   23.6332 C   0  0  0  0  0  0  0  0  0  0  0  0
   13.0613   11.4994   25.2957 C   0  0  0  0  0  0  0  0  0  0  0  0
   13.0512   10.6518   24.0367 C   0  0  0  0  0  0  0  0  0  0  0  0
   11.5921   11.8565   25.4975 C   0  0  0  0  0  0  0  0  0  0  0  0
   12.0809   11.4019   23.1318 C   0  0  0  0  0  0  0  0  0  0  0  0
   10.9816   11.9292   24.0836 C   0  0  0  0  0  0  0  0  0  0  0  0
    6.2065   11.6726   25.6192 C   0  0  0  0  0  0  0  0  0  0  0  0
   10.8852   14.8576   21.6339 C   0  0  0  0  0  0  0  0  0  0  0  0
   12.6846   16.5141   22.5792 N   0  0  0  0  0  0  0  0  0  0  0  0
   10.9867   13.5649   22.2722 N   0  0  0  0  0  0  0  0  0  0  0  0
   10.6016   14.2502   24.4641 O   0  0  0  0  0  0  0  0  0  0  0  0
    8.0040    8.6623   22.5605 H   0  0  0  0  0  0  0  0  0  0  0  0
   10.2236    9.7507   22.6213 H   0  0  0  0  0  0  0  0  0  0  0  0
    6.1475    9.5405   23.9385 H   0  0  0  0  0  0  0  0  0  0  0  0
    8.7348   12.6254   25.4579 H   0  0  0  0  0  0  0  0  0  0  0  0
   13.4801   10.9664   26.1535 H   0  0  0  0  0  0  0  0  0  0  0  0
   13.6544   12.4070   25.1371 H   0  0  0  0  0  0  0  0  0  0  0  0
   14.0365   10.5562   23.6013 H   0  0  0  0  0  0  0  0  0  0  0  0
   12.6603    9.6641   24.2574 H   0  0  0  0  0  0  0  0  0  0  0  0
   11.1050   11.0700   26.0987 H   0  0  0  0  0  0  0  0  0  0  0  0
   11.4865   12.7985   26.0587 H   0  0  0  0  0  0  0  0  0  0  0  0
   12.5897   12.2113   22.6134 H   0  0  0  0  0  0  0  0  0  0  0  0
   11.6847   10.7227   22.3795 H   0  0  0  0  0  0  0  0  0  0  0  0
    6.2022   11.1916   26.6049 H   0  0  0  0  0  0  0  0  0  0  0  0
    6.2971   12.7572   25.7616 H   0  0  0  0  0  0  0  0  0  0  0  0
    5.2345   11.4950   25.1409 H   0  0  0  0  0  0  0  0  0  0  0  0
    9.8732   15.2342   21.8084 H   0  0  0  0  0  0  0  0  0  0  0  0
   11.0162   14.7066   20.5586 H   0  0  0  0  0  0  0  0  0  0  0  0
   11.1788   12.7533   21.6926 H   0  0  0  0  0  0  0  0  0  0  0  0
  1 15  1  0  0  0  0
  1 16  3  0  0  0  0
  2  3  2  0  0  0  0
  2  4  1  0  0  0  0
  3  6  1  0  0  0  0
  4  7  2  0  0  0  0
  5  6  2  0  0  0  0
  5  7  1  0  0  0  0
  6 13  1  0  0  0  0
  7 14  1  0  0  0  0
  8 13  1  0  0  0  0
  8 17  1  0  0  0  0
  8 18  2  0  0  0  0
  9 10  1  0  0  0  0
  9 11  1  0  0  0  0
 10 12  1  0  0  0  0
 11 13  1  0  0  0  0
 12 13  1  0  0  0  0
 15 17  1  0  0  0  0
  2 19  1  0  0  0  0
  3 20  1  0  0  0  0
  4 21  1  0  0  0  0
  5 22  1  0  0  0  0
  9 23  1  0  0  0  0
  9 24  1  0  0  0  0
 10 25  1  0  0  0  0
 10 26  1  0  0  0  0
 11 27  1  0  0  0  0
 11 28  1  0  0  0  0
 12 29  1  0  0  0  0
 12 30  1  0  0  0  0
 14 31  1  0  0  0  0
 14 32  1  0  0  0  0
 14 33  1  0  0  0  0
 15 34  1  0  0  0  0
 15 35  1  0  0  0  0
 17 36  1  0  0  0  0
M  END
> <Catalog ID>
Z1030455614

> <PlateID>
1337959-R-08

> <Well>
A04

> <MW (desalted)>
242.316

> <CLogP>
2.244

> <HBD>
1

> <TPSA>
52.890

> <RotBonds>
3

> <ROCS_ShapeQuery>
A71EV2A-x0451_0A_A71EV2A-x0310_0A_A71EV2A-x0416_0A_peptide

> <ROCS_TanimotoCombo>
0.424 

> <ROCS_ShapeTanimoto>
0.283 

> <ROCS_ColorTanimoto>
0.141 

> <ROCS_RefTversky>
0.256 

> <ROCS_RefColorTversky>
0.149 

> <ROCS_RefTverskyCombo>
0.405 

> <ROCS_FitTversky>
1.597 

> <ROCS_FitColorTversky>
0.715 

> <ROCS_FitTverskyCombo>
2.312 

> <ROCS_ColorScore>
-4.530

> <ROCS_Overlap>
1775.389

> <ROCS_Rank>
225                 

$$$$
untitled-dbase-897_468
  -OEChem-11112309163D

 42 44  0     0  0  0  0  0  0999 V2000
   12.6789   14.2117   21.7738 C   0  0  0  0  0  0  0  0  0  0  0  0
   11.3252   14.0933   22.1330 C   0  0  0  0  0  0  0  0  0  0  0  0
   12.6500   14.9890   20.6464 C   0  0  0  0  0  0  0  0  0  0  0  0
   10.7576   13.3617   23.2766 C   0  0  0  0  0  0  0  0  0  0  0  0
   10.0990    9.9776   21.9447 C   0  0  0  0  0  0  0  0  0  0  0  0
    9.3994    9.8917   23.2938 C   0  0  0  0  0  0  0  0  0  0  0  0
    7.9181   11.9660   23.2485 C   0  0  0  0  0  0  0  0  0  0  0  0
    9.3244   11.4552   25.2780 C   0  0  0  0  0  0  0  0  0  0  0  0
   11.0783   11.1168   22.1475 C   0  0  0  0  0  0  0  0  0  0  0  0
    6.8246   11.9031   24.3173 C   0  0  0  0  0  0  0  0  0  0  0  0
    8.1307   10.7509   25.9308 C   0  0  0  0  0  0  0  0  0  0  0  0
    9.2609   11.3710   23.7433 C   0  0  0  0  0  0  0  0  0  0  0  0
   13.7477   17.0584   19.7158 C   0  0  0  0  0  0  0  0  0  0  0  0
   13.5524   14.9868   18.2927 C   0  0  0  0  0  0  0  0  0  0  0  0
   13.6848   15.5105   19.7450 C   0  0  0  0  0  0  0  0  0  0  0  0
   10.5183   14.7471   21.2926 N   0  0  0  0  0  0  0  0  0  0  0  0
   10.4128   12.0260   23.0805 N   0  0  0  0  0  0  0  0  0  0  0  0
   10.6270   13.9950   24.3219 O   0  0  0  0  0  0  0  0  0  0  0  0
   11.3661   15.3150   20.3491 O   0  0  0  0  0  0  0  0  0  0  0  0
    6.9625   10.7297   25.1087 O   0  0  0  0  0  0  0  0  0  0  0  0
   13.5487   13.7952   22.2605 H   0  0  0  0  0  0  0  0  0  0  0  0
   10.5974    9.0420   21.6763 H   0  0  0  0  0  0  0  0  0  0  0  0
    9.3804   10.2253   21.1555 H   0  0  0  0  0  0  0  0  0  0  0  0
    8.4496    9.3579   23.2097 H   0  0  0  0  0  0  0  0  0  0  0  0
   10.0372    9.3297   23.9874 H   0  0  0  0  0  0  0  0  0  0  0  0
    7.5715   11.4639   22.3374 H   0  0  0  0  0  0  0  0  0  0  0  0
    8.0650   13.0235   22.9954 H   0  0  0  0  0  0  0  0  0  0  0  0
    9.2919   12.5026   25.6014 H   0  0  0  0  0  0  0  0  0  0  0  0
   10.2603   11.0302   25.6629 H   0  0  0  0  0  0  0  0  0  0  0  0
   12.0006   10.7687   22.6255 H   0  0  0  0  0  0  0  0  0  0  0  0
   11.3291   11.6158   21.2072 H   0  0  0  0  0  0  0  0  0  0  0  0
    6.9171   12.7659   24.9824 H   0  0  0  0  0  0  0  0  0  0  0  0
    5.8228   11.9360   23.8805 H   0  0  0  0  0  0  0  0  0  0  0  0
    8.3850    9.7141   26.2305 H   0  0  0  0  0  0  0  0  0  0  0  0
    7.8638   11.2755   26.8676 H   0  0  0  0  0  0  0  0  0  0  0  0
   12.7908   17.4888   19.4010 H   0  0  0  0  0  0  0  0  0  0  0  0
   14.5196   17.4294   19.0327 H   0  0  0  0  0  0  0  0  0  0  0  0
   13.9732   17.4427   20.7169 H   0  0  0  0  0  0  0  0  0  0  0  0
   12.5736   15.2612   17.8838 H   0  0  0  0  0  0  0  0  0  0  0  0
   13.6462   13.8969   18.2348 H   0  0  0  0  0  0  0  0  0  0  0  0
   14.3197   15.4211   17.6425 H   0  0  0  0  0  0  0  0  0  0  0  0
   14.6998   15.1881   20.0747 H   0  0  0  0  0  0  0  0  0  0  0  0
  1  2  1  0  0  0  0
  1  3  2  0  0  0  0
  2  4  1  0  0  0  0
  2 16  2  0  0  0  0
  3 15  1  0  0  0  0
  3 19  1  0  0  0  0
  4 17  1  0  0  0  0
  4 18  2  0  0  0  0
  5  6  1  0  0  0  0
  5  9  1  0  0  0  0
  6 12  1  0  0  0  0
  7 10  1  0  0  0  0
  7 12  1  0  0  0  0
  8 11  1  0  0  0  0
  8 12  1  0  0  0  0
  9 17  1  0  0  0  0
 10 20  1  0  0  0  0
 11 20  1  0  0  0  0
 12 17  1  0  0  0  0
 13 15  1  0  0  0  0
 14 15  1  0  0  0  0
 16 19  1  0  0  0  0
  1 21  1  0  0  0  0
  5 22  1  0  0  0  0
  5 23  1  0  0  0  0
  6 24  1  0  0  0  0
  6 25  1  0  0  0  0
  7 26  1  0  0  0  0
  7 27  1  0  0  0  0
  8 28  1  0  0  0  0
  8 29  1  0  0  0  0
  9 30  1  0  0  0  0
  9 31  1  0  0  0  0
 10 32  1  0  0  0  0
 10 33  1  0  0  0  0
 11 34  1  0  0  0  0
 11 35  1  0  0  0  0
 13 36  1  0  0  0  0
 13 37  1  0  0  0  0
 13 38  1  0  0  0  0
 14 39  1  0  0  0  0
 14 40  1  0  0  0  0
 14 41  1  0  0  0  0
 15 42  1  0  0  0  0
M  END
> <Catalog ID>
Z1556902364

> <PlateID>
1337959-R-12

> <Well>
B11

> <MW (desalted)>
278.347

> <CLogP>
0.527

> <HBD>
0

> <TPSA>
55.570

> <RotBonds>
2

> <ROCS_ShapeQuery>
A71EV2A-x0451_0A_A71EV2A-x0310_0A_A71EV2A-x0416_0A_peptide

> <ROCS_TanimotoCombo>
0.424 

> <ROCS_ShapeTanimoto>
0.302 

> <ROCS_ColorTanimoto>
0.122 

> <ROCS_RefTversky>
0.273 

> <ROCS_RefColorTversky>
0.138 

> <ROCS_RefTverskyCombo>
0.410 

> <ROCS_FitTversky>
1.559 

> <ROCS_FitColorTversky>
0.509 

> <ROCS_FitTverskyCombo>
2.069 

> <ROCS_ColorScore>
-4.195

> <ROCS_Overlap>
1892.886

> <ROCS_Rank>
226                 

$$$$
untitled-dbase-305_16
  -OEChem-11112309163D

 35 36  0     0  0  0  0  0  0999 V2000
    8.1724   12.2947   24.2882 C   0  0  0  0  0  0  0  0  0  0  0  0
    7.3642   11.1972   24.5846 C   0  0  0  0  0  0  0  0  0  0  0  0
    9.8619   10.8116   23.4034 C   0  0  0  0  0  0  0  0  0  0  0  0
    9.4212   12.1019   23.6975 C   0  0  0  0  0  0  0  0  0  0  0  0
    9.0538    9.7140   23.6999 C   0  0  0  0  0  0  0  0  0  0  0  0
    7.8049    9.9069   24.2905 C   0  0  0  0  0  0  0  0  0  0  0  0
   10.2720   13.2582   23.3854 C   0  0  0  0  0  0  0  0  0  0  0  0
    9.8401   13.0967   20.8782 C   0  0  0  0  0  0  0  0  0  0  0  0
   11.9477   14.0334   21.7409 C   0  0  0  0  0  0  0  0  0  0  0  0
    9.7994   14.2522   19.8852 C   0  0  0  0  0  0  0  0  0  0  0  0
   11.8111   15.1535   20.7201 C   0  0  0  0  0  0  0  0  0  0  0  0
    9.5505    8.3430   23.3743 C   0  0  0  0  0  0  0  0  0  0  0  0
    5.5466    8.8926   24.6018 C   0  0  0  0  0  0  0  0  0  0  0  0
   10.6372   13.4660   22.0543 N   0  0  0  0  0  0  0  0  0  0  0  0
    6.9732    8.8077   24.5978 N   0  0  0  0  0  0  0  0  0  0  0  0
   10.6064   13.9616   24.3376 O   0  0  0  0  0  0  0  0  0  0  0  0
   11.1241   14.6796   19.5586 O   0  0  0  0  0  0  0  0  0  0  0  0
    7.8191   13.2958   24.5216 H   0  0  0  0  0  0  0  0  0  0  0  0
    6.3928   11.3597   25.0449 H   0  0  0  0  0  0  0  0  0  0  0  0
   10.8357   10.6604   22.9428 H   0  0  0  0  0  0  0  0  0  0  0  0
    8.8248   12.7985   21.1500 H   0  0  0  0  0  0  0  0  0  0  0  0
   10.3396   12.2311   20.4273 H   0  0  0  0  0  0  0  0  0  0  0  0
   12.5491   13.2149   21.3279 H   0  0  0  0  0  0  0  0  0  0  0  0
   12.4440   14.3959   22.6463 H   0  0  0  0  0  0  0  0  0  0  0  0
    9.3185   13.9276   18.9570 H   0  0  0  0  0  0  0  0  0  0  0  0
    9.2249   15.0993   20.2783 H   0  0  0  0  0  0  0  0  0  0  0  0
   11.2808   16.0179   21.1371 H   0  0  0  0  0  0  0  0  0  0  0  0
   12.8028   15.4922   20.4040 H   0  0  0  0  0  0  0  0  0  0  0  0
   10.1070    7.9298   24.2231 H   0  0  0  0  0  0  0  0  0  0  0  0
    8.7199    7.6670   23.1376 H   0  0  0  0  0  0  0  0  0  0  0  0
   10.2096    8.3589   22.4977 H   0  0  0  0  0  0  0  0  0  0  0  0
    5.2388    9.9144   24.3348 H   0  0  0  0  0  0  0  0  0  0  0  0
    5.1350    8.1826   23.8694 H   0  0  0  0  0  0  0  0  0  0  0  0
    5.1676    8.6459   25.6046 H   0  0  0  0  0  0  0  0  0  0  0  0
    7.4288    7.9436   24.8199 H   0  0  0  0  0  0  0  0  0  0  0  0
  1  2  1  0  0  0  0
  1  4  2  0  0  0  0
  2  6  2  0  0  0  0
  3  4  1  0  0  0  0
  3  5  2  0  0  0  0
  4  7  1  0  0  0  0
  5  6  1  0  0  0  0
  5 12  1  0  0  0  0
  6 15  1  0  0  0  0
  7 14  1  0  0  0  0
  7 16  2  0  0  0  0
  8 10  1  0  0  0  0
  8 14  1  0  0  0  0
  9 11  1  0  0  0  0
  9 14  1  0  0  0  0
 10 17  1  0  0  0  0
 11 17  1  0  0  0  0
 13 15  1  0  0  0  0
  1 18  1  0  0  0  0
  2 19  1  0  0  0  0
  3 20  1  0  0  0  0
  8 21  1  0  0  0  0
  8 22  1  0  0  0  0
  9 23  1  0  0  0  0
  9 24  1  0  0  0  0
 10 25  1  0  0  0  0
 10 26  1  0  0  0  0
 11 27  1  0  0  0  0
 11 28  1  0  0  0  0
 12 29  1  0  0  0  0
 12 30  1  0  0  0  0
 12 31  1  0  0  0  0
 13 32  1  0  0  0  0
 13 33  1  0  0  0  0
 13 34  1  0  0  0  0
 15 35  1  0  0  0  0
M  END
> <Catalog ID>
Z1098326229

> <PlateID>
1337959-R-04

> <Well>
G07

> <MW (desalted)>
234.294

> <CLogP>
1.321

> <HBD>
1

> <TPSA>
41.570

> <RotBonds>
2

> <ROCS_ShapeQuery>
A71EV2A-x0451_0A_A71EV2A-x0310_0A_A71EV2A-x0416_0A_peptide

> <ROCS_TanimotoCombo>
0.424 

> <ROCS_ShapeTanimoto>
0.288 

> <ROCS_ColorTanimoto>
0.135 

> <ROCS_RefTversky>
0.259 

> <ROCS_RefColorTversky>
0.144 

> <ROCS_RefTverskyCombo>
0.403 

> <ROCS_FitTversky>
1.668 

> <ROCS_FitColorTversky>
0.691 

> <ROCS_FitTverskyCombo>
2.359 

> <ROCS_ColorScore>
-4.377

> <ROCS_Overlap>
1792.566

> <ROCS_Rank>
227                 

$$$$
untitled-dbase-468_11
  -OEChem-11112309163D

 32 34  0     1  0  0  0  0  0999 V2000
    6.8542   11.9061   25.9696 C   0  0  0  0  0  0  0  0  0  0  0  0
    7.9076   12.6771   25.1782 C   0  0  0  0  0  0  0  0  0  0  0  0
    7.3154   10.4611   25.8484 C   0  0  0  0  0  0  0  0  0  0  0  0
   10.7724   11.6323   24.7388 C   0  0  0  0  0  0  0  0  0  0  0  0
   10.1729   12.4456   22.4529 C   0  0  0  0  0  0  0  0  0  0  0  0
    9.6409   10.0528   23.1120 C   0  0  0  0  0  0  0  0  0  0  0  0
   11.4596   13.0001   24.7846 C   0  0  0  0  0  0  0  0  0  0  0  0
   10.2990   13.8962   22.9176 C   0  0  0  0  0  0  0  0  0  0  0  0
    8.2591   11.7565   24.0044 C   0  0  2  0  0  0  0  0  0  0  0  0
    7.7250   10.3623   24.3858 C   0  0  1  0  0  0  0  0  0  0  0  0
    9.7350   11.5144   23.5912 C   0  0  0  0  0  0  0  0  0  0  0  0
    8.8062    9.4153   24.1334 N   0  0  0  0  0  0  0  0  0  0  0  0
   10.5989   14.0248   24.3068 O   0  0  0  0  0  0  0  0  0  0  0  0
    6.7941   12.2380   27.0123 H   0  0  0  0  0  0  0  0  0  0  0  0
    5.8635   12.0339   25.5126 H   0  0  0  0  0  0  0  0  0  0  0  0
    7.5307   13.6515   24.8374 H   0  0  0  0  0  0  0  0  0  0  0  0
    8.7736   12.8691   25.8291 H   0  0  0  0  0  0  0  0  0  0  0  0
    8.1608   10.2915   26.5185 H   0  0  0  0  0  0  0  0  0  0  0  0
    6.5297    9.7541   26.1085 H   0  0  0  0  0  0  0  0  0  0  0  0
   11.5429   10.8541   24.6626 H   0  0  0  0  0  0  0  0  0  0  0  0
   10.2494   11.4728   25.6936 H   0  0  0  0  0  0  0  0  0  0  0  0
    9.4101   12.4199   21.6627 H   0  0  0  0  0  0  0  0  0  0  0  0
   11.1154   12.1330   21.9900 H   0  0  0  0  0  0  0  0  0  0  0  0
    9.1985    9.9448   22.1274 H   0  0  0  0  0  0  0  0  0  0  0  0
   10.6194    9.5759   23.1018 H   0  0  0  0  0  0  0  0  0  0  0  0
   11.7214   13.2417   25.8213 H   0  0  0  0  0  0  0  0  0  0  0  0
   12.3927   12.9999   24.2069 H   0  0  0  0  0  0  0  0  0  0  0  0
   11.0572   14.4486   22.3300 H   0  0  0  0  0  0  0  0  0  0  0  0
    9.3433   14.4221   22.7396 H   0  0  0  0  0  0  0  0  0  0  0  0
    7.6757   12.1185   23.1061 H   0  0  0  0  0  0  0  0  0  0  0  0
    6.8557   10.1149   23.7609 H   0  0  0  0  0  0  0  0  0  0  0  0
    8.4080    8.5663   23.7367 H   0  0  0  0  0  0  0  0  0  0  0  0
  1  2  1  0  0  0  0
  1  3  1  0  0  0  0
  2  9  1  6  0  0  0
  3 10  1  0  0  0  0
  4  7  1  0  0  0  0
  4 11  1  0  0  0  0
  5  8  1  0  0  0  0
  5 11  1  0  0  0  0
  6 11  1  0  0  0  0
  6 12  1  0  0  0  0
  7 13  1  0  0  0  0
  8 13  1  0  0  0  0
  9 10  1  0  0  0  0
  9 11  1  0  0  0  0
 10 12  1  6  0  0  0
  1 14  1  0  0  0  0
  1 15  1  0  0  0  0
  2 16  1  0  0  0  0
  2 17  1  0  0  0  0
  3 18  1  0  0  0  0
  3 19  1  0  0  0  0
  4 20  1  0  0  0  0
  4 21  1  0  0  0  0
  5 22  1  0  0  0  0
  5 23  1  0  0  0  0
  6 24  1  0  0  0  0
  6 25  1  0  0  0  0
  7 26  1  0  0  0  0
  7 27  1  0  0  0  0
  8 28  1  0  0  0  0
  8 29  1  0  0  0  0
  9 30  1  0  0  0  0
 10 31  1  0  0  0  0
 12 32  1  0  0  0  0
M  END
> <Catalog ID>
Z2235790958

> <PlateID>
1337959-R-06

> <Well>
G10

> <MW (desalted)>
181.275

> <CLogP>
0.841

> <HBD>
1

> <TPSA>
21.260

> <RotBonds>
0

> <ROCS_ShapeQuery>
A71EV2A-x0451_0A_A71EV2A-x0310_0A_A71EV2A-x0416_0A_peptide

> <ROCS_TanimotoCombo>
0.423 

> <ROCS_ShapeTanimoto>
0.261 

> <ROCS_ColorTanimoto>
0.163 

> <ROCS_RefTversky>
0.234 

> <ROCS_RefColorTversky>
0.174 

> <ROCS_RefTverskyCombo>
0.408 

> <ROCS_FitTversky>
1.784 

> <ROCS_FitColorTversky>
0.719 

> <ROCS_FitTverskyCombo>
2.503 

> <ROCS_ColorScore>
-5.289

> <ROCS_Overlap>
1619.802

> <ROCS_Rank>
228                 

$$$$
untitled-dbase-1030_965
  -OEChem-11112309163D

 42 43  0     1  0  0  0  0  0999 V2000
   11.3748   14.8503   22.1985 C   0  0  0  0  0  0  0  0  0  0  0  0
   13.8493   15.7762   19.8663 C   0  0  0  0  0  0  0  0  0  0  0  0
    7.4676   11.3914   24.1388 C   0  0  0  0  0  0  0  0  0  0  0  0
   12.9978   14.5236   20.1447 C   0  0  0  0  0  0  0  0  0  0  0  0
   13.0353   16.4864   20.9640 C   0  0  0  0  0  0  0  0  0  0  0  0
    8.1238   10.0128   24.1873 C   0  0  0  0  0  0  0  0  0  0  0  0
    8.4282   12.4780   24.6076 C   0  0  0  0  0  0  0  0  0  0  0  0
   10.3762   11.1014   23.7473 C   0  0  0  0  0  0  0  0  0  0  0  0
   12.7499   15.0865   21.5688 C   0  0  0  0  0  0  0  0  0  0  0  0
    9.4373    9.9257   23.3798 C   0  0  0  0  0  0  0  0  0  0  0  0
    9.7409   12.5044   23.8152 C   0  0  1  0  0  0  0  0  0  0  0  0
   10.1521    8.6049   23.7425 C   0  0  0  0  0  0  0  0  0  0  0  0
    9.1422    9.8746   21.8697 C   0  0  0  0  0  0  0  0  0  0  0  0
    9.5625   13.1660   22.4461 C   0  0  0  0  0  0  0  0  0  0  0  0
   10.8273   13.5914   21.9534 N   0  0  0  0  0  0  0  0  0  0  0  0
   10.8510   15.7409   22.8574 O   0  0  0  0  0  0  0  0  0  0  0  0
   10.6476   13.3480   24.5456 O   0  0  0  0  0  0  0  0  0  0  0  0
   14.9097   15.6525   20.1141 H   0  0  0  0  0  0  0  0  0  0  0  0
   13.7634   16.1971   18.8616 H   0  0  0  0  0  0  0  0  0  0  0  0
    7.1540   11.6047   23.1108 H   0  0  0  0  0  0  0  0  0  0  0  0
    6.5584   11.4018   24.7488 H   0  0  0  0  0  0  0  0  0  0  0  0
   12.0922   14.4637   19.5315 H   0  0  0  0  0  0  0  0  0  0  0  0
   13.5332   13.5735   20.0848 H   0  0  0  0  0  0  0  0  0  0  0  0
   13.6021   17.1790   21.5899 H   0  0  0  0  0  0  0  0  0  0  0  0
   12.1405   16.9938   20.5876 H   0  0  0  0  0  0  0  0  0  0  0  0
    8.3027    9.7353   25.2345 H   0  0  0  0  0  0  0  0  0  0  0  0
    7.4052    9.2790   23.7958 H   0  0  0  0  0  0  0  0  0  0  0  0
    7.9247   13.4536   24.5279 H   0  0  0  0  0  0  0  0  0  0  0  0
    8.6372   12.3150   25.6756 H   0  0  0  0  0  0  0  0  0  0  0  0
   10.8675   10.8755   24.7125 H   0  0  0  0  0  0  0  0  0  0  0  0
   11.1941   11.1362   23.0025 H   0  0  0  0  0  0  0  0  0  0  0  0
   13.5550   14.7826   22.2601 H   0  0  0  0  0  0  0  0  0  0  0  0
   11.0762    8.5347   23.1799 H   0  0  0  0  0  0  0  0  0  0  0  0
    9.5059    7.7709   23.4927 H   0  0  0  0  0  0  0  0  0  0  0  0
   10.3674    8.5975   24.8051 H   0  0  0  0  0  0  0  0  0  0  0  0
   10.0789    9.8139   21.3287 H   0  0  0  0  0  0  0  0  0  0  0  0
    8.6084   10.7730   21.5837 H   0  0  0  0  0  0  0  0  0  0  0  0
    8.5363    9.0018   21.6577 H   0  0  0  0  0  0  0  0  0  0  0  0
    9.1217   12.4210   21.7883 H   0  0  0  0  0  0  0  0  0  0  0  0
    8.8970   14.0140   22.5874 H   0  0  0  0  0  0  0  0  0  0  0  0
   11.3694   12.9323   21.3834 H   0  0  0  0  0  0  0  0  0  0  0  0
   10.2303   14.2212   24.5930 H   0  0  0  0  0  0  0  0  0  0  0  0
  1  9  1  0  0  0  0
  1 15  1  0  0  0  0
  1 16  2  0  0  0  0
  2  4  1  0  0  0  0
  2  5  1  0  0  0  0
  3  6  1  0  0  0  0
  3  7  1  0  0  0  0
  4  9  1  0  0  0  0
  5  9  1  0  0  0  0
  6 10  1  0  0  0  0
  7 11  1  0  0  0  0
  8 10  1  0  0  0  0
  8 11  1  0  0  0  0
 10 12  1  0  0  0  0
 10 13  1  0  0  0  0
 11 14  1  0  0  0  0
 11 17  1  0  0  0  0
 14 15  1  0  0  0  0
  2 18  1  0  0  0  0
  2 19  1  0  0  0  0
  3 20  1  0  0  0  0
  3 21  1  0  0  0  0
  4 22  1  0  0  0  0
  4 23  1  0  0  0  0
  5 24  1  0  0  0  0
  5 25  1  0  0  0  0
  6 26  1  0  0  0  0
  6 27  1  0  0  0  0
  7 28  1  0  0  0  0
  7 29  1  0  0  0  0
  8 30  1  0  0  0  0
  8 31  1  0  0  0  0
  9 32  1  0  0  0  0
 12 33  1  0  0  0  0
 12 34  1  0  0  0  0
 12 35  1  0  0  0  0
 13 36  1  0  0  0  0
 13 37  1  0  0  0  0
 13 38  1  0  0  0  0
 14 39  1  0  0  0  0
 14 40  1  0  0  0  0
 15 41  1  0  0  0  0
 17 42  1  0  0  0  0
M  END
> <Catalog ID>
Z1784523261

> <PlateID>
1337959-R-13

> <Well>
H05

> <MW (desalted)>
239.354

> <CLogP>
2.567

> <HBD>
2

> <TPSA>
49.330

> <RotBonds>
3

> <ROCS_ShapeQuery>
A71EV2A-x0451_0A_A71EV2A-x0310_0A_A71EV2A-x0416_0A_peptide

> <ROCS_TanimotoCombo>
0.423 

> <ROCS_ShapeTanimoto>
0.280 

> <ROCS_ColorTanimoto>
0.143 

> <ROCS_RefTversky>
0.252 

> <ROCS_RefColorTversky>
0.159 

> <ROCS_RefTverskyCombo>
0.411 

> <ROCS_FitTversky>
1.671 

> <ROCS_FitColorTversky>
0.588 

> <ROCS_FitTverskyCombo>
2.259 

> <ROCS_ColorScore>
-4.846

> <ROCS_Overlap>
1746.792

> <ROCS_Rank>
229                 

$$$$
untitled-dbase-610_5
  -OEChem-11112309163D

 29 30  0     0  0  0  0  0  0999 V2000
    8.1675    9.6035   23.5218 C   0  0  0  0  0  0  0  0  0  0  0  0
    9.4016   10.2516   23.4728 C   0  0  0  0  0  0  0  0  0  0  0  0
    7.1051   10.1781   24.2197 C   0  0  0  0  0  0  0  0  0  0  0  0
    8.5113   12.0488   24.8198 C   0  0  0  0  0  0  0  0  0  0  0  0
    9.5736   11.4742   24.1218 C   0  0  0  0  0  0  0  0  0  0  0  0
    7.2771   11.4007   24.8687 C   0  0  0  0  0  0  0  0  0  0  0  0
   10.8901   13.5115   23.4629 C   0  0  0  0  0  0  0  0  0  0  0  0
   12.1329   11.3115   23.8644 C   0  0  0  0  0  0  0  0  0  0  0  0
   11.8699   11.9148   25.2060 C   0  0  0  0  0  0  0  0  0  0  0  0
   10.8923   12.1663   24.0690 C   0  0  0  0  0  0  0  0  0  0  0  0
   11.1481   14.7227   21.3068 C   0  0  0  0  0  0  0  0  0  0  0  0
    6.1410   12.0145   25.6149 C   0  0  0  0  0  0  0  0  0  0  0  0
   11.1117   13.5143   22.0990 N   0  0  0  0  0  0  0  0  0  0  0  0
   10.6999   14.4931   24.1714 O   0  0  0  0  0  0  0  0  0  0  0  0
    4.9960   11.2706   25.5779 F   0  0  0  0  0  0  0  0  0  0  0  0
    6.3986   12.2055   26.9427 F   0  0  0  0  0  0  0  0  0  0  0  0
    5.7956   13.2423   25.1288 F   0  0  0  0  0  0  0  0  0  0  0  0
    8.0334    8.6514   23.0164 H   0  0  0  0  0  0  0  0  0  0  0  0
   10.2232    9.7957   22.9262 H   0  0  0  0  0  0  0  0  0  0  0  0
    6.1474    9.6659   24.2523 H   0  0  0  0  0  0  0  0  0  0  0  0
    8.6443   13.0021   25.3262 H   0  0  0  0  0  0  0  0  0  0  0  0
   12.9506   11.7194   23.2811 H   0  0  0  0  0  0  0  0  0  0  0  0
   12.0175   10.2383   23.7641 H   0  0  0  0  0  0  0  0  0  0  0  0
   11.5780   11.2474   26.0088 H   0  0  0  0  0  0  0  0  0  0  0  0
   12.5104   12.7289   25.5257 H   0  0  0  0  0  0  0  0  0  0  0  0
   10.1368   14.9517   20.9396 H   0  0  0  0  0  0  0  0  0  0  0  0
   11.5107   15.5563   21.9262 H   0  0  0  0  0  0  0  0  0  0  0  0
   11.8250   14.5800   20.4515 H   0  0  0  0  0  0  0  0  0  0  0  0
   11.2557   12.6247   21.6307 H   0  0  0  0  0  0  0  0  0  0  0  0
  1  2  1  0  0  0  0
  1  3  2  0  0  0  0
  2  5  2  0  0  0  0
  3  6  1  0  0  0  0
  4  5  1  0  0  0  0
  4  6  2  0  0  0  0
  5 10  1  0  0  0  0
  6 12  1  0  0  0  0
  7 10  1  0  0  0  0
  7 13  1  0  0  0  0
  7 14  2  0  0  0  0
  8  9  1  0  0  0  0
  8 10  1  0  0  0  0
  9 10  1  0  0  0  0
 11 13  1  0  0  0  0
 12 15  1  0  0  0  0
 12 16  1  0  0  0  0
 12 17  1  0  0  0  0
  1 18  1  0  0  0  0
  2 19  1  0  0  0  0
  3 20  1  0  0  0  0
  4 21  1  0  0  0  0
  8 22  1  0  0  0  0
  8 23  1  0  0  0  0
  9 24  1  0  0  0  0
  9 25  1  0  0  0  0
 11 26  1  0  0  0  0
 11 27  1  0  0  0  0
 11 28  1  0  0  0  0
 13 29  1  0  0  0  0
M  END
> <Catalog ID>
Z1068186302

> <PlateID>
1337959-R-08

> <Well>
F03

> <MW (desalted)>
243.225

> <CLogP>
1.917

> <HBD>
1

> <TPSA>
29.100

> <RotBonds>
3

> <ROCS_ShapeQuery>
A71EV2A-x0451_0A_A71EV2A-x0310_0A_A71EV2A-x0416_0A_peptide

> <ROCS_TanimotoCombo>
0.423 

> <ROCS_ShapeTanimoto>
0.291 

> <ROCS_ColorTanimoto>
0.133 

> <ROCS_RefTversky>
0.260 

> <ROCS_RefColorTversky>
0.134 

> <ROCS_RefTverskyCombo>
0.395 

> <ROCS_FitTversky>
1.665 

> <ROCS_FitColorTversky>
0.916 

> <ROCS_FitTverskyCombo>
2.581 

> <ROCS_ColorScore>
-4.064

> <ROCS_Overlap>
1805.283

> <ROCS_Rank>
230                 

$$$$
untitled-dbase-971_133
  -OEChem-11112309163D

 32 33  0     1  0  0  0  0  0999 V2000
    7.5560   12.6091   24.2575 C   0  0  0  0  0  0  0  0  0  0  0  0
    6.8830   12.7419   25.4720 C   0  0  0  0  0  0  0  0  0  0  0  0
    7.0759   10.3618   25.8392 C   0  0  0  0  0  0  0  0  0  0  0  0
    7.9888   11.3525   23.8337 C   0  0  0  0  0  0  0  0  0  0  0  0
    7.7488   10.2289   24.6246 C   0  0  0  0  0  0  0  0  0  0  0  0
    6.6430   11.6183   26.2629 C   0  0  0  0  0  0  0  0  0  0  0  0
   10.8145   13.3212   23.4203 C   0  0  0  0  0  0  0  0  0  0  0  0
   10.6917   11.8572   23.7867 C   0  0  0  0  0  0  0  0  0  0  0  0
   10.9165   12.6675   21.0081 C   0  0  0  0  0  0  0  0  0  0  0  0
   10.9152   11.2216   21.4767 C   0  0  0  0  0  0  0  0  0  0  0  0
    9.4716    8.5895   24.6307 C   0  0  0  0  0  0  0  0  0  0  0  0
    8.7109   11.2281   22.5233 C   0  0  0  0  0  0  0  0  0  0  0  0
   11.0400   13.6168   22.0951 N   0  0  0  0  0  0  0  0  0  0  0  0
   10.1467   11.0347   22.7066 N   0  0  2  0  0  0  0  0  0  0  0  0
   10.7975   14.1894   24.2952 O   0  0  0  0  0  0  0  0  0  0  0  0
    8.1656    8.9946   24.2257 O   0  0  0  0  0  0  0  0  0  0  0  0
    5.8143   11.7838   27.7618 Cl  0  0  0  0  0  0  0  0  0  0  0  0
    7.7372   13.4904   23.6479 H   0  0  0  0  0  0  0  0  0  0  0  0
    6.5499   13.7267   25.7893 H   0  0  0  0  0  0  0  0  0  0  0  0
    6.8921    9.4813   26.4506 H   0  0  0  0  0  0  0  0  0  0  0  0
   11.7055   11.5027   24.0446 H   0  0  0  0  0  0  0  0  0  0  0  0
   10.0766   11.7909   24.7031 H   0  0  0  0  0  0  0  0  0  0  0  0
   11.7638   12.8522   20.3378 H   0  0  0  0  0  0  0  0  0  0  0  0
    9.9986   12.9015   20.4598 H   0  0  0  0  0  0  0  0  0  0  0  0
   10.5341   10.5597   20.6646 H   0  0  0  0  0  0  0  0  0  0  0  0
   11.9727   10.9114   21.6303 H   0  0  0  0  0  0  0  0  0  0  0  0
    9.6786    7.5876   24.2467 H   0  0  0  0  0  0  0  0  0  0  0  0
    9.5333    8.5931   25.7219 H   0  0  0  0  0  0  0  0  0  0  0  0
   10.2035    9.2915   24.2241 H   0  0  0  0  0  0  0  0  0  0  0  0
    8.3265   10.3775   21.9499 H   0  0  0  0  0  0  0  0  0  0  0  0
    8.5694   12.1242   21.9100 H   0  0  0  0  0  0  0  0  0  0  0  0
   11.3127   14.5691   21.8625 H   0  0  0  0  0  0  0  0  0  0  0  0
  1  2  1  0  0  0  0
  1  4  2  0  0  0  0
  2  6  2  0  0  0  0
  3  5  2  0  0  0  0
  3  6  1  0  0  0  0
  4  5  1  0  0  0  0
  4 12  1  0  0  0  0
  5 16  1  0  0  0  0
  6 17  1  0  0  0  0
  7  8  1  0  0  0  0
  7 13  1  0  0  0  0
  7 15  2  0  0  0  0
  8 14  1  0  0  0  0
  9 10  1  0  0  0  0
  9 13  1  0  0  0  0
 10 14  1  0  0  0  0
 11 16  1  0  0  0  0
 12 14  1  0  0  0  0
  1 18  1  0  0  0  0
  2 19  1  0  0  0  0
  3 20  1  0  0  0  0
  8 21  1  0  0  0  0
  8 22  1  0  0  0  0
  9 23  1  0  0  0  0
  9 24  1  0  0  0  0
 10 25  1  0  0  0  0
 10 26  1  0  0  0  0
 11 27  1  0  0  0  0
 11 28  1  0  0  0  0
 11 29  1  0  0  0  0
 12 30  1  0  0  0  0
 12 31  1  0  0  0  0
 13 32  1  0  0  0  0
M  END
> <Catalog ID>
Z1961194937

> <PlateID>
1337959-R-13

> <Well>
B06

> <MW (desalted)>
254.713

> <CLogP>
2.307

> <HBD>
1

> <TPSA>
41.570

> <RotBonds>
3

> <ROCS_ShapeQuery>
A71EV2A-x0451_0A_A71EV2A-x0310_0A_A71EV2A-x0416_0A_peptide

> <ROCS_TanimotoCombo>
0.423 

> <ROCS_ShapeTanimoto>
0.290 

> <ROCS_ColorTanimoto>
0.133 

> <ROCS_RefTversky>
0.259 

> <ROCS_RefColorTversky>
0.146 

> <ROCS_RefTverskyCombo>
0.405 

> <ROCS_FitTversky>
1.682 

> <ROCS_FitColorTversky>
0.609 

> <ROCS_FitTverskyCombo>
2.291 

> <ROCS_ColorScore>
-4.439

> <ROCS_Overlap>
1796.764

> <ROCS_Rank>
231                 

$$$$
untitled-dbase-161_18
  -OEChem-11112309163D

 37 39  0     1  0  0  0  0  0999 V2000
    6.0554   11.4596   26.0447 C   0  0  0  0  0  0  0  0  0  0  0  0
    6.7887   12.6098   26.3207 C   0  0  0  0  0  0  0  0  0  0  0  0
    6.5344   10.5314   25.1187 C   0  0  0  0  0  0  0  0  0  0  0  0
    7.9939   12.8387   25.6607 C   0  0  0  0  0  0  0  0  0  0  0  0
    7.7596   10.7357   24.4634 C   0  0  0  0  0  0  0  0  0  0  0  0
    8.4697   11.9156   24.7239 C   0  0  0  0  0  0  0  0  0  0  0  0
    9.3045   12.0437   21.6964 C   0  0  0  0  0  0  0  0  0  0  0  0
   11.5465   11.7097   22.7781 C   0  0  0  0  0  0  0  0  0  0  0  0
    9.7585    9.9914   23.1792 C   0  0  0  0  0  0  0  0  0  0  0  0
   10.0931   13.1383   20.9568 C   0  0  0  0  0  0  0  0  0  0  0  0
   11.9001   13.1930   22.5695 C   0  0  0  0  0  0  0  0  0  0  0  0
    8.2776    9.7376   23.4589 C   0  0  1  0  0  0  0  0  0  0  0  0
   10.0320   11.4870   22.9495 C   0  0  0  0  0  0  0  0  0  0  0  0
   11.3873   15.1581   21.2630 C   0  0  0  0  0  0  0  0  0  0  0  0
   10.8427   13.9628   21.8993 N   0  0  0  0  0  0  0  0  0  0  0  0
    8.0984    8.3678   23.8839 N   0  0  0  0  0  0  0  0  0  0  0  0
    9.6497   12.2507   24.1137 O   0  0  0  0  0  0  0  0  0  0  0  0
    5.1097   11.2839   26.5491 H   0  0  0  0  0  0  0  0  0  0  0  0
    6.4183   13.3313   27.0428 H   0  0  0  0  0  0  0  0  0  0  0  0
    5.9388    9.6447   24.9160 H   0  0  0  0  0  0  0  0  0  0  0  0
    8.5545   13.7456   25.8722 H   0  0  0  0  0  0  0  0  0  0  0  0
    8.3276   12.4732   21.9693 H   0  0  0  0  0  0  0  0  0  0  0  0
    9.0943   11.2170   20.9963 H   0  0  0  0  0  0  0  0  0  0  0  0
   11.9204   11.1321   21.9228 H   0  0  0  0  0  0  0  0  0  0  0  0
   12.0826   11.3584   23.6685 H   0  0  0  0  0  0  0  0  0  0  0  0
   10.3508    9.6618   24.0444 H   0  0  0  0  0  0  0  0  0  0  0  0
   10.0886    9.3975   22.3188 H   0  0  0  0  0  0  0  0  0  0  0  0
   10.7817   12.6418   20.2640 H   0  0  0  0  0  0  0  0  0  0  0  0
    9.4062   13.7444   20.3541 H   0  0  0  0  0  0  0  0  0  0  0  0
   12.1609   13.6524   23.5444 H   0  0  0  0  0  0  0  0  0  0  0  0
   12.8259   13.2344   21.9640 H   0  0  0  0  0  0  0  0  0  0  0  0
    7.7058    9.8849   22.5334 H   0  0  0  0  0  0  0  0  0  0  0  0
   11.9429   15.7490   22.0062 H   0  0  0  0  0  0  0  0  0  0  0  0
   12.0651   14.8632   20.4483 H   0  0  0  0  0  0  0  0  0  0  0  0
   10.5645   15.7632   20.8546 H   0  0  0  0  0  0  0  0  0  0  0  0
    8.9904    7.9379   23.9082 H   0  0  0  0  0  0  0  0  0  0  0  0
    7.6853    8.3810   24.7839 H   0  0  0  0  0  0  0  0  0  0  0  0
  1  2  2  0  0  0  0
  1  3  1  0  0  0  0
  2  4  1  0  0  0  0
  3  5  2  0  0  0  0
  4  6  2  0  0  0  0
  5  6  1  0  0  0  0
  5 12  1  0  0  0  0
  6 17  1  0  0  0  0
  7 10  1  0  0  0  0
  7 13  1  0  0  0  0
  8 11  1  0  0  0  0
  8 13  1  0  0  0  0
  9 12  1  0  0  0  0
  9 13  1  0  0  0  0
 10 15  1  0  0  0  0
 11 15  1  0  0  0  0
 12 16  1  0  0  0  0
 13 17  1  0  0  0  0
 14 15  1  0  0  0  0
  1 18  1  0  0  0  0
  2 19  1  0  0  0  0
  3 20  1  0  0  0  0
  4 21  1  0  0  0  0
  7 22  1  0  0  0  0
  7 23  1  0  0  0  0
  8 24  1  0  0  0  0
  8 25  1  0  0  0  0
  9 26  1  0  0  0  0
  9 27  1  0  0  0  0
 10 28  1  0  0  0  0
 10 29  1  0  0  0  0
 11 30  1  0  0  0  0
 11 31  1  0  0  0  0
 12 32  1  0  0  0  0
 14 33  1  0  0  0  0
 14 34  1  0  0  0  0
 14 35  1  0  0  0  0
 16 36  1  0  0  0  0
 16 37  1  0  0  0  0
M  END
> <Catalog ID>
Z1891773538

> <PlateID>
1337959-R-03

> <Well>
A03

> <MW (desalted)>
232.321

> <CLogP>
0.976

> <HBD>
1

> <TPSA>
38.490

> <RotBonds>
0

> <ROCS_ShapeQuery>
A71EV2A-x0451_0A_A71EV2A-x0310_0A_A71EV2A-x0416_0A_peptide

> <ROCS_TanimotoCombo>
0.423 

> <ROCS_ShapeTanimoto>
0.308 

> <ROCS_ColorTanimoto>
0.115 

> <ROCS_RefTversky>
0.272 

> <ROCS_RefColorTversky>
0.131 

> <ROCS_RefTverskyCombo>
0.404 

> <ROCS_FitTversky>
1.734 

> <ROCS_FitColorTversky>
0.485 

> <ROCS_FitTverskyCombo>
2.219 

> <ROCS_ColorScore>
-3.999

> <ROCS_Overlap>
1888.205

> <ROCS_Rank>
232                 

$$$$
untitled-dbase-921_107
  -OEChem-11112309163D

 37 38  0     1  0  0  0  0  0999 V2000
    9.7851   10.6049   23.0920 C   0  0  0  0  0  0  0  0  0  0  0  0
    8.5318   10.0172   23.2637 C   0  0  0  0  0  0  0  0  0  0  0  0
    9.0934   12.4777   24.4526 C   0  0  0  0  0  0  0  0  0  0  0  0
   10.0659   11.8352   23.6864 C   0  0  0  0  0  0  0  0  0  0  0  0
    7.5593   10.6597   24.0299 C   0  0  0  0  0  0  0  0  0  0  0  0
    7.8401   11.8900   24.6243 C   0  0  0  0  0  0  0  0  0  0  0  0
   10.8527   14.5946   22.3019 C   0  0  0  0  0  0  0  0  0  0  0  0
   12.6504   11.3911   21.7248 C   0  0  0  0  0  0  0  0  0  0  0  0
   12.5404   11.4491   23.2448 C   0  0  0  0  0  0  0  0  0  0  0  0
   12.3644   12.8226   21.2978 C   0  0  0  0  0  0  0  0  0  0  0  0
   11.4309   12.4753   23.4987 C   0  0  1  0  0  0  0  0  0  0  0  0
    6.2244   10.0116   24.1987 C   0  0  0  0  0  0  0  0  0  0  0  0
    6.8144   12.5966   25.4486 C   0  0  0  0  0  0  0  0  0  0  0  0
   10.5206   15.1276   20.9312 C   0  0  0  0  0  0  0  0  0  0  0  0
   11.4740   13.3548   22.3269 N   0  0  0  0  0  0  0  0  0  0  0  0
    9.8929   16.4005   21.1167 N   0  0  0  0  0  0  0  0  0  0  0  0
   10.5652   15.2442   23.3087 O   0  0  0  0  0  0  0  0  0  0  0  0
   10.5366   10.0973   22.4930 H   0  0  0  0  0  0  0  0  0  0  0  0
    8.3226    9.0587   22.7958 H   0  0  0  0  0  0  0  0  0  0  0  0
    9.3133   13.4365   24.9162 H   0  0  0  0  0  0  0  0  0  0  0  0
   13.6331   11.0445   21.3927 H   0  0  0  0  0  0  0  0  0  0  0  0
   11.8898   10.7154   21.3167 H   0  0  0  0  0  0  0  0  0  0  0  0
   12.3463   10.4630   23.6789 H   0  0  0  0  0  0  0  0  0  0  0  0
   13.4857   11.8237   23.6574 H   0  0  0  0  0  0  0  0  0  0  0  0
   13.2778   13.4275   21.3007 H   0  0  0  0  0  0  0  0  0  0  0  0
   11.9013   12.8829   20.3094 H   0  0  0  0  0  0  0  0  0  0  0  0
   11.6405   13.0778   24.4114 H   0  0  0  0  0  0  0  0  0  0  0  0
    6.2264    9.3621   25.0817 H   0  0  0  0  0  0  0  0  0  0  0  0
    5.4321   10.7610   24.3177 H   0  0  0  0  0  0  0  0  0  0  0  0
    5.9632    9.4076   23.3209 H   0  0  0  0  0  0  0  0  0  0  0  0
    6.2115   13.2601   24.8178 H   0  0  0  0  0  0  0  0  0  0  0  0
    6.1453   11.8834   25.9455 H   0  0  0  0  0  0  0  0  0  0  0  0
    7.2847   13.1963   26.2377 H   0  0  0  0  0  0  0  0  0  0  0  0
    9.8495   14.4241   20.4476 H   0  0  0  0  0  0  0  0  0  0  0  0
   11.4462   15.2224   20.3710 H   0  0  0  0  0  0  0  0  0  0  0  0
    9.6238   16.7791   20.2288 H   0  0  0  0  0  0  0  0  0  0  0  0
    9.0779   16.2963   21.6901 H   0  0  0  0  0  0  0  0  0  0  0  0
  1  2  1  0  0  0  0
  1  4  2  0  0  0  0
  2  5  2  0  0  0  0
  3  4  1  0  0  0  0
  3  6  2  0  0  0  0
  4 11  1  0  0  0  0
  5  6  1  0  0  0  0
  5 12  1  0  0  0  0
  6 13  1  0  0  0  0
  7 14  1  0  0  0  0
  7 15  1  0  0  0  0
  7 17  2  0  0  0  0
  8  9  1  0  0  0  0
  8 10  1  0  0  0  0
  9 11  1  0  0  0  0
 10 15  1  0  0  0  0
 11 15  1  0  0  0  0
 14 16  1  0  0  0  0
  1 18  1  0  0  0  0
  2 19  1  0  0  0  0
  3 20  1  0  0  0  0
  8 21  1  0  0  0  0
  8 22  1  0  0  0  0
  9 23  1  0  0  0  0
  9 24  1  0  0  0  0
 10 25  1  0  0  0  0
 10 26  1  0  0  0  0
 11 27  1  0  0  0  0
 12 28  1  0  0  0  0
 12 29  1  0  0  0  0
 12 30  1  0  0  0  0
 13 31  1  0  0  0  0
 13 32  1  0  0  0  0
 13 33  1  0  0  0  0
 14 34  1  0  0  0  0
 14 35  1  0  0  0  0
 16 36  1  0  0  0  0
 16 37  1  0  0  0  0
M  END
> <Catalog ID>
Z2242899312

> <PlateID>
1337959-R-12

> <Well>
E05

> <MW (desalted)>
232.321

> <CLogP>
1.686

> <HBD>
1

> <TPSA>
46.330

> <RotBonds>
2

> <ROCS_ShapeQuery>
A71EV2A-x0451_0A_A71EV2A-x0310_0A_A71EV2A-x0416_0A_peptide

> <ROCS_TanimotoCombo>
0.423 

> <ROCS_ShapeTanimoto>
0.278 

> <ROCS_ColorTanimoto>
0.145 

> <ROCS_RefTversky>
0.251 

> <ROCS_RefColorTversky>
0.153 

> <ROCS_RefTverskyCombo>
0.404 

> <ROCS_FitTversky>
1.626 

> <ROCS_FitColorTversky>
0.734 

> <ROCS_FitTverskyCombo>
2.360 

> <ROCS_ColorScore>
-4.649

> <ROCS_Overlap>
1740.318

> <ROCS_Rank>
233                 

$$$$
untitled-dbase-828_17
  -OEChem-11112309163D

 24 24  0     0  0  0  0  0  0999 V2000
   10.4627   10.5109   23.5234 C   0  0  0  0  0  0  0  0  0  0  0  0
    9.5909    9.4391   23.7151 C   0  0  0  0  0  0  0  0  0  0  0  0
    8.7432   12.0410   24.2578 C   0  0  0  0  0  0  0  0  0  0  0  0
    7.8714   10.9692   24.4495 C   0  0  0  0  0  0  0  0  0  0  0  0
   10.0389   11.8118   23.7948 C   0  0  0  0  0  0  0  0  0  0  0  0
    8.2952    9.6682   24.1782 C   0  0  0  0  0  0  0  0  0  0  0  0
   10.9358   14.9989   21.5247 C   0  0  0  0  0  0  0  0  0  0  0  0
    6.2743   12.5852   25.1521 C   0  0  0  0  0  0  0  0  0  0  0  0
   10.8318   13.5910   21.9342 N   0  0  0  0  0  0  0  0  0  0  0  0
   10.7192   14.2520   24.4216 O   0  0  0  0  0  0  0  0  0  0  0  0
   12.4922   12.6401   23.6581 O   0  0  0  0  0  0  0  0  0  0  0  0
    6.6115   11.2222   24.9043 O   0  0  0  0  0  0  0  0  0  0  0  0
   11.1320   13.1526   23.5587 S   0  0  0  0  0  0  0  0  0  0  0  0
    7.2380    8.3242   24.4053 Cl  0  0  0  0  0  0  0  0  0  0  0  0
   11.4706   10.3217   23.1638 H   0  0  0  0  0  0  0  0  0  0  0  0
    9.9370    8.4311   23.5004 H   0  0  0  0  0  0  0  0  0  0  0  0
    8.4097   13.0536   24.4713 H   0  0  0  0  0  0  0  0  0  0  0  0
   11.6298   15.5262   22.1957 H   0  0  0  0  0  0  0  0  0  0  0  0
   11.3115   15.0535   20.4923 H   0  0  0  0  0  0  0  0  0  0  0  0
    9.9436   15.4708   21.5792 H   0  0  0  0  0  0  0  0  0  0  0  0
    5.2437   12.6472   25.5099 H   0  0  0  0  0  0  0  0  0  0  0  0
    6.3868   13.1626   24.2309 H   0  0  0  0  0  0  0  0  0  0  0  0
    6.9470   12.9848   25.9146 H   0  0  0  0  0  0  0  0  0  0  0  0
   10.2051   13.0031   21.3713 H   0  0  0  0  0  0  0  0  0  0  0  0
  1  2  1  0  0  0  0
  1  5  2  0  0  0  0
  2  6  2  0  0  0  0
  3  4  2  0  0  0  0
  3  5  1  0  0  0  0
  4  6  1  0  0  0  0
  4 12  1  0  0  0  0
  5 13  1  0  0  0  0
  6 14  1  0  0  0  0
  7  9  1  0  0  0  0
  8 12  1  0  0  0  0
  9 13  1  0  0  0  0
 10 13  2  0  0  0  0
 11 13  2  0  0  0  0
  1 15  1  0  0  0  0
  2 16  1  0  0  0  0
  3 17  1  0  0  0  0
  7 18  1  0  0  0  0
  7 19  1  0  0  0  0
  7 20  1  0  0  0  0
  8 21  1  0  0  0  0
  8 22  1  0  0  0  0
  8 23  1  0  0  0  0
  9 24  1  0  0  0  0
M  END
> <Catalog ID>
Z1347206051

> <PlateID>
1337959-R-11

> <Well>
C11

> <MW (desalted)>
235.688

> <CLogP>
1.879

> <HBD>
1

> <TPSA>
55.400

> <RotBonds>
2

> <ROCS_ShapeQuery>
A71EV2A-x0451_0A_A71EV2A-x0310_0A_A71EV2A-x0416_0A_peptide

> <ROCS_TanimotoCombo>
0.422 

> <ROCS_ShapeTanimoto>
0.280 

> <ROCS_ColorTanimoto>
0.142 

> <ROCS_RefTversky>
0.248 

> <ROCS_RefColorTversky>
0.150 

> <ROCS_RefTverskyCombo>
0.398 

> <ROCS_FitTversky>
1.888 

> <ROCS_FitColorTversky>
0.720 

> <ROCS_FitTverskyCombo>
2.608 

> <ROCS_ColorScore>
-4.564

> <ROCS_Overlap>
1715.458

> <ROCS_Rank>
234                 

$$$$
untitled-dbase-572_107
  -OEChem-11112309163D

 37 38  0     0  0  0  0  0  0999 V2000
    8.3315   12.4448   24.1862 C   0  0  0  0  0  0  0  0  0  0  0  0
    7.6947   11.3066   24.4505 C   0  0  0  0  0  0  0  0  0  0  0  0
    9.6352   12.3026   23.5359 C   0  0  0  0  0  0  0  0  0  0  0  0
    8.2996   10.0015   24.0946 C   0  0  0  0  0  0  0  0  0  0  0  0
   10.3602   13.5544   23.2325 C   0  0  0  0  0  0  0  0  0  0  0  0
   13.4863   16.0696   21.1242 C   0  0  0  0  0  0  0  0  0  0  0  0
   12.7427   16.0376   19.7861 C   0  0  0  0  0  0  0  0  0  0  0  0
   12.7863   15.0510   22.0199 C   0  0  0  0  0  0  0  0  0  0  0  0
   11.6322   15.0025   19.9454 C   0  0  0  0  0  0  0  0  0  0  0  0
   11.3759   14.9782   21.4474 C   0  0  0  0  0  0  0  0  0  0  0  0
   11.3115   11.8286   20.5795 C   0  0  0  0  0  0  0  0  0  0  0  0
   10.1723    8.7813   23.1169 C   0  0  0  0  0  0  0  0  0  0  0  0
   10.2539   12.8513   20.8209 C   0  0  0  0  0  0  0  0  0  0  0  0
   10.2141   11.2011   23.2016 N   0  0  0  0  0  0  0  0  0  0  0  0
    9.5456   10.0405   23.4811 N   0  0  0  0  0  0  0  0  0  0  0  0
   10.6567   13.7917   21.8753 N   0  0  0  0  0  0  0  0  0  0  0  0
    7.6747    8.9743   24.3580 O   0  0  0  0  0  0  0  0  0  0  0  0
   10.6603   14.2885   24.1747 O   0  0  0  0  0  0  0  0  0  0  0  0
    7.9248   13.4166   24.4297 H   0  0  0  0  0  0  0  0  0  0  0  0
    6.7228   11.3044   24.9304 H   0  0  0  0  0  0  0  0  0  0  0  0
   14.5485   15.8324   21.0062 H   0  0  0  0  0  0  0  0  0  0  0  0
   13.4195   17.0723   21.5620 H   0  0  0  0  0  0  0  0  0  0  0  0
   12.3164   17.0250   19.5744 H   0  0  0  0  0  0  0  0  0  0  0  0
   13.4090   15.7828   18.9557 H   0  0  0  0  0  0  0  0  0  0  0  0
   13.2936   14.0814   21.9377 H   0  0  0  0  0  0  0  0  0  0  0  0
   12.7985   15.3526   23.0719 H   0  0  0  0  0  0  0  0  0  0  0  0
   10.7397   15.2652   19.3693 H   0  0  0  0  0  0  0  0  0  0  0  0
   11.9902   14.0271   19.5922 H   0  0  0  0  0  0  0  0  0  0  0  0
   10.7860   15.8450   21.7523 H   0  0  0  0  0  0  0  0  0  0  0  0
   11.4957   11.2651   21.5060 H   0  0  0  0  0  0  0  0  0  0  0  0
   10.9801   11.1379   19.7901 H   0  0  0  0  0  0  0  0  0  0  0  0
   12.2392   12.3282   20.2638 H   0  0  0  0  0  0  0  0  0  0  0  0
    9.8719    8.5035   22.0958 H   0  0  0  0  0  0  0  0  0  0  0  0
   11.2660    8.8901   23.1604 H   0  0  0  0  0  0  0  0  0  0  0  0
    9.8536    7.9967   23.8189 H   0  0  0  0  0  0  0  0  0  0  0  0
   10.0757   13.4100   19.8903 H   0  0  0  0  0  0  0  0  0  0  0  0
    9.3271   12.3440   21.1271 H   0  0  0  0  0  0  0  0  0  0  0  0
  1  2  2  0  0  0  0
  1  3  1  0  0  0  0
  2  4  1  0  0  0  0
  3  5  1  0  0  0  0
  3 14  2  0  0  0  0
  4 15  1  0  0  0  0
  4 17  2  0  0  0  0
  5 16  1  0  0  0  0
  5 18  2  0  0  0  0
  6  7  1  0  0  0  0
  6  8  1  0  0  0  0
  7  9  1  0  0  0  0
  8 10  1  0  0  0  0
  9 10  1  0  0  0  0
 10 16  1  0  0  0  0
 11 13  1  0  0  0  0
 12 15  1  0  0  0  0
 13 16  1  0  0  0  0
 14 15  1  0  0  0  0
  1 19  1  0  0  0  0
  2 20  1  0  0  0  0
  6 21  1  0  0  0  0
  6 22  1  0  0  0  0
  7 23  1  0  0  0  0
  7 24  1  0  0  0  0
  8 25  1  0  0  0  0
  8 26  1  0  0  0  0
  9 27  1  0  0  0  0
  9 28  1  0  0  0  0
 10 29  1  0  0  0  0
 11 30  1  0  0  0  0
 11 31  1  0  0  0  0
 11 32  1  0  0  0  0
 12 33  1  0  0  0  0
 12 34  1  0  0  0  0
 12 35  1  0  0  0  0
 13 36  1  0  0  0  0
 13 37  1  0  0  0  0
M  END
> <Catalog ID>
Z345436292

> <PlateID>
1337959-R-08

> <Well>
B04

> <MW (desalted)>
249.309

> <CLogP>
-0.050

> <HBD>
0

> <TPSA>
52.980

> <RotBonds>
3

> <ROCS_ShapeQuery>
A71EV2A-x0451_0A_A71EV2A-x0310_0A_A71EV2A-x0416_0A_peptide

> <ROCS_TanimotoCombo>
0.422 

> <ROCS_ShapeTanimoto>
0.304 

> <ROCS_ColorTanimoto>
0.118 

> <ROCS_RefTversky>
0.271 

> <ROCS_RefColorTversky>
0.127 

> <ROCS_RefTverskyCombo>
0.398 

> <ROCS_FitTversky>
1.678 

> <ROCS_FitColorTversky>
0.611 

> <ROCS_FitTverskyCombo>
2.289 

> <ROCS_ColorScore>
-3.872

> <ROCS_Overlap>
1879.676

> <ROCS_Rank>
235                 

$$$$
untitled-dbase-1092_345
  -OEChem-11112309163D

 36 37  0     1  0  0  0  0  0999 V2000
   11.9480   13.2022   22.5210 C   0  0  0  0  0  0  0  0  0  0  0  0
   11.2418   12.9291   23.7052 C   0  0  0  0  0  0  0  0  0  0  0  0
   11.7899   14.5521   22.3514 C   0  0  0  0  0  0  0  0  0  0  0  0
    9.8391   10.8740   23.8972 C   0  0  0  0  0  0  0  0  0  0  0  0
    6.0348   11.6873   25.8998 C   0  0  0  0  0  0  0  0  0  0  0  0
    7.3787   11.7764   26.6205 C   0  0  0  0  0  0  0  0  0  0  0  0
    6.1744   11.4199   24.4023 C   0  0  0  0  0  0  0  0  0  0  0  0
    8.5313   12.1043   25.6798 C   0  0  0  0  0  0  0  0  0  0  0  0
    7.3898   10.5519   24.0575 C   0  0  2  0  0  0  0  0  0  0  0  0
   12.2492   15.5098   21.3381 C   0  0  0  0  0  0  0  0  0  0  0  0
   11.0656   11.6044   24.3854 C   0  0  0  0  0  0  0  0  0  0  0  0
    7.2292    9.1107   24.5500 C   0  0  0  0  0  0  0  0  0  0  0  0
   10.6880   14.0258   24.2300 N   0  0  0  0  0  0  0  0  0  0  0  0
    8.6398   11.1539   24.5617 N   0  0  0  0  0  0  0  0  0  0  0  0
    8.1120    8.2585   23.8299 N   0  0  0  0  0  0  0  0  0  0  0  0
    9.9400   10.0791   22.9592 O   0  0  0  0  0  0  0  0  0  0  0  0
   11.0397   15.0551   23.3650 O   0  0  0  0  0  0  0  0  0  0  0  0
   12.4913   12.5196   21.8841 H   0  0  0  0  0  0  0  0  0  0  0  0
    5.4154   10.8967   26.3676 H   0  0  0  0  0  0  0  0  0  0  0  0
    5.4722   12.6283   26.0549 H   0  0  0  0  0  0  0  0  0  0  0  0
    7.3217   12.5427   27.4121 H   0  0  0  0  0  0  0  0  0  0  0  0
    7.5817   10.8223   27.1334 H   0  0  0  0  0  0  0  0  0  0  0  0
    5.2542   10.9543   24.0275 H   0  0  0  0  0  0  0  0  0  0  0  0
    6.2677   12.3827   23.8809 H   0  0  0  0  0  0  0  0  0  0  0  0
    8.4106   13.1271   25.3016 H   0  0  0  0  0  0  0  0  0  0  0  0
    9.4871   12.0821   26.2202 H   0  0  0  0  0  0  0  0  0  0  0  0
    7.4298   10.5015   22.9618 H   0  0  0  0  0  0  0  0  0  0  0  0
   11.5217   15.6055   20.5115 H   0  0  0  0  0  0  0  0  0  0  0  0
   12.4070   16.5223   21.7554 H   0  0  0  0  0  0  0  0  0  0  0  0
   13.2182   15.2180   20.8905 H   0  0  0  0  0  0  0  0  0  0  0  0
   11.9380   10.9724   24.2115 H   0  0  0  0  0  0  0  0  0  0  0  0
   10.9829   11.7313   25.4657 H   0  0  0  0  0  0  0  0  0  0  0  0
    7.4690    9.1080   25.6107 H   0  0  0  0  0  0  0  0  0  0  0  0
    6.1933    8.8287   24.3774 H   0  0  0  0  0  0  0  0  0  0  0  0
    9.0619    8.5670   23.9411 H   0  0  0  0  0  0  0  0  0  0  0  0
    8.0383    7.3153   24.1688 H   0  0  0  0  0  0  0  0  0  0  0  0
  1  2  1  0  0  0  0
  1  3  2  0  0  0  0
  2 11  1  0  0  0  0
  2 13  2  0  0  0  0
  3 10  1  0  0  0  0
  3 17  1  0  0  0  0
  4 11  1  0  0  0  0
  4 14  1  0  0  0  0
  4 16  2  0  0  0  0
  5  6  1  0  0  0  0
  5  7  1  0  0  0  0
  6  8  1  0  0  0  0
  7  9  1  0  0  0  0
  8 14  1  0  0  0  0
  9 12  1  0  0  0  0
  9 14  1  0  0  0  0
 12 15  1  0  0  0  0
 13 17  1  0  0  0  0
  1 18  1  0  0  0  0
  5 19  1  0  0  0  0
  5 20  1  0  0  0  0
  6 21  1  0  0  0  0
  6 22  1  0  0  0  0
  7 23  1  0  0  0  0
  7 24  1  0  0  0  0
  8 25  1  0  0  0  0
  8 26  1  0  0  0  0
  9 27  1  0  0  0  0
 10 28  1  0  0  0  0
 10 29  1  0  0  0  0
 10 30  1  0  0  0  0
 11 31  1  0  0  0  0
 11 32  1  0  0  0  0
 12 33  1  0  0  0  0
 12 34  1  0  0  0  0
 15 35  1  0  0  0  0
 15 36  1  0  0  0  0
M  END
> <Catalog ID>
Z2242908655

> <PlateID>
1337959-R-14

> <Well>
F08

> <MW (desalted)>
237.298

> <CLogP>
0.150

> <HBD>
1

> <TPSA>
72.360

> <RotBonds>
3

> <ROCS_ShapeQuery>
A71EV2A-x0451_0A_A71EV2A-x0310_0A_A71EV2A-x0416_0A_peptide

> <ROCS_TanimotoCombo>
0.422 

> <ROCS_ShapeTanimoto>
0.295 

> <ROCS_ColorTanimoto>
0.127 

> <ROCS_RefTversky>
0.263 

> <ROCS_RefColorTversky>
0.140 

> <ROCS_RefTverskyCombo>
0.403 

> <ROCS_FitTversky>
1.706 

> <ROCS_FitColorTversky>
0.583 

> <ROCS_FitTverskyCombo>
2.289 

> <ROCS_ColorScore>
-4.248

> <ROCS_Overlap>
1823.406

> <ROCS_Rank>
236                 

$$$$
untitled-dbase-1007_91
  -OEChem-11112309163D

 34 35  0     1  0  0  0  0  0999 V2000
    7.6335   10.9386   24.7491 C   0  0  0  0  0  0  0  0  0  0  0  0
    8.2399   12.1571   24.5213 C   0  0  0  0  0  0  0  0  0  0  0  0
    9.3571   12.1259   23.7119 C   0  0  0  0  0  0  0  0  0  0  0  0
    9.1728    9.8744   23.4587 C   0  0  0  0  0  0  0  0  0  0  0  0
   10.1098   13.3444   23.3784 C   0  0  0  0  0  0  0  0  0  0  0  0
   10.5716   14.5549   19.1978 C   0  0  0  0  0  0  0  0  0  0  0  0
   10.4100   13.0957   19.6214 C   0  0  0  0  0  0  0  0  0  0  0  0
   10.4113   15.5371   20.3572 C   0  0  0  0  0  0  0  0  0  0  0  0
    9.6261   12.9447   20.9189 C   0  0  0  0  0  0  0  0  0  0  0  0
   10.9052   14.9728   21.6940 C   0  0  2  0  0  0  0  0  0  0  0  0
   12.4274   14.8024   21.7201 C   0  0  0  0  0  0  0  0  0  0  0  0
    8.2435    7.4419   22.6030 C   0  0  0  0  0  0  0  0  0  0  0  0
    8.0748    9.7733   24.2317 N   0  0  0  0  0  0  0  0  0  0  0  0
    9.8531   10.9981   23.1619 N   0  0  0  0  0  0  0  0  0  0  0  0
   10.2161   13.7119   22.0292 N   0  0  0  0  0  0  0  0  0  0  0  0
   10.5916   13.9650   24.3254 O   0  0  0  0  0  0  0  0  0  0  0  0
    9.7917    8.3601   22.7536 S   0  0  0  0  0  0  0  0  0  0  0  0
    7.6138   13.5923   25.2181 Cl  0  0  0  0  0  0  0  0  0  0  0  0
    6.7483   10.8499   25.3715 H   0  0  0  0  0  0  0  0  0  0  0  0
   11.5611   14.6946   18.7184 H   0  0  0  0  0  0  0  0  0  0  0  0
    9.8301   14.7922   18.4097 H   0  0  0  0  0  0  0  0  0  0  0  0
    9.9030   12.5357   18.8197 H   0  0  0  0  0  0  0  0  0  0  0  0
   11.4041   12.6384   19.7360 H   0  0  0  0  0  0  0  0  0  0  0  0
   10.9362   16.4719   20.1202 H   0  0  0  0  0  0  0  0  0  0  0  0
    9.3477   15.7982   20.4536 H   0  0  0  0  0  0  0  0  0  0  0  0
    8.5866   13.2412   20.7428 H   0  0  0  0  0  0  0  0  0  0  0  0
    9.6039   11.8921   21.2308 H   0  0  0  0  0  0  0  0  0  0  0  0
   10.6598   15.7129   22.4653 H   0  0  0  0  0  0  0  0  0  0  0  0
   12.7262   14.0746   20.9695 H   0  0  0  0  0  0  0  0  0  0  0  0
   12.7389   14.4550   22.7022 H   0  0  0  0  0  0  0  0  0  0  0  0
   12.9051   15.7558   21.5072 H   0  0  0  0  0  0  0  0  0  0  0  0
    8.4365    6.4555   22.1741 H   0  0  0  0  0  0  0  0  0  0  0  0
    7.5523    7.9841   21.9531 H   0  0  0  0  0  0  0  0  0  0  0  0
    7.7869    7.3201   23.5882 H   0  0  0  0  0  0  0  0  0  0  0  0
  1  2  2  0  0  0  0
  1 13  1  0  0  0  0
  2  3  1  0  0  0  0
  2 18  1  0  0  0  0
  3  5  1  0  0  0  0
  3 14  2  0  0  0  0
  4 13  2  0  0  0  0
  4 14  1  0  0  0  0
  4 17  1  0  0  0  0
  5 15  1  0  0  0  0
  5 16  2  0  0  0  0
  6  7  1  0  0  0  0
  6  8  1  0  0  0  0
  7  9  1  0  0  0  0
  8 10  1  0  0  0  0
  9 15  1  0  0  0  0
 10 11  1  0  0  0  0
 10 15  1  0  0  0  0
 12 17  1  0  0  0  0
  1 19  1  0  0  0  0
  6 20  1  0  0  0  0
  6 21  1  0  0  0  0
  7 22  1  0  0  0  0
  7 23  1  0  0  0  0
  8 24  1  0  0  0  0
  8 25  1  0  0  0  0
  9 26  1  0  0  0  0
  9 27  1  0  0  0  0
 10 28  1  0  0  0  0
 11 29  1  0  0  0  0
 11 30  1  0  0  0  0
 11 31  1  0  0  0  0
 12 32  1  0  0  0  0
 12 33  1  0  0  0  0
 12 34  1  0  0  0  0
M  END
> <Catalog ID>
Z332645918

> <PlateID>
1337959-R-13

> <Well>
F02

> <MW (desalted)>
285.793

> <CLogP>
2.193

> <HBD>
0

> <TPSA>
46.090

> <RotBonds>
2

> <ROCS_ShapeQuery>
A71EV2A-x0451_0A_A71EV2A-x0310_0A_A71EV2A-x0416_0A_peptide

> <ROCS_TanimotoCombo>
0.422 

> <ROCS_ShapeTanimoto>
0.291 

> <ROCS_ColorTanimoto>
0.131 

> <ROCS_RefTversky>
0.261 

> <ROCS_RefColorTversky>
0.144 

> <ROCS_RefTverskyCombo>
0.405 

> <ROCS_FitTversky>
1.650 

> <ROCS_FitColorTversky>
0.601 

> <ROCS_FitTverskyCombo>
2.251 

> <ROCS_ColorScore>
-4.379

> <ROCS_Overlap>
1807.691

> <ROCS_Rank>
237                 

$$$$
untitled-dbase-1046_82
  -OEChem-11112309163D

 33 34  0     0  0  0  0  0  0999 V2000
   13.6041   14.8494   21.0894 C   0  0  0  0  0  0  0  0  0  0  0  0
    7.1919   11.6527   24.9160 C   0  0  0  0  0  0  0  0  0  0  0  0
   12.8274   14.0716   21.9408 C   0  0  0  0  0  0  0  0  0  0  0  0
    8.0172   12.4324   24.1134 C   0  0  0  0  0  0  0  0  0  0  0  0
   13.0343   15.9944   20.5564 C   0  0  0  0  0  0  0  0  0  0  0  0
    7.4151   10.2854   24.9406 C   0  0  0  0  0  0  0  0  0  0  0  0
   11.0463   15.6198   21.6454 C   0  0  0  0  0  0  0  0  0  0  0  0
   11.5229   14.4571   22.2292 C   0  0  0  0  0  0  0  0  0  0  0  0
    9.0261   11.8297   23.3704 C   0  0  0  0  0  0  0  0  0  0  0  0
    9.1673   10.4545   23.4643 C   0  0  0  0  0  0  0  0  0  0  0  0
   10.6883   13.6642   23.1147 C   0  0  0  0  0  0  0  0  0  0  0  0
   10.2319    9.7484   22.6885 C   0  0  0  0  0  0  0  0  0  0  0  0
    8.9270   13.2056   20.3599 C   0  0  0  0  0  0  0  0  0  0  0  0
    9.9421   12.3866   21.0821 C   0  0  0  0  0  0  0  0  0  0  0  0
   11.7709   16.4011   20.8134 N   0  0  0  0  0  0  0  0  0  0  0  0
    8.3850    9.6640   24.2329 N   0  0  0  0  0  0  0  0  0  0  0  0
    9.8913   12.6351   22.5308 N   0  0  0  0  0  0  0  0  0  0  0  0
   10.6674   13.8977   24.3321 O   0  0  0  0  0  0  0  0  0  0  0  0
   14.6236   14.5689   20.8507 H   0  0  0  0  0  0  0  0  0  0  0  0
    6.3994   12.1017   25.5037 H   0  0  0  0  0  0  0  0  0  0  0  0
   13.2476   13.1675   22.3731 H   0  0  0  0  0  0  0  0  0  0  0  0
    7.8641   13.5078   24.0740 H   0  0  0  0  0  0  0  0  0  0  0  0
   13.5984   16.6350   19.8866 H   0  0  0  0  0  0  0  0  0  0  0  0
    6.7989    9.6339   25.5515 H   0  0  0  0  0  0  0  0  0  0  0  0
   10.0365   15.9721   21.8334 H   0  0  0  0  0  0  0  0  0  0  0  0
   11.1541    9.6902   23.2774 H   0  0  0  0  0  0  0  0  0  0  0  0
    9.9196    8.7310   22.4245 H   0  0  0  0  0  0  0  0  0  0  0  0
   10.4483   10.2708   21.7488 H   0  0  0  0  0  0  0  0  0  0  0  0
    9.1182   14.2731   20.5437 H   0  0  0  0  0  0  0  0  0  0  0  0
    8.9920   13.0019   19.2809 H   0  0  0  0  0  0  0  0  0  0  0  0
    7.9213   12.9457   20.7221 H   0  0  0  0  0  0  0  0  0  0  0  0
    9.7441   11.3212   20.8934 H   0  0  0  0  0  0  0  0  0  0  0  0
   10.9438   12.6452   20.7084 H   0  0  0  0  0  0  0  0  0  0  0  0
  1  3  1  0  0  0  0
  1  5  2  0  0  0  0
  2  4  1  0  0  0  0
  2  6  2  0  0  0  0
  3  8  2  0  0  0  0
  4  9  2  0  0  0  0
  5 15  1  0  0  0  0
  6 16  1  0  0  0  0
  7  8  1  0  0  0  0
  7 15  2  0  0  0  0
  8 11  1  0  0  0  0
  9 10  1  0  0  0  0
  9 17  1  0  0  0  0
 10 12  1  0  0  0  0
 10 16  2  0  0  0  0
 11 17  1  0  0  0  0
 11 18  2  0  0  0  0
 13 14  1  0  0  0  0
 14 17  1  0  0  0  0
  1 19  1  0  0  0  0
  2 20  1  0  0  0  0
  3 21  1  0  0  0  0
  4 22  1  0  0  0  0
  5 23  1  0  0  0  0
  6 24  1  0  0  0  0
  7 25  1  0  0  0  0
 12 26  1  0  0  0  0
 12 27  1  0  0  0  0
 12 28  1  0  0  0  0
 13 29  1  0  0  0  0
 13 30  1  0  0  0  0
 13 31  1  0  0  0  0
 14 32  1  0  0  0  0
 14 33  1  0  0  0  0
M  END
> <Catalog ID>
Z1981006209

> <PlateID>
1337959-R-14

> <Well>
B02

> <MW (desalted)>
241.288

> <CLogP>
0.406

> <HBD>
0

> <TPSA>
46.090

> <RotBonds>
3

> <ROCS_ShapeQuery>
A71EV2A-x0451_0A_A71EV2A-x0310_0A_A71EV2A-x0416_0A_peptide

> <ROCS_TanimotoCombo>
0.422 

> <ROCS_ShapeTanimoto>
0.293 

> <ROCS_ColorTanimoto>
0.128 

> <ROCS_RefTversky>
0.264 

> <ROCS_RefColorTversky>
0.137 

> <ROCS_RefTverskyCombo>
0.401 

> <ROCS_FitTversky>
1.618 

> <ROCS_FitColorTversky>
0.659 

> <ROCS_FitTverskyCombo>
2.277 

> <ROCS_ColorScore>
-4.174

> <ROCS_Overlap>
1830.461

> <ROCS_Rank>
238                 

$$$$
untitled-dbase-657_24
  -OEChem-11112309163D

 36 36  0     0  0  0  0  0  0999 V2000
    7.4372   11.3627   24.5734 C   0  0  0  0  0  0  0  0  0  0  0  0
    9.8639   10.6230   23.4129 C   0  0  0  0  0  0  0  0  0  0  0  0
    7.6200   10.0600   24.1095 C   0  0  0  0  0  0  0  0  0  0  0  0
    8.8333    9.6901   23.5293 C   0  0  0  0  0  0  0  0  0  0  0  0
    8.4677   12.2956   24.4570 C   0  0  0  0  0  0  0  0  0  0  0  0
    9.6811   11.9257   23.8768 C   0  0  0  0  0  0  0  0  0  0  0  0
    6.5024    9.0789   24.2460 C   0  0  0  0  0  0  0  0  0  0  0  0
   10.1886    7.5787   23.7715 C   0  0  0  0  0  0  0  0  0  0  0  0
    9.3138    8.2623   21.5082 C   0  0  0  0  0  0  0  0  0  0  0  0
   12.3208   13.6188   21.3694 C   0  0  0  0  0  0  0  0  0  0  0  0
    6.9955   13.8491   25.4939 C   0  0  0  0  0  0  0  0  0  0  0  0
    9.0525    8.3016   23.0251 C   0  0  0  0  0  0  0  0  0  0  0  0
   11.0373   13.3427   22.0306 N   0  0  0  0  0  0  0  0  0  0  0  0
   10.5969   14.3182   24.3739 O   0  0  0  0  0  0  0  0  0  0  0  0
   12.2163   12.4108   24.1221 O   0  0  0  0  0  0  0  0  0  0  0  0
    8.2676   13.5627   24.9161 O   0  0  0  0  0  0  0  0  0  0  0  0
   10.9873   13.0782   23.7177 S   0  0  0  0  0  0  0  0  0  0  0  0
    6.4925   11.6541   25.0265 H   0  0  0  0  0  0  0  0  0  0  0  0
   10.8091   10.3325   22.9602 H   0  0  0  0  0  0  0  0  0  0  0  0
    5.8608    9.1079   23.3577 H   0  0  0  0  0  0  0  0  0  0  0  0
    6.8841    8.0577   24.3684 H   0  0  0  0  0  0  0  0  0  0  0  0
    5.8882    9.2980   25.1283 H   0  0  0  0  0  0  0  0  0  0  0  0
   11.1423    8.1070   23.6642 H   0  0  0  0  0  0  0  0  0  0  0  0
   10.3291    6.5597   23.3948 H   0  0  0  0  0  0  0  0  0  0  0  0
    9.9624    7.5123   24.8416 H   0  0  0  0  0  0  0  0  0  0  0  0
   10.2072    8.8453   21.2582 H   0  0  0  0  0  0  0  0  0  0  0  0
    8.4718    8.6821   20.9470 H   0  0  0  0  0  0  0  0  0  0  0  0
    9.4726    7.2385   21.1523 H   0  0  0  0  0  0  0  0  0  0  0  0
   13.1390   13.1766   21.9567 H   0  0  0  0  0  0  0  0  0  0  0  0
   12.3152   13.1803   20.3606 H   0  0  0  0  0  0  0  0  0  0  0  0
   12.4687   14.7063   21.2957 H   0  0  0  0  0  0  0  0  0  0  0  0
    6.9685   14.8921   25.8186 H   0  0  0  0  0  0  0  0  0  0  0  0
    6.8239   13.1865   26.3459 H   0  0  0  0  0  0  0  0  0  0  0  0
    6.2189   13.6832   24.7436 H   0  0  0  0  0  0  0  0  0  0  0  0
    8.1428    7.6955   23.1935 H   0  0  0  0  0  0  0  0  0  0  0  0
   10.2008   13.7132   21.5633 H   0  0  0  0  0  0  0  0  0  0  0  0
  1  3  1  0  0  0  0
  1  5  2  0  0  0  0
  2  4  1  0  0  0  0
  2  6  2  0  0  0  0
  3  4  2  0  0  0  0
  3  7  1  0  0  0  0
  4 12  1  0  0  0  0
  5  6  1  0  0  0  0
  5 16  1  0  0  0  0
  6 17  1  0  0  0  0
  8 12  1  0  0  0  0
  9 12  1  0  0  0  0
 10 13  1  0  0  0  0
 11 16  1  0  0  0  0
 13 17  1  0  0  0  0
 14 17  2  0  0  0  0
 15 17  2  0  0  0  0
  1 18  1  0  0  0  0
  2 19  1  0  0  0  0
  7 20  1  0  0  0  0
  7 21  1  0  0  0  0
  7 22  1  0  0  0  0
  8 23  1  0  0  0  0
  8 24  1  0  0  0  0
  8 25  1  0  0  0  0
  9 26  1  0  0  0  0
  9 27  1  0  0  0  0
  9 28  1  0  0  0  0
 10 29  1  0  0  0  0
 10 30  1  0  0  0  0
 10 31  1  0  0  0  0
 11 32  1  0  0  0  0
 11 33  1  0  0  0  0
 11 34  1  0  0  0  0
 12 35  1  0  0  0  0
 13 36  1  0  0  0  0
M  END
> <Catalog ID>
Z1347206054

> <PlateID>
1337959-R-09

> <Well>
B10

> <MW (desalted)>
257.349

> <CLogP>
2.595

> <HBD>
1

> <TPSA>
55.400

> <RotBonds>
3

> <ROCS_ShapeQuery>
A71EV2A-x0451_0A_A71EV2A-x0310_0A_A71EV2A-x0416_0A_peptide

> <ROCS_TanimotoCombo>
0.422 

> <ROCS_ShapeTanimoto>
0.292 

> <ROCS_ColorTanimoto>
0.130 

> <ROCS_RefTversky>
0.260 

> <ROCS_RefColorTversky>
0.142 

> <ROCS_RefTverskyCombo>
0.402 

> <ROCS_FitTversky>
1.739 

> <ROCS_FitColorTversky>
0.594 

> <ROCS_FitTverskyCombo>
2.333 

> <ROCS_ColorScore>
-4.329

> <ROCS_Overlap>
1800.549

> <ROCS_Rank>
239                 

$$$$
untitled-dbase-622_251
  -OEChem-11112309163D

 33 35  0     1  0  0  0  0  0999 V2000
   12.9529   14.9290   22.0217 C   0  0  0  0  0  0  0  0  0  0  0  0
    8.2745   10.1955   24.4712 C   0  0  0  0  0  0  0  0  0  0  0  0
    8.4760   12.3849   24.4994 C   0  0  0  0  0  0  0  0  0  0  0  0
   13.1556   15.8314   21.0009 C   0  0  0  0  0  0  0  0  0  0  0  0
   10.7866   15.2101   21.2276 C   0  0  0  0  0  0  0  0  0  0  0  0
   11.5806   14.5689   22.1531 C   0  0  0  0  0  0  0  0  0  0  0  0
    9.1704   11.2427   24.1840 C   0  0  0  0  0  0  0  0  0  0  0  0
   11.0362   13.6311   23.1455 C   0  0  0  0  0  0  0  0  0  0  0  0
   11.7841   10.3757   21.7125 C   0  0  0  0  0  0  0  0  0  0  0  0
   10.7573    9.9116   22.7368 C   0  0  0  0  0  0  0  0  0  0  0  0
   11.4060   11.8300   21.4927 C   0  0  0  0  0  0  0  0  0  0  0  0
   10.5820   11.1365   23.6506 C   0  0  1  0  0  0  0  0  0  0  0  0
    6.1721   12.8127   25.3869 C   0  0  0  0  0  0  0  0  0  0  0  0
    7.1005   10.6336   24.9337 N   0  0  0  0  0  0  0  0  0  0  0  0
    7.2541   11.9687   24.9396 N   0  0  0  0  0  0  0  0  0  0  0  0
   10.9621   12.2853   22.8030 N   0  0  0  0  0  0  0  0  0  0  0  0
   10.6861   14.1063   24.2247 O   0  0  0  0  0  0  0  0  0  0  0  0
   11.6953   16.2410   20.2060 S   0  0  0  0  0  0  0  0  0  0  0  0
   13.7547   14.5487   22.6423 H   0  0  0  0  0  0  0  0  0  0  0  0
    8.4261    9.1307   24.3645 H   0  0  0  0  0  0  0  0  0  0  0  0
    8.7412   13.4324   24.4506 H   0  0  0  0  0  0  0  0  0  0  0  0
   14.0917   16.2701   20.6853 H   0  0  0  0  0  0  0  0  0  0  0  0
    9.7164   15.1271   21.0969 H   0  0  0  0  0  0  0  0  0  0  0  0
   12.8094   10.2589   22.0690 H   0  0  0  0  0  0  0  0  0  0  0  0
   11.6712    9.8111   20.7816 H   0  0  0  0  0  0  0  0  0  0  0  0
    9.8322    9.5738   22.2668 H   0  0  0  0  0  0  0  0  0  0  0  0
   11.1770    9.0842   23.3169 H   0  0  0  0  0  0  0  0  0  0  0  0
   12.2738   12.4289   21.2085 H   0  0  0  0  0  0  0  0  0  0  0  0
   10.6201   11.9625   20.7496 H   0  0  0  0  0  0  0  0  0  0  0  0
   11.2781   11.0664   24.5211 H   0  0  0  0  0  0  0  0  0  0  0  0
    5.5533   13.0560   24.5191 H   0  0  0  0  0  0  0  0  0  0  0  0
    5.5830   12.2813   26.1395 H   0  0  0  0  0  0  0  0  0  0  0  0
    6.5839   13.7230   25.8315 H   0  0  0  0  0  0  0  0  0  0  0  0
  1  4  2  0  0  0  0
  1  6  1  0  0  0  0
  2  7  1  0  0  0  0
  2 14  2  0  0  0  0
  3  7  2  0  0  0  0
  3 15  1  0  0  0  0
  4 18  1  0  0  0  0
  5  6  2  0  0  0  0
  5 18  1  0  0  0  0
  6  8  1  0  0  0  0
  7 12  1  0  0  0  0
  8 16  1  0  0  0  0
  8 17  2  0  0  0  0
  9 10  1  0  0  0  0
  9 11  1  0  0  0  0
 10 12  1  0  0  0  0
 11 16  1  0  0  0  0
 12 16  1  0  0  0  0
 13 15  1  0  0  0  0
 14 15  1  0  0  0  0
  1 19  1  0  0  0  0
  2 20  1  0  0  0  0
  3 21  1  0  0  0  0
  4 22  1  0  0  0  0
  5 23  1  0  0  0  0
  9 24  1  0  0  0  0
  9 25  1  0  0  0  0
 10 26  1  0  0  0  0
 10 27  1  0  0  0  0
 11 28  1  0  0  0  0
 11 29  1  0  0  0  0
 12 30  1  0  0  0  0
 13 31  1  0  0  0  0
 13 32  1  0  0  0  0
 13 33  1  0  0  0  0
M  END
> <Catalog ID>
Z1102956854

> <PlateID>
1337959-R-08

> <Well>
G05

> <MW (desalted)>
261.343

> <CLogP>
1.310

> <HBD>
0

> <TPSA>
38.130

> <RotBonds>
2

> <ROCS_ShapeQuery>
A71EV2A-x0451_0A_A71EV2A-x0310_0A_A71EV2A-x0416_0A_peptide

> <ROCS_TanimotoCombo>
0.422 

> <ROCS_ShapeTanimoto>
0.299 

> <ROCS_ColorTanimoto>
0.122 

> <ROCS_RefTversky>
0.268 

> <ROCS_RefColorTversky>
0.132 

> <ROCS_RefTverskyCombo>
0.400 

> <ROCS_FitTversky>
1.643 

> <ROCS_FitColorTversky>
0.631 

> <ROCS_FitTverskyCombo>
2.274 

> <ROCS_ColorScore>
-4.000

> <ROCS_Overlap>
1858.199

> <ROCS_Rank>
240                 

$$$$
untitled-dbase-1102_6
  -OEChem-11112309163D

 37 38  0     1  0  0  0  0  0999 V2000
    9.8853   10.9046   23.3203 C   0  0  0  0  0  0  0  0  0  0  0  0
    9.5097   12.2574   23.5631 C   0  0  0  0  0  0  0  0  0  0  0  0
    8.8942   10.0193   23.6831 C   0  0  0  0  0  0  0  0  0  0  0  0
    8.2455   12.3546   24.1020 C   0  0  0  0  0  0  0  0  0  0  0  0
   10.3503   13.4278   23.2817 C   0  0  0  0  0  0  0  0  0  0  0  0
    9.7533   13.6014   19.7194 C   0  0  0  0  0  0  0  0  0  0  0  0
   10.5974   14.8189   19.3314 C   0  0  0  0  0  0  0  0  0  0  0  0
   10.4336   12.7878   20.8160 C   0  0  0  0  0  0  0  0  0  0  0  0
   11.6177   14.7881   21.6491 C   0  0  0  0  0  0  0  0  0  0  0  0
   10.9956   15.6584   20.5521 C   0  0  2  0  0  0  0  0  0  0  0  0
    8.8986    8.5434   23.5892 C   0  0  0  0  0  0  0  0  0  0  0  0
    7.4896   13.5655   24.4961 C   0  0  0  0  0  0  0  0  0  0  0  0
   10.2979   17.5169   21.8722 C   0  0  0  0  0  0  0  0  0  0  0  0
   10.7585   13.6441   21.9636 N   0  0  0  0  0  0  0  0  0  0  0  0
    9.8592   16.3922   21.0628 N   0  0  0  0  0  0  0  0  0  0  0  0
   10.6223   14.1450   24.2434 O   0  0  0  0  0  0  0  0  0  0  0  0
    7.5174   10.8192   24.3134 S   0  0  0  0  0  0  0  0  0  0  0  0
   10.8346   10.5949   22.9008 H   0  0  0  0  0  0  0  0  0  0  0  0
    8.7611   13.9234   20.0580 H   0  0  0  0  0  0  0  0  0  0  0  0
    9.5980   12.9710   18.8364 H   0  0  0  0  0  0  0  0  0  0  0  0
   11.5097   14.4695   18.8308 H   0  0  0  0  0  0  0  0  0  0  0  0
   10.0554   15.4281   18.5979 H   0  0  0  0  0  0  0  0  0  0  0  0
    9.7914   11.9509   21.1007 H   0  0  0  0  0  0  0  0  0  0  0  0
   11.3758   12.3631   20.4491 H   0  0  0  0  0  0  0  0  0  0  0  0
   12.5781   14.3830   21.3070 H   0  0  0  0  0  0  0  0  0  0  0  0
   11.8246   15.3811   22.5470 H   0  0  0  0  0  0  0  0  0  0  0  0
   11.7550   16.3946   20.2239 H   0  0  0  0  0  0  0  0  0  0  0  0
    9.2986    8.0908   24.5101 H   0  0  0  0  0  0  0  0  0  0  0  0
    7.8861    8.1389   23.4265 H   0  0  0  0  0  0  0  0  0  0  0  0
    9.5109    8.1872   22.7444 H   0  0  0  0  0  0  0  0  0  0  0  0
    6.8906   13.9454   23.6546 H   0  0  0  0  0  0  0  0  0  0  0  0
    6.8058   13.3654   25.3362 H   0  0  0  0  0  0  0  0  0  0  0  0
    8.1588   14.3750   24.8289 H   0  0  0  0  0  0  0  0  0  0  0  0
   10.9104   18.1940   21.2587 H   0  0  0  0  0  0  0  0  0  0  0  0
    9.4198   18.0598   22.2519 H   0  0  0  0  0  0  0  0  0  0  0  0
   10.8954   17.1481   22.7189 H   0  0  0  0  0  0  0  0  0  0  0  0
    9.2928   15.7650   21.6281 H   0  0  0  0  0  0  0  0  0  0  0  0
  1  2  1  0  0  0  0
  1  3  2  0  0  0  0
  2  4  2  0  0  0  0
  2  5  1  0  0  0  0
  3 11  1  0  0  0  0
  3 17  1  0  0  0  0
  4 12  1  0  0  0  0
  4 17  1  0  0  0  0
  5 14  1  0  0  0  0
  5 16  2  0  0  0  0
  6  7  1  0  0  0  0
  6  8  1  0  0  0  0
  7 10  1  0  0  0  0
  8 14  1  0  0  0  0
  9 10  1  0  0  0  0
  9 14  1  0  0  0  0
 10 15  1  0  0  0  0
 13 15  1  0  0  0  0
  1 18  1  0  0  0  0
  6 19  1  0  0  0  0
  6 20  1  0  0  0  0
  7 21  1  0  0  0  0
  7 22  1  0  0  0  0
  8 23  1  0  0  0  0
  8 24  1  0  0  0  0
  9 25  1  0  0  0  0
  9 26  1  0  0  0  0
 10 27  1  0  0  0  0
 11 28  1  0  0  0  0
 11 29  1  0  0  0  0
 11 30  1  0  0  0  0
 12 31  1  0  0  0  0
 12 32  1  0  0  0  0
 12 33  1  0  0  0  0
 13 34  1  0  0  0  0
 13 35  1  0  0  0  0
 13 36  1  0  0  0  0
 15 37  1  0  0  0  0
M  END
> <Catalog ID>
Z2242874002

> <PlateID>
1337959-R-14

> <Well>
G08

> <MW (desalted)>
252.376

> <CLogP>
1.877

> <HBD>
1

> <TPSA>
32.340

> <RotBonds>
2

> <ROCS_ShapeQuery>
A71EV2A-x0451_0A_A71EV2A-x0310_0A_A71EV2A-x0416_0A_peptide

> <ROCS_TanimotoCombo>
0.422 

> <ROCS_ShapeTanimoto>
0.259 

> <ROCS_ColorTanimoto>
0.163 

> <ROCS_RefTversky>
0.237 

> <ROCS_RefColorTversky>
0.169 

> <ROCS_RefTverskyCombo>
0.406 

> <ROCS_FitTversky>
1.564 

> <ROCS_FitColorTversky>
0.812 

> <ROCS_FitTverskyCombo>
2.376 

> <ROCS_ColorScore>
-5.144

> <ROCS_Overlap>
1639.544

> <ROCS_Rank>
241                 

$$$$
untitled-dbase-991_188
  -OEChem-11112309163D

 34 36  0     0  0  0  0  0  0999 V2000
    9.0632    9.7023   23.6702 C   0  0  0  0  0  0  0  0  0  0  0  0
    7.8785    9.8653   24.3982 C   0  0  0  0  0  0  0  0  0  0  0  0
    8.1182   12.2834   24.3491 C   0  0  0  0  0  0  0  0  0  0  0  0
    9.7781   10.8287   23.2918 C   0  0  0  0  0  0  0  0  0  0  0  0
    7.4113   11.1466   24.7360 C   0  0  0  0  0  0  0  0  0  0  0  0
    9.2770   12.0869   23.6251 C   0  0  0  0  0  0  0  0  0  0  0  0
   11.0371   10.8387   22.4710 C   0  0  0  0  0  0  0  0  0  0  0  0
    3.7143   12.3553   28.4425 C   0  0  0  0  0  0  0  0  0  0  0  0
    4.6208   11.1525   28.1221 C   0  0  0  0  0  0  0  0  0  0  0  0
    4.9920   13.2033   28.5817 C   0  0  0  0  0  0  0  0  0  0  0  0
   11.6891   12.2104   22.6915 C   0  0  0  0  0  0  0  0  0  0  0  0
    5.7144   12.1634   27.6833 C   0  0  0  0  0  0  0  0  0  0  0  0
    5.8842   12.4638   26.2053 C   0  0  0  0  0  0  0  0  0  0  0  0
    6.2148   11.2813   25.4733 N   0  0  0  0  0  0  0  0  0  0  0  0
   10.7191   14.1568   24.2203 O   0  0  0  0  0  0  0  0  0  0  0  0
    9.8008   13.8919   21.8564 O   0  0  0  0  0  0  0  0  0  0  0  0
   10.3482   13.3478   23.0799 S   0  0  0  0  0  0  0  0  0  0  0  0
    9.4112    8.7077   23.4107 H   0  0  0  0  0  0  0  0  0  0  0  0
    7.3206    8.9828   24.7033 H   0  0  0  0  0  0  0  0  0  0  0  0
    7.7739   13.2797   24.6042 H   0  0  0  0  0  0  0  0  0  0  0  0
   11.6992   10.0439   22.8328 H   0  0  0  0  0  0  0  0  0  0  0  0
   10.8361   10.6737   21.4082 H   0  0  0  0  0  0  0  0  0  0  0  0
    3.0249   12.6589   27.6482 H   0  0  0  0  0  0  0  0  0  0  0  0
    3.1511   12.2474   29.3786 H   0  0  0  0  0  0  0  0  0  0  0  0
    4.8792   10.5146   28.9742 H   0  0  0  0  0  0  0  0  0  0  0  0
    4.2360   10.5172   27.3127 H   0  0  0  0  0  0  0  0  0  0  0  0
    4.9040   14.2047   28.1387 H   0  0  0  0  0  0  0  0  0  0  0  0
    5.3835   13.3047   29.5995 H   0  0  0  0  0  0  0  0  0  0  0  0
   12.4235   12.2074   23.4994 H   0  0  0  0  0  0  0  0  0  0  0  0
   12.1547   12.5689   21.7674 H   0  0  0  0  0  0  0  0  0  0  0  0
    6.7139   11.8855   28.1174 H   0  0  0  0  0  0  0  0  0  0  0  0
    4.9437   12.8779   25.8127 H   0  0  0  0  0  0  0  0  0  0  0  0
    6.6905   13.2013   26.0791 H   0  0  0  0  0  0  0  0  0  0  0  0
    5.5886   10.4993   25.4674 H   0  0  0  0  0  0  0  0  0  0  0  0
  1  2  1  0  0  0  0
  1  4  2  0  0  0  0
  2  5  2  0  0  0  0
  3  5  1  0  0  0  0
  3  6  2  0  0  0  0
  4  6  1  0  0  0  0
  4  7  1  0  0  0  0
  5 14  1  0  0  0  0
  6 17  1  0  0  0  0
  7 11  1  0  0  0  0
  8  9  1  0  0  0  0
  8 10  1  0  0  0  0
  9 12  1  0  0  0  0
 10 12  1  0  0  0  0
 11 17  1  0  0  0  0
 12 13  1  0  0  0  0
 13 14  1  0  0  0  0
 15 17  2  0  0  0  0
 16 17  2  0  0  0  0
  1 18  1  0  0  0  0
  2 19  1  0  0  0  0
  3 20  1  0  0  0  0
  7 21  1  0  0  0  0
  7 22  1  0  0  0  0
  8 23  1  0  0  0  0
  8 24  1  0  0  0  0
  9 25  1  0  0  0  0
  9 26  1  0  0  0  0
 10 27  1  0  0  0  0
 10 28  1  0  0  0  0
 11 29  1  0  0  0  0
 11 30  1  0  0  0  0
 12 31  1  0  0  0  0
 13 32  1  0  0  0  0
 13 33  1  0  0  0  0
 14 34  1  0  0  0  0
M  END
> <Catalog ID>
Z1507416588

> <PlateID>
1337959-R-13

> <Well>
D06

> <MW (desalted)>
251.345

> <CLogP>
2.423

> <HBD>
1

> <TPSA>
46.170

> <RotBonds>
3

> <ROCS_ShapeQuery>
A71EV2A-x0451_0A_A71EV2A-x0310_0A_A71EV2A-x0416_0A_peptide

> <ROCS_TanimotoCombo>
0.421 

> <ROCS_ShapeTanimoto>
0.291 

> <ROCS_ColorTanimoto>
0.131 

> <ROCS_RefTversky>
0.260 

> <ROCS_RefColorTversky>
0.143 

> <ROCS_RefTverskyCombo>
0.403 

> <ROCS_FitTversky>
1.699 

> <ROCS_FitColorTversky>
0.598 

> <ROCS_FitTverskyCombo>
2.297 

> <ROCS_ColorScore>
-4.364

> <ROCS_Overlap>
1799.498

> <ROCS_Rank>
242                 

$$$$
untitled-dbase-636_21
  -OEChem-11112309163D

 35 36  0     1  0  0  0  0  0999 V2000
    9.7247   10.4754   23.4392 C   0  0  0  0  0  0  0  0  0  0  0  0
    8.5885    9.6666   23.4562 C   0  0  0  0  0  0  0  0  0  0  0  0
    7.2989   11.4974   24.3631 C   0  0  0  0  0  0  0  0  0  0  0  0
    8.4352   12.3062   24.3461 C   0  0  0  0  0  0  0  0  0  0  0  0
    9.6482   11.7952   23.8842 C   0  0  0  0  0  0  0  0  0  0  0  0
    7.3755   10.1776   23.9181 C   0  0  0  0  0  0  0  0  0  0  0  0
   11.6936   13.4978   19.9225 C   0  0  0  0  0  0  0  0  0  0  0  0
   11.2632   14.9575   19.8046 C   0  0  0  0  0  0  0  0  0  0  0  0
   12.0972   13.1531   21.3518 C   0  0  0  0  0  0  0  0  0  0  0  0
   10.5866   14.9058   22.2346 C   0  0  0  0  0  0  0  0  0  0  0  0
   10.1596   15.2807   20.8151 C   0  0  1  0  0  0  0  0  0  0  0  0
    8.3192   13.7150   24.8285 C   0  0  0  0  0  0  0  0  0  0  0  0
   10.9693   13.4633   22.2785 N   0  0  2  0  0  0  0  0  0  0  0  0
    9.7958   16.6748   20.7469 N   0  0  0  0  0  0  0  0  0  0  0  0
   10.9477   13.8428   24.8286 O   0  0  0  0  0  0  0  0  0  0  0  0
   12.2505   11.9053   23.8815 O   0  0  0  0  0  0  0  0  0  0  0  0
   11.1059   12.7899   23.8488 S   0  0  0  0  0  0  0  0  0  0  0  0
    5.9737    9.1787   23.9398 Cl  0  0  0  0  0  0  0  0  0  0  0  0
   10.6641   10.0660   23.0768 H   0  0  0  0  0  0  0  0  0  0  0  0
    8.6627    8.6402   23.1065 H   0  0  0  0  0  0  0  0  0  0  0  0
    6.3548   11.8994   24.7242 H   0  0  0  0  0  0  0  0  0  0  0  0
   10.8715   12.8464   19.6066 H   0  0  0  0  0  0  0  0  0  0  0  0
   12.5323   13.3013   19.2446 H   0  0  0  0  0  0  0  0  0  0  0  0
   12.1240   15.6136   19.9435 H   0  0  0  0  0  0  0  0  0  0  0  0
   10.8821   15.1343   18.7961 H   0  0  0  0  0  0  0  0  0  0  0  0
   12.3641   12.0933   21.4355 H   0  0  0  0  0  0  0  0  0  0  0  0
   12.9722   13.7516   21.6279 H   0  0  0  0  0  0  0  0  0  0  0  0
   11.4347   15.5224   22.5485 H   0  0  0  0  0  0  0  0  0  0  0  0
    9.7626   15.0814   22.9346 H   0  0  0  0  0  0  0  0  0  0  0  0
    9.2722   14.6905   20.5525 H   0  0  0  0  0  0  0  0  0  0  0  0
    8.5225   13.7660   25.9043 H   0  0  0  0  0  0  0  0  0  0  0  0
    9.0265   14.3718   24.3073 H   0  0  0  0  0  0  0  0  0  0  0  0
    7.3149   14.1158   24.6429 H   0  0  0  0  0  0  0  0  0  0  0  0
    9.5005   16.8670   19.8213 H   0  0  0  0  0  0  0  0  0  0  0  0
    9.0616   16.8287   21.3937 H   0  0  0  0  0  0  0  0  0  0  0  0
  1  2  1  0  0  0  0
  1  5  2  0  0  0  0
  2  6  2  0  0  0  0
  3  4  2  0  0  0  0
  3  6  1  0  0  0  0
  4  5  1  0  0  0  0
  4 12  1  0  0  0  0
  5 17  1  0  0  0  0
  6 18  1  0  0  0  0
  7  8  1  0  0  0  0
  7  9  1  0  0  0  0
  8 11  1  0  0  0  0
  9 13  1  0  0  0  0
 10 11  1  0  0  0  0
 10 13  1  0  0  0  0
 11 14  1  0  0  0  0
 13 17  1  0  0  0  0
 15 17  2  0  0  0  0
 16 17  2  0  0  0  0
  1 19  1  0  0  0  0
  2 20  1  0  0  0  0
  3 21  1  0  0  0  0
  7 22  1  0  0  0  0
  7 23  1  0  0  0  0
  8 24  1  0  0  0  0
  8 25  1  0  0  0  0
  9 26  1  0  0  0  0
  9 27  1  0  0  0  0
 10 28  1  0  0  0  0
 10 29  1  0  0  0  0
 11 30  1  0  0  0  0
 12 31  1  0  0  0  0
 12 32  1  0  0  0  0
 12 33  1  0  0  0  0
 14 34  1  0  0  0  0
 14 35  1  0  0  0  0
M  END
> <Catalog ID>
Z1491212858

> <PlateID>
1337959-R-08

> <Well>
H09

> <MW (desalted)>
288.794

> <CLogP>
2.590

> <HBD>
1

> <TPSA>
63.400

> <RotBonds>
1

> <ROCS_ShapeQuery>
A71EV2A-x0451_0A_A71EV2A-x0310_0A_A71EV2A-x0416_0A_peptide

> <ROCS_TanimotoCombo>
0.421 

> <ROCS_ShapeTanimoto>
0.277 

> <ROCS_ColorTanimoto>
0.144 

> <ROCS_RefTversky>
0.251 

> <ROCS_RefColorTversky>
0.156 

> <ROCS_RefTverskyCombo>
0.407 

> <ROCS_FitTversky>
1.610 

> <ROCS_FitColorTversky>
0.652 

> <ROCS_FitTverskyCombo>
2.261 

> <ROCS_ColorScore>
-4.750

> <ROCS_Overlap>
1739.257

> <ROCS_Rank>
243                 

$$$$
untitled-dbase-1081_73
  -OEChem-11112309163D

 27 28  0     0  0  0  0  0  0999 V2000
   11.8007   14.4138   19.4244 C   0  0  0  0  0  0  0  0  0  0  0  0
   12.4639   14.9084   20.5474 C   0  0  0  0  0  0  0  0  0  0  0  0
   10.2417   13.2505   20.8573 C   0  0  0  0  0  0  0  0  0  0  0  0
   10.9050   13.7450   21.9803 C   0  0  0  0  0  0  0  0  0  0  0  0
   10.6896   13.5849   19.5793 C   0  0  0  0  0  0  0  0  0  0  0  0
   12.0161   14.5739   21.8253 C   0  0  0  0  0  0  0  0  0  0  0  0
    7.9718   10.7742   24.6165 C   0  0  0  0  0  0  0  0  0  0  0  0
   10.4291   13.3907   23.3269 C   0  0  0  0  0  0  0  0  0  0  0  0
    8.7749   12.0610   24.5475 C   0  0  0  0  0  0  0  0  0  0  0  0
    9.9164    9.7002   23.5458 C   0  0  0  0  0  0  0  0  0  0  0  0
   10.0866   10.9535   22.7132 C   0  0  0  0  0  0  0  0  0  0  0  0
    8.5863    9.6556   24.1017 N   0  0  0  0  0  0  0  0  0  0  0  0
    9.7984   12.1523   23.5077 N   0  0  0  0  0  0  0  0  0  0  0  0
    6.8886   10.7317   25.2002 O   0  0  0  0  0  0  0  0  0  0  0  0
   10.6147   14.2239   24.2136 O   0  0  0  0  0  0  0  0  0  0  0  0
   10.0521   13.1104   18.5010 F   0  0  0  0  0  0  0  0  0  0  0  0
   12.6609   15.0553   22.8975 F   0  0  0  0  0  0  0  0  0  0  0  0
   12.1488   14.6739   18.4291 H   0  0  0  0  0  0  0  0  0  0  0  0
   13.3281   15.5547   20.4264 H   0  0  0  0  0  0  0  0  0  0  0  0
    9.3749   12.6038   20.9656 H   0  0  0  0  0  0  0  0  0  0  0  0
    8.0684   12.8891   24.3709 H   0  0  0  0  0  0  0  0  0  0  0  0
    9.2307   12.2209   25.5373 H   0  0  0  0  0  0  0  0  0  0  0  0
   10.0565    8.8073   22.9356 H   0  0  0  0  0  0  0  0  0  0  0  0
   10.6261    9.6758   24.3749 H   0  0  0  0  0  0  0  0  0  0  0  0
   11.1094   10.9999   22.3047 H   0  0  0  0  0  0  0  0  0  0  0  0
    9.4019   10.9563   21.8472 H   0  0  0  0  0  0  0  0  0  0  0  0
    8.0931    8.7835   24.1141 H   0  0  0  0  0  0  0  0  0  0  0  0
  1  2  1  0  0  0  0
  1  5  2  0  0  0  0
  2  6  2  0  0  0  0
  3  4  2  0  0  0  0
  3  5  1  0  0  0  0
  4  6  1  0  0  0  0
  4  8  1  0  0  0  0
  5 16  1  0  0  0  0
  6 17  1  0  0  0  0
  7  9  1  0  0  0  0
  7 12  1  0  0  0  0
  7 14  2  0  0  0  0
  8 13  1  0  0  0  0
  8 15  2  0  0  0  0
  9 13  1  0  0  0  0
 10 11  1  0  0  0  0
 10 12  1  0  0  0  0
 11 13  1  0  0  0  0
  1 18  1  0  0  0  0
  2 19  1  0  0  0  0
  3 20  1  0  0  0  0
  9 21  1  0  0  0  0
  9 22  1  0  0  0  0
 10 23  1  0  0  0  0
 10 24  1  0  0  0  0
 11 25  1  0  0  0  0
 11 26  1  0  0  0  0
 12 27  1  0  0  0  0
M  END
> <Catalog ID>
Z82839488

> <PlateID>
1337959-R-14

> <Well>
E07

> <MW (desalted)>
240.206

> <CLogP>
0.949

> <HBD>
1

> <TPSA>
49.410

> <RotBonds>
1

> <ROCS_ShapeQuery>
A71EV2A-x0451_0A_A71EV2A-x0310_0A_A71EV2A-x0416_0A_peptide

> <ROCS_TanimotoCombo>
0.421 

> <ROCS_ShapeTanimoto>
0.280 

> <ROCS_ColorTanimoto>
0.141 

> <ROCS_RefTversky>
0.253 

> <ROCS_RefColorTversky>
0.149 

> <ROCS_RefTverskyCombo>
0.403 

> <ROCS_FitTversky>
1.610 

> <ROCS_FitColorTversky>
0.716 

> <ROCS_FitTverskyCombo>
2.326 

> <ROCS_ColorScore>
-4.538

> <ROCS_Overlap>
1755.917

> <ROCS_Rank>
244                 

$$$$
untitled-dbase-685_194
  -OEChem-11112309163D

 39 40  0     1  0  0  0  0  0999 V2000
    9.0089   11.9926   23.9424 C   0  0  0  0  0  0  0  0  0  0  0  0
    9.2149   10.6058   23.6918 C   0  0  0  0  0  0  0  0  0  0  0  0
    7.8319   12.1788   24.6345 C   0  0  0  0  0  0  0  0  0  0  0  0
    9.8932   13.0838   23.5398 C   0  0  0  0  0  0  0  0  0  0  0  0
    9.6839   12.4440   19.8656 C   0  0  0  0  0  0  0  0  0  0  0  0
   10.5274   13.5515   19.2309 C   0  0  0  0  0  0  0  0  0  0  0  0
    9.0966   12.8617   21.2065 C   0  0  0  0  0  0  0  0  0  0  0  0
   11.3562   13.8627   21.6021 C   0  0  0  0  0  0  0  0  0  0  0  0
   11.0822   14.5493   20.2598 C   0  0  1  0  0  0  0  0  0  0  0  0
   10.3721   10.0286   22.9734 C   0  0  0  0  0  0  0  0  0  0  0  0
   12.0631   15.9585   18.4439 C   0  0  0  0  0  0  0  0  0  0  0  0
    6.0114   13.4305   25.7940 C   0  0  0  0  0  0  0  0  0  0  0  0
   12.3326   15.2447   19.7278 C   0  0  0  0  0  0  0  0  0  0  0  0
    8.2899    9.7614   24.1419 N   0  0  0  0  0  0  0  0  0  0  0  0
   10.1401   13.2468   22.1614 N   0  0  0  0  0  0  0  0  0  0  0  0
    7.2735   13.3360   25.0639 N   0  0  0  0  0  0  0  0  0  0  0  0
   10.4026   13.8197   24.3878 O   0  0  0  0  0  0  0  0  0  0  0  0
    7.1092   10.6493   24.9032 S   0  0  0  0  0  0  0  0  0  0  0  0
    8.8698   12.1648   19.1783 H   0  0  0  0  0  0  0  0  0  0  0  0
   10.3023   11.5437   19.9963 H   0  0  0  0  0  0  0  0  0  0  0  0
   11.3615   13.0903   18.6702 H   0  0  0  0  0  0  0  0  0  0  0  0
    9.9191   14.0858   18.4793 H   0  0  0  0  0  0  0  0  0  0  0  0
    8.3829   13.6862   21.0602 H   0  0  0  0  0  0  0  0  0  0  0  0
    8.5318   12.0304   21.6582 H   0  0  0  0  0  0  0  0  0  0  0  0
   12.0981   13.0553   21.4856 H   0  0  0  0  0  0  0  0  0  0  0  0
   11.7948   14.5843   22.3056 H   0  0  0  0  0  0  0  0  0  0  0  0
   10.3141   15.3336   20.4258 H   0  0  0  0  0  0  0  0  0  0  0  0
   11.1899    9.7900   23.6710 H   0  0  0  0  0  0  0  0  0  0  0  0
   10.1033    9.1031   22.4386 H   0  0  0  0  0  0  0  0  0  0  0  0
   10.7686   10.7197   22.2116 H   0  0  0  0  0  0  0  0  0  0  0  0
   11.7041   15.2438   17.6940 H   0  0  0  0  0  0  0  0  0  0  0  0
   12.9751   16.4262   18.0578 H   0  0  0  0  0  0  0  0  0  0  0  0
   11.2933   16.7259   18.5777 H   0  0  0  0  0  0  0  0  0  0  0  0
    5.5942   12.4230   25.9381 H   0  0  0  0  0  0  0  0  0  0  0  0
    6.1891   13.8973   26.7741 H   0  0  0  0  0  0  0  0  0  0  0  0
    5.3006   14.0429   25.2197 H   0  0  0  0  0  0  0  0  0  0  0  0
   12.6906   15.9573   20.4756 H   0  0  0  0  0  0  0  0  0  0  0  0
   13.1181   14.5000   19.5755 H   0  0  0  0  0  0  0  0  0  0  0  0
    7.7465   14.2305   24.8773 H   0  0  0  0  0  0  0  0  0  0  0  0
  1  2  1  0  0  0  0
  1  3  2  0  0  0  0
  1  4  1  0  0  0  0
  2 10  1  0  0  0  0
  2 14  2  0  0  0  0
  3 16  1  0  0  0  0
  3 18  1  0  0  0  0
  4 15  1  0  0  0  0
  4 17  2  0  0  0  0
  5  6  1  0  0  0  0
  5  7  1  0  0  0  0
  6  9  1  0  0  0  0
  7 15  1  0  0  0  0
  8  9  1  0  0  0  0
  8 15  1  0  0  0  0
  9 13  1  0  0  0  0
 11 13  1  0  0  0  0
 12 16  1  0  0  0  0
 14 18  1  0  0  0  0
  5 19  1  0  0  0  0
  5 20  1  0  0  0  0
  6 21  1  0  0  0  0
  6 22  1  0  0  0  0
  7 23  1  0  0  0  0
  7 24  1  0  0  0  0
  8 25  1  0  0  0  0
  8 26  1  0  0  0  0
  9 27  1  0  0  0  0
 10 28  1  0  0  0  0
 10 29  1  0  0  0  0
 10 30  1  0  0  0  0
 11 31  1  0  0  0  0
 11 32  1  0  0  0  0
 11 33  1  0  0  0  0
 12 34  1  0  0  0  0
 12 35  1  0  0  0  0
 12 36  1  0  0  0  0
 13 37  1  0  0  0  0
 13 38  1  0  0  0  0
 16 39  1  0  0  0  0
M  END
> <Catalog ID>
Z384024470

> <PlateID>
1337959-R-09

> <Well>
E08

> <MW (desalted)>
267.390

> <CLogP>
2.482

> <HBD>
1

> <TPSA>
45.230

> <RotBonds>
3

> <ROCS_ShapeQuery>
A71EV2A-x0451_0A_A71EV2A-x0310_0A_A71EV2A-x0416_0A_peptide

> <ROCS_TanimotoCombo>
0.421 

> <ROCS_ShapeTanimoto>
0.274 

> <ROCS_ColorTanimoto>
0.147 

> <ROCS_RefTversky>
0.249 

> <ROCS_RefColorTversky>
0.159 

> <ROCS_RefTverskyCombo>
0.408 

> <ROCS_FitTversky>
1.583 

> <ROCS_FitColorTversky>
0.665 

> <ROCS_FitTverskyCombo>
2.247 

> <ROCS_ColorScore>
-4.843

> <ROCS_Overlap>
1724.573

> <ROCS_Rank>
245                 

$$$$
untitled-dbase-619_140
  -OEChem-11112309163D

 34 34  0     1  0  0  0  0  0999 V2000
   10.4559   13.5242   23.4130 C   0  0  0  0  0  0  0  0  0  0  0  0
    7.5609   11.4247   24.3133 C   0  0  0  0  0  0  0  0  0  0  0  0
    8.0215    9.9800   24.1074 C   0  0  0  0  0  0  0  0  0  0  0  0
    8.7071   12.3483   24.7021 C   0  0  0  0  0  0  0  0  0  0  0  0
   10.0291   11.0648   23.0098 C   0  0  0  0  0  0  0  0  0  0  0  0
    9.5253    9.8623   23.8145 C   0  0  2  0  0  0  0  0  0  0  0  0
    9.8420    8.5489   23.1036 C   0  0  0  0  0  0  0  0  0  0  0  0
   11.0188   13.7986   20.9890 C   0  0  0  0  0  0  0  0  0  0  0  0
   13.7270   14.8540   21.4037 C   0  0  0  0  0  0  0  0  0  0  0  0
   11.5363   13.4365   22.3628 C   0  0  1  0  0  0  0  0  0  0  0  0
    9.7660   12.3420   23.6893 N   0  0  0  0  0  0  0  0  0  0  0  0
   10.2358   14.6016   23.9714 O   0  0  0  0  0  0  0  0  0  0  0  0
   12.1857   15.7903   23.2959 O   0  0  0  0  0  0  0  0  0  0  0  0
   13.6820   13.8221   23.8049 O   0  0  0  0  0  0  0  0  0  0  0  0
   12.8054   14.5384   22.8923 S   0  0  0  0  0  0  0  0  0  0  0  0
    7.0865   11.7914   23.3898 H   0  0  0  0  0  0  0  0  0  0  0  0
    6.7825   11.4540   25.0933 H   0  0  0  0  0  0  0  0  0  0  0  0
    7.7658    9.3867   25.0044 H   0  0  0  0  0  0  0  0  0  0  0  0
    7.4425    9.5326   23.2773 H   0  0  0  0  0  0  0  0  0  0  0  0
    8.3527   13.3845   24.7960 H   0  0  0  0  0  0  0  0  0  0  0  0
    9.1038   12.0551   25.6823 H   0  0  0  0  0  0  0  0  0  0  0  0
   11.0993   10.9399   22.7914 H   0  0  0  0  0  0  0  0  0  0  0  0
    9.5236   11.1175   22.0296 H   0  0  0  0  0  0  0  0  0  0  0  0
   10.0621    9.8499   24.7832 H   0  0  0  0  0  0  0  0  0  0  0  0
    9.3325    8.5173   22.1417 H   0  0  0  0  0  0  0  0  0  0  0  0
    9.5076    7.7098   23.7117 H   0  0  0  0  0  0  0  0  0  0  0  0
   10.9155    8.4662   22.9413 H   0  0  0  0  0  0  0  0  0  0  0  0
   10.5933   14.8084   20.9636 H   0  0  0  0  0  0  0  0  0  0  0  0
   11.8368   13.7709   20.2611 H   0  0  0  0  0  0  0  0  0  0  0  0
   10.2463   13.0973   20.6562 H   0  0  0  0  0  0  0  0  0  0  0  0
   14.5439   15.5368   21.6427 H   0  0  0  0  0  0  0  0  0  0  0  0
   14.1178   13.9052   21.0330 H   0  0  0  0  0  0  0  0  0  0  0  0
   13.0547   15.3033   20.6713 H   0  0  0  0  0  0  0  0  0  0  0  0
   11.9544   12.4319   22.3684 H   0  0  0  0  0  0  0  0  0  0  0  0
  1 10  1  0  0  0  0
  1 11  1  0  0  0  0
  1 12  2  0  0  0  0
  2  3  1  0  0  0  0
  2  4  1  0  0  0  0
  3  6  1  0  0  0  0
  4 11  1  0  0  0  0
  5  6  1  0  0  0  0
  5 11  1  0  0  0  0
  6  7  1  0  0  0  0
  8 10  1  0  0  0  0
  9 15  1  0  0  0  0
 10 15  1  0  0  0  0
 13 15  2  0  0  0  0
 14 15  2  0  0  0  0
  2 16  1  0  0  0  0
  2 17  1  0  0  0  0
  3 18  1  0  0  0  0
  3 19  1  0  0  0  0
  4 20  1  0  0  0  0
  4 21  1  0  0  0  0
  5 22  1  0  0  0  0
  5 23  1  0  0  0  0
  6 24  1  0  0  0  0
  7 25  1  0  0  0  0
  7 26  1  0  0  0  0
  7 27  1  0  0  0  0
  8 28  1  0  0  0  0
  8 29  1  0  0  0  0
  8 30  1  0  0  0  0
  9 31  1  0  0  0  0
  9 32  1  0  0  0  0
  9 33  1  0  0  0  0
 10 34  1  0  0  0  0
M  END
> <Catalog ID>
Z415029836

> <PlateID>
1337959-R-08

> <Well>
G02

> <MW (desalted)>
233.328

> <CLogP>
0.242

> <HBD>
0

> <TPSA>
54.450

> <RotBonds>
2

> <ROCS_ShapeQuery>
A71EV2A-x0451_0A_A71EV2A-x0310_0A_A71EV2A-x0416_0A_peptide

> <ROCS_TanimotoCombo>
0.421 

> <ROCS_ShapeTanimoto>
0.268 

> <ROCS_ColorTanimoto>
0.154 

> <ROCS_RefTversky>
0.240 

> <ROCS_RefColorTversky>
0.157 

> <ROCS_RefTverskyCombo>
0.397 

> <ROCS_FitTversky>
1.761 

> <ROCS_FitColorTversky>
0.882 

> <ROCS_FitTverskyCombo>
2.643 

> <ROCS_ColorScore>
-4.754

> <ROCS_Overlap>
1661.039

> <ROCS_Rank>
246                 

$$$$
untitled-dbase-566_74
  -OEChem-11112309163D

 35 36  0     1  0  0  0  0  0999 V2000
    7.2729   11.3894   24.6673 C   0  0  0  0  0  0  0  0  0  0  0  0
    7.3513   10.0325   24.3542 C   0  0  0  0  0  0  0  0  0  0  0  0
    8.3645   12.2245   24.4289 C   0  0  0  0  0  0  0  0  0  0  0  0
    8.5214    9.5105   23.8027 C   0  0  0  0  0  0  0  0  0  0  0  0
    9.5346   11.7024   23.8775 C   0  0  0  0  0  0  0  0  0  0  0  0
    9.6130   10.3454   23.5643 C   0  0  0  0  0  0  0  0  0  0  0  0
    9.2227   14.4396   20.2605 C   0  0  0  0  0  0  0  0  0  0  0  0
    9.2072   15.2976   22.6259 C   0  0  0  0  0  0  0  0  0  0  0  0
   10.1246   15.6186   19.8922 C   0  0  0  0  0  0  0  0  0  0  0  0
   10.1004   16.4500   22.1621 C   0  0  0  0  0  0  0  0  0  0  0  0
    9.3466   14.0581   21.7376 C   0  0  0  0  0  0  0  0  0  0  0  0
   10.9674   12.4754   20.8661 C   0  0  0  0  0  0  0  0  0  0  0  0
    9.8727   16.7734   20.7540 N   0  0  0  0  0  0  0  0  0  0  0  0
   10.5900   13.3669   21.9913 N   0  0  2  0  0  0  0  0  0  0  0  0
   10.7389   13.9162   24.5238 O   0  0  0  0  0  0  0  0  0  0  0  0
   12.1034   12.0193   23.6163 O   0  0  0  0  0  0  0  0  0  0  0  0
   10.8870   12.8106   23.5954 S   0  0  0  0  0  0  0  0  0  0  0  0
   11.0377    9.6491   22.8804 Cl  0  0  0  0  0  0  0  0  0  0  0  0
    6.3616   11.7960   25.0959 H   0  0  0  0  0  0  0  0  0  0  0  0
    6.5012    9.3826   24.5393 H   0  0  0  0  0  0  0  0  0  0  0  0
    8.2894   13.2798   24.6772 H   0  0  0  0  0  0  0  0  0  0  0  0
    8.5652    8.4506   23.5645 H   0  0  0  0  0  0  0  0  0  0  0  0
    8.1795   14.7088   20.0492 H   0  0  0  0  0  0  0  0  0  0  0  0
    9.4649   13.5824   19.6208 H   0  0  0  0  0  0  0  0  0  0  0  0
    9.4423   15.0520   23.6685 H   0  0  0  0  0  0  0  0  0  0  0  0
    8.1609   15.6301   22.6065 H   0  0  0  0  0  0  0  0  0  0  0  0
   11.1809   15.3288   19.9467 H   0  0  0  0  0  0  0  0  0  0  0  0
    9.9285   15.9055   18.8531 H   0  0  0  0  0  0  0  0  0  0  0  0
    9.8805   17.3364   22.7673 H   0  0  0  0  0  0  0  0  0  0  0  0
   11.1570   16.2073   22.3276 H   0  0  0  0  0  0  0  0  0  0  0  0
    8.5159   13.3519   21.9872 H   0  0  0  0  0  0  0  0  0  0  0  0
   11.9164   11.9706   21.0999 H   0  0  0  0  0  0  0  0  0  0  0  0
   10.1796   11.7228   20.7146 H   0  0  0  0  0  0  0  0  0  0  0  0
   11.0857   13.0719   19.9495 H   0  0  0  0  0  0  0  0  0  0  0  0
   10.4897   17.5379   20.4810 H   0  0  0  0  0  0  0  0  0  0  0  0
  1  2  2  0  0  0  0
  1  3  1  0  0  0  0
  2  4  1  0  0  0  0
  3  5  2  0  0  0  0
  4  6  2  0  0  0  0
  5  6  1  0  0  0  0
  5 17  1  0  0  0  0
  6 18  1  0  0  0  0
  7  9  1  0  0  0  0
  7 11  1  0  0  0  0
  8 10  1  0  0  0  0
  8 11  1  0  0  0  0
  9 13  1  0  0  0  0
 10 13  1  0  0  0  0
 11 14  1  0  0  0  0
 12 14  1  0  0  0  0
 14 17  1  0  0  0  0
 15 17  2  0  0  0  0
 16 17  2  0  0  0  0
  1 19  1  0  0  0  0
  2 20  1  0  0  0  0
  3 21  1  0  0  0  0
  4 22  1  0  0  0  0
  7 23  1  0  0  0  0
  7 24  1  0  0  0  0
  8 25  1  0  0  0  0
  8 26  1  0  0  0  0
  9 27  1  0  0  0  0
  9 28  1  0  0  0  0
 10 29  1  0  0  0  0
 10 30  1  0  0  0  0
 11 31  1  0  0  0  0
 12 32  1  0  0  0  0
 12 33  1  0  0  0  0
 12 34  1  0  0  0  0
 13 35  1  0  0  0  0
M  END
> <Catalog ID>
Z1491244885

> <PlateID>
1337959-R-08

> <Well>
A08

> <MW (desalted)>
288.794

> <CLogP>
1.362

> <HBD>
1

> <TPSA>
49.410

> <RotBonds>
2

> <ROCS_ShapeQuery>
A71EV2A-x0451_0A_A71EV2A-x0310_0A_A71EV2A-x0416_0A_peptide

> <ROCS_TanimotoCombo>
0.421 

> <ROCS_ShapeTanimoto>
0.264 

> <ROCS_ColorTanimoto>
0.157 

> <ROCS_RefTversky>
0.242 

> <ROCS_RefColorTversky>
0.168 

> <ROCS_RefTverskyCombo>
0.410 

> <ROCS_FitTversky>
1.552 

> <ROCS_FitColorTversky>
0.700 

> <ROCS_FitTverskyCombo>
2.252 

> <ROCS_ColorScore>
-5.105

> <ROCS_Overlap>
1676.254

> <ROCS_Rank>
247                 

$$$$
untitled-dbase-595_10
  -OEChem-11112309163D

 37 38  0     1  0  0  0  0  0999 V2000
    7.2821   11.6679   24.0032 C   0  0  0  0  0  0  0  0  0  0  0  0
    7.0745   10.4968   24.7319 C   0  0  0  0  0  0  0  0  0  0  0  0
    8.5530   11.9685   23.5132 C   0  0  0  0  0  0  0  0  0  0  0  0
    8.1379    9.6263   24.9708 C   0  0  0  0  0  0  0  0  0  0  0  0
    9.6164   11.0980   23.7521 C   0  0  0  0  0  0  0  0  0  0  0  0
    9.4089    9.9269   24.4809 C   0  0  0  0  0  0  0  0  0  0  0  0
   10.9024   13.9442   23.1230 C   0  0  0  0  0  0  0  0  0  0  0  0
   11.1095   11.0176   20.8385 C   0  0  0  0  0  0  0  0  0  0  0  0
   11.5039   10.4238   22.1867 C   0  0  0  0  0  0  0  0  0  0  0  0
   11.2586   12.5153   21.0579 C   0  0  0  0  0  0  0  0  0  0  0  0
   10.9916   11.4456   23.2075 C   0  0  1  0  0  0  0  0  0  0  0  0
   10.5322    8.9800   24.7498 C   0  0  0  0  0  0  0  0  0  0  0  0
   11.0860   15.1546   22.2429 C   0  0  0  0  0  0  0  0  0  0  0  0
    9.7511   15.6055   21.6823 C   0  0  0  0  0  0  0  0  0  0  0  0
   10.9941   12.7184   22.4805 N   0  0  0  0  0  0  0  0  0  0  0  0
    9.9141   16.7582   20.8265 N   0  0  0  0  0  0  0  0  0  0  0  0
   10.6776   14.0786   24.3271 O   0  0  0  0  0  0  0  0  0  0  0  0
    6.4541   12.3457   23.8182 H   0  0  0  0  0  0  0  0  0  0  0  0
    6.0847   10.2636   25.1135 H   0  0  0  0  0  0  0  0  0  0  0  0
    8.7046   12.8843   22.9479 H   0  0  0  0  0  0  0  0  0  0  0  0
    7.9661    8.7161   25.5393 H   0  0  0  0  0  0  0  0  0  0  0  0
   11.7390   10.6502   20.0230 H   0  0  0  0  0  0  0  0  0  0  0  0
   10.0667   10.7709   20.6078 H   0  0  0  0  0  0  0  0  0  0  0  0
   11.1018    9.4147   22.3227 H   0  0  0  0  0  0  0  0  0  0  0  0
   12.5981   10.3662   22.2454 H   0  0  0  0  0  0  0  0  0  0  0  0
   12.2840   12.8454   20.8582 H   0  0  0  0  0  0  0  0  0  0  0  0
   10.5703   13.1017   20.4435 H   0  0  0  0  0  0  0  0  0  0  0  0
   11.6805   11.5249   24.0787 H   0  0  0  0  0  0  0  0  0  0  0  0
   10.6015    8.2355   23.9483 H   0  0  0  0  0  0  0  0  0  0  0  0
   11.4899    9.5104   24.8183 H   0  0  0  0  0  0  0  0  0  0  0  0
   10.3888    8.4556   25.7028 H   0  0  0  0  0  0  0  0  0  0  0  0
   11.7540   14.8553   21.4344 H   0  0  0  0  0  0  0  0  0  0  0  0
   11.5638   15.9325   22.8391 H   0  0  0  0  0  0  0  0  0  0  0  0
    9.3204   14.7902   21.0919 H   0  0  0  0  0  0  0  0  0  0  0  0
    9.0437   15.8499   22.4818 H   0  0  0  0  0  0  0  0  0  0  0  0
   10.5232   16.5214   20.0730 H   0  0  0  0  0  0  0  0  0  0  0  0
    9.0224   17.0276   20.4699 H   0  0  0  0  0  0  0  0  0  0  0  0
  1  2  2  0  0  0  0
  1  3  1  0  0  0  0
  2  4  1  0  0  0  0
  3  5  2  0  0  0  0
  4  6  2  0  0  0  0
  5  6  1  0  0  0  0
  5 11  1  0  0  0  0
  6 12  1  0  0  0  0
  7 13  1  0  0  0  0
  7 15  1  0  0  0  0
  7 17  2  0  0  0  0
  8  9  1  0  0  0  0
  8 10  1  0  0  0  0
  9 11  1  0  0  0  0
 10 15  1  0  0  0  0
 11 15  1  0  0  0  0
 13 14  1  0  0  0  0
 14 16  1  0  0  0  0
  1 18  1  0  0  0  0
  2 19  1  0  0  0  0
  3 20  1  0  0  0  0
  4 21  1  0  0  0  0
  8 22  1  0  0  0  0
  8 23  1  0  0  0  0
  9 24  1  0  0  0  0
  9 25  1  0  0  0  0
 10 26  1  0  0  0  0
 10 27  1  0  0  0  0
 11 28  1  0  0  0  0
 12 29  1  0  0  0  0
 12 30  1  0  0  0  0
 12 31  1  0  0  0  0
 13 32  1  0  0  0  0
 13 33  1  0  0  0  0
 14 34  1  0  0  0  0
 14 35  1  0  0  0  0
 16 36  1  0  0  0  0
 16 37  1  0  0  0  0
M  END
> <Catalog ID>
Z1450009630

> <PlateID>
1337959-R-08

> <Well>
D07

> <MW (desalted)>
232.321

> <CLogP>
1.407

> <HBD>
1

> <TPSA>
46.330

> <RotBonds>
3

> <ROCS_ShapeQuery>
A71EV2A-x0451_0A_A71EV2A-x0310_0A_A71EV2A-x0416_0A_peptide

> <ROCS_TanimotoCombo>
0.421 

> <ROCS_ShapeTanimoto>
0.259 

> <ROCS_ColorTanimoto>
0.162 

> <ROCS_RefTversky>
0.237 

> <ROCS_RefColorTversky>
0.168 

> <ROCS_RefTverskyCombo>
0.406 

> <ROCS_FitTversky>
1.542 

> <ROCS_FitColorTversky>
0.807 

> <ROCS_FitTverskyCombo>
2.349 

> <ROCS_ColorScore>
-5.115

> <ROCS_Overlap>
1644.758

> <ROCS_Rank>
248                 

$$$$
untitled-dbase-849_20
  -OEChem-11112309163D

 32 33  0     1  0  0  0  0  0999 V2000
    6.4907   12.1871   26.0499 C   0  0  0  0  0  0  0  0  0  0  0  0
    7.6481   12.9384   26.2188 C   0  0  0  0  0  0  0  0  0  0  0  0
    6.4748   11.1327   25.1389 C   0  0  0  0  0  0  0  0  0  0  0  0
    8.7924   12.6298   25.4831 C   0  0  0  0  0  0  0  0  0  0  0  0
    7.6161   10.8189   24.3826 C   0  0  0  0  0  0  0  0  0  0  0  0
    8.8020   11.5584   24.5691 C   0  0  0  0  0  0  0  0  0  0  0  0
   11.2237   11.0918   24.7211 C   0  0  0  0  0  0  0  0  0  0  0  0
   10.5307   13.6218   23.1686 C   0  0  0  0  0  0  0  0  0  0  0  0
    7.5458    9.6565   23.4239 C   0  0  0  0  0  0  0  0  0  0  0  0
    8.6570    9.6732   22.3794 C   0  0  0  0  0  0  0  0  0  0  0  0
   10.0065    9.8923   23.0557 C   0  0  0  0  0  0  0  0  0  0  0  0
   10.0509   11.2579   23.7627 C   0  0  1  0  0  0  0  0  0  0  0  0
   10.7652   14.5389   22.0145 C   0  0  0  0  0  0  0  0  0  0  0  0
   10.2998   12.3128   22.8021 N   0  0  0  0  0  0  0  0  0  0  0  0
   11.1403   10.6749   25.8668 O   0  0  0  0  0  0  0  0  0  0  0  0
   10.5583   14.0674   24.3098 O   0  0  0  0  0  0  0  0  0  0  0  0
   12.3824   11.4737   24.1304 O   0  0  0  0  0  0  0  0  0  0  0  0
    5.5998   12.4225   26.6245 H   0  0  0  0  0  0  0  0  0  0  0  0
    7.6624   13.7651   26.9230 H   0  0  0  0  0  0  0  0  0  0  0  0
    5.5620   10.5540   25.0170 H   0  0  0  0  0  0  0  0  0  0  0  0
    9.6818   13.2383   25.6301 H   0  0  0  0  0  0  0  0  0  0  0  0
    7.6074    8.7293   24.0075 H   0  0  0  0  0  0  0  0  0  0  0  0
    6.5793    9.6571   22.9057 H   0  0  0  0  0  0  0  0  0  0  0  0
    8.6606    8.7230   21.8334 H   0  0  0  0  0  0  0  0  0  0  0  0
    8.4725   10.4646   21.6426 H   0  0  0  0  0  0  0  0  0  0  0  0
   10.1781    9.0826   23.7795 H   0  0  0  0  0  0  0  0  0  0  0  0
   10.8153    9.8061   22.3182 H   0  0  0  0  0  0  0  0  0  0  0  0
    9.8321   14.9879   21.6378 H   0  0  0  0  0  0  0  0  0  0  0  0
   11.4121   15.3908   22.2790 H   0  0  0  0  0  0  0  0  0  0  0  0
   11.2404   14.0769   21.1343 H   0  0  0  0  0  0  0  0  0  0  0  0
   10.3046   12.0783   21.8166 H   0  0  0  0  0  0  0  0  0  0  0  0
   12.2408   11.7780   23.2086 H   0  0  0  0  0  0  0  0  0  0  0  0
  1  2  2  0  0  0  0
  1  3  1  0  0  0  0
  2  4  1  0  0  0  0
  3  5  2  0  0  0  0
  4  6  2  0  0  0  0
  5  6  1  0  0  0  0
  5  9  1  0  0  0  0
  6 12  1  0  0  0  0
  7 12  1  0  0  0  0
  7 15  2  0  0  0  0
  7 17  1  0  0  0  0
  8 13  1  0  0  0  0
  8 14  1  0  0  0  0
  8 16  2  0  0  0  0
  9 10  1  0  0  0  0
 10 11  1  0  0  0  0
 11 12  1  0  0  0  0
 12 14  1  0  0  0  0
  1 18  1  0  0  0  0
  2 19  1  0  0  0  0
  3 20  1  0  0  0  0
  4 21  1  0  0  0  0
  9 22  1  0  0  0  0
  9 23  1  0  0  0  0
 10 24  1  0  0  0  0
 10 25  1  0  0  0  0
 11 26  1  0  0  0  0
 11 27  1  0  0  0  0
 13 28  1  0  0  0  0
 13 29  1  0  0  0  0
 13 30  1  0  0  0  0
 14 31  1  0  0  0  0
 17 32  1  0  0  0  0
M  END
> <Catalog ID>
Z234897189

> <PlateID>
1337959-R-11

> <Well>
F03

> <MW (desalted)>
233.263

> <CLogP>
1.824

> <HBD>
2

> <TPSA>
66.400

> <RotBonds>
2

> <ROCS_ShapeQuery>
A71EV2A-x0451_0A_A71EV2A-x0310_0A_A71EV2A-x0416_0A_peptide

> <ROCS_TanimotoCombo>
0.421 

> <ROCS_ShapeTanimoto>
0.285 

> <ROCS_ColorTanimoto>
0.136 

> <ROCS_RefTversky>
0.257 

> <ROCS_RefColorTversky>
0.152 

> <ROCS_RefTverskyCombo>
0.408 

> <ROCS_FitTversky>
1.638 

> <ROCS_FitColorTversky>
0.560 

> <ROCS_FitTverskyCombo>
2.199 

> <ROCS_ColorScore>
-4.623

> <ROCS_Overlap>
1779.061

> <ROCS_Rank>
249                 

$$$$
untitled-dbase-777_40
  -OEChem-11112309163D

 38 39  0     1  0  0  0  0  0999 V2000
    8.8543    9.7106   23.5628 C   0  0  0  0  0  0  0  0  0  0  0  0
    9.7447   10.7208   23.1992 C   0  0  0  0  0  0  0  0  0  0  0  0
    7.5352   11.3166   24.7948 C   0  0  0  0  0  0  0  0  0  0  0  0
    7.7495   10.0085   24.3605 C   0  0  0  0  0  0  0  0  0  0  0  0
    8.4257   12.3268   24.4313 C   0  0  0  0  0  0  0  0  0  0  0  0
    9.5305   12.0289   23.6335 C   0  0  0  0  0  0  0  0  0  0  0  0
    8.3496   12.9101   20.1760 C   0  0  0  0  0  0  0  0  0  0  0  0
    8.0247   14.3670   20.4401 C   0  0  0  0  0  0  0  0  0  0  0  0
    9.8044   12.7980   20.6082 C   0  0  0  0  0  0  0  0  0  0  0  0
    8.7102   14.6158   21.7823 C   0  0  2  0  0  0  0  0  0  0  0  0
    6.7976    8.9278   24.7491 C   0  0  0  0  0  0  0  0  0  0  0  0
    8.1672   13.7172   24.9123 C   0  0  0  0  0  0  0  0  0  0  0  0
    9.0284   16.0828   22.0068 C   0  0  0  0  0  0  0  0  0  0  0  0
    9.9683   13.8080   21.6976 N   0  0  1  0  0  0  0  0  0  0  0  0
    9.9048   16.5575   20.9852 N   0  0  0  0  0  0  0  0  0  0  0  0
   10.6008   14.3469   24.1379 O   0  0  0  0  0  0  0  0  0  0  0  0
   11.9438   12.6370   22.8650 O   0  0  0  0  0  0  0  0  0  0  0  0
   10.6780   13.2842   23.1536 S   0  0  0  0  0  0  0  0  0  0  0  0
    9.0290    8.6942   23.2201 H   0  0  0  0  0  0  0  0  0  0  0  0
   10.6018   10.4761   22.5775 H   0  0  0  0  0  0  0  0  0  0  0  0
    6.6731   11.5465   25.4167 H   0  0  0  0  0  0  0  0  0  0  0  0
    7.7199   12.2652   20.8008 H   0  0  0  0  0  0  0  0  0  0  0  0
    8.2016   12.6225   19.1314 H   0  0  0  0  0  0  0  0  0  0  0  0
    8.4532   14.9954   19.6496 H   0  0  0  0  0  0  0  0  0  0  0  0
    6.9481   14.5560   20.4823 H   0  0  0  0  0  0  0  0  0  0  0  0
   10.0411   11.7835   20.9419 H   0  0  0  0  0  0  0  0  0  0  0  0
   10.4817   13.0653   19.7901 H   0  0  0  0  0  0  0  0  0  0  0  0
    8.0824   14.2282   22.5944 H   0  0  0  0  0  0  0  0  0  0  0  0
    7.1119    8.4629   25.6914 H   0  0  0  0  0  0  0  0  0  0  0  0
    5.7804    9.3199   24.8767 H   0  0  0  0  0  0  0  0  0  0  0  0
    6.7433    8.1487   23.9776 H   0  0  0  0  0  0  0  0  0  0  0  0
    8.6591   13.8824   25.8778 H   0  0  0  0  0  0  0  0  0  0  0  0
    8.5417   14.4598   24.1972 H   0  0  0  0  0  0  0  0  0  0  0  0
    7.0924   13.9017   25.0310 H   0  0  0  0  0  0  0  0  0  0  0  0
    8.0868   16.6343   21.9828 H   0  0  0  0  0  0  0  0  0  0  0  0
    9.5046   16.1734   22.9848 H   0  0  0  0  0  0  0  0  0  0  0  0
    9.4807   16.4349   20.0842 H   0  0  0  0  0  0  0  0  0  0  0  0
   10.0975   17.5323   21.1241 H   0  0  0  0  0  0  0  0  0  0  0  0
  1  2  1  0  0  0  0
  1  4  2  0  0  0  0
  2  6  2  0  0  0  0
  3  4  1  0  0  0  0
  3  5  2  0  0  0  0
  4 11  1  0  0  0  0
  5  6  1  0  0  0  0
  5 12  1  0  0  0  0
  6 18  1  0  0  0  0
  7  8  1  0  0  0  0
  7  9  1  0  0  0  0
  8 10  1  0  0  0  0
  9 14  1  0  0  0  0
 10 13  1  0  0  0  0
 10 14  1  0  0  0  0
 13 15  1  0  0  0  0
 14 18  1  0  0  0  0
 16 18  2  0  0  0  0
 17 18  2  0  0  0  0
  1 19  1  0  0  0  0
  2 20  1  0  0  0  0
  3 21  1  0  0  0  0
  7 22  1  0  0  0  0
  7 23  1  0  0  0  0
  8 24  1  0  0  0  0
  8 25  1  0  0  0  0
  9 26  1  0  0  0  0
  9 27  1  0  0  0  0
 10 28  1  0  0  0  0
 11 29  1  0  0  0  0
 11 30  1  0  0  0  0
 11 31  1  0  0  0  0
 12 32  1  0  0  0  0
 12 33  1  0  0  0  0
 12 34  1  0  0  0  0
 13 35  1  0  0  0  0
 13 36  1  0  0  0  0
 15 37  1  0  0  0  0
 15 38  1  0  0  0  0
M  END
> <Catalog ID>
Z1491334982

> <PlateID>
1337959-R-10

> <Well>
F10

> <MW (desalted)>
268.375

> <CLogP>
2.436

> <HBD>
1

> <TPSA>
63.400

> <RotBonds>
2

> <ROCS_ShapeQuery>
A71EV2A-x0451_0A_A71EV2A-x0310_0A_A71EV2A-x0416_0A_peptide

> <ROCS_TanimotoCombo>
0.421 

> <ROCS_ShapeTanimoto>
0.257 

> <ROCS_ColorTanimoto>
0.164 

> <ROCS_RefTversky>
0.237 

> <ROCS_RefColorTversky>
0.174 

> <ROCS_RefTverskyCombo>
0.411 

> <ROCS_FitTversky>
1.506 

> <ROCS_FitColorTversky>
0.727 

> <ROCS_FitTverskyCombo>
2.234 

> <ROCS_ColorScore>
-5.303

> <ROCS_Overlap>
1639.990

> <ROCS_Rank>
250                 

$$$$
untitled-dbase-1154_130
  -OEChem-11112309163D

 31 32  0     1  0  0  0  0  0999 V2000
    6.7527   12.2233   25.0894 C   0  0  0  0  0  0  0  0  0  0  0  0
    6.1423   10.9873   25.3020 C   0  0  0  0  0  0  0  0  0  0  0  0
    8.0422   12.2827   24.5608 C   0  0  0  0  0  0  0  0  0  0  0  0
    6.8214    9.8105   24.9861 C   0  0  0  0  0  0  0  0  0  0  0  0
   10.4578   14.6614   20.9803 C   0  0  0  0  0  0  0  0  0  0  0  0
    8.7213   11.1059   24.2449 C   0  0  0  0  0  0  0  0  0  0  0  0
    8.1110    9.8699   24.4576 C   0  0  0  0  0  0  0  0  0  0  0  0
   10.7623   14.7078   22.3517 C   0  0  0  0  0  0  0  0  0  0  0  0
   10.7014   15.9385   20.5492 C   0  0  0  0  0  0  0  0  0  0  0  0
   10.6819   13.6004   23.3387 C   0  0  0  0  0  0  0  0  0  0  0  0
   10.5999   16.6078   19.2465 C   0  0  0  0  0  0  0  0  0  0  0  0
   11.1948   11.2001   24.7600 C   0  0  0  0  0  0  0  0  0  0  0  0
   10.1021   11.2126   23.6826 C   0  0  2  0  0  0  0  0  0  0  0  0
   11.1641   15.9208   22.7413 N   0  0  0  0  0  0  0  0  0  0  0  0
   10.2560   12.3841   22.8388 N   0  0  0  0  0  0  0  0  0  0  0  0
   10.9686   13.8208   24.5125 O   0  0  0  0  0  0  0  0  0  0  0  0
   11.1236   16.6996   21.5910 O   0  0  0  0  0  0  0  0  0  0  0  0
    8.9198    8.3929   24.0787 Cl  0  0  0  0  0  0  0  0  0  0  0  0
    6.2234   13.1396   25.3347 H   0  0  0  0  0  0  0  0  0  0  0  0
    5.1378   10.9415   25.7125 H   0  0  0  0  0  0  0  0  0  0  0  0
    8.5085   13.2510   24.3988 H   0  0  0  0  0  0  0  0  0  0  0  0
    6.3312    8.8554   25.1567 H   0  0  0  0  0  0  0  0  0  0  0  0
   10.1124   13.8252   20.3901 H   0  0  0  0  0  0  0  0  0  0  0  0
    9.5978   17.0484   19.0943 H   0  0  0  0  0  0  0  0  0  0  0  0
   11.3382   17.4240   19.1330 H   0  0  0  0  0  0  0  0  0  0  0  0
   10.7870   15.9176   18.4020 H   0  0  0  0  0  0  0  0  0  0  0  0
   11.0539   12.0267   25.4651 H   0  0  0  0  0  0  0  0  0  0  0  0
   11.1794   10.2632   25.3281 H   0  0  0  0  0  0  0  0  0  0  0  0
   12.1953   11.2953   24.3234 H   0  0  0  0  0  0  0  0  0  0  0  0
   10.3044   10.3600   23.0121 H   0  0  0  0  0  0  0  0  0  0  0  0
    9.9753   12.2881   21.8715 H   0  0  0  0  0  0  0  0  0  0  0  0
  1  2  2  0  0  0  0
  1  3  1  0  0  0  0
  2  4  1  0  0  0  0
  3  6  2  0  0  0  0
  4  7  2  0  0  0  0
  5  8  1  0  0  0  0
  5  9  2  0  0  0  0
  6  7  1  0  0  0  0
  6 13  1  0  0  0  0
  7 18  1  0  0  0  0
  8 10  1  0  0  0  0
  8 14  2  0  0  0  0
  9 11  1  0  0  0  0
  9 17  1  0  0  0  0
 10 15  1  0  0  0  0
 10 16  2  0  0  0  0
 12 13  1  0  0  0  0
 13 15  1  0  0  0  0
 14 17  1  0  0  0  0
  1 19  1  0  0  0  0
  2 20  1  0  0  0  0
  3 21  1  0  0  0  0
  4 22  1  0  0  0  0
  5 23  1  0  0  0  0
 11 24  1  0  0  0  0
 11 25  1  0  0  0  0
 11 26  1  0  0  0  0
 12 27  1  0  0  0  0
 12 28  1  0  0  0  0
 12 29  1  0  0  0  0
 13 30  1  0  0  0  0
 15 31  1  0  0  0  0
M  END
> <Catalog ID>
Z27634076

> <PlateID>
1337959-R-15

> <Well>
D10

> <MW (desalted)>
264.708

> <CLogP>
2.906

> <HBD>
1

> <TPSA>
55.130

> <RotBonds>
3

> <ROCS_ShapeQuery>
A71EV2A-x0451_0A_A71EV2A-x0310_0A_A71EV2A-x0416_0A_peptide

> <ROCS_TanimotoCombo>
0.421 

> <ROCS_ShapeTanimoto>
0.295 

> <ROCS_ColorTanimoto>
0.126 

> <ROCS_RefTversky>
0.264 

> <ROCS_RefColorTversky>
0.135 

> <ROCS_RefTverskyCombo>
0.399 

> <ROCS_FitTversky>
1.638 

> <ROCS_FitColorTversky>
0.648 

> <ROCS_FitTverskyCombo>
2.286 

> <ROCS_ColorScore>
-4.103

> <ROCS_Overlap>
1833.508

> <ROCS_Rank>
251                 

$$$$
untitled-dbase-749_41
  -OEChem-11112309163D

 32 34  0     1  0  0  0  0  0999 V2000
   12.1165   14.1768   21.9414 C   0  0  0  0  0  0  0  0  0  0  0  0
   12.3928   14.3619   20.6046 C   0  0  0  0  0  0  0  0  0  0  0  0
   10.1930   13.3198   20.9576 C   0  0  0  0  0  0  0  0  0  0  0  0
   10.8423   13.5730   22.1460 C   0  0  0  0  0  0  0  0  0  0  0  0
   10.2528   13.2448   23.4545 C   0  0  0  0  0  0  0  0  0  0  0  0
    7.4031   13.3155   24.6040 C   0  0  0  0  0  0  0  0  0  0  0  0
    9.5029   10.9662   22.6710 C   0  0  0  0  0  0  0  0  0  0  0  0
    6.8648   13.2944   26.0229 C   0  0  0  0  0  0  0  0  0  0  0  0
    9.3634    9.6943   23.4940 C   0  0  0  0  0  0  0  0  0  0  0  0
    8.8426   12.0442   25.9919 C   0  0  0  0  0  0  0  0  0  0  0  0
    7.4137   10.8341   24.2964 C   0  0  0  0  0  0  0  0  0  0  0  0
    8.3024   12.0801   24.5585 C   0  0  1  0  0  0  0  0  0  0  0  0
    9.3765   12.1485   23.5353 N   0  0  0  0  0  0  0  0  0  0  0  0
   10.5718   13.9896   24.3801 O   0  0  0  0  0  0  0  0  0  0  0  0
    7.8227   12.6050   26.8362 O   0  0  0  0  0  0  0  0  0  0  0  0
    8.1620    9.6223   24.2547 O   0  0  0  0  0  0  0  0  0  0  0  0
   11.1189   13.8091   19.6027 S   0  0  0  0  0  0  0  0  0  0  0  0
   12.7997   14.4632   22.7312 H   0  0  0  0  0  0  0  0  0  0  0  0
   13.2816   14.7965   20.1693 H   0  0  0  0  0  0  0  0  0  0  0  0
    9.2197   12.8714   20.8129 H   0  0  0  0  0  0  0  0  0  0  0  0
    6.5647   13.2012   23.9082 H   0  0  0  0  0  0  0  0  0  0  0  0
    7.8955   14.2580   24.3591 H   0  0  0  0  0  0  0  0  0  0  0  0
   10.4476   10.9364   22.1438 H   0  0  0  0  0  0  0  0  0  0  0  0
    8.6969   11.0249   21.9450 H   0  0  0  0  0  0  0  0  0  0  0  0
    6.7432   14.3080   26.4207 H   0  0  0  0  0  0  0  0  0  0  0  0
    5.8970   12.7866   26.0893 H   0  0  0  0  0  0  0  0  0  0  0  0
    9.3792    8.8135   22.8187 H   0  0  0  0  0  0  0  0  0  0  0  0
   10.2380    9.5595   24.1697 H   0  0  0  0  0  0  0  0  0  0  0  0
    8.9952   11.0175   26.3370 H   0  0  0  0  0  0  0  0  0  0  0  0
    9.7883   12.5695   26.1282 H   0  0  0  0  0  0  0  0  0  0  0  0
    6.6228   10.7519   25.0586 H   0  0  0  0  0  0  0  0  0  0  0  0
    6.8986   10.9256   23.3297 H   0  0  0  0  0  0  0  0  0  0  0  0
  1  2  2  0  0  0  0
  1  4  1  0  0  0  0
  2 17  1  0  0  0  0
  3  4  2  0  0  0  0
  3 17  1  0  0  0  0
  4  5  1  0  0  0  0
  5 13  1  0  0  0  0
  5 14  2  0  0  0  0
  6  8  1  0  0  0  0
  6 12  1  0  0  0  0
  7  9  1  0  0  0  0
  7 13  1  0  0  0  0
  8 15  1  0  0  0  0
  9 16  1  0  0  0  0
 10 12  1  0  0  0  0
 10 15  1  0  0  0  0
 11 12  1  0  0  0  0
 11 16  1  0  0  0  0
 12 13  1  0  0  0  0
  1 18  1  0  0  0  0
  2 19  1  0  0  0  0
  3 20  1  0  0  0  0
  6 21  1  0  0  0  0
  6 22  1  0  0  0  0
  7 23  1  0  0  0  0
  7 24  1  0  0  0  0
  8 25  1  0  0  0  0
  8 26  1  0  0  0  0
  9 27  1  0  0  0  0
  9 28  1  0  0  0  0
 10 29  1  0  0  0  0
 10 30  1  0  0  0  0
 11 31  1  0  0  0  0
 11 32  1  0  0  0  0
M  END
> <Catalog ID>
Z1995553319

> <PlateID>
1337959-R-10

> <Well>
D02

> <MW (desalted)>
253.317

> <CLogP>
0.397

> <HBD>
0

> <TPSA>
38.770

> <RotBonds>
1

> <ROCS_ShapeQuery>
A71EV2A-x0451_0A_A71EV2A-x0310_0A_A71EV2A-x0416_0A_peptide

> <ROCS_TanimotoCombo>
0.420 

> <ROCS_ShapeTanimoto>
0.286 

> <ROCS_ColorTanimoto>
0.134 

> <ROCS_RefTversky>
0.257 

> <ROCS_RefColorTversky>
0.147 

> <ROCS_RefTverskyCombo>
0.404 

> <ROCS_FitTversky>
1.645 

> <ROCS_FitColorTversky>
0.613 

> <ROCS_FitTverskyCombo>
2.258 

> <ROCS_ColorScore>
-4.470

> <ROCS_Overlap>
1783.273

> <ROCS_Rank>
252                 

$$$$
untitled-dbase-1034_419
  -OEChem-11112309163D

 41 42  0     1  0  0  0  0  0999 V2000
   10.6754   14.3222   23.0149 C   0  0  0  0  0  0  0  0  0  0  0  0
    6.7713   12.0759   25.2669 C   0  0  0  0  0  0  0  0  0  0  0  0
   11.7828   14.9009   22.1657 C   0  0  0  0  0  0  0  0  0  0  0  0
   11.1855   14.9056   20.7637 C   0  0  0  0  0  0  0  0  0  0  0  0
    9.8499    9.9429   23.1419 C   0  0  0  0  0  0  0  0  0  0  0  0
    8.6566    9.2740   23.8100 C   0  0  0  0  0  0  0  0  0  0  0  0
   10.1557   11.2678   23.8296 C   0  0  0  0  0  0  0  0  0  0  0  0
   10.2258   13.7326   20.7730 C   0  0  0  0  0  0  0  0  0  0  0  0
    7.4448   10.1955   23.8134 C   0  0  0  0  0  0  0  0  0  0  0  0
    8.9406   12.2078   23.8981 C   0  0  1  0  0  0  0  0  0  0  0  0
    5.9427   15.6663   25.9270 C   0  0  0  0  0  0  0  0  0  0  0  0
    8.6545   12.8820   22.5545 C   0  0  0  0  0  0  0  0  0  0  0  0
    5.7851   14.1945   26.1053 C   0  0  0  0  0  0  0  0  0  0  0  0
    9.7996   13.6689   22.1509 N   0  0  0  0  0  0  0  0  0  0  0  0
    7.7333   11.5097   24.4033 N   0  0  0  0  0  0  0  0  0  0  0  0
    6.7209   13.4658   25.2785 N   0  0  0  0  0  0  0  0  0  0  0  0
   10.6222   14.3961   24.2333 O   0  0  0  0  0  0  0  0  0  0  0  0
    6.0143   11.3949   25.9667 O   0  0  0  0  0  0  0  0  0  0  0  0
   12.0477   15.9074   22.4983 H   0  0  0  0  0  0  0  0  0  0  0  0
   12.6545   14.2420   22.2278 H   0  0  0  0  0  0  0  0  0  0  0  0
   10.6350   15.8397   20.5976 H   0  0  0  0  0  0  0  0  0  0  0  0
   11.9503   14.8187   19.9867 H   0  0  0  0  0  0  0  0  0  0  0  0
   10.7242    9.2850   23.2003 H   0  0  0  0  0  0  0  0  0  0  0  0
    9.6427   10.1059   22.0781 H   0  0  0  0  0  0  0  0  0  0  0  0
    8.4121    8.3461   23.2807 H   0  0  0  0  0  0  0  0  0  0  0  0
    8.9121    8.9972   24.8402 H   0  0  0  0  0  0  0  0  0  0  0  0
   10.4981   11.0623   24.8525 H   0  0  0  0  0  0  0  0  0  0  0  0
   10.9898   11.7628   23.3182 H   0  0  0  0  0  0  0  0  0  0  0  0
    9.3710   13.8959   20.1135 H   0  0  0  0  0  0  0  0  0  0  0  0
   10.7269   12.7947   20.5193 H   0  0  0  0  0  0  0  0  0  0  0  0
    7.0985   10.3718   22.7882 H   0  0  0  0  0  0  0  0  0  0  0  0
    6.6211    9.7060   24.3429 H   0  0  0  0  0  0  0  0  0  0  0  0
    9.2198   12.9948   24.6052 H   0  0  0  0  0  0  0  0  0  0  0  0
    5.7654   15.9297   24.8739 H   0  0  0  0  0  0  0  0  0  0  0  0
    5.2163   16.1925   26.5638 H   0  0  0  0  0  0  0  0  0  0  0  0
    6.9629   15.9629   26.2123 H   0  0  0  0  0  0  0  0  0  0  0  0
    8.4577   12.0902   21.8351 H   0  0  0  0  0  0  0  0  0  0  0  0
    7.7813   13.5153   22.6942 H   0  0  0  0  0  0  0  0  0  0  0  0
    5.9639   13.9395   27.1602 H   0  0  0  0  0  0  0  0  0  0  0  0
    4.7605   13.9069   25.8270 H   0  0  0  0  0  0  0  0  0  0  0  0
    7.3598   13.9837   24.6891 H   0  0  0  0  0  0  0  0  0  0  0  0
  1  3  1  0  0  0  0
  1 14  1  0  0  0  0
  1 17  2  0  0  0  0
  2 15  1  0  0  0  0
  2 16  1  0  0  0  0
  2 18  2  0  0  0  0
  3  4  1  0  0  0  0
  4  8  1  0  0  0  0
  5  6  1  0  0  0  0
  5  7  1  0  0  0  0
  6  9  1  0  0  0  0
  7 10  1  0  0  0  0
  8 14  1  0  0  0  0
  9 15  1  0  0  0  0
 10 12  1  0  0  0  0
 10 15  1  0  0  0  0
 11 13  1  0  0  0  0
 12 14  1  0  0  0  0
 13 16  1  0  0  0  0
  3 19  1  0  0  0  0
  3 20  1  0  0  0  0
  4 21  1  0  0  0  0
  4 22  1  0  0  0  0
  5 23  1  0  0  0  0
  5 24  1  0  0  0  0
  6 25  1  0  0  0  0
  6 26  1  0  0  0  0
  7 27  1  0  0  0  0
  7 28  1  0  0  0  0
  8 29  1  0  0  0  0
  8 30  1  0  0  0  0
  9 31  1  0  0  0  0
  9 32  1  0  0  0  0
 10 33  1  0  0  0  0
 11 34  1  0  0  0  0
 11 35  1  0  0  0  0
 11 36  1  0  0  0  0
 12 37  1  0  0  0  0
 12 38  1  0  0  0  0
 13 39  1  0  0  0  0
 13 40  1  0  0  0  0
 16 41  1  0  0  0  0
M  END
> <Catalog ID>
Z1180484123

> <PlateID>
1337959-R-13

> <Well>
H09

> <MW (desalted)>
253.341

> <CLogP>
0.978

> <HBD>
1

> <TPSA>
52.650

> <RotBonds>
3

> <ROCS_ShapeQuery>
A71EV2A-x0451_0A_A71EV2A-x0310_0A_A71EV2A-x0416_0A_peptide

> <ROCS_TanimotoCombo>
0.420 

> <ROCS_ShapeTanimoto>
0.293 

> <ROCS_ColorTanimoto>
0.127 

> <ROCS_RefTversky>
0.263 

> <ROCS_RefColorTversky>
0.136 

> <ROCS_RefTverskyCombo>
0.399 

> <ROCS_FitTversky>
1.651 

> <ROCS_FitColorTversky>
0.653 

> <ROCS_FitTverskyCombo>
2.303 

> <ROCS_ColorScore>
-4.135

> <ROCS_Overlap>
1823.902

> <ROCS_Rank>
253                 

$$$$
untitled-dbase-1047_193
  -OEChem-11112309163D

 35 36  0     1  0  0  0  0  0999 V2000
    7.9055   10.0058   23.8416 C   0  0  0  0  0  0  0  0  0  0  0  0
    7.6149   11.0958   24.6620 C   0  0  0  0  0  0  0  0  0  0  0  0
    8.9667   10.0755   22.9389 C   0  0  0  0  0  0  0  0  0  0  0  0
    9.4466   12.3254   23.6770 C   0  0  0  0  0  0  0  0  0  0  0  0
    8.3854   12.2556   24.5796 C   0  0  0  0  0  0  0  0  0  0  0  0
    9.7372   11.2353   22.8566 C   0  0  0  0  0  0  0  0  0  0  0  0
   10.2436   13.5585   23.6091 C   0  0  0  0  0  0  0  0  0  0  0  0
   11.0883   16.4290   21.5572 C   0  0  0  0  0  0  0  0  0  0  0  0
   11.4595   15.0218   22.0317 C   0  0  0  0  0  0  0  0  0  0  0  0
    9.2058   14.2028   21.3887 C   0  0  0  0  0  0  0  0  0  0  0  0
    9.3940   15.2432   20.2748 C   0  0  1  0  0  0  0  0  0  0  0  0
    8.0981   15.4287   19.4884 C   0  0  0  0  0  0  0  0  0  0  0  0
    6.9802   13.1421   26.2811 C   0  0  0  0  0  0  0  0  0  0  0  0
    9.8016   16.5175   20.8638 N   0  0  0  0  0  0  0  0  0  0  0  0
   10.2805   14.2413   22.3902 N   0  0  0  0  0  0  0  0  0  0  0  0
   10.8167   13.8990   24.6422 O   0  0  0  0  0  0  0  0  0  0  0  0
    8.0822   13.3077   25.3918 O   0  0  0  0  0  0  0  0  0  0  0  0
   11.0413   11.2769   21.7245 Cl  0  0  0  0  0  0  0  0  0  0  0  0
    7.3054    9.1028   23.9058 H   0  0  0  0  0  0  0  0  0  0  0  0
    6.7868   11.0345   25.3629 H   0  0  0  0  0  0  0  0  0  0  0  0
    9.1796    9.2170   22.3070 H   0  0  0  0  0  0  0  0  0  0  0  0
   11.0657   17.1111   22.4308 H   0  0  0  0  0  0  0  0  0  0  0  0
   11.8907   16.8315   20.9035 H   0  0  0  0  0  0  0  0  0  0  0  0
   12.0390   14.5106   21.2548 H   0  0  0  0  0  0  0  0  0  0  0  0
   12.0938   15.0765   22.9259 H   0  0  0  0  0  0  0  0  0  0  0  0
    8.2638   14.3807   21.9349 H   0  0  0  0  0  0  0  0  0  0  0  0
    9.1205   13.2007   20.9432 H   0  0  0  0  0  0  0  0  0  0  0  0
   10.1685   14.8975   19.5859 H   0  0  0  0  0  0  0  0  0  0  0  0
    7.3089   15.7737   20.1542 H   0  0  0  0  0  0  0  0  0  0  0  0
    7.7994   14.4821   19.0413 H   0  0  0  0  0  0  0  0  0  0  0  0
    8.2473   16.1646   18.7001 H   0  0  0  0  0  0  0  0  0  0  0  0
    6.8464   14.0527   26.8702 H   0  0  0  0  0  0  0  0  0  0  0  0
    7.1686   12.2923   26.9420 H   0  0  0  0  0  0  0  0  0  0  0  0
    6.0768   12.9532   25.6964 H   0  0  0  0  0  0  0  0  0  0  0  0
    9.0866   16.8249   21.5334 H   0  0  0  0  0  0  0  0  0  0  0  0
  1  2  1  0  0  0  0
  1  3  2  0  0  0  0
  2  5  2  0  0  0  0
  3  6  1  0  0  0  0
  4  5  1  0  0  0  0
  4  6  2  0  0  0  0
  4  7  1  0  0  0  0
  5 17  1  0  0  0  0
  6 18  1  0  0  0  0
  7 15  1  0  0  0  0
  7 16  2  0  0  0  0
  8  9  1  0  0  0  0
  8 14  1  0  0  0  0
  9 15  1  0  0  0  0
 10 11  1  0  0  0  0
 10 15  1  0  0  0  0
 11 12  1  0  0  0  0
 11 14  1  0  0  0  0
 13 17  1  0  0  0  0
  1 19  1  0  0  0  0
  2 20  1  0  0  0  0
  3 21  1  0  0  0  0
  8 22  1  0  0  0  0
  8 23  1  0  0  0  0
  9 24  1  0  0  0  0
  9 25  1  0  0  0  0
 10 26  1  0  0  0  0
 10 27  1  0  0  0  0
 11 28  1  0  0  0  0
 12 29  1  0  0  0  0
 12 30  1  0  0  0  0
 12 31  1  0  0  0  0
 13 32  1  0  0  0  0
 13 33  1  0  0  0  0
 13 34  1  0  0  0  0
 14 35  1  0  0  0  0
M  END
> <Catalog ID>
Z2242913838

> <PlateID>
1337959-R-14

> <Well>
B03

> <MW (desalted)>
268.739

> <CLogP>
2.252

> <HBD>
1

> <TPSA>
41.570

> <RotBonds>
2

> <ROCS_ShapeQuery>
A71EV2A-x0451_0A_A71EV2A-x0310_0A_A71EV2A-x0416_0A_peptide

> <ROCS_TanimotoCombo>
0.420 

> <ROCS_ShapeTanimoto>
0.266 

> <ROCS_ColorTanimoto>
0.155 

> <ROCS_RefTversky>
0.244 

> <ROCS_RefColorTversky>
0.166 

> <ROCS_RefTverskyCombo>
0.410 

> <ROCS_FitTversky>
1.522 

> <ROCS_FitColorTversky>
0.693 

> <ROCS_FitTverskyCombo>
2.215 

> <ROCS_ColorScore>
-5.047

> <ROCS_Overlap>
1689.565

> <ROCS_Rank>
254                 

$$$$
untitled-dbase-1055_81
  -OEChem-11112309163D

 38 39  0     1  0  0  0  0  0999 V2000
   15.5392   12.3947   24.2934 C   0  0  0  0  0  0  0  0  0  0  0  0
   15.0312   13.6687   24.0396 C   0  0  0  0  0  0  0  0  0  0  0  0
   14.7766   11.2667   23.9907 C   0  0  0  0  0  0  0  0  0  0  0  0
   13.7605   13.8147   23.4831 C   0  0  0  0  0  0  0  0  0  0  0  0
   13.5059   11.4126   23.4342 C   0  0  0  0  0  0  0  0  0  0  0  0
   12.9978   12.6866   23.1804 C   0  0  0  0  0  0  0  0  0  0  0  0
   10.5183   12.9399   23.6031 C   0  0  0  0  0  0  0  0  0  0  0  0
    8.1786   12.2408   23.9945 C   0  0  0  0  0  0  0  0  0  0  0  0
    9.7230   10.5913   23.0361 C   0  0  0  0  0  0  0  0  0  0  0  0
    7.6936   11.1782   24.9680 C   0  0  0  0  0  0  0  0  0  0  0  0
    9.1946    9.5426   24.0311 C   0  0  0  0  0  0  0  0  0  0  0  0
    9.1107    8.1792   23.3332 C   0  0  0  0  0  0  0  0  0  0  0  0
   10.1097    9.4104   25.2573 C   0  0  0  0  0  0  0  0  0  0  0  0
   11.6186   12.8443   22.5767 C   0  0  1  0  0  0  0  0  0  0  0  0
    9.5417   11.9476   23.5617 N   0  0  0  0  0  0  0  0  0  0  0  0
   11.4865   13.9782   21.6828 N   0  0  0  0  0  0  0  0  0  0  0  0
   10.5302   13.8657   24.4182 O   0  0  0  0  0  0  0  0  0  0  0  0
    7.8500    9.8677   24.4237 O   0  0  0  0  0  0  0  0  0  0  0  0
   16.5292   12.2812   24.7255 H   0  0  0  0  0  0  0  0  0  0  0  0
   15.6252   14.5471   24.2742 H   0  0  0  0  0  0  0  0  0  0  0  0
   15.1723   10.2746   24.1872 H   0  0  0  0  0  0  0  0  0  0  0  0
   13.3727   14.8112   23.2889 H   0  0  0  0  0  0  0  0  0  0  0  0
   12.9188   10.5280   23.2018 H   0  0  0  0  0  0  0  0  0  0  0  0
    7.4966   12.3187   23.1427 H   0  0  0  0  0  0  0  0  0  0  0  0
    8.2130   13.2183   24.4898 H   0  0  0  0  0  0  0  0  0  0  0  0
   10.8053   10.4721   22.8984 H   0  0  0  0  0  0  0  0  0  0  0  0
    9.2563   10.4616   22.0573 H   0  0  0  0  0  0  0  0  0  0  0  0
    8.2895   11.2230   25.8854 H   0  0  0  0  0  0  0  0  0  0  0  0
    6.6508   11.3434   25.2583 H   0  0  0  0  0  0  0  0  0  0  0  0
    8.7380    7.4379   24.0337 H   0  0  0  0  0  0  0  0  0  0  0  0
   10.0987    7.8892   22.9887 H   0  0  0  0  0  0  0  0  0  0  0  0
    8.4360    8.2493   22.4851 H   0  0  0  0  0  0  0  0  0  0  0  0
    9.7038    8.6630   25.9335 H   0  0  0  0  0  0  0  0  0  0  0  0
   10.1699   10.3669   25.7692 H   0  0  0  0  0  0  0  0  0  0  0  0
   11.1029    9.1078   24.9373 H   0  0  0  0  0  0  0  0  0  0  0  0
   11.3912   11.9551   21.9785 H   0  0  0  0  0  0  0  0  0  0  0  0
   10.7835   14.5873   22.0385 H   0  0  0  0  0  0  0  0  0  0  0  0
   12.3605   14.4533   21.6363 H   0  0  0  0  0  0  0  0  0  0  0  0
  1  2  2  0  0  0  0
  1  3  1  0  0  0  0
  2  4  1  0  0  0  0
  3  5  2  0  0  0  0
  4  6  2  0  0  0  0
  5  6  1  0  0  0  0
  6 14  1  0  0  0  0
  7 14  1  0  0  0  0
  7 15  1  0  0  0  0
  7 17  2  0  0  0  0
  8 10  1  0  0  0  0
  8 15  1  0  0  0  0
  9 11  1  0  0  0  0
  9 15  1  0  0  0  0
 10 18  1  0  0  0  0
 11 12  1  0  0  0  0
 11 13  1  0  0  0  0
 11 18  1  0  0  0  0
 14 16  1  0  0  0  0
  1 19  1  0  0  0  0
  2 20  1  0  0  0  0
  3 21  1  0  0  0  0
  4 22  1  0  0  0  0
  5 23  1  0  0  0  0
  8 24  1  0  0  0  0
  8 25  1  0  0  0  0
  9 26  1  0  0  0  0
  9 27  1  0  0  0  0
 10 28  1  0  0  0  0
 10 29  1  0  0  0  0
 12 30  1  0  0  0  0
 12 31  1  0  0  0  0
 12 32  1  0  0  0  0
 13 33  1  0  0  0  0
 13 34  1  0  0  0  0
 13 35  1  0  0  0  0
 14 36  1  0  0  0  0
 16 37  1  0  0  0  0
 16 38  1  0  0  0  0
M  END
> <Catalog ID>
Z1450078063

> <PlateID>
1337959-R-14

> <Well>
B11

> <MW (desalted)>
248.321

> <CLogP>
1.726

> <HBD>
1

> <TPSA>
55.560

> <RotBonds>
2

> <ROCS_ShapeQuery>
A71EV2A-x0451_0A_A71EV2A-x0310_0A_A71EV2A-x0416_0A_peptide

> <ROCS_TanimotoCombo>
0.420 

> <ROCS_ShapeTanimoto>
0.280 

> <ROCS_ColorTanimoto>
0.140 

> <ROCS_RefTversky>
0.254 

> <ROCS_RefColorTversky>
0.156 

> <ROCS_RefTverskyCombo>
0.410 

> <ROCS_FitTversky>
1.581 

> <ROCS_FitColorTversky>
0.577 

> <ROCS_FitTverskyCombo>
2.158 

> <ROCS_ColorScore>
-4.753

> <ROCS_Overlap>
1762.117

> <ROCS_Rank>
255                 

$$$$
untitled-dbase-44_31
  -OEChem-11112309163D

 24 25  0     0  0  0  0  0  0999 V2000
    6.8578   12.9099   25.9782 C   0  0  0  0  0  0  0  0  0  0  0  0
    6.4511   11.6360   26.3518 C   0  0  0  0  0  0  0  0  0  0  0  0
    7.7830   13.0753   24.9440 C   0  0  0  0  0  0  0  0  0  0  0  0
    6.9706   10.5264   25.6917 C   0  0  0  0  0  0  0  0  0  0  0  0
    8.3320   11.9691   24.2684 C   0  0  0  0  0  0  0  0  0  0  0  0
    7.9093   10.6852   24.6601 C   0  0  0  0  0  0  0  0  0  0  0  0
   10.0193   11.1148   22.6290 C   0  0  0  0  0  0  0  0  0  0  0  0
   10.2378   14.3293   23.4615 C   0  0  0  0  0  0  0  0  0  0  0  0
   10.1158    9.8424   23.4291 C   0  0  0  0  0  0  0  0  0  0  0  0
    9.3683   13.4842   22.5817 C   0  0  0  0  0  0  0  0  0  0  0  0
    9.2538   12.1527   23.1772 N   0  0  0  0  0  0  0  0  0  0  0  0
   10.6893   11.2209   21.5972 O   0  0  0  0  0  0  0  0  0  0  0  0
   10.5338   15.5009   23.2802 O   0  0  0  0  0  0  0  0  0  0  0  0
   10.6689   13.6006   24.5236 O   0  0  0  0  0  0  0  0  0  0  0  0
    8.4887    9.2194   23.8341 S   0  0  0  0  0  0  0  0  0  0  0  0
    6.4540   13.7804   26.4873 H   0  0  0  0  0  0  0  0  0  0  0  0
    5.7285   11.5059   27.1516 H   0  0  0  0  0  0  0  0  0  0  0  0
    8.0650   14.0943   24.6933 H   0  0  0  0  0  0  0  0  0  0  0  0
    6.6333    9.5366   25.9920 H   0  0  0  0  0  0  0  0  0  0  0  0
   10.6426    9.0863   22.8388 H   0  0  0  0  0  0  0  0  0  0  0  0
   10.6992   10.0305   24.3367 H   0  0  0  0  0  0  0  0  0  0  0  0
    8.3722   13.9293   22.5129 H   0  0  0  0  0  0  0  0  0  0  0  0
    9.8185   13.3947   21.5897 H   0  0  0  0  0  0  0  0  0  0  0  0
   10.3281   12.6811   24.4986 H   0  0  0  0  0  0  0  0  0  0  0  0
  1  2  2  0  0  0  0
  1  3  1  0  0  0  0
  2  4  1  0  0  0  0
  3  5  2  0  0  0  0
  4  6  2  0  0  0  0
  5  6  1  0  0  0  0
  5 11  1  0  0  0  0
  6 15  1  0  0  0  0
  7  9  1  0  0  0  0
  7 11  1  0  0  0  0
  7 12  2  0  0  0  0
  8 10  1  0  0  0  0
  8 13  2  0  0  0  0
  8 14  1  0  0  0  0
  9 15  1  0  0  0  0
 10 11  1  0  0  0  0
  1 16  1  0  0  0  0
  2 17  1  0  0  0  0
  3 18  1  0  0  0  0
  4 19  1  0  0  0  0
  9 20  1  0  0  0  0
  9 21  1  0  0  0  0
 10 22  1  0  0  0  0
 10 23  1  0  0  0  0
 14 24  1  0  0  0  0
M  END
> <Catalog ID>
Z89270869

> <PlateID>
1337959-R-01

> <Well>
E05

> <MW (desalted)>
223.248

> <CLogP>
1.313

> <HBD>
1

> <TPSA>
57.610

> <RotBonds>
2

> <ROCS_ShapeQuery>
A71EV2A-x0451_0A_A71EV2A-x0310_0A_A71EV2A-x0416_0A_peptide

> <ROCS_TanimotoCombo>
0.420 

> <ROCS_ShapeTanimoto>
0.271 

> <ROCS_ColorTanimoto>
0.149 

> <ROCS_RefTversky>
0.244 

> <ROCS_RefColorTversky>
0.161 

> <ROCS_RefTverskyCombo>
0.405 

> <ROCS_FitTversky>
1.708 

> <ROCS_FitColorTversky>
0.671 

> <ROCS_FitTverskyCombo>
2.379 

> <ROCS_ColorScore>
-4.898

> <ROCS_Overlap>
1687.391

> <ROCS_Rank>
256                 

$$$$
untitled-dbase-950_148
  -OEChem-11112309163D

 35 37  0     1  0  0  0  0  0999 V2000
   10.0454   15.4112   21.9582 C   0  0  0  0  0  0  0  0  0  0  0  0
    9.1628    9.7617   23.6710 C   0  0  0  0  0  0  0  0  0  0  0  0
   11.4472   14.0820   23.0381 C   0  0  0  0  0  0  0  0  0  0  0  0
   12.4830   13.0854   23.3703 C   0  0  0  0  0  0  0  0  0  0  0  0
   11.0820   14.3940   21.6393 C   0  0  0  0  0  0  0  0  0  0  0  0
   12.8518    9.9898   21.5500 C   0  0  0  0  0  0  0  0  0  0  0  0
   11.4192    9.7644   22.0138 C   0  0  0  0  0  0  0  0  0  0  0  0
   13.4052   10.9339   22.6000 C   0  0  0  0  0  0  0  0  0  0  0  0
    9.1770   12.0010   24.1666 C   0  0  0  0  0  0  0  0  0  0  0  0
   10.1507   10.8697   23.8685 C   0  0  2  0  0  0  0  0  0  0  0  0
   11.0041   11.1066   22.6395 C   0  0  1  0  0  0  0  0  0  0  0  0
    6.7909   12.0243   24.6385 C   0  0  0  0  0  0  0  0  0  0  0  0
    9.8838   15.6085   23.2270 N   0  0  0  0  0  0  0  0  0  0  0  0
    7.9671   10.0006   24.0967 N   0  0  0  0  0  0  0  0  0  0  0  0
   10.7899   14.7493   23.9296 N   0  0  0  0  0  0  0  0  0  0  0  0
   12.2758   11.7873   22.9373 N   0  0  0  0  0  0  0  0  0  0  0  0
    8.0166   11.2439   24.6411 N   0  0  1  0  0  0  0  0  0  0  0  0
   13.4761   13.4617   23.9939 O   0  0  0  0  0  0  0  0  0  0  0  0
    9.4850   15.9304   21.1697 H   0  0  0  0  0  0  0  0  0  0  0  0
    9.4600    8.8235   23.1847 H   0  0  0  0  0  0  0  0  0  0  0  0
   10.6484   13.5380   21.1223 H   0  0  0  0  0  0  0  0  0  0  0  0
   11.9097   14.8350   21.0833 H   0  0  0  0  0  0  0  0  0  0  0  0
   13.4053    9.0451   21.5588 H   0  0  0  0  0  0  0  0  0  0  0  0
   12.8998   10.4091   20.5423 H   0  0  0  0  0  0  0  0  0  0  0  0
   10.7795    9.5513   21.1457 H   0  0  0  0  0  0  0  0  0  0  0  0
   11.3359    8.9194   22.7076 H   0  0  0  0  0  0  0  0  0  0  0  0
   13.7780   10.4149   23.4832 H   0  0  0  0  0  0  0  0  0  0  0  0
   14.1952   11.5661   22.1894 H   0  0  0  0  0  0  0  0  0  0  0  0
    9.5850   12.6363   24.9610 H   0  0  0  0  0  0  0  0  0  0  0  0
    8.9488   12.6168   23.2932 H   0  0  0  0  0  0  0  0  0  0  0  0
   10.7832   10.6503   24.7523 H   0  0  0  0  0  0  0  0  0  0  0  0
   10.4289   11.7038   21.9193 H   0  0  0  0  0  0  0  0  0  0  0  0
    5.9595   11.4034   25.0035 H   0  0  0  0  0  0  0  0  0  0  0  0
    6.9114   12.8984   25.2953 H   0  0  0  0  0  0  0  0  0  0  0  0
    6.5738   12.3623   23.6144 H   0  0  0  0  0  0  0  0  0  0  0  0
  1  5  1  0  0  0  0
  1 13  2  0  0  0  0
  2 10  1  0  0  0  0
  2 14  2  0  0  0  0
  3  4  1  0  0  0  0
  3  5  1  0  0  0  0
  3 15  2  0  0  0  0
  4 16  1  0  0  0  0
  4 18  2  0  0  0  0
  6  7  1  0  0  0  0
  6  8  1  0  0  0  0
  7 11  1  0  0  0  0
  8 16  1  0  0  0  0
  9 10  1  0  0  0  0
  9 17  1  0  0  0  0
 10 11  1  0  0  0  0
 11 16  1  0  0  0  0
 12 17  1  0  0  0  0
 13 15  1  0  0  0  0
 14 17  1  0  0  0  0
  1 19  1  0  0  0  0
  2 20  1  0  0  0  0
  5 21  1  0  0  0  0
  5 22  1  0  0  0  0
  6 23  1  0  0  0  0
  6 24  1  0  0  0  0
  7 25  1  0  0  0  0
  7 26  1  0  0  0  0
  8 27  1  0  0  0  0
  8 28  1  0  0  0  0
  9 29  1  0  0  0  0
  9 30  1  0  0  0  0
 10 31  1  0  0  0  0
 11 32  1  0  0  0  0
 12 33  1  0  0  0  0
 12 34  1  0  0  0  0
 12 35  1  0  0  0  0
M  END
> <Catalog ID>
Z1102955108

> <PlateID>
1337959-R-12

> <Well>
H04

> <MW (desalted)>
245.280

> <CLogP>
0.270

> <HBD>
1

> <TPSA>
66.810

> <RotBonds>
2

> <ROCS_ShapeQuery>
A71EV2A-x0451_0A_A71EV2A-x0310_0A_A71EV2A-x0416_0A_peptide

> <ROCS_TanimotoCombo>
0.420 

> <ROCS_ShapeTanimoto>
0.268 

> <ROCS_ColorTanimoto>
0.152 

> <ROCS_RefTversky>
0.246 

> <ROCS_RefColorTversky>
0.169 

> <ROCS_RefTverskyCombo>
0.415 

> <ROCS_FitTversky>
1.493 

> <ROCS_FitColorTversky>
0.607 

> <ROCS_FitTverskyCombo>
2.099 

> <ROCS_ColorScore>
-5.143

> <ROCS_Overlap>
1708.000

> <ROCS_Rank>
257                 

$$$$
untitled-dbase-1160_64
  -OEChem-11112309163D

 27 28  0     1  0  0  0  0  0999 V2000
    9.7400   10.0511   23.1358 C   0  0  0  0  0  0  0  0  0  0  0  0
    8.2004   10.9866   24.5136 C   0  0  0  0  0  0  0  0  0  0  0  0
   11.1203   14.4462   23.3296 C   0  0  0  0  0  0  0  0  0  0  0  0
   12.8479   11.3921   23.4248 C   0  0  0  0  0  0  0  0  0  0  0  0
   12.9213   12.7904   22.8088 C   0  0  0  0  0  0  0  0  0  0  0  0
   11.6240   11.2318   24.3192 C   0  0  0  0  0  0  0  0  0  0  0  0
   10.4662   12.3006   22.2717 C   0  0  0  0  0  0  0  0  0  0  0  0
   11.5616   13.3623   22.3885 C   0  0  1  0  0  0  0  0  0  0  0  0
   10.3239   11.4193   23.5253 C   0  0  1  0  0  0  0  0  0  0  0  0
    8.5204    9.8935   23.7457 N   0  0  0  0  0  0  0  0  0  0  0  0
    9.2561   11.8876   24.3925 N   0  0  0  0  0  0  0  0  0  0  0  0
   10.2884    9.2402   22.4008 O   0  0  0  0  0  0  0  0  0  0  0  0
    7.1856   11.1438   25.1784 O   0  0  0  0  0  0  0  0  0  0  0  0
   11.4177   15.6272   23.2287 O   0  0  0  0  0  0  0  0  0  0  0  0
   10.3434   13.9364   24.3165 O   0  0  0  0  0  0  0  0  0  0  0  0
   12.8310   10.6430   22.6252 H   0  0  0  0  0  0  0  0  0  0  0  0
   13.7560   11.2057   24.0089 H   0  0  0  0  0  0  0  0  0  0  0  0
   13.4111   13.4783   23.5276 H   0  0  0  0  0  0  0  0  0  0  0  0
   13.6005   12.7660   21.9340 H   0  0  0  0  0  0  0  0  0  0  0  0
   11.6535   10.2491   24.7893 H   0  0  0  0  0  0  0  0  0  0  0  0
   11.6754   11.9830   25.1090 H   0  0  0  0  0  0  0  0  0  0  0  0
    9.5032   12.8005   22.0779 H   0  0  0  0  0  0  0  0  0  0  0  0
   10.6633   11.6773   21.3852 H   0  0  0  0  0  0  0  0  0  0  0  0
   11.6818   13.8599   21.3927 H   0  0  0  0  0  0  0  0  0  0  0  0
    7.9313    9.0759   23.6430 H   0  0  0  0  0  0  0  0  0  0  0  0
    9.2725   12.7853   24.8664 H   0  0  0  0  0  0  0  0  0  0  0  0
   10.0461   14.6296   24.9437 H   0  0  0  0  0  0  0  0  0  0  0  0
  1  9  1  0  0  0  0
  1 10  1  0  0  0  0
  1 12  2  0  0  0  0
  2 10  1  0  0  0  0
  2 11  1  0  0  0  0
  2 13  2  0  0  0  0
  3  8  1  0  0  0  0
  3 14  2  0  0  0  0
  3 15  1  0  0  0  0
  4  5  1  0  0  0  0
  4  6  1  0  0  0  0
  5  8  1  0  0  0  0
  6  9  1  0  0  0  0
  7  8  1  0  0  0  0
  7  9  1  0  0  0  0
  9 11  1  0  0  0  0
  4 16  1  0  0  0  0
  4 17  1  0  0  0  0
  5 18  1  0  0  0  0
  5 19  1  0  0  0  0
  6 20  1  0  0  0  0
  6 21  1  0  0  0  0
  7 22  1  0  0  0  0
  7 23  1  0  0  0  0
  8 24  1  0  0  0  0
 10 25  1  0  0  0  0
 11 26  1  0  0  0  0
 15 27  1  0  0  0  0
M  END
> <Catalog ID>
Z1508941846

> <PlateID>
1337959-R-15

> <Well>
E06

> <MW (desalted)>
212.203

> <CLogP>
-1.217

> <HBD>
3

> <TPSA>
95.500

> <RotBonds>
1

> <ROCS_ShapeQuery>
A71EV2A-x0451_0A_A71EV2A-x0310_0A_A71EV2A-x0416_0A_peptide

> <ROCS_TanimotoCombo>
0.420 

> <ROCS_ShapeTanimoto>
0.276 

> <ROCS_ColorTanimoto>
0.143 

> <ROCS_RefTversky>
0.248 

> <ROCS_RefColorTversky>
0.167 

> <ROCS_RefTverskyCombo>
0.415 

> <ROCS_FitTversky>
1.711 

> <ROCS_FitColorTversky>
0.503 

> <ROCS_FitTverskyCombo>
2.214 

> <ROCS_ColorScore>
-5.109

> <ROCS_Overlap>
1718.434

> <ROCS_Rank>
258                 

$$$$
untitled-dbase-1113_4
  -OEChem-11112309163D

 23 25  0     0  0  0  0  0  0999 V2000
    9.6537   13.3087   23.4931 C   0  0  0  0  0  0  0  0  0  0  0  0
   10.2040   15.0358   22.4300 C   0  0  0  0  0  0  0  0  0  0  0  0
    8.0744   11.2435   22.8779 C   0  0  0  0  0  0  0  0  0  0  0  0
    9.8577   10.6650   23.8195 C   0  0  0  0  0  0  0  0  0  0  0  0
    7.8700   10.5027   25.1535 C   0  0  0  0  0  0  0  0  0  0  0  0
    8.4281   10.0575   23.8171 C   0  0  0  0  0  0  0  0  0  0  0  0
    9.0254   11.9926   23.8745 C   0  0  0  0  0  0  0  0  0  0  0  0
   10.2233   15.9659   21.2941 C   0  0  0  0  0  0  0  0  0  0  0  0
   10.4564   13.9787   24.2865 N   0  0  0  0  0  0  0  0  0  0  0  0
   10.8183   15.1150   23.5872 N   0  0  0  0  0  0  0  0  0  0  0  0
    8.3030   11.9054   25.1701 N   0  0  0  0  0  0  0  0  0  0  0  0
    9.4431   13.9155   22.2930 O   0  0  0  0  0  0  0  0  0  0  0  0
    8.4312   11.1533   21.8444 H   0  0  0  0  0  0  0  0  0  0  0  0
    7.0252   11.5574   22.8541 H   0  0  0  0  0  0  0  0  0  0  0  0
   10.4900   10.4347   24.6838 H   0  0  0  0  0  0  0  0  0  0  0  0
   10.4452   10.5003   22.9078 H   0  0  0  0  0  0  0  0  0  0  0  0
    6.7788   10.4181   25.1905 H   0  0  0  0  0  0  0  0  0  0  0  0
    8.3028    9.9471   25.9912 H   0  0  0  0  0  0  0  0  0  0  0  0
    8.2828    9.0377   23.4667 H   0  0  0  0  0  0  0  0  0  0  0  0
   11.0365   15.7237   20.5860 H   0  0  0  0  0  0  0  0  0  0  0  0
    9.2758   15.9536   20.7229 H   0  0  0  0  0  0  0  0  0  0  0  0
   10.3661   17.0162   21.6116 H   0  0  0  0  0  0  0  0  0  0  0  0
    7.4871   12.5142   25.2298 H   0  0  0  0  0  0  0  0  0  0  0  0
  1  7  1  0  0  0  0
  1  9  2  0  0  0  0
  1 12  1  0  0  0  0
  2  8  1  0  0  0  0
  2 10  2  0  0  0  0
  2 12  1  0  0  0  0
  3  6  1  0  0  0  0
  3  7  1  0  0  0  0
  4  6  1  0  0  0  0
  4  7  1  0  0  0  0
  5  6  1  0  0  0  0
  5 11  1  0  0  0  0
  7 11  1  0  0  0  0
  9 10  1  0  0  0  0
  3 13  1  0  0  0  0
  3 14  1  0  0  0  0
  4 15  1  0  0  0  0
  4 16  1  0  0  0  0
  5 17  1  0  0  0  0
  5 18  1  0  0  0  0
  6 19  1  0  0  0  0
  8 20  1  0  0  0  0
  8 21  1  0  0  0  0
  8 22  1  0  0  0  0
 11 23  1  0  0  0  0
M  END
> <Catalog ID>
Z2583442268

> <PlateID>
1337959-R-14

> <Well>
H09

> <MW (desalted)>
165.192

> <CLogP>
-1.590

> <HBD>
1

> <TPSA>
50.950

> <RotBonds>
1

> <ROCS_ShapeQuery>
A71EV2A-x0451_0A_A71EV2A-x0310_0A_A71EV2A-x0416_0A_peptide

> <ROCS_TanimotoCombo>
0.420 

> <ROCS_ShapeTanimoto>
0.214 

> <ROCS_ColorTanimoto>
0.206 

> <ROCS_RefTversky>
0.199 

> <ROCS_RefColorTversky>
0.244 

> <ROCS_RefTverskyCombo>
0.442 

> <ROCS_FitTversky>
1.538 

> <ROCS_FitColorTversky>
0.571 

> <ROCS_FitTverskyCombo>
2.109 

> <ROCS_ColorScore>
-7.488

> <ROCS_Overlap>
1375.970

> <ROCS_Rank>
259                 

$$$$
untitled-dbase-318_4
  -OEChem-11112309163D

 29 30  0     0  0  0  0  0  0999 V2000
    8.8864    9.6853   23.2620 C   0  0  0  0  0  0  0  0  0  0  0  0
    9.7972   10.7125   22.9997 C   0  0  0  0  0  0  0  0  0  0  0  0
    8.6983   12.1620   24.6138 C   0  0  0  0  0  0  0  0  0  0  0  0
    7.7988   11.1390   24.8554 C   0  0  0  0  0  0  0  0  0  0  0  0
    7.8766    9.9192   24.1786 C   0  0  0  0  0  0  0  0  0  0  0  0
    9.7017   11.9433   23.6686 C   0  0  0  0  0  0  0  0  0  0  0  0
    6.6794   11.0850   25.8427 C   0  0  0  0  0  0  0  0  0  0  0  0
    5.9701    9.7765   25.4321 C   0  0  0  0  0  0  0  0  0  0  0  0
    9.0889   14.2316   21.4933 C   0  0  0  0  0  0  0  0  0  0  0  0
   11.4814   14.4561   20.9584 C   0  0  0  0  0  0  0  0  0  0  0  0
    6.9110    9.0158   24.6190 N   0  0  0  0  0  0  0  0  0  0  0  0
   10.4566   13.7008   21.7231 N   0  0  0  0  0  0  0  0  0  0  0  0
   10.6098   14.3128   24.2427 O   0  0  0  0  0  0  0  0  0  0  0  0
   12.1926   12.6048   23.3147 O   0  0  0  0  0  0  0  0  0  0  0  0
   10.8629   13.2040   23.3295 S   0  0  0  0  0  0  0  0  0  0  0  0
    8.9740    8.7317   22.7518 H   0  0  0  0  0  0  0  0  0  0  0  0
   10.5890   10.5446   22.2736 H   0  0  0  0  0  0  0  0  0  0  0  0
    8.6269   13.1010   25.1529 H   0  0  0  0  0  0  0  0  0  0  0  0
    7.0753   11.0147   26.8609 H   0  0  0  0  0  0  0  0  0  0  0  0
    6.0116   11.9465   25.7533 H   0  0  0  0  0  0  0  0  0  0  0  0
    5.6492    9.2047   26.3087 H   0  0  0  0  0  0  0  0  0  0  0  0
    5.0794   10.0056   24.8342 H   0  0  0  0  0  0  0  0  0  0  0  0
    8.3644   13.6447   22.0769 H   0  0  0  0  0  0  0  0  0  0  0  0
    9.0465   15.2845   21.8087 H   0  0  0  0  0  0  0  0  0  0  0  0
    8.8425   14.1591   20.4237 H   0  0  0  0  0  0  0  0  0  0  0  0
   12.4759   14.0305   21.1578 H   0  0  0  0  0  0  0  0  0  0  0  0
   11.2616   14.3861   19.8829 H   0  0  0  0  0  0  0  0  0  0  0  0
   11.4656   15.5116   21.2679 H   0  0  0  0  0  0  0  0  0  0  0  0
    6.6440    8.2088   24.0728 H   0  0  0  0  0  0  0  0  0  0  0  0
  1  2  1  0  0  0  0
  1  5  2  0  0  0  0
  2  6  2  0  0  0  0
  3  4  2  0  0  0  0
  3  6  1  0  0  0  0
  4  5  1  0  0  0  0
  4  7  1  0  0  0  0
  5 11  1  0  0  0  0
  6 15  1  0  0  0  0
  7  8  1  0  0  0  0
  8 11  1  0  0  0  0
  9 12  1  0  0  0  0
 10 12  1  0  0  0  0
 12 15  1  0  0  0  0
 13 15  2  0  0  0  0
 14 15  2  0  0  0  0
  1 16  1  0  0  0  0
  2 17  1  0  0  0  0
  3 18  1  0  0  0  0
  7 19  1  0  0  0  0
  7 20  1  0  0  0  0
  8 21  1  0  0  0  0
  8 22  1  0  0  0  0
  9 23  1  0  0  0  0
  9 24  1  0  0  0  0
  9 25  1  0  0  0  0
 10 26  1  0  0  0  0
 10 27  1  0  0  0  0
 10 28  1  0  0  0  0
 11 29  1  0  0  0  0
M  END
> <Catalog ID>
Z125284302

> <PlateID>
1337959-R-04

> <Well>
H10

> <MW (desalted)>
226.295

> <CLogP>
1.511

> <HBD>
1

> <TPSA>
49.410

> <RotBonds>
1

> <ROCS_ShapeQuery>
A71EV2A-x0451_0A_A71EV2A-x0310_0A_A71EV2A-x0416_0A_peptide

> <ROCS_TanimotoCombo>
0.419 

> <ROCS_ShapeTanimoto>
0.282 

> <ROCS_ColorTanimoto>
0.137 

> <ROCS_RefTversky>
0.251 

> <ROCS_RefColorTversky>
0.146 

> <ROCS_RefTverskyCombo>
0.397 

> <ROCS_FitTversky>
1.786 

> <ROCS_FitColorTversky>
0.697 

> <ROCS_FitTverskyCombo>
2.483 

> <ROCS_ColorScore>
-4.428

> <ROCS_Overlap>
1739.780

> <ROCS_Rank>
260                 

$$$$
untitled-dbase-1155_324
  -OEChem-11112309163D

 34 35  0     0  0  0  0  0  0999 V2000
   13.5092   13.0694   21.0676 C   0  0  0  0  0  0  0  0  0  0  0  0
   13.0554   13.8288   19.9892 C   0  0  0  0  0  0  0  0  0  0  0  0
   10.9676   14.2172   21.1412 C   0  0  0  0  0  0  0  0  0  0  0  0
   11.4213   13.4578   22.2197 C   0  0  0  0  0  0  0  0  0  0  0  0
   12.6921   12.8839   22.1829 C   0  0  0  0  0  0  0  0  0  0  0  0
   11.7846   14.4027   20.0260 C   0  0  0  0  0  0  0  0  0  0  0  0
    7.9297   10.7860   24.5755 C   0  0  0  0  0  0  0  0  0  0  0  0
   10.5390   13.2764   23.3830 C   0  0  0  0  0  0  0  0  0  0  0  0
    8.3716   12.1488   24.0608 C   0  0  0  0  0  0  0  0  0  0  0  0
    9.9858    9.7937   23.5737 C   0  0  0  0  0  0  0  0  0  0  0  0
   10.0228   10.9813   22.6388 C   0  0  0  0  0  0  0  0  0  0  0  0
   13.2015   12.0633   23.3227 C   0  0  0  0  0  0  0  0  0  0  0  0
   12.4695   16.6636   18.6359 C   0  0  0  0  0  0  0  0  0  0  0  0
    8.7041    9.6995   24.2387 N   0  0  0  0  0  0  0  0  0  0  0  0
    9.6706   12.1797   23.3892 N   0  0  0  0  0  0  0  0  0  0  0  0
    6.8858   10.6753   25.2220 O   0  0  0  0  0  0  0  0  0  0  0  0
   10.6376   14.1144   24.2784 O   0  0  0  0  0  0  0  0  0  0  0  0
   11.2058   15.3733   18.6478 S   0  0  0  0  0  0  0  0  0  0  0  0
   14.5004   12.6253   21.0272 H   0  0  0  0  0  0  0  0  0  0  0  0
   13.7060   13.9605   19.1281 H   0  0  0  0  0  0  0  0  0  0  0  0
    9.9746   14.6614   21.1761 H   0  0  0  0  0  0  0  0  0  0  0  0
    7.6271   12.4897   23.3323 H   0  0  0  0  0  0  0  0  0  0  0  0
    8.3687   12.8403   24.9087 H   0  0  0  0  0  0  0  0  0  0  0  0
   10.1457    8.8605   23.0251 H   0  0  0  0  0  0  0  0  0  0  0  0
   10.7554    9.8730   24.3492 H   0  0  0  0  0  0  0  0  0  0  0  0
   11.0171   11.0793   22.1917 H   0  0  0  0  0  0  0  0  0  0  0  0
    9.3009   10.8700   21.8211 H   0  0  0  0  0  0  0  0  0  0  0  0
   13.7274   12.6999   24.0433 H   0  0  0  0  0  0  0  0  0  0  0  0
   12.3806   11.5525   23.8407 H   0  0  0  0  0  0  0  0  0  0  0  0
   13.8919   11.2858   22.9732 H   0  0  0  0  0  0  0  0  0  0  0  0
   12.2695   17.3725   17.8287 H   0  0  0  0  0  0  0  0  0  0  0  0
   13.4548   16.2166   18.4817 H   0  0  0  0  0  0  0  0  0  0  0  0
   12.4643   17.1970   19.5895 H   0  0  0  0  0  0  0  0  0  0  0  0
    8.3547    8.7749   24.4712 H   0  0  0  0  0  0  0  0  0  0  0  0
  1  2  1  0  0  0  0
  1  5  2  0  0  0  0
  2  6  2  0  0  0  0
  3  4  2  0  0  0  0
  3  6  1  0  0  0  0
  4  5  1  0  0  0  0
  4  8  1  0  0  0  0
  5 12  1  0  0  0  0
  6 18  1  0  0  0  0
  7  9  1  0  0  0  0
  7 14  1  0  0  0  0
  7 16  2  0  0  0  0
  8 15  1  0  0  0  0
  8 17  2  0  0  0  0
  9 15  1  0  0  0  0
 10 11  1  0  0  0  0
 10 14  1  0  0  0  0
 11 15  1  0  0  0  0
 13 18  1  0  0  0  0
  1 19  1  0  0  0  0
  2 20  1  0  0  0  0
  3 21  1  0  0  0  0
  9 22  1  0  0  0  0
  9 23  1  0  0  0  0
 10 24  1  0  0  0  0
 10 25  1  0  0  0  0
 11 26  1  0  0  0  0
 11 27  1  0  0  0  0
 12 28  1  0  0  0  0
 12 29  1  0  0  0  0
 12 30  1  0  0  0  0
 13 31  1  0  0  0  0
 13 32  1  0  0  0  0
 13 33  1  0  0  0  0
 14 34  1  0  0  0  0
M  END
> <Catalog ID>
Z282312156

> <PlateID>
1337959-R-15

> <Well>
D11

> <MW (desalted)>
264.343

> <CLogP>
1.721

> <HBD>
1

> <TPSA>
49.410

> <RotBonds>
2

> <ROCS_ShapeQuery>
A71EV2A-x0451_0A_A71EV2A-x0310_0A_A71EV2A-x0416_0A_peptide

> <ROCS_TanimotoCombo>
0.419 

> <ROCS_ShapeTanimoto>
0.279 

> <ROCS_ColorTanimoto>
0.140 

> <ROCS_RefTversky>
0.253 

> <ROCS_RefColorTversky>
0.152 

> <ROCS_RefTverskyCombo>
0.405 

> <ROCS_FitTversky>
1.589 

> <ROCS_FitColorTversky>
0.635 

> <ROCS_FitTverskyCombo>
2.224 

> <ROCS_ColorScore>
-4.626

> <ROCS_Overlap>
1754.525

> <ROCS_Rank>
261                 

$$$$
untitled-dbase-880_183
  -OEChem-11112309163D

 40 41  0     1  0  0  0  0  0999 V2000
    7.7757   11.8886   24.7281 C   0  0  0  0  0  0  0  0  0  0  0  0
    8.8987   12.4276   24.1005 C   0  0  0  0  0  0  0  0  0  0  0  0
    7.5267   10.5181   24.6555 C   0  0  0  0  0  0  0  0  0  0  0  0
    9.7726   11.5961   23.4001 C   0  0  0  0  0  0  0  0  0  0  0  0
    8.4006    9.6866   23.9551 C   0  0  0  0  0  0  0  0  0  0  0  0
    9.5236   10.2256   23.3274 C   0  0  0  0  0  0  0  0  0  0  0  0
   10.2813   14.5457   21.9705 C   0  0  0  0  0  0  0  0  0  0  0  0
   12.9339   12.1604   24.4079 C   0  0  0  0  0  0  0  0  0  0  0  0
   13.0705   13.6640   24.2337 C   0  0  0  0  0  0  0  0  0  0  0  0
   12.3135   11.5484   23.1595 C   0  0  0  0  0  0  0  0  0  0  0  0
   11.7256   14.3130   23.9432 C   0  0  0  0  0  0  0  0  0  0  0  0
   10.9965   12.2127   22.7215 C   0  0  2  0  0  0  0  0  0  0  0  0
    8.1112    8.2223   23.8928 C   0  0  0  0  0  0  0  0  0  0  0  0
   10.4607    9.3340   22.5764 C   0  0  0  0  0  0  0  0  0  0  0  0
   10.7847   15.9593   21.8138 C   0  0  0  0  0  0  0  0  0  0  0  0
   11.0079   13.6957   22.8188 N   0  0  0  0  0  0  0  0  0  0  0  0
    9.8929   16.6242   20.9133 N   0  0  0  0  0  0  0  0  0  0  0  0
    9.2611   14.2070   21.3633 O   0  0  0  0  0  0  0  0  0  0  0  0
    7.0947   12.5363   25.2729 H   0  0  0  0  0  0  0  0  0  0  0  0
    9.0839   13.4967   24.1635 H   0  0  0  0  0  0  0  0  0  0  0  0
    6.6493   10.1081   25.1484 H   0  0  0  0  0  0  0  0  0  0  0  0
   13.9168   11.7140   24.5914 H   0  0  0  0  0  0  0  0  0  0  0  0
   12.3107   11.9422   25.2823 H   0  0  0  0  0  0  0  0  0  0  0  0
   13.4975   14.0991   25.1436 H   0  0  0  0  0  0  0  0  0  0  0  0
   13.7678   13.8826   23.4164 H   0  0  0  0  0  0  0  0  0  0  0  0
   13.0335   11.6624   22.3392 H   0  0  0  0  0  0  0  0  0  0  0  0
   12.1813   10.4705   23.3066 H   0  0  0  0  0  0  0  0  0  0  0  0
   11.0688   14.2265   24.8191 H   0  0  0  0  0  0  0  0  0  0  0  0
   11.8842   15.3816   23.7722 H   0  0  0  0  0  0  0  0  0  0  0  0
   10.8622   11.9632   21.6243 H   0  0  0  0  0  0  0  0  0  0  0  0
    7.4886    7.9954   23.0197 H   0  0  0  0  0  0  0  0  0  0  0  0
    9.0370    7.6383   23.8237 H   0  0  0  0  0  0  0  0  0  0  0  0
    7.5862    7.8838   24.7945 H   0  0  0  0  0  0  0  0  0  0  0  0
   11.2462    8.9637   23.2440 H   0  0  0  0  0  0  0  0  0  0  0  0
    9.9300    8.4758   22.1481 H   0  0  0  0  0  0  0  0  0  0  0  0
   10.9310    9.8691   21.7431 H   0  0  0  0  0  0  0  0  0  0  0  0
   11.7922   15.9167   21.4113 H   0  0  0  0  0  0  0  0  0  0  0  0
   10.7811   16.4300   22.7922 H   0  0  0  0  0  0  0  0  0  0  0  0
    9.1534   16.0028   20.6467 H   0  0  0  0  0  0  0  0  0  0  0  0
    9.4995   17.4307   21.3593 H   0  0  0  0  0  0  0  0  0  0  0  0
  1  2  2  0  0  0  0
  1  3  1  0  0  0  0
  2  4  1  0  0  0  0
  3  5  2  0  0  0  0
  4  6  2  0  0  0  0
  4 12  1  0  0  0  0
  5  6  1  0  0  0  0
  5 13  1  0  0  0  0
  6 14  1  0  0  0  0
  7 15  1  0  0  0  0
  7 16  1  0  0  0  0
  7 18  2  0  0  0  0
  8  9  1  0  0  0  0
  8 10  1  0  0  0  0
  9 11  1  0  0  0  0
 10 12  1  0  0  0  0
 11 16  1  0  0  0  0
 12 16  1  0  0  0  0
 15 17  1  0  0  0  0
  1 19  1  0  0  0  0
  2 20  1  0  0  0  0
  3 21  1  0  0  0  0
  8 22  1  0  0  0  0
  8 23  1  0  0  0  0
  9 24  1  0  0  0  0
  9 25  1  0  0  0  0
 10 26  1  0  0  0  0
 10 27  1  0  0  0  0
 11 28  1  0  0  0  0
 11 29  1  0  0  0  0
 12 30  1  0  0  0  0
 13 31  1  0  0  0  0
 13 32  1  0  0  0  0
 13 33  1  0  0  0  0
 14 34  1  0  0  0  0
 14 35  1  0  0  0  0
 14 36  1  0  0  0  0
 15 37  1  0  0  0  0
 15 38  1  0  0  0  0
 17 39  1  0  0  0  0
 17 40  1  0  0  0  0
M  END
> <Catalog ID>
Z1450458283

> <PlateID>
1337959-R-12

> <Well>
A04

> <MW (desalted)>
246.348

> <CLogP>
2.195

> <HBD>
1

> <TPSA>
46.330

> <RotBonds>
2

> <ROCS_ShapeQuery>
A71EV2A-x0451_0A_A71EV2A-x0310_0A_A71EV2A-x0416_0A_peptide

> <ROCS_TanimotoCombo>
0.419 

> <ROCS_ShapeTanimoto>
0.308 

> <ROCS_ColorTanimoto>
0.111 

> <ROCS_RefTversky>
0.273 

> <ROCS_RefColorTversky>
0.121 

> <ROCS_RefTverskyCombo>
0.394 

> <ROCS_FitTversky>
1.709 

> <ROCS_FitColorTversky>
0.580 

> <ROCS_FitTverskyCombo>
2.289 

> <ROCS_ColorScore>
-3.675

> <ROCS_Overlap>
1891.855

> <ROCS_Rank>
262                 

$$$$
untitled-dbase-359_17
  -OEChem-11112309163D

 27 27  0     0  0  0  0  0  0999 V2000
   10.2533   10.7630   22.8987 C   0  0  0  0  0  0  0  0  0  0  0  0
    9.3891    9.6760   23.0297 C   0  0  0  0  0  0  0  0  0  0  0  0
    8.8264   12.0716   24.3440 C   0  0  0  0  0  0  0  0  0  0  0  0
    7.9622   10.9846   24.4750 C   0  0  0  0  0  0  0  0  0  0  0  0
    9.9720   11.9608   23.5559 C   0  0  0  0  0  0  0  0  0  0  0  0
    8.2435    9.7868   23.8178 C   0  0  0  0  0  0  0  0  0  0  0  0
    9.4652   14.2337   21.3459 C   0  0  0  0  0  0  0  0  0  0  0  0
   11.8792   14.6594   21.1181 C   0  0  0  0  0  0  0  0  0  0  0  0
    6.6521   12.3844   25.8821 C   0  0  0  0  0  0  0  0  0  0  0  0
   10.8319   13.8203   21.7541 N   0  0  0  0  0  0  0  0  0  0  0  0
   10.5890   14.3829   24.2781 O   0  0  0  0  0  0  0  0  0  0  0  0
   12.4226   12.8338   23.5553 O   0  0  0  0  0  0  0  0  0  0  0  0
    6.8509   11.1206   25.2526 O   0  0  0  0  0  0  0  0  0  0  0  0
   11.0719   13.3393   23.3927 S   0  0  0  0  0  0  0  0  0  0  0  0
    7.1920    8.4269   23.9613 Cl  0  0  0  0  0  0  0  0  0  0  0  0
   11.1439   10.6661   22.2837 H   0  0  0  0  0  0  0  0  0  0  0  0
    9.6233    8.7491   22.5123 H   0  0  0  0  0  0  0  0  0  0  0  0
    8.6044   13.0034   24.8585 H   0  0  0  0  0  0  0  0  0  0  0  0
    8.7236   13.5877   21.8388 H   0  0  0  0  0  0  0  0  0  0  0  0
    9.2948   15.2793   21.6419 H   0  0  0  0  0  0  0  0  0  0  0  0
    9.3647   14.1405   20.2545 H   0  0  0  0  0  0  0  0  0  0  0  0
   12.8722   14.3194   21.4473 H   0  0  0  0  0  0  0  0  0  0  0  0
   11.8055   14.5710   20.0242 H   0  0  0  0  0  0  0  0  0  0  0  0
   11.7356   15.7098   21.4116 H   0  0  0  0  0  0  0  0  0  0  0  0
    5.7320   12.3582   26.4711 H   0  0  0  0  0  0  0  0  0  0  0  0
    6.5878   13.1657   25.1206 H   0  0  0  0  0  0  0  0  0  0  0  0
    7.4985   12.5900   26.5417 H   0  0  0  0  0  0  0  0  0  0  0  0
  1  2  1  0  0  0  0
  1  5  2  0  0  0  0
  2  6  2  0  0  0  0
  3  4  2  0  0  0  0
  3  5  1  0  0  0  0
  4  6  1  0  0  0  0
  4 13  1  0  0  0  0
  5 14  1  0  0  0  0
  6 15  1  0  0  0  0
  7 10  1  0  0  0  0
  8 10  1  0  0  0  0
  9 13  1  0  0  0  0
 10 14  1  0  0  0  0
 11 14  2  0  0  0  0
 12 14  2  0  0  0  0
  1 16  1  0  0  0  0
  2 17  1  0  0  0  0
  3 18  1  0  0  0  0
  7 19  1  0  0  0  0
  7 20  1  0  0  0  0
  7 21  1  0  0  0  0
  8 22  1  0  0  0  0
  8 23  1  0  0  0  0
  8 24  1  0  0  0  0
  9 25  1  0  0  0  0
  9 26  1  0  0  0  0
  9 27  1  0  0  0  0
M  END
> <Catalog ID>
Z285130310

> <PlateID>
1337959-R-05

> <Well>
D11

> <MW (desalted)>
249.714

> <CLogP>
2.038

> <HBD>
0

> <TPSA>
46.610

> <RotBonds>
2

> <ROCS_ShapeQuery>
A71EV2A-x0451_0A_A71EV2A-x0310_0A_A71EV2A-x0416_0A_peptide

> <ROCS_TanimotoCombo>
0.419 

> <ROCS_ShapeTanimoto>
0.294 

> <ROCS_ColorTanimoto>
0.125 

> <ROCS_RefTversky>
0.258 

> <ROCS_RefColorTversky>
0.131 

> <ROCS_RefTverskyCombo>
0.389 

> <ROCS_FitTversky>
1.888 

> <ROCS_FitColorTversky>
0.735 

> <ROCS_FitTverskyCombo>
2.623 

> <ROCS_ColorScore>
-3.961

> <ROCS_Overlap>
1789.324

> <ROCS_Rank>
263                 

$$$$
untitled-dbase-963_0
  -OEChem-11112309163D

 29 31  0     1  0  0  0  0  0999 V2000
    6.2880   10.8883   25.3946 C   0  0  0  0  0  0  0  0  0  0  0  0
    6.4538   12.2799   25.4638 C   0  0  0  0  0  0  0  0  0  0  0  0
    7.2705   10.0826   24.8161 C   0  0  0  0  0  0  0  0  0  0  0  0
    7.6041   12.8859   24.9542 C   0  0  0  0  0  0  0  0  0  0  0  0
    8.4139   10.6903   24.3242 C   0  0  0  0  0  0  0  0  0  0  0  0
    8.5805   12.0802   24.3866 C   0  0  0  0  0  0  0  0  0  0  0  0
    9.5727   10.0394   23.6391 C   0  0  0  0  0  0  0  0  0  0  0  0
   10.6367   11.1398   23.7560 C   0  0  0  0  0  0  0  0  0  0  0  0
   11.5247   14.5371   22.6430 C   0  0  0  0  0  0  0  0  0  0  0  0
    9.6461   13.0790   22.3474 C   0  0  0  0  0  0  0  0  0  0  0  0
   11.7630   13.9308   24.0194 C   0  0  0  0  0  0  0  0  0  0  0  0
    9.8848   12.4977   23.7509 C   0  0  1  0  0  0  0  0  0  0  0  0
   10.9005   13.5536   21.7576 N   0  0  0  0  0  0  0  0  0  0  0  0
   10.5398   13.4561   24.5848 O   0  0  0  0  0  0  0  0  0  0  0  0
    5.3836   10.4351   25.7916 H   0  0  0  0  0  0  0  0  0  0  0  0
    5.6765   12.8914   25.9139 H   0  0  0  0  0  0  0  0  0  0  0  0
    7.1360    9.0080   24.7558 H   0  0  0  0  0  0  0  0  0  0  0  0
    7.7229   13.9632   25.0015 H   0  0  0  0  0  0  0  0  0  0  0  0
    9.8931    9.1213   24.1393 H   0  0  0  0  0  0  0  0  0  0  0  0
    9.3268    9.8315   22.5930 H   0  0  0  0  0  0  0  0  0  0  0  0
   11.1755   11.0200   24.7074 H   0  0  0  0  0  0  0  0  0  0  0  0
   11.3894   11.0564   22.9649 H   0  0  0  0  0  0  0  0  0  0  0  0
   10.8764   15.4178   22.7260 H   0  0  0  0  0  0  0  0  0  0  0  0
   12.4769   14.8632   22.2123 H   0  0  0  0  0  0  0  0  0  0  0  0
    9.2005   12.3295   21.6827 H   0  0  0  0  0  0  0  0  0  0  0  0
    8.9403   13.9190   22.3950 H   0  0  0  0  0  0  0  0  0  0  0  0
   12.4957   13.1163   23.9803 H   0  0  0  0  0  0  0  0  0  0  0  0
   12.1630   14.6936   24.6952 H   0  0  0  0  0  0  0  0  0  0  0  0
   10.7078   13.9844   20.8539 H   0  0  0  0  0  0  0  0  0  0  0  0
  1  2  2  0  0  0  0
  1  3  1  0  0  0  0
  2  4  1  0  0  0  0
  3  5  2  0  0  0  0
  4  6  2  0  0  0  0
  5  6  1  0  0  0  0
  5  7  1  0  0  0  0
  6 12  1  0  0  0  0
  7  8  1  0  0  0  0
  8 12  1  0  0  0  0
  9 11  1  0  0  0  0
  9 13  1  0  0  0  0
 10 12  1  0  0  0  0
 10 13  1  0  0  0  0
 11 14  1  0  0  0  0
 12 14  1  0  0  0  0
  1 15  1  0  0  0  0
  2 16  1  0  0  0  0
  3 17  1  0  0  0  0
  4 18  1  0  0  0  0
  7 19  1  0  0  0  0
  7 20  1  0  0  0  0
  8 21  1  0  0  0  0
  8 22  1  0  0  0  0
  9 23  1  0  0  0  0
  9 24  1  0  0  0  0
 10 25  1  0  0  0  0
 10 26  1  0  0  0  0
 11 27  1  0  0  0  0
 11 28  1  0  0  0  0
 13 29  1  0  0  0  0
M  END
> <Catalog ID>
Z1251362656

> <PlateID>
1337959-R-13

> <Well>
A07

> <MW (desalted)>
189.254

> <CLogP>
1.534

> <HBD>
1

> <TPSA>
21.260

> <RotBonds>
0

> <ROCS_ShapeQuery>
A71EV2A-x0451_0A_A71EV2A-x0310_0A_A71EV2A-x0416_0A_peptide

> <ROCS_TanimotoCombo>
0.418 

> <ROCS_ShapeTanimoto>
0.283 

> <ROCS_ColorTanimoto>
0.136 

> <ROCS_RefTversky>
0.251 

> <ROCS_RefColorTversky>
0.148 

> <ROCS_RefTverskyCombo>
0.399 

> <ROCS_FitTversky>
1.796 

> <ROCS_FitColorTversky>
0.618 

> <ROCS_FitTverskyCombo>
2.414 

> <ROCS_ColorScore>
-4.513

> <ROCS_Overlap>
1739.895

> <ROCS_Rank>
264                 

$$$$
untitled-dbase-320_1
  -OEChem-11112309163D

 26 27  0     1  0  0  0  0  0999 V2000
   10.4919   13.3861   23.4690 C   0  0  0  0  0  0  0  0  0  0  0  0
   10.8363   12.3707   21.4700 C   0  0  0  0  0  0  0  0  0  0  0  0
   10.2560   11.2056   24.6693 C   0  0  0  0  0  0  0  0  0  0  0  0
    7.2412   11.2142   23.6324 C   0  0  0  0  0  0  0  0  0  0  0  0
    9.9908    9.7007   24.5628 C   0  0  0  0  0  0  0  0  0  0  0  0
    7.5561   10.0501   24.5698 C   0  0  0  0  0  0  0  0  0  0  0  0
    9.6941   12.0731   23.5352 C   0  0  1  0  0  0  0  0  0  0  0  0
    8.2059   12.3905   23.7020 C   0  0  0  0  0  0  0  0  0  0  0  0
   11.1137   13.4690   22.2478 N   0  0  0  0  0  0  0  0  0  0  0  0
   10.0005   11.5454   22.2197 N   0  0  0  0  0  0  0  0  0  0  0  0
    8.6843    9.2742   24.0742 N   0  0  0  0  0  0  0  0  0  0  0  0
   10.5547   14.2130   24.3694 O   0  0  0  0  0  0  0  0  0  0  0  0
   11.2416   12.1541   20.3364 O   0  0  0  0  0  0  0  0  0  0  0  0
    8.0172   13.0178   24.8980 F   0  0  0  0  0  0  0  0  0  0  0  0
    7.8255   13.2907   22.7507 F   0  0  0  0  0  0  0  0  0  0  0  0
    9.8603   11.5688   25.6276 H   0  0  0  0  0  0  0  0  0  0  0  0
   11.3434   11.3449   24.7456 H   0  0  0  0  0  0  0  0  0  0  0  0
    7.1601   10.8622   22.5958 H   0  0  0  0  0  0  0  0  0  0  0  0
    6.2421   11.5902   23.8886 H   0  0  0  0  0  0  0  0  0  0  0  0
   10.7507    9.2520   23.9109 H   0  0  0  0  0  0  0  0  0  0  0  0
   10.1560    9.2525   25.5503 H   0  0  0  0  0  0  0  0  0  0  0  0
    7.6954   10.3811   25.6051 H   0  0  0  0  0  0  0  0  0  0  0  0
    6.6856    9.3837   24.5778 H   0  0  0  0  0  0  0  0  0  0  0  0
   11.7020   14.2414   21.9571 H   0  0  0  0  0  0  0  0  0  0  0  0
    9.6431   10.6639   21.8662 H   0  0  0  0  0  0  0  0  0  0  0  0
    8.6784    9.2536   23.0561 H   0  0  0  0  0  0  0  0  0  0  0  0
  1  7  1  0  0  0  0
  1  9  1  0  0  0  0
  1 12  2  0  0  0  0
  2  9  1  0  0  0  0
  2 10  1  0  0  0  0
  2 13  2  0  0  0  0
  3  5  1  0  0  0  0
  3  7  1  0  0  0  0
  4  6  1  0  0  0  0
  4  8  1  0  0  0  0
  5 11  1  0  0  0  0
  6 11  1  0  0  0  0
  7  8  1  0  0  0  0
  7 10  1  0  0  0  0
  8 14  1  0  0  0  0
  8 15  1  0  0  0  0
  3 16  1  0  0  0  0
  3 17  1  0  0  0  0
  4 18  1  0  0  0  0
  4 19  1  0  0  0  0
  5 20  1  0  0  0  0
  5 21  1  0  0  0  0
  6 22  1  0  0  0  0
  6 23  1  0  0  0  0
  9 24  1  0  0  0  0
 10 25  1  0  0  0  0
 11 26  1  0  0  0  0
M  END
> <Catalog ID>
Z4500944652

> <PlateID>
1337959-R-05

> <Well>
A02

> <MW (desalted)>
219.189

> <CLogP>
-1.274

> <HBD>
3

> <TPSA>
70.230

> <RotBonds>
0

> <ROCS_ShapeQuery>
A71EV2A-x0451_0A_A71EV2A-x0310_0A_A71EV2A-x0416_0A_peptide

> <ROCS_TanimotoCombo>
0.418 

> <ROCS_ShapeTanimoto>
0.243 

> <ROCS_ColorTanimoto>
0.176 

> <ROCS_RefTversky>
0.224 

> <ROCS_RefColorTversky>
0.195 

> <ROCS_RefTverskyCombo>
0.418 

> <ROCS_FitTversky>
1.528 

> <ROCS_FitColorTversky>
0.646 

> <ROCS_FitTverskyCombo>
2.174 

> <ROCS_ColorScore>
-5.941

> <ROCS_Overlap>
1551.158

> <ROCS_Rank>
265                 

$$$$
untitled-dbase-312_23
  -OEChem-11112309163D

 32 33  0     1  0  0  0  0  0999 V2000
    6.1483   11.4629   25.8577 C   0  0  0  0  0  0  0  0  0  0  0  0
    6.7002   12.7385   25.7964 C   0  0  0  0  0  0  0  0  0  0  0  0
    6.7746   10.4040   25.2045 C   0  0  0  0  0  0  0  0  0  0  0  0
    7.8834   12.9552   25.0885 C   0  0  0  0  0  0  0  0  0  0  0  0
    7.9558   10.6158   24.4793 C   0  0  0  0  0  0  0  0  0  0  0  0
    8.5355   11.8981   24.4307 C   0  0  0  0  0  0  0  0  0  0  0  0
    8.6278    9.4571   23.7961 C   0  0  0  0  0  0  0  0  0  0  0  0
    9.5102    9.9539   22.6649 C   0  0  0  0  0  0  0  0  0  0  0  0
    9.8310   12.1286   23.6536 C   0  0  1  0  0  0  0  0  0  0  0  0
   11.7992   14.8747   25.0541 C   0  0  0  0  0  0  0  0  0  0  0  0
    9.5894   13.0453   22.4426 C   0  0  0  0  0  0  0  0  0  0  0  0
   10.9046   12.7593   24.5563 C   0  0  0  0  0  0  0  0  0  0  0  0
   10.8132   13.2420   21.7488 N   0  0  0  0  0  0  0  0  0  0  0  0
   10.4345   10.9043   23.1837 O   0  0  0  0  0  0  0  0  0  0  0  0
   10.6475   14.1452   24.6409 O   0  0  0  0  0  0  0  0  0  0  0  0
    5.2306   11.2932   26.4130 H   0  0  0  0  0  0  0  0  0  0  0  0
    6.2093   13.5674   26.2980 H   0  0  0  0  0  0  0  0  0  0  0  0
    6.3394    9.4096   25.2655 H   0  0  0  0  0  0  0  0  0  0  0  0
    8.2916   13.9621   25.0584 H   0  0  0  0  0  0  0  0  0  0  0  0
    9.2337    8.8850   24.5075 H   0  0  0  0  0  0  0  0  0  0  0  0
    7.8442    8.8007   23.3990 H   0  0  0  0  0  0  0  0  0  0  0  0
   10.0391    9.1363   22.1626 H   0  0  0  0  0  0  0  0  0  0  0  0
    8.8976   10.4590   21.9111 H   0  0  0  0  0  0  0  0  0  0  0  0
   11.5578   15.9391   25.1065 H   0  0  0  0  0  0  0  0  0  0  0  0
   12.6114   14.7090   24.3418 H   0  0  0  0  0  0  0  0  0  0  0  0
   12.1066   14.5240   26.0421 H   0  0  0  0  0  0  0  0  0  0  0  0
    8.8596   12.5452   21.8135 H   0  0  0  0  0  0  0  0  0  0  0  0
    9.2064   13.9831   22.8328 H   0  0  0  0  0  0  0  0  0  0  0  0
   11.8849   12.5926   24.1198 H   0  0  0  0  0  0  0  0  0  0  0  0
   10.8509   12.3136   25.5451 H   0  0  0  0  0  0  0  0  0  0  0  0
   11.0313   14.2222   21.6937 H   0  0  0  0  0  0  0  0  0  0  0  0
   11.5648   12.7732   22.2251 H   0  0  0  0  0  0  0  0  0  0  0  0
  1  2  2  0  0  0  0
  1  3  1  0  0  0  0
  2  4  1  0  0  0  0
  3  5  2  0  0  0  0
  4  6  2  0  0  0  0
  5  6  1  0  0  0  0
  5  7  1  0  0  0  0
  6  9  1  0  0  0  0
  7  8  1  0  0  0  0
  8 14  1  0  0  0  0
  9 11  1  0  0  0  0
  9 12  1  0  0  0  0
  9 14  1  0  0  0  0
 10 15  1  0  0  0  0
 11 13  1  0  0  0  0
 12 15  1  0  0  0  0
  1 16  1  0  0  0  0
  2 17  1  0  0  0  0
  3 18  1  0  0  0  0
  4 19  1  0  0  0  0
  7 20  1  0  0  0  0
  7 21  1  0  0  0  0
  8 22  1  0  0  0  0
  8 23  1  0  0  0  0
 10 24  1  0  0  0  0
 10 25  1  0  0  0  0
 10 26  1  0  0  0  0
 11 27  1  0  0  0  0
 11 28  1  0  0  0  0
 12 29  1  0  0  0  0
 12 30  1  0  0  0  0
 13 31  1  0  0  0  0
 13 32  1  0  0  0  0
M  END
> <Catalog ID>
Z2168496060

> <PlateID>
1337959-R-04

> <Well>
H04

> <MW (desalted)>
207.269

> <CLogP>
1.073

> <HBD>
1

> <TPSA>
44.480

> <RotBonds>
3

> <ROCS_ShapeQuery>
A71EV2A-x0451_0A_A71EV2A-x0310_0A_A71EV2A-x0416_0A_peptide

> <ROCS_TanimotoCombo>
0.418 

> <ROCS_ShapeTanimoto>
0.280 

> <ROCS_ColorTanimoto>
0.138 

> <ROCS_RefTversky>
0.250 

> <ROCS_RefColorTversky>
0.151 

> <ROCS_RefTverskyCombo>
0.401 

> <ROCS_FitTversky>
1.749 

> <ROCS_FitColorTversky>
0.629 

> <ROCS_FitTverskyCombo>
2.377 

> <ROCS_ColorScore>
-4.582

> <ROCS_Overlap>
1733.132

> <ROCS_Rank>
266                 

$$$$
untitled-dbase-867_13
  -OEChem-11112309163D

 32 33  0     0  0  0  0  0  0999 V2000
    8.6840    9.8134   23.2885 C   0  0  0  0  0  0  0  0  0  0  0  0
    9.6412   10.7849   22.9962 C   0  0  0  0  0  0  0  0  0  0  0  0
    8.6387   12.2623   24.6240 C   0  0  0  0  0  0  0  0  0  0  0  0
    7.7041   10.0663   24.2485 C   0  0  0  0  0  0  0  0  0  0  0  0
    9.6186   12.0094   23.6640 C   0  0  0  0  0  0  0  0  0  0  0  0
    7.6815   11.2907   24.9162 C   0  0  0  0  0  0  0  0  0  0  0  0
    8.9410   15.7321   21.8886 C   0  0  0  0  0  0  0  0  0  0  0  0
   11.2560   15.9268   21.2074 C   0  0  0  0  0  0  0  0  0  0  0  0
    8.9545   14.2363   21.5800 C   0  0  0  0  0  0  0  0  0  0  0  0
   11.3088   14.4343   20.8874 C   0  0  0  0  0  0  0  0  0  0  0  0
    9.8552   17.8864   21.3096 C   0  0  0  0  0  0  0  0  0  0  0  0
    9.8940   16.4516   21.0305 N   0  0  0  0  0  0  0  0  0  0  0  0
   10.3307   13.6888   21.7256 N   0  0  0  0  0  0  0  0  0  0  0  0
   10.6189   14.3525   24.1955 O   0  0  0  0  0  0  0  0  0  0  0  0
   12.1180   12.5842   23.2090 O   0  0  0  0  0  0  0  0  0  0  0  0
    6.7894    9.1235   24.5166 F   0  0  0  0  0  0  0  0  0  0  0  0
   10.8303   13.2392   23.2953 S   0  0  0  0  0  0  0  0  0  0  0  0
    6.4760   11.6087   26.1034 Cl  0  0  0  0  0  0  0  0  0  0  0  0
    8.7004    8.8608   22.7675 H   0  0  0  0  0  0  0  0  0  0  0  0
   10.4002   10.5777   22.2466 H   0  0  0  0  0  0  0  0  0  0  0  0
    8.6250   13.2181   25.1429 H   0  0  0  0  0  0  0  0  0  0  0  0
    7.9256   16.1283   21.7547 H   0  0  0  0  0  0  0  0  0  0  0  0
    9.2116   15.8689   22.9423 H   0  0  0  0  0  0  0  0  0  0  0  0
   11.5774   16.0685   22.2460 H   0  0  0  0  0  0  0  0  0  0  0  0
   11.9653   16.4670   20.5661 H   0  0  0  0  0  0  0  0  0  0  0  0
    8.2681   13.6951   22.2491 H   0  0  0  0  0  0  0  0  0  0  0  0
    8.6097   14.0822   20.5473 H   0  0  0  0  0  0  0  0  0  0  0  0
   11.0627   14.2883   19.8258 H   0  0  0  0  0  0  0  0  0  0  0  0
   12.3210   14.0360   21.0569 H   0  0  0  0  0  0  0  0  0  0  0  0
   10.5737   18.4065   20.6590 H   0  0  0  0  0  0  0  0  0  0  0  0
    8.8423   18.2699   21.1175 H   0  0  0  0  0  0  0  0  0  0  0  0
   10.1203   18.0622   22.3626 H   0  0  0  0  0  0  0  0  0  0  0  0
  1  2  1  0  0  0  0
  1  4  2  0  0  0  0
  2  5  2  0  0  0  0
  3  5  1  0  0  0  0
  3  6  2  0  0  0  0
  4  6  1  0  0  0  0
  4 16  1  0  0  0  0
  5 17  1  0  0  0  0
  6 18  1  0  0  0  0
  7  9  1  0  0  0  0
  7 12  1  0  0  0  0
  8 10  1  0  0  0  0
  8 12  1  0  0  0  0
  9 13  1  0  0  0  0
 10 13  1  0  0  0  0
 11 12  1  0  0  0  0
 13 17  1  0  0  0  0
 14 17  2  0  0  0  0
 15 17  2  0  0  0  0
  1 19  1  0  0  0  0
  2 20  1  0  0  0  0
  3 21  1  0  0  0  0
  7 22  1  0  0  0  0
  7 23  1  0  0  0  0
  8 24  1  0  0  0  0
  8 25  1  0  0  0  0
  9 26  1  0  0  0  0
  9 27  1  0  0  0  0
 10 28  1  0  0  0  0
 10 29  1  0  0  0  0
 11 30  1  0  0  0  0
 11 31  1  0  0  0  0
 11 32  1  0  0  0  0
M  END
> <Catalog ID>
Z45507458

> <PlateID>
1337959-R-11

> <Well>
G11

> <MW (desalted)>
292.757

> <CLogP>
2.700

> <HBD>
0

> <TPSA>
40.620

> <RotBonds>
1

> <ROCS_ShapeQuery>
A71EV2A-x0451_0A_A71EV2A-x0310_0A_A71EV2A-x0416_0A_peptide

> <ROCS_TanimotoCombo>
0.418 

> <ROCS_ShapeTanimoto>
0.286 

> <ROCS_ColorTanimoto>
0.132 

> <ROCS_RefTversky>
0.257 

> <ROCS_RefColorTversky>
0.141 

> <ROCS_RefTverskyCombo>
0.399 

> <ROCS_FitTversky>
1.639 

> <ROCS_FitColorTversky>
0.677 

> <ROCS_FitTverskyCombo>
2.316 

> <ROCS_ColorScore>
-4.294

> <ROCS_Overlap>
1783.991

> <ROCS_Rank>
267                 

$$$$
untitled-dbase-1080_64
  -OEChem-11112309163D

 38 39  0     1  0  0  0  0  0999 V2000
   10.2802   15.2077   21.2175 C   0  0  0  0  0  0  0  0  0  0  0  0
   10.0384   16.2107   22.1496 C   0  0  0  0  0  0  0  0  0  0  0  0
   10.7465   13.9688   21.6429 C   0  0  0  0  0  0  0  0  0  0  0  0
   10.2767   15.9266   23.4846 C   0  0  0  0  0  0  0  0  0  0  0  0
   10.9533   13.7851   23.0006 C   0  0  0  0  0  0  0  0  0  0  0  0
   10.5515   11.4498   23.7727 C   0  0  0  0  0  0  0  0  0  0  0  0
    7.8568   11.6752   25.3293 C   0  0  0  0  0  0  0  0  0  0  0  0
    8.2967   12.4059   24.0622 C   0  0  0  0  0  0  0  0  0  0  0  0
    7.2997   10.2981   25.0002 C   0  0  0  0  0  0  0  0  0  0  0  0
    9.1757   11.5235   23.1715 C   0  0  2  0  0  0  0  0  0  0  0  0
    8.5461   10.1347   22.9867 C   0  0  1  0  0  0  0  0  0  0  0  0
    8.7947    7.8311   22.0484 C   0  0  0  0  0  0  0  0  0  0  0  0
   12.8961   12.2905   23.4041 C   0  0  0  0  0  0  0  0  0  0  0  0
    9.4340    9.1728   22.2048 C   0  0  0  0  0  0  0  0  0  0  0  0
   10.7296   14.7354   23.9357 N   0  0  0  0  0  0  0  0  0  0  0  0
   11.4390   12.4901   23.4331 N   0  0  0  0  0  0  0  0  0  0  0  0
   10.7968   10.5138   24.5380 O   0  0  0  0  0  0  0  0  0  0  0  0
    8.2438    9.5346   24.2509 O   0  0  0  0  0  0  0  0  0  0  0  0
   10.1061   15.3918   20.1617 H   0  0  0  0  0  0  0  0  0  0  0  0
    9.6742   17.1838   21.8406 H   0  0  0  0  0  0  0  0  0  0  0  0
   10.9370   13.1803   20.9221 H   0  0  0  0  0  0  0  0  0  0  0  0
   10.1033   16.6742   24.2516 H   0  0  0  0  0  0  0  0  0  0  0  0
    8.7231   11.5628   25.9923 H   0  0  0  0  0  0  0  0  0  0  0  0
    7.1098   12.2682   25.8676 H   0  0  0  0  0  0  0  0  0  0  0  0
    7.4026   12.6983   23.4970 H   0  0  0  0  0  0  0  0  0  0  0  0
    8.8175   13.3315   24.3347 H   0  0  0  0  0  0  0  0  0  0  0  0
    7.0887    9.7519   25.9251 H   0  0  0  0  0  0  0  0  0  0  0  0
    6.3606   10.3714   24.4393 H   0  0  0  0  0  0  0  0  0  0  0  0
    9.2935   12.0068   22.1938 H   0  0  0  0  0  0  0  0  0  0  0  0
    7.6058   10.2419   22.4292 H   0  0  0  0  0  0  0  0  0  0  0  0
    8.5860    7.4040   23.0363 H   0  0  0  0  0  0  0  0  0  0  0  0
    9.4581    7.1427   21.5142 H   0  0  0  0  0  0  0  0  0  0  0  0
    7.8467    7.9119   21.5061 H   0  0  0  0  0  0  0  0  0  0  0  0
   13.3272   12.5911   24.3705 H   0  0  0  0  0  0  0  0  0  0  0  0
   13.1171   11.2290   23.2186 H   0  0  0  0  0  0  0  0  0  0  0  0
   13.3340   12.9019   22.6014 H   0  0  0  0  0  0  0  0  0  0  0  0
    9.6409    9.5960   21.2175 H   0  0  0  0  0  0  0  0  0  0  0  0
   10.3904    9.0631   22.7244 H   0  0  0  0  0  0  0  0  0  0  0  0
  1  2  2  0  0  0  0
  1  3  1  0  0  0  0
  2  4  1  0  0  0  0
  3  5  2  0  0  0  0
  4 15  2  0  0  0  0
  5 15  1  0  0  0  0
  5 16  1  0  0  0  0
  6 10  1  0  0  0  0
  6 16  1  0  0  0  0
  6 17  2  0  0  0  0
  7  8  1  0  0  0  0
  7  9  1  0  0  0  0
  8 10  1  0  0  0  0
  9 18  1  0  0  0  0
 10 11  1  0  0  0  0
 11 14  1  0  0  0  0
 11 18  1  0  0  0  0
 12 14  1  0  0  0  0
 13 16  1  0  0  0  0
  1 19  1  0  0  0  0
  2 20  1  0  0  0  0
  3 21  1  0  0  0  0
  4 22  1  0  0  0  0
  7 23  1  0  0  0  0
  7 24  1  0  0  0  0
  8 25  1  0  0  0  0
  8 26  1  0  0  0  0
  9 27  1  0  0  0  0
  9 28  1  0  0  0  0
 10 29  1  0  0  0  0
 11 30  1  0  0  0  0
 12 31  1  0  0  0  0
 12 32  1  0  0  0  0
 12 33  1  0  0  0  0
 13 34  1  0  0  0  0
 13 35  1  0  0  0  0
 13 36  1  0  0  0  0
 14 37  1  0  0  0  0
 14 38  1  0  0  0  0
M  END
> <Catalog ID>
Z1863974660

> <PlateID>
1337959-R-14

> <Well>
E06

> <MW (desalted)>
248.321

> <CLogP>
1.226

> <HBD>
0

> <TPSA>
42.430

> <RotBonds>
3

> <ROCS_ShapeQuery>
A71EV2A-x0451_0A_A71EV2A-x0310_0A_A71EV2A-x0416_0A_peptide

> <ROCS_TanimotoCombo>
0.418 

> <ROCS_ShapeTanimoto>
0.303 

> <ROCS_ColorTanimoto>
0.115 

> <ROCS_RefTversky>
0.270 

> <ROCS_RefColorTversky>
0.128 

> <ROCS_RefTverskyCombo>
0.398 

> <ROCS_FitTversky>
1.676 

> <ROCS_FitColorTversky>
0.536 

> <ROCS_FitTverskyCombo>
2.212 

> <ROCS_ColorScore>
-3.902

> <ROCS_Overlap>
1872.336

> <ROCS_Rank>
268                 

$$$$
untitled-dbase-820_47
  -OEChem-11112309163D

 35 36  0     0  0  0  0  0  0999 V2000
    9.2621   11.7782   23.8792 C   0  0  0  0  0  0  0  0  0  0  0  0
    8.1378   12.0519   24.6770 C   0  0  0  0  0  0  0  0  0  0  0  0
    9.1378   10.4457   23.5873 C   0  0  0  0  0  0  0  0  0  0  0  0
   10.8984   15.6486   21.3937 C   0  0  0  0  0  0  0  0  0  0  0  0
   11.6833   13.5577   20.2212 C   0  0  0  0  0  0  0  0  0  0  0  0
    9.6204   14.9173   21.7910 C   0  0  0  0  0  0  0  0  0  0  0  0
   10.3904   12.8659   20.6403 C   0  0  0  0  0  0  0  0  0  0  0  0
   11.4890   15.0760   20.0967 C   0  0  0  0  0  0  0  0  0  0  0  0
    7.7450   13.3335   25.2868 C   0  0  0  0  0  0  0  0  0  0  0  0
    9.9383    9.4926   22.8073 C   0  0  0  0  0  0  0  0  0  0  0  0
   12.8066   15.7652   19.7497 C   0  0  0  0  0  0  0  0  0  0  0  0
    7.3745   10.9718   24.8656 N   0  0  0  0  0  0  0  0  0  0  0  0
    9.8693   13.4541   21.9045 N   0  0  0  0  0  0  0  0  0  0  0  0
   10.5885   13.9739   24.3186 O   0  0  0  0  0  0  0  0  0  0  0  0
   11.7169   12.0992   23.0695 O   0  0  0  0  0  0  0  0  0  0  0  0
    8.0151    9.9531   24.1704 O   0  0  0  0  0  0  0  0  0  0  0  0
   10.5390   12.8845   23.3679 S   0  0  0  0  0  0  0  0  0  0  0  0
   10.6834   16.7160   21.2684 H   0  0  0  0  0  0  0  0  0  0  0  0
   11.6333   15.5614   22.2044 H   0  0  0  0  0  0  0  0  0  0  0  0
   12.4656   13.3453   20.9613 H   0  0  0  0  0  0  0  0  0  0  0  0
   12.0244   13.1441   19.2650 H   0  0  0  0  0  0  0  0  0  0  0  0
    9.2765   15.3053   22.7609 H   0  0  0  0  0  0  0  0  0  0  0  0
    8.8241   15.1019   21.0540 H   0  0  0  0  0  0  0  0  0  0  0  0
    9.6302   12.9547   19.8495 H   0  0  0  0  0  0  0  0  0  0  0  0
   10.5937   11.7959   20.7916 H   0  0  0  0  0  0  0  0  0  0  0  0
   10.7814   15.2701   19.2772 H   0  0  0  0  0  0  0  0  0  0  0  0
    7.0975   13.9174   24.6103 H   0  0  0  0  0  0  0  0  0  0  0  0
    7.1948   13.1934   26.2344 H   0  0  0  0  0  0  0  0  0  0  0  0
    8.6187   13.9624   25.5354 H   0  0  0  0  0  0  0  0  0  0  0  0
   10.6997    8.9952   23.4348 H   0  0  0  0  0  0  0  0  0  0  0  0
    9.3193    8.6985   22.3496 H   0  0  0  0  0  0  0  0  0  0  0  0
   10.4700    9.9779   21.9673 H   0  0  0  0  0  0  0  0  0  0  0  0
   13.5336   15.5935   20.5422 H   0  0  0  0  0  0  0  0  0  0  0  0
   12.6457   16.8366   19.6401 H   0  0  0  0  0  0  0  0  0  0  0  0
   13.1976   15.3660   18.8150 H   0  0  0  0  0  0  0  0  0  0  0  0
  1  2  1  0  0  0  0
  1  3  2  0  0  0  0
  1 17  1  0  0  0  0
  2  9  1  0  0  0  0
  2 12  2  0  0  0  0
  3 10  1  0  0  0  0
  3 16  1  0  0  0  0
  4  6  1  0  0  0  0
  4  8  1  0  0  0  0
  5  7  1  0  0  0  0
  5  8  1  0  0  0  0
  6 13  1  0  0  0  0
  7 13  1  0  0  0  0
  8 11  1  0  0  0  0
 12 16  1  0  0  0  0
 13 17  1  0  0  0  0
 14 17  2  0  0  0  0
 15 17  2  0  0  0  0
  4 18  1  0  0  0  0
  4 19  1  0  0  0  0
  5 20  1  0  0  0  0
  5 21  1  0  0  0  0
  6 22  1  0  0  0  0
  6 23  1  0  0  0  0
  7 24  1  0  0  0  0
  7 25  1  0  0  0  0
  8 26  1  0  0  0  0
  9 27  1  0  0  0  0
  9 28  1  0  0  0  0
  9 29  1  0  0  0  0
 10 30  1  0  0  0  0
 10 31  1  0  0  0  0
 10 32  1  0  0  0  0
 11 33  1  0  0  0  0
 11 34  1  0  0  0  0
 11 35  1  0  0  0  0
M  END
> <Catalog ID>
Z45542221

> <PlateID>
1337959-R-11

> <Well>
C03

> <MW (desalted)>
258.337

> <CLogP>
1.842

> <HBD>
0

> <TPSA>
63.410

> <RotBonds>
1

> <ROCS_ShapeQuery>
A71EV2A-x0451_0A_A71EV2A-x0310_0A_A71EV2A-x0416_0A_peptide

> <ROCS_TanimotoCombo>
0.418 

> <ROCS_ShapeTanimoto>
0.286 

> <ROCS_ColorTanimoto>
0.132 

> <ROCS_RefTversky>
0.256 

> <ROCS_RefColorTversky>
0.141 

> <ROCS_RefTverskyCombo>
0.397 

> <ROCS_FitTversky>
1.693 

> <ROCS_FitColorTversky>
0.676 

> <ROCS_FitTverskyCombo>
2.369 

> <ROCS_ColorScore>
-4.284

> <ROCS_Overlap>
1775.967

> <ROCS_Rank>
269                 

$$$$
untitled-dbase-720_40
  -OEChem-11112309163D

 35 36  0     1  0  0  0  0  0999 V2000
    9.7462   10.7204   23.2012 C   0  0  0  0  0  0  0  0  0  0  0  0
    8.8568    9.7094   23.5650 C   0  0  0  0  0  0  0  0  0  0  0  0
    7.5357   11.3146   24.7960 C   0  0  0  0  0  0  0  0  0  0  0  0
    8.4252   12.3256   24.4322 C   0  0  0  0  0  0  0  0  0  0  0  0
    9.5305   12.0286   23.6349 C   0  0  0  0  0  0  0  0  0  0  0  0
    7.7515   10.0065   24.3624 C   0  0  0  0  0  0  0  0  0  0  0  0
    8.3505   12.9087   20.1768 C   0  0  0  0  0  0  0  0  0  0  0  0
    8.0251   14.3656   20.4405 C   0  0  0  0  0  0  0  0  0  0  0  0
    9.8052   12.7971   20.6096 C   0  0  0  0  0  0  0  0  0  0  0  0
    8.7100   14.6149   21.7829 C   0  0  2  0  0  0  0  0  0  0  0  0
    8.1649   13.7159   24.9123 C   0  0  0  0  0  0  0  0  0  0  0  0
    9.0277   16.0820   22.0073 C   0  0  0  0  0  0  0  0  0  0  0  0
    9.9684   13.8074   21.6987 N   0  0  1  0  0  0  0  0  0  0  0  0
    9.9043   16.5568   20.9858 N   0  0  0  0  0  0  0  0  0  0  0  0
   10.6000   14.3470   24.1392 O   0  0  0  0  0  0  0  0  0  0  0  0
   11.9439   12.6372   22.8671 O   0  0  0  0  0  0  0  0  0  0  0  0
   10.6778   13.2841   23.1551 S   0  0  0  0  0  0  0  0  0  0  0  0
    6.6546    8.7583   24.8118 Cl  0  0  0  0  0  0  0  0  0  0  0  0
   10.6037   10.4767   22.5794 H   0  0  0  0  0  0  0  0  0  0  0  0
    9.0373    8.6947   23.2199 H   0  0  0  0  0  0  0  0  0  0  0  0
    6.6750   11.5501   25.4180 H   0  0  0  0  0  0  0  0  0  0  0  0
    7.7208   12.2638   20.8016 H   0  0  0  0  0  0  0  0  0  0  0  0
    8.2029   12.6209   19.1322 H   0  0  0  0  0  0  0  0  0  0  0  0
    8.4536   14.9940   19.6500 H   0  0  0  0  0  0  0  0  0  0  0  0
    6.9484   14.5542   20.4823 H   0  0  0  0  0  0  0  0  0  0  0  0
   10.0421   11.7828   20.9435 H   0  0  0  0  0  0  0  0  0  0  0  0
   10.4827   13.0644   19.7916 H   0  0  0  0  0  0  0  0  0  0  0  0
    8.0821   14.2273   22.5949 H   0  0  0  0  0  0  0  0  0  0  0  0
    8.6562   13.8823   25.8779 H   0  0  0  0  0  0  0  0  0  0  0  0
    8.5389   14.4586   24.1970 H   0  0  0  0  0  0  0  0  0  0  0  0
    7.0898   13.8993   25.0306 H   0  0  0  0  0  0  0  0  0  0  0  0
    8.0860   16.6332   21.9828 H   0  0  0  0  0  0  0  0  0  0  0  0
    9.5036   16.1729   22.9853 H   0  0  0  0  0  0  0  0  0  0  0  0
    9.4805   16.4338   20.0847 H   0  0  0  0  0  0  0  0  0  0  0  0
   10.0967   17.5317   21.1246 H   0  0  0  0  0  0  0  0  0  0  0  0
  1  2  1  0  0  0  0
  1  5  2  0  0  0  0
  2  6  2  0  0  0  0
  3  4  2  0  0  0  0
  3  6  1  0  0  0  0
  4  5  1  0  0  0  0
  4 11  1  0  0  0  0
  5 17  1  0  0  0  0
  6 18  1  0  0  0  0
  7  8  1  0  0  0  0
  7  9  1  0  0  0  0
  8 10  1  0  0  0  0
  9 13  1  0  0  0  0
 10 12  1  0  0  0  0
 10 13  1  0  0  0  0
 12 14  1  0  0  0  0
 13 17  1  0  0  0  0
 15 17  2  0  0  0  0
 16 17  2  0  0  0  0
  1 19  1  0  0  0  0
  2 20  1  0  0  0  0
  3 21  1  0  0  0  0
  7 22  1  0  0  0  0
  7 23  1  0  0  0  0
  8 24  1  0  0  0  0
  8 25  1  0  0  0  0
  9 26  1  0  0  0  0
  9 27  1  0  0  0  0
 10 28  1  0  0  0  0
 11 29  1  0  0  0  0
 11 30  1  0  0  0  0
 11 31  1  0  0  0  0
 12 32  1  0  0  0  0
 12 33  1  0  0  0  0
 14 34  1  0  0  0  0
 14 35  1  0  0  0  0
M  END
> <Catalog ID>
Z1491335455

> <PlateID>
1337959-R-10

> <Well>
A03

> <MW (desalted)>
288.794

> <CLogP>
2.650

> <HBD>
1

> <TPSA>
63.400

> <RotBonds>
2

> <ROCS_ShapeQuery>
A71EV2A-x0451_0A_A71EV2A-x0310_0A_A71EV2A-x0416_0A_peptide

> <ROCS_TanimotoCombo>
0.418 

> <ROCS_ShapeTanimoto>
0.255 

> <ROCS_ColorTanimoto>
0.164 

> <ROCS_RefTversky>
0.235 

> <ROCS_RefColorTversky>
0.174 

> <ROCS_RefTverskyCombo>
0.409 

> <ROCS_FitTversky>
1.503 

> <ROCS_FitColorTversky>
0.727 

> <ROCS_FitTverskyCombo>
2.230 

> <ROCS_ColorScore>
-5.302

> <ROCS_Overlap>
1627.067

> <ROCS_Rank>
270                 

$$$$
untitled-dbase-855_154
  -OEChem-11112309163D

 33 34  0     0  0  0  0  0  0999 V2000
   12.9766   11.9900   23.0587 C   0  0  0  0  0  0  0  0  0  0  0  0
   13.9807   12.3107   22.1255 C   0  0  0  0  0  0  0  0  0  0  0  0
   12.0298   12.9714   22.8952 C   0  0  0  0  0  0  0  0  0  0  0  0
    7.9461   10.7817   24.5876 C   0  0  0  0  0  0  0  0  0  0  0  0
   10.7542   13.1454   23.6075 C   0  0  0  0  0  0  0  0  0  0  0  0
    8.4975   12.1404   24.1784 C   0  0  0  0  0  0  0  0  0  0  0  0
    9.9377    9.7103   23.5379 C   0  0  0  0  0  0  0  0  0  0  0  0
   10.0789   10.9557   22.6925 C   0  0  0  0  0  0  0  0  0  0  0  0
   10.4680   14.6665   20.8358 C   0  0  0  0  0  0  0  0  0  0  0  0
   12.7367   15.6718   20.3373 C   0  0  0  0  0  0  0  0  0  0  0  0
   11.8654   14.9691   21.3801 C   0  0  0  0  0  0  0  0  0  0  0  0
   13.6980   13.4099   21.4213 N   0  0  0  0  0  0  0  0  0  0  0  0
   12.5055   13.7883   21.9121 N   0  0  0  0  0  0  0  0  0  0  0  0
    8.6420    9.6664   24.1807 N   0  0  0  0  0  0  0  0  0  0  0  0
    9.8057   12.1204   23.5246 N   0  0  0  0  0  0  0  0  0  0  0  0
    6.8866   10.7046   25.2133 O   0  0  0  0  0  0  0  0  0  0  0  0
   10.6190   14.1944   24.2360 O   0  0  0  0  0  0  0  0  0  0  0  0
   12.9487   11.1604   23.7504 H   0  0  0  0  0  0  0  0  0  0  0  0
   14.9064   11.7893   21.9287 H   0  0  0  0  0  0  0  0  0  0  0  0
    7.7923   12.5893   23.4697 H   0  0  0  0  0  0  0  0  0  0  0  0
    8.5324   12.7648   25.0762 H   0  0  0  0  0  0  0  0  0  0  0  0
   10.0352    8.8093   22.9244 H   0  0  0  0  0  0  0  0  0  0  0  0
   10.6993    9.6747   24.3244 H   0  0  0  0  0  0  0  0  0  0  0  0
   11.0835   11.0054   22.2615 H   0  0  0  0  0  0  0  0  0  0  0  0
    9.3626   10.9586   21.8622 H   0  0  0  0  0  0  0  0  0  0  0  0
   10.5008   13.9746   19.9875 H   0  0  0  0  0  0  0  0  0  0  0  0
    9.9801   15.5864   20.4963 H   0  0  0  0  0  0  0  0  0  0  0  0
    9.8367   14.2159   21.6098 H   0  0  0  0  0  0  0  0  0  0  0  0
   12.8990   15.0276   19.4661 H   0  0  0  0  0  0  0  0  0  0  0  0
   13.7161   15.9210   20.7594 H   0  0  0  0  0  0  0  0  0  0  0  0
   12.2802   16.6023   19.9833 H   0  0  0  0  0  0  0  0  0  0  0  0
   11.7423   15.6639   22.2209 H   0  0  0  0  0  0  0  0  0  0  0  0
    8.2204    8.7568   24.3415 H   0  0  0  0  0  0  0  0  0  0  0  0
  1  2  1  0  0  0  0
  1  3  2  0  0  0  0
  2 12  2  0  0  0  0
  3  5  1  0  0  0  0
  3 13  1  0  0  0  0
  4  6  1  0  0  0  0
  4 14  1  0  0  0  0
  4 16  2  0  0  0  0
  5 15  1  0  0  0  0
  5 17  2  0  0  0  0
  6 15  1  0  0  0  0
  7  8  1  0  0  0  0
  7 14  1  0  0  0  0
  8 15  1  0  0  0  0
  9 11  1  0  0  0  0
 10 11  1  0  0  0  0
 11 13  1  0  0  0  0
 12 13  1  0  0  0  0
  1 18  1  0  0  0  0
  2 19  1  0  0  0  0
  6 20  1  0  0  0  0
  6 21  1  0  0  0  0
  7 22  1  0  0  0  0
  7 23  1  0  0  0  0
  8 24  1  0  0  0  0
  8 25  1  0  0  0  0
  9 26  1  0  0  0  0
  9 27  1  0  0  0  0
  9 28  1  0  0  0  0
 10 29  1  0  0  0  0
 10 30  1  0  0  0  0
 10 31  1  0  0  0  0
 11 32  1  0  0  0  0
 14 33  1  0  0  0  0
M  END
> <Catalog ID>
Z1436940824

> <PlateID>
1337959-R-11

> <Well>
F09

> <MW (desalted)>
236.270

> <CLogP>
-0.198

> <HBD>
1

> <TPSA>
67.230

> <RotBonds>
2

> <ROCS_ShapeQuery>
A71EV2A-x0451_0A_A71EV2A-x0310_0A_A71EV2A-x0416_0A_peptide

> <ROCS_TanimotoCombo>
0.418 

> <ROCS_ShapeTanimoto>
0.284 

> <ROCS_ColorTanimoto>
0.134 

> <ROCS_RefTversky>
0.256 

> <ROCS_RefColorTversky>
0.151 

> <ROCS_RefTverskyCombo>
0.406 

> <ROCS_FitTversky>
1.631 

> <ROCS_FitColorTversky>
0.557 

> <ROCS_FitTverskyCombo>
2.188 

> <ROCS_ColorScore>
-4.588

> <ROCS_Overlap>
1772.626

> <ROCS_Rank>
271                 

$$$$
untitled-dbase-1112_105
  -OEChem-11112309163D

 32 33  0     1  0  0  0  0  0999 V2000
    7.2878   11.7583   24.7718 C   0  0  0  0  0  0  0  0  0  0  0  0
    7.4438   10.3990   25.0428 C   0  0  0  0  0  0  0  0  0  0  0  0
    8.1782   12.4054   23.9150 C   0  0  0  0  0  0  0  0  0  0  0  0
    8.4904    9.6867   24.4571 C   0  0  0  0  0  0  0  0  0  0  0  0
    9.2248   11.6932   23.3294 C   0  0  0  0  0  0  0  0  0  0  0  0
    9.3809   10.3338   23.6004 C   0  0  0  0  0  0  0  0  0  0  0  0
   13.3020   15.2985   23.9530 C   0  0  0  0  0  0  0  0  0  0  0  0
   10.8467   13.5764   23.1091 C   0  0  0  0  0  0  0  0  0  0  0  0
   12.4491   15.4770   20.4142 C   0  0  0  0  0  0  0  0  0  0  0  0
   13.1696   16.0530   21.6263 C   0  0  0  0  0  0  0  0  0  0  0  0
   11.9866   14.1164   20.9067 C   0  0  0  0  0  0  0  0  0  0  0  0
   12.3433   15.5483   22.8081 C   0  0  1  0  0  0  0  0  0  0  0  0
   10.1615   12.4262   22.4159 C   0  0  0  0  0  0  0  0  0  0  0  0
   11.6981   14.3321   22.3201 N   0  0  0  0  0  0  0  0  0  0  0  0
   13.6172   16.1238   24.7973 O   0  0  0  0  0  0  0  0  0  0  0  0
   10.6337   13.7975   24.3026 O   0  0  0  0  0  0  0  0  0  0  0  0
   13.7709   14.0272   23.9160 O   0  0  0  0  0  0  0  0  0  0  0  0
   10.6635    9.4198   22.8942 Cl  0  0  0  0  0  0  0  0  0  0  0  0
    6.4722   12.3126   25.2273 H   0  0  0  0  0  0  0  0  0  0  0  0
    6.7496    9.8952   25.7090 H   0  0  0  0  0  0  0  0  0  0  0  0
    8.0473   13.4648   23.7103 H   0  0  0  0  0  0  0  0  0  0  0  0
    8.5975    8.6277   24.6777 H   0  0  0  0  0  0  0  0  0  0  0  0
   11.6174   16.1079   20.0887 H   0  0  0  0  0  0  0  0  0  0  0  0
   13.1433   15.3622   19.5739 H   0  0  0  0  0  0  0  0  0  0  0  0
   14.2171   15.7366   21.6607 H   0  0  0  0  0  0  0  0  0  0  0  0
   13.1383   17.1491   21.5904 H   0  0  0  0  0  0  0  0  0  0  0  0
   11.0596   13.8083   20.4156 H   0  0  0  0  0  0  0  0  0  0  0  0
   12.7424   13.3409   20.7742 H   0  0  0  0  0  0  0  0  0  0  0  0
   11.6083   16.3039   23.1336 H   0  0  0  0  0  0  0  0  0  0  0  0
   10.9248   11.7460   22.0344 H   0  0  0  0  0  0  0  0  0  0  0  0
    9.6292   12.8159   21.5469 H   0  0  0  0  0  0  0  0  0  0  0  0
   13.3992   13.5214   23.1621 H   0  0  0  0  0  0  0  0  0  0  0  0
  1  2  2  0  0  0  0
  1  3  1  0  0  0  0
  2  4  1  0  0  0  0
  3  5  2  0  0  0  0
  4  6  2  0  0  0  0
  5  6  1  0  0  0  0
  5 13  1  0  0  0  0
  6 18  1  0  0  0  0
  7 12  1  0  0  0  0
  7 15  2  0  0  0  0
  7 17  1  0  0  0  0
  8 13  1  0  0  0  0
  8 14  1  0  0  0  0
  8 16  2  0  0  0  0
  9 10  1  0  0  0  0
  9 11  1  0  0  0  0
 10 12  1  0  0  0  0
 11 14  1  0  0  0  0
 12 14  1  0  0  0  0
  1 19  1  0  0  0  0
  2 20  1  0  0  0  0
  3 21  1  0  0  0  0
  4 22  1  0  0  0  0
  9 23  1  0  0  0  0
  9 24  1  0  0  0  0
 10 25  1  0  0  0  0
 10 26  1  0  0  0  0
 11 27  1  0  0  0  0
 11 28  1  0  0  0  0
 12 29  1  0  0  0  0
 13 30  1  0  0  0  0
 13 31  1  0  0  0  0
 17 32  1  0  0  0  0
M  END
> <Catalog ID>
Z85891268

> <PlateID>
1337959-R-14

> <Well>
H08

> <MW (desalted)>
267.708

> <CLogP>
2.355

> <HBD>
1

> <TPSA>
57.610

> <RotBonds>
3

> <ROCS_ShapeQuery>
A71EV2A-x0451_0A_A71EV2A-x0310_0A_A71EV2A-x0416_0A_peptide

> <ROCS_TanimotoCombo>
0.418 

> <ROCS_ShapeTanimoto>
0.292 

> <ROCS_ColorTanimoto>
0.126 

> <ROCS_RefTversky>
0.263 

> <ROCS_RefColorTversky>
0.138 

> <ROCS_RefTverskyCombo>
0.401 

> <ROCS_FitTversky>
1.631 

> <ROCS_FitColorTversky>
0.577 

> <ROCS_FitTverskyCombo>
2.207 

> <ROCS_ColorScore>
-4.208

> <ROCS_Overlap>
1821.523

> <ROCS_Rank>
272                 

$$$$
untitled-dbase-888_353
  -OEChem-11112309163D

 30 31  0     0  0  0  0  0  0999 V2000
    8.5478   12.1544   24.3414 C   0  0  0  0  0  0  0  0  0  0  0  0
    7.3932   11.5726   24.6914 C   0  0  0  0  0  0  0  0  0  0  0  0
    9.1215    9.9754   23.7995 C   0  0  0  0  0  0  0  0  0  0  0  0
   10.8725   13.2451   23.3412 C   0  0  0  0  0  0  0  0  0  0  0  0
   13.7218   15.3499   21.7184 C   0  0  0  0  0  0  0  0  0  0  0  0
   13.3117   14.9792   20.2916 C   0  0  0  0  0  0  0  0  0  0  0  0
   12.4360   15.7684   22.4294 C   0  0  0  0  0  0  0  0  0  0  0  0
   11.8007   15.1932   20.2200 C   0  0  0  0  0  0  0  0  0  0  0  0
   11.3170   15.0677   21.6627 C   0  0  0  0  0  0  0  0  0  0  0  0
   10.8457   11.7420   23.4509 C   0  0  0  0  0  0  0  0  0  0  0  0
    9.7461    8.9135   23.4237 N   0  0  0  0  0  0  0  0  0  0  0  0
    9.4987   11.2998   23.8404 N   0  0  0  0  0  0  0  0  0  0  0  0
   11.2166   13.6643   22.0570 N   0  0  0  0  0  0  0  0  0  0  0  0
   10.6169   13.9958   24.2790 O   0  0  0  0  0  0  0  0  0  0  0  0
    7.4421    9.8483   24.4078 S   0  0  0  0  0  0  0  0  0  0  0  0
    8.7784   13.2069   24.4217 H   0  0  0  0  0  0  0  0  0  0  0  0
    6.5310   12.0775   25.1021 H   0  0  0  0  0  0  0  0  0  0  0  0
   14.2072   14.5156   22.2339 H   0  0  0  0  0  0  0  0  0  0  0  0
   14.4331   16.1832   21.6963 H   0  0  0  0  0  0  0  0  0  0  0  0
   13.8231   15.6323   19.5758 H   0  0  0  0  0  0  0  0  0  0  0  0
   13.5794   13.9472   20.0451 H   0  0  0  0  0  0  0  0  0  0  0  0
   12.4680   15.4250   23.4760 H   0  0  0  0  0  0  0  0  0  0  0  0
   12.3132   16.8607   22.4454 H   0  0  0  0  0  0  0  0  0  0  0  0
   11.5444   16.1646   19.7737 H   0  0  0  0  0  0  0  0  0  0  0  0
   11.3518   14.4111   19.5867 H   0  0  0  0  0  0  0  0  0  0  0  0
   10.3694   15.5295   21.8121 H   0  0  0  0  0  0  0  0  0  0  0  0
   11.1056   11.2974   22.4857 H   0  0  0  0  0  0  0  0  0  0  0  0
   11.5645   11.4124   24.2068 H   0  0  0  0  0  0  0  0  0  0  0  0
    9.1331    8.0996   23.5397 H   0  0  0  0  0  0  0  0  0  0  0  0
   11.4093   12.9506   21.3524 H   0  0  0  0  0  0  0  0  0  0  0  0
  1  2  2  0  0  0  0
  1 12  1  0  0  0  0
  2 15  1  0  0  0  0
  3 11  2  0  0  0  0
  3 12  1  0  0  0  0
  3 15  1  0  0  0  0
  4 10  1  0  0  0  0
  4 13  1  0  0  0  0
  4 14  2  0  0  0  0
  5  6  1  0  0  0  0
  5  7  1  0  0  0  0
  6  8  1  0  0  0  0
  7  9  1  0  0  0  0
  8  9  1  0  0  0  0
  9 13  1  0  0  0  0
 10 12  1  0  0  0  0
  1 16  1  0  0  0  0
  2 17  1  0  0  0  0
  5 18  1  0  0  0  0
  5 19  1  0  0  0  0
  6 20  1  0  0  0  0
  6 21  1  0  0  0  0
  7 22  1  0  0  0  0
  7 23  1  0  0  0  0
  8 24  1  0  0  0  0
  8 25  1  0  0  0  0
  9 26  1  0  0  0  0
 10 27  1  0  0  0  0
 10 28  1  0  0  0  0
 11 29  1  0  0  0  0
 13 30  1  0  0  0  0
M  END
> <Catalog ID>
Z223687500

> <PlateID>
1337959-R-12

> <Well>
B02

> <MW (desalted)>
225.311

> <CLogP>
1.670

> <HBD>
2

> <TPSA>
56.190

> <RotBonds>
3

> <ROCS_ShapeQuery>
A71EV2A-x0451_0A_A71EV2A-x0310_0A_A71EV2A-x0416_0A_peptide

> <ROCS_TanimotoCombo>
0.418 

> <ROCS_ShapeTanimoto>
0.281 

> <ROCS_ColorTanimoto>
0.137 

> <ROCS_RefTversky>
0.250 

> <ROCS_RefColorTversky>
0.142 

> <ROCS_RefTverskyCombo>
0.392 

> <ROCS_FitTversky>
1.788 

> <ROCS_FitColorTversky>
0.798 

> <ROCS_FitTverskyCombo>
2.586 

> <ROCS_ColorScore>
-4.299

> <ROCS_Overlap>
1732.146

> <ROCS_Rank>
273                 

$$$$
untitled-dbase-968_9
  -OEChem-11112309163D

 28 29  0     0  0  0  0  0  0999 V2000
   10.1622   10.1484   24.0738 C   0  0  0  0  0  0  0  0  0  0  0  0
   10.9737   11.2504   23.7982 C   0  0  0  0  0  0  0  0  0  0  0  0
    9.0378   12.7273   23.7848 C   0  0  0  0  0  0  0  0  0  0  0  0
    8.2445   11.6258   24.0473 C   0  0  0  0  0  0  0  0  0  0  0  0
    8.8025   10.3638   24.1869 C   0  0  0  0  0  0  0  0  0  0  0  0
   10.4152   12.5315   23.6532 C   0  0  0  0  0  0  0  0  0  0  0  0
    6.7883   11.5482   24.2938 C   0  0  0  0  0  0  0  0  0  0  0  0
    6.6097   10.0321   24.2025 C   0  0  0  0  0  0  0  0  0  0  0  0
   10.9729   16.0882   20.6203 C   0  0  0  0  0  0  0  0  0  0  0  0
   10.4948   14.6975   20.8653 C   0  0  0  0  0  0  0  0  0  0  0  0
   11.4931   13.9169   21.6100 N   0  0  0  0  0  0  0  0  0  0  0  0
   10.8005   15.1090   23.7862 O   0  0  0  0  0  0  0  0  0  0  0  0
   12.7871   13.5673   23.8092 O   0  0  0  0  0  0  0  0  0  0  0  0
    7.8793    9.3875   24.4630 O   0  0  0  0  0  0  0  0  0  0  0  0
   11.4556   13.8948   23.3183 S   0  0  0  0  0  0  0  0  0  0  0  0
   10.5901    9.1592   24.1907 H   0  0  0  0  0  0  0  0  0  0  0  0
   12.0470   11.1070   23.7000 H   0  0  0  0  0  0  0  0  0  0  0  0
    8.5991   13.7154   23.6913 H   0  0  0  0  0  0  0  0  0  0  0  0
    6.5537   11.9136   25.2987 H   0  0  0  0  0  0  0  0  0  0  0  0
    6.1836   12.0751   23.5514 H   0  0  0  0  0  0  0  0  0  0  0  0
    5.8661    9.6703   24.9202 H   0  0  0  0  0  0  0  0  0  0  0  0
    6.2836    9.7327   23.1981 H   0  0  0  0  0  0  0  0  0  0  0  0
   11.9060   16.0585   20.0385 H   0  0  0  0  0  0  0  0  0  0  0  0
   10.2084   16.6451   20.0588 H   0  0  0  0  0  0  0  0  0  0  0  0
   11.1570   16.5875   21.5831 H   0  0  0  0  0  0  0  0  0  0  0  0
    9.5621   14.7358   21.4472 H   0  0  0  0  0  0  0  0  0  0  0  0
   10.3042   14.2079   19.8989 H   0  0  0  0  0  0  0  0  0  0  0  0
   11.8986   13.1138   21.1141 H   0  0  0  0  0  0  0  0  0  0  0  0
  1  2  1  0  0  0  0
  1  5  2  0  0  0  0
  2  6  2  0  0  0  0
  3  4  2  0  0  0  0
  3  6  1  0  0  0  0
  4  5  1  0  0  0  0
  4  7  1  0  0  0  0
  5 14  1  0  0  0  0
  6 15  1  0  0  0  0
  7  8  1  0  0  0  0
  8 14  1  0  0  0  0
  9 10  1  0  0  0  0
 10 11  1  0  0  0  0
 11 15  1  0  0  0  0
 12 15  2  0  0  0  0
 13 15  2  0  0  0  0
  1 16  1  0  0  0  0
  2 17  1  0  0  0  0
  3 18  1  0  0  0  0
  7 19  1  0  0  0  0
  7 20  1  0  0  0  0
  8 21  1  0  0  0  0
  8 22  1  0  0  0  0
  9 23  1  0  0  0  0
  9 24  1  0  0  0  0
  9 25  1  0  0  0  0
 10 26  1  0  0  0  0
 10 27  1  0  0  0  0
 11 28  1  0  0  0  0
M  END
> <Catalog ID>
Z53038500

> <PlateID>
1337959-R-13

> <Well>
B03

> <MW (desalted)>
227.280

> <CLogP>
1.863

> <HBD>
1

> <TPSA>
55.400

> <RotBonds>
2

> <ROCS_ShapeQuery>
A71EV2A-x0451_0A_A71EV2A-x0310_0A_A71EV2A-x0416_0A_peptide

> <ROCS_TanimotoCombo>
0.418 

> <ROCS_ShapeTanimoto>
0.271 

> <ROCS_ColorTanimoto>
0.146 

> <ROCS_RefTversky>
0.243 

> <ROCS_RefColorTversky>
0.158 

> <ROCS_RefTverskyCombo>
0.402 

> <ROCS_FitTversky>
1.730 

> <ROCS_FitColorTversky>
0.660 

> <ROCS_FitTverskyCombo>
2.389 

> <ROCS_ColorScore>
-4.821

> <ROCS_Overlap>
1686.937

> <ROCS_Rank>
274                 

$$$$
untitled-dbase-870_64
  -OEChem-11112309163D

 28 29  0     1  0  0  0  0  0999 V2000
   11.2409   13.3910   20.7516 C   0  0  0  0  0  0  0  0  0  0  0  0
   11.5812   14.1936   19.6627 C   0  0  0  0  0  0  0  0  0  0  0  0
   12.2639   15.9521   21.1722 C   0  0  0  0  0  0  0  0  0  0  0  0
   11.9235   15.1495   22.2611 C   0  0  0  0  0  0  0  0  0  0  0  0
   11.4120   13.8690   22.0508 C   0  0  0  0  0  0  0  0  0  0  0  0
   12.0927   15.4741   19.8730 C   0  0  0  0  0  0  0  0  0  0  0  0
    8.1288   10.9857   24.4180 C   0  0  0  0  0  0  0  0  0  0  0  0
    8.3840   12.0301   23.3640 C   0  0  0  0  0  0  0  0  0  0  0  0
   10.0567    9.6586   23.5242 C   0  0  0  0  0  0  0  0  0  0  0  0
   10.0263   10.5512   22.3020 C   0  0  0  0  0  0  0  0  0  0  0  0
    8.8856    9.8360   24.3605 N   0  0  0  0  0  0  0  0  0  0  0  0
    9.7148   11.9352   22.7322 N   0  0  2  0  0  0  0  0  0  0  0  0
    7.2256   11.1378   25.2431 O   0  0  0  0  0  0  0  0  0  0  0  0
   12.0993   11.9763   23.6996 O   0  0  0  0  0  0  0  0  0  0  0  0
   10.4293   13.7039   24.4573 O   0  0  0  0  0  0  0  0  0  0  0  0
   12.0899   15.6204   23.5050 F   0  0  0  0  0  0  0  0  0  0  0  0
   10.9782   12.8498   23.4256 S   0  0  0  0  0  0  0  0  0  0  0  0
   12.5143   16.4650   18.5306 Cl  0  0  0  0  0  0  0  0  0  0  0  0
   10.8430   12.3950   20.5766 H   0  0  0  0  0  0  0  0  0  0  0  0
   11.4421   13.8078   18.6560 H   0  0  0  0  0  0  0  0  0  0  0  0
   12.6621   16.9474   21.3515 H   0  0  0  0  0  0  0  0  0  0  0  0
    7.6036   11.9313   22.6004 H   0  0  0  0  0  0  0  0  0  0  0  0
    8.2925   13.0109   23.8445 H   0  0  0  0  0  0  0  0  0  0  0  0
   10.1099    8.6022   23.2388 H   0  0  0  0  0  0  0  0  0  0  0  0
   10.9278    9.8853   24.1516 H   0  0  0  0  0  0  0  0  0  0  0  0
   11.0111   10.5226   21.8090 H   0  0  0  0  0  0  0  0  0  0  0  0
    9.2778   10.2029   21.5707 H   0  0  0  0  0  0  0  0  0  0  0  0
    8.6022    9.0541   24.9476 H   0  0  0  0  0  0  0  0  0  0  0  0
  1  2  1  0  0  0  0
  1  5  2  0  0  0  0
  2  6  2  0  0  0  0
  3  4  2  0  0  0  0
  3  6  1  0  0  0  0
  4  5  1  0  0  0  0
  4 16  1  0  0  0  0
  5 17  1  0  0  0  0
  6 18  1  0  0  0  0
  7  8  1  0  0  0  0
  7 11  1  0  0  0  0
  7 13  2  0  0  0  0
  8 12  1  0  0  0  0
  9 10  1  0  0  0  0
  9 11  1  0  0  0  0
 10 12  1  0  0  0  0
 12 17  1  0  0  0  0
 14 17  2  0  0  0  0
 15 17  2  0  0  0  0
  1 19  1  0  0  0  0
  2 20  1  0  0  0  0
  3 21  1  0  0  0  0
  8 22  1  0  0  0  0
  8 23  1  0  0  0  0
  9 24  1  0  0  0  0
  9 25  1  0  0  0  0
 10 26  1  0  0  0  0
 10 27  1  0  0  0  0
 11 28  1  0  0  0  0
M  END
> <Catalog ID>
Z45462978

> <PlateID>
1337959-R-11

> <Well>
H04

> <MW (desalted)>
292.714

> <CLogP>
1.803

> <HBD>
1

> <TPSA>
66.480

> <RotBonds>
1

> <ROCS_ShapeQuery>
A71EV2A-x0451_0A_A71EV2A-x0310_0A_A71EV2A-x0416_0A_peptide

> <ROCS_TanimotoCombo>
0.418 

> <ROCS_ShapeTanimoto>
0.292 

> <ROCS_ColorTanimoto>
0.126 

> <ROCS_RefTversky>
0.262 

> <ROCS_RefColorTversky>
0.139 

> <ROCS_RefTverskyCombo>
0.400 

> <ROCS_FitTversky>
1.648 

> <ROCS_FitColorTversky>
0.579 

> <ROCS_FitTverskyCombo>
2.228 

> <ROCS_ColorScore>
-4.222

> <ROCS_Overlap>
1814.762

> <ROCS_Rank>
275                 

$$$$
untitled-dbase-621_61
  -OEChem-11112309163D

 36 37  0     0  0  0  0  0  0999 V2000
    8.2174    9.6807   23.4213 C   0  0  0  0  0  0  0  0  0  0  0  0
    9.4856   10.2613   23.4190 C   0  0  0  0  0  0  0  0  0  0  0  0
    7.1721   10.2910   24.1147 C   0  0  0  0  0  0  0  0  0  0  0  0
    8.6635   12.0625   24.8035 C   0  0  0  0  0  0  0  0  0  0  0  0
    9.7087   11.4522   24.1101 C   0  0  0  0  0  0  0  0  0  0  0  0
    7.3953   11.4819   24.8058 C   0  0  0  0  0  0  0  0  0  0  0  0
   10.9306   13.4636   23.4894 C   0  0  0  0  0  0  0  0  0  0  0  0
   12.1562   11.3254   23.2628 C   0  0  0  0  0  0  0  0  0  0  0  0
   11.6581   12.2334   25.5502 C   0  0  0  0  0  0  0  0  0  0  0  0
   13.5684   11.8800   23.4314 C   0  0  0  0  0  0  0  0  0  0  0  0
   13.1079   12.7118   25.5892 C   0  0  0  0  0  0  0  0  0  0  0  0
   11.1133   12.0936   24.1081 C   0  0  0  0  0  0  0  0  0  0  0  0
   12.1911   15.5116   21.3843 C   0  0  0  0  0  0  0  0  0  0  0  0
   10.9497   14.6881   21.3254 C   0  0  0  0  0  0  0  0  0  0  0  0
   11.0835   13.4857   22.1162 N   0  0  0  0  0  0  0  0  0  0  0  0
   10.6699   14.4213   24.2081 O   0  0  0  0  0  0  0  0  0  0  0  0
   13.9474   11.8717   24.8042 O   0  0  0  0  0  0  0  0  0  0  0  0
    6.1056   12.2338   25.6621 Cl  0  0  0  0  0  0  0  0  0  0  0  0
    8.0441    8.7532   22.8831 H   0  0  0  0  0  0  0  0  0  0  0  0
   10.2942    9.7787   22.8761 H   0  0  0  0  0  0  0  0  0  0  0  0
    6.1889    9.8270   24.1080 H   0  0  0  0  0  0  0  0  0  0  0  0
    8.8425   12.9912   25.3404 H   0  0  0  0  0  0  0  0  0  0  0  0
   11.8845   11.3364   22.1997 H   0  0  0  0  0  0  0  0  0  0  0  0
   12.1634   10.2724   23.5775 H   0  0  0  0  0  0  0  0  0  0  0  0
   11.6137   11.2514   26.0417 H   0  0  0  0  0  0  0  0  0  0  0  0
   11.0326   12.9119   26.1439 H   0  0  0  0  0  0  0  0  0  0  0  0
   14.2790   11.2502   22.8864 H   0  0  0  0  0  0  0  0  0  0  0  0
   13.6561   12.8960   23.0294 H   0  0  0  0  0  0  0  0  0  0  0  0
   13.1969   13.7475   25.2411 H   0  0  0  0  0  0  0  0  0  0  0  0
   13.4776   12.6823   26.6194 H   0  0  0  0  0  0  0  0  0  0  0  0
   13.0388   14.9260   20.9990 H   0  0  0  0  0  0  0  0  0  0  0  0
   12.0609   16.4153   20.7709 H   0  0  0  0  0  0  0  0  0  0  0  0
   12.3895   15.8014   22.4267 H   0  0  0  0  0  0  0  0  0  0  0  0
   10.1073   15.2803   21.7121 H   0  0  0  0  0  0  0  0  0  0  0  0
   10.7528   14.4099   20.2795 H   0  0  0  0  0  0  0  0  0  0  0  0
   11.3003   12.6154   21.6399 H   0  0  0  0  0  0  0  0  0  0  0  0
  1  2  1  0  0  0  0
  1  3  2  0  0  0  0
  2  5  2  0  0  0  0
  3  6  1  0  0  0  0
  4  5  1  0  0  0  0
  4  6  2  0  0  0  0
  5 12  1  0  0  0  0
  6 18  1  0  0  0  0
  7 12  1  0  0  0  0
  7 15  1  0  0  0  0
  7 16  2  0  0  0  0
  8 10  1  0  0  0  0
  8 12  1  0  0  0  0
  9 11  1  0  0  0  0
  9 12  1  0  0  0  0
 10 17  1  0  0  0  0
 11 17  1  0  0  0  0
 13 14  1  0  0  0  0
 14 15  1  0  0  0  0
  1 19  1  0  0  0  0
  2 20  1  0  0  0  0
  3 21  1  0  0  0  0
  4 22  1  0  0  0  0
  8 23  1  0  0  0  0
  8 24  1  0  0  0  0
  9 25  1  0  0  0  0
  9 26  1  0  0  0  0
 10 27  1  0  0  0  0
 10 28  1  0  0  0  0
 11 29  1  0  0  0  0
 11 30  1  0  0  0  0
 13 31  1  0  0  0  0
 13 32  1  0  0  0  0
 13 33  1  0  0  0  0
 14 34  1  0  0  0  0
 14 35  1  0  0  0  0
 15 36  1  0  0  0  0
M  END
> <Catalog ID>
Z803329894

> <PlateID>
1337959-R-08

> <Well>
G04

> <MW (desalted)>
267.751

> <CLogP>
1.554

> <HBD>
1

> <TPSA>
38.330

> <RotBonds>
3

> <ROCS_ShapeQuery>
A71EV2A-x0451_0A_A71EV2A-x0310_0A_A71EV2A-x0416_0A_peptide

> <ROCS_TanimotoCombo>
0.418 

> <ROCS_ShapeTanimoto>
0.288 

> <ROCS_ColorTanimoto>
0.129 

> <ROCS_RefTversky>
0.259 

> <ROCS_RefColorTversky>
0.138 

> <ROCS_RefTverskyCombo>
0.398 

> <ROCS_FitTversky>
1.628 

> <ROCS_FitColorTversky>
0.663 

> <ROCS_FitTverskyCombo>
2.291 

> <ROCS_ColorScore>
-4.200

> <ROCS_Overlap>
1799.481

> <ROCS_Rank>
276                 

$$$$
untitled-dbase-976_342
  -OEChem-11112309163D

 39 41  0     0  0  0  0  0  0999 V2000
   10.2875   11.0468   23.3352 C   0  0  0  0  0  0  0  0  0  0  0  0
    8.3695   12.3943   23.9207 C   0  0  0  0  0  0  0  0  0  0  0  0
    9.5254    9.8903   23.5000 C   0  0  0  0  0  0  0  0  0  0  0  0
    7.6073   11.2377   24.0854 C   0  0  0  0  0  0  0  0  0  0  0  0
    9.7096   12.2988   23.5456 C   0  0  0  0  0  0  0  0  0  0  0  0
    8.1853    9.9858   23.8751 C   0  0  0  0  0  0  0  0  0  0  0  0
   10.5136   13.5187   23.3714 C   0  0  0  0  0  0  0  0  0  0  0  0
    7.3903    8.7802   24.0450 C   0  0  0  0  0  0  0  0  0  0  0  0
   12.6453   16.4708   18.8599 C   0  0  0  0  0  0  0  0  0  0  0  0
   14.0697   16.0352   19.1535 C   0  0  0  0  0  0  0  0  0  0  0  0
   11.9010   16.0734   20.1247 C   0  0  0  0  0  0  0  0  0  0  0  0
   13.9382   14.7414   19.9581 C   0  0  0  0  0  0  0  0  0  0  0  0
   11.6734   13.5465   19.8484 C   0  0  0  0  0  0  0  0  0  0  0  0
   10.5240   13.3414   20.8282 C   0  0  0  0  0  0  0  0  0  0  0  0
   12.3742   14.3724   21.9688 C   0  0  0  0  0  0  0  0  0  0  0  0
   12.4900   14.6946   20.4767 C   0  0  0  0  0  0  0  0  0  0  0  0
   11.0671   13.7479   22.1210 N   0  0  0  0  0  0  0  0  0  0  0  0
   10.6500   14.2494   24.3506 O   0  0  0  0  0  0  0  0  0  0  0  0
    7.5564    7.7203   23.4322 O   0  0  0  0  0  0  0  0  0  0  0  0
    6.4095    8.9303   24.9772 O   0  0  0  0  0  0  0  0  0  0  0  0
   11.3309   10.9609   23.0421 H   0  0  0  0  0  0  0  0  0  0  0  0
    7.9085   13.3646   24.0864 H   0  0  0  0  0  0  0  0  0  0  0  0
    9.9858    8.9199   23.3327 H   0  0  0  0  0  0  0  0  0  0  0  0
    6.5638   11.3240   24.3774 H   0  0  0  0  0  0  0  0  0  0  0  0
   12.6014   17.5424   18.7010 H   0  0  0  0  0  0  0  0  0  0  0  0
   12.2381   15.9685   17.9910 H   0  0  0  0  0  0  0  0  0  0  0  0
   14.6537   15.8811   18.2426 H   0  0  0  0  0  0  0  0  0  0  0  0
   14.5809   16.7975   19.7505 H   0  0  0  0  0  0  0  0  0  0  0  0
   12.0215   16.8118   20.9179 H   0  0  0  0  0  0  0  0  0  0  0  0
   10.8340   15.9844   19.9040 H   0  0  0  0  0  0  0  0  0  0  0  0
   14.1305   13.8768   19.2980 H   0  0  0  0  0  0  0  0  0  0  0  0
   14.6843   14.6897   20.7687 H   0  0  0  0  0  0  0  0  0  0  0  0
   12.2825   12.6361   19.7962 H   0  0  0  0  0  0  0  0  0  0  0  0
   11.3176   13.7758   18.8402 H   0  0  0  0  0  0  0  0  0  0  0  0
    9.6784   13.9964   20.6021 H   0  0  0  0  0  0  0  0  0  0  0  0
   10.1726   12.3083   20.8663 H   0  0  0  0  0  0  0  0  0  0  0  0
   13.1251   13.6352   22.2898 H   0  0  0  0  0  0  0  0  0  0  0  0
   12.4575   15.2514   22.6230 H   0  0  0  0  0  0  0  0  0  0  0  0
    5.8677    8.1217   25.1000 H   0  0  0  0  0  0  0  0  0  0  0  0
  1  3  1  0  0  0  0
  1  5  2  0  0  0  0
  2  4  2  0  0  0  0
  2  5  1  0  0  0  0
  3  6  2  0  0  0  0
  4  6  1  0  0  0  0
  5  7  1  0  0  0  0
  6  8  1  0  0  0  0
  7 17  1  0  0  0  0
  7 18  2  0  0  0  0
  8 19  2  0  0  0  0
  8 20  1  0  0  0  0
  9 10  1  0  0  0  0
  9 11  1  0  0  0  0
 10 12  1  0  0  0  0
 11 16  1  0  0  0  0
 12 16  1  0  0  0  0
 13 14  1  0  0  0  0
 13 16  1  0  0  0  0
 14 17  1  0  0  0  0
 15 16  1  0  0  0  0
 15 17  1  0  0  0  0
  1 21  1  0  0  0  0
  2 22  1  0  0  0  0
  3 23  1  0  0  0  0
  4 24  1  0  0  0  0
  9 25  1  0  0  0  0
  9 26  1  0  0  0  0
 10 27  1  0  0  0  0
 10 28  1  0  0  0  0
 11 29  1  0  0  0  0
 11 30  1  0  0  0  0
 12 31  1  0  0  0  0
 12 32  1  0  0  0  0
 13 33  1  0  0  0  0
 13 34  1  0  0  0  0
 14 35  1  0  0  0  0
 14 36  1  0  0  0  0
 15 37  1  0  0  0  0
 15 38  1  0  0  0  0
 20 39  1  0  0  0  0
M  END
> <Catalog ID>
Z1603753932

> <PlateID>
1337959-R-13

> <Well>
B11

> <MW (desalted)>
273.327

> <CLogP>
2.681

> <HBD>
1

> <TPSA>
57.610

> <RotBonds>
2

> <ROCS_ShapeQuery>
A71EV2A-x0451_0A_A71EV2A-x0310_0A_A71EV2A-x0416_0A_peptide

> <ROCS_TanimotoCombo>
0.417 

> <ROCS_ShapeTanimoto>
0.299 

> <ROCS_ColorTanimoto>
0.118 

> <ROCS_RefTversky>
0.271 

> <ROCS_RefColorTversky>
0.134 

> <ROCS_RefTverskyCombo>
0.405 

> <ROCS_FitTversky>
1.541 

> <ROCS_FitColorTversky>
0.496 

> <ROCS_FitTverskyCombo>
2.037 

> <ROCS_ColorScore>
-4.093

> <ROCS_Overlap>
1879.886

> <ROCS_Rank>
277                 

$$$$
untitled-dbase-155_12
  -OEChem-11112309163D

 31 32  0     0  0  0  0  0  0999 V2000
    8.9059   10.2027   22.7762 C   0  0  0  0  0  0  0  0  0  0  0  0
    9.6850   11.3596   22.7905 C   0  0  0  0  0  0  0  0  0  0  0  0
    7.8947   10.0311   23.7216 C   0  0  0  0  0  0  0  0  0  0  0  0
    8.4419   12.1732   24.6957 C   0  0  0  0  0  0  0  0  0  0  0  0
    9.4531   12.3448   23.7502 C   0  0  0  0  0  0  0  0  0  0  0  0
    7.6628   11.0163   24.6814 C   0  0  0  0  0  0  0  0  0  0  0  0
   10.2735   13.5634   23.7646 C   0  0  0  0  0  0  0  0  0  0  0  0
   10.8817   16.6166   21.7840 C   0  0  0  0  0  0  0  0  0  0  0  0
    8.6662   15.7699   21.3662 C   0  0  0  0  0  0  0  0  0  0  0  0
   11.3752   15.2252   22.1783 C   0  0  0  0  0  0  0  0  0  0  0  0
    9.1078   14.3570   21.7354 C   0  0  0  0  0  0  0  0  0  0  0  0
    6.5816   10.8328   25.6925 C   0  0  0  0  0  0  0  0  0  0  0  0
    9.7831   16.5425   20.8190 N   0  0  0  0  0  0  0  0  0  0  0  0
   10.2643   14.3783   22.6299 N   0  0  0  0  0  0  0  0  0  0  0  0
   10.9103   13.7781   24.7950 O   0  0  0  0  0  0  0  0  0  0  0  0
    5.9014    9.6559   25.5590 F   0  0  0  0  0  0  0  0  0  0  0  0
    7.0323   10.8394   26.9818 F   0  0  0  0  0  0  0  0  0  0  0  0
    5.6335   11.8127   25.6309 F   0  0  0  0  0  0  0  0  0  0  0  0
    9.0872    9.4350   22.0296 H   0  0  0  0  0  0  0  0  0  0  0  0
   10.4700   11.4832   22.0487 H   0  0  0  0  0  0  0  0  0  0  0  0
    7.2921    9.1268   23.7025 H   0  0  0  0  0  0  0  0  0  0  0  0
    8.2605   12.9399   25.4455 H   0  0  0  0  0  0  0  0  0  0  0  0
   10.5647   17.1728   22.6747 H   0  0  0  0  0  0  0  0  0  0  0  0
   11.7091   17.1760   21.3342 H   0  0  0  0  0  0  0  0  0  0  0  0
    7.8733   15.7127   20.6126 H   0  0  0  0  0  0  0  0  0  0  0  0
    8.2430   16.2790   22.2409 H   0  0  0  0  0  0  0  0  0  0  0  0
   11.8299   14.7215   21.3163 H   0  0  0  0  0  0  0  0  0  0  0  0
   12.1473   15.3163   22.9469 H   0  0  0  0  0  0  0  0  0  0  0  0
    8.2764   13.8144   22.1973 H   0  0  0  0  0  0  0  0  0  0  0  0
    9.4046   13.7998   20.8381 H   0  0  0  0  0  0  0  0  0  0  0  0
    9.4651   17.4858   20.5983 H   0  0  0  0  0  0  0  0  0  0  0  0
  1  2  2  0  0  0  0
  1  3  1  0  0  0  0
  2  5  1  0  0  0  0
  3  6  2  0  0  0  0
  4  5  2  0  0  0  0
  4  6  1  0  0  0  0
  5  7  1  0  0  0  0
  6 12  1  0  0  0  0
  7 14  1  0  0  0  0
  7 15  2  0  0  0  0
  8 10  1  0  0  0  0
  8 13  1  0  0  0  0
  9 11  1  0  0  0  0
  9 13  1  0  0  0  0
 10 14  1  0  0  0  0
 11 14  1  0  0  0  0
 12 16  1  0  0  0  0
 12 17  1  0  0  0  0
 12 18  1  0  0  0  0
  1 19  1  0  0  0  0
  2 20  1  0  0  0  0
  3 21  1  0  0  0  0
  4 22  1  0  0  0  0
  8 23  1  0  0  0  0
  8 24  1  0  0  0  0
  9 25  1  0  0  0  0
  9 26  1  0  0  0  0
 10 27  1  0  0  0  0
 10 28  1  0  0  0  0
 11 29  1  0  0  0  0
 11 30  1  0  0  0  0
 13 31  1  0  0  0  0
M  END
> <Catalog ID>
Z228586844

> <PlateID>
1337959-R-02

> <Well>
H07

> <MW (desalted)>
258.240

> <CLogP>
1.773

> <HBD>
1

> <TPSA>
32.340

> <RotBonds>
2

> <ROCS_ShapeQuery>
A71EV2A-x0451_0A_A71EV2A-x0310_0A_A71EV2A-x0416_0A_peptide

> <ROCS_TanimotoCombo>
0.417 

> <ROCS_ShapeTanimoto>
0.267 

> <ROCS_ColorTanimoto>
0.150 

> <ROCS_RefTversky>
0.245 

> <ROCS_RefColorTversky>
0.158 

> <ROCS_RefTverskyCombo>
0.403 

> <ROCS_FitTversky>
1.506 

> <ROCS_FitColorTversky>
0.756 

> <ROCS_FitTverskyCombo>
2.262 

> <ROCS_ColorScore>
-4.789

> <ROCS_Overlap>
1701.011

> <ROCS_Rank>
278                 

$$$$
untitled-dbase-653_7
  -OEChem-11112309163D

 32 33  0     0  0  0  0  0  0999 V2000
    7.6930   10.0692   24.2563 C   0  0  0  0  0  0  0  0  0  0  0  0
    8.6707    9.8110   23.2956 C   0  0  0  0  0  0  0  0  0  0  0  0
    8.6328   12.2645   24.6228 C   0  0  0  0  0  0  0  0  0  0  0  0
    7.6740   11.2960   24.9199 C   0  0  0  0  0  0  0  0  0  0  0  0
    9.6295   10.7795   22.9985 C   0  0  0  0  0  0  0  0  0  0  0  0
    9.6106   12.0063   23.6621 C   0  0  0  0  0  0  0  0  0  0  0  0
    8.9406   15.7324   21.8907 C   0  0  0  0  0  0  0  0  0  0  0  0
   11.2559   15.9228   21.2092 C   0  0  0  0  0  0  0  0  0  0  0  0
    8.9508   14.2369   21.5806 C   0  0  0  0  0  0  0  0  0  0  0  0
   11.3054   14.4305   20.8877 C   0  0  0  0  0  0  0  0  0  0  0  0
    9.8594   17.8853   21.3139 C   0  0  0  0  0  0  0  0  0  0  0  0
    9.8950   16.4507   21.0332 N   0  0  0  0  0  0  0  0  0  0  0  0
   10.3258   13.6862   21.7254 N   0  0  0  0  0  0  0  0  0  0  0  0
   10.6160   14.3467   24.1959 O   0  0  0  0  0  0  0  0  0  0  0  0
   12.1111   12.5762   23.2072 O   0  0  0  0  0  0  0  0  0  0  0  0
    6.7353   11.5433   25.8429 F   0  0  0  0  0  0  0  0  0  0  0  0
   10.5660   10.5190   22.0755 F   0  0  0  0  0  0  0  0  0  0  0  0
   10.8248   13.2339   23.2945 S   0  0  0  0  0  0  0  0  0  0  0  0
    6.9467    9.3148   24.4876 H   0  0  0  0  0  0  0  0  0  0  0  0
    8.6862    8.8563   22.7782 H   0  0  0  0  0  0  0  0  0  0  0  0
    8.6100   13.2158   25.1475 H   0  0  0  0  0  0  0  0  0  0  0  0
    7.9261   16.1309   21.7575 H   0  0  0  0  0  0  0  0  0  0  0  0
    9.2117   15.8674   22.9445 H   0  0  0  0  0  0  0  0  0  0  0  0
   11.5778   16.0627   22.2480 H   0  0  0  0  0  0  0  0  0  0  0  0
   11.9662   16.4622   20.5684 H   0  0  0  0  0  0  0  0  0  0  0  0
    8.2634   13.6964   22.2493 H   0  0  0  0  0  0  0  0  0  0  0  0
    8.6054   14.0846   20.5479 H   0  0  0  0  0  0  0  0  0  0  0  0
   11.0587   14.2862   19.8260 H   0  0  0  0  0  0  0  0  0  0  0  0
   12.3167   14.0298   21.0566 H   0  0  0  0  0  0  0  0  0  0  0  0
   10.5788   18.4046   20.6636 H   0  0  0  0  0  0  0  0  0  0  0  0
    8.8473   18.2712   21.1223 H   0  0  0  0  0  0  0  0  0  0  0  0
   10.1250   18.0595   22.3670 H   0  0  0  0  0  0  0  0  0  0  0  0
  1  2  1  0  0  0  0
  1  4  2  0  0  0  0
  2  5  2  0  0  0  0
  3  4  1  0  0  0  0
  3  6  2  0  0  0  0
  4 16  1  0  0  0  0
  5  6  1  0  0  0  0
  5 17  1  0  0  0  0
  6 18  1  0  0  0  0
  7  9  1  0  0  0  0
  7 12  1  0  0  0  0
  8 10  1  0  0  0  0
  8 12  1  0  0  0  0
  9 13  1  0  0  0  0
 10 13  1  0  0  0  0
 11 12  1  0  0  0  0
 13 18  1  0  0  0  0
 14 18  2  0  0  0  0
 15 18  2  0  0  0  0
  1 19  1  0  0  0  0
  2 20  1  0  0  0  0
  3 21  1  0  0  0  0
  7 22  1  0  0  0  0
  7 23  1  0  0  0  0
  8 24  1  0  0  0  0
  8 25  1  0  0  0  0
  9 26  1  0  0  0  0
  9 27  1  0  0  0  0
 10 28  1  0  0  0  0
 10 29  1  0  0  0  0
 11 30  1  0  0  0  0
 11 31  1  0  0  0  0
 11 32  1  0  0  0  0
M  END
> <Catalog ID>
Z65514352

> <PlateID>
1337959-R-09

> <Well>
B06

> <MW (desalted)>
276.303

> <CLogP>
2.130

> <HBD>
0

> <TPSA>
40.620

> <RotBonds>
1

> <ROCS_ShapeQuery>
A71EV2A-x0451_0A_A71EV2A-x0310_0A_A71EV2A-x0416_0A_peptide

> <ROCS_TanimotoCombo>
0.417 

> <ROCS_ShapeTanimoto>
0.285 

> <ROCS_ColorTanimoto>
0.133 

> <ROCS_RefTversky>
0.257 

> <ROCS_RefColorTversky>
0.141 

> <ROCS_RefTverskyCombo>
0.398 

> <ROCS_FitTversky>
1.615 

> <ROCS_FitColorTversky>
0.678 

> <ROCS_FitTverskyCombo>
2.292 

> <ROCS_ColorScore>
-4.295

> <ROCS_Overlap>
1780.757

> <ROCS_Rank>
279                 

$$$$
untitled-dbase-1056_46
  -OEChem-11112309163D

 35 36  0     1  0  0  0  0  0999 V2000
   11.2307   14.8441   20.9782 C   0  0  0  0  0  0  0  0  0  0  0  0
   11.4002   13.7051   21.7575 C   0  0  0  0  0  0  0  0  0  0  0  0
   10.5393   16.0136   22.9303 C   0  0  0  0  0  0  0  0  0  0  0  0
   10.7924   16.0244   21.5681 C   0  0  0  0  0  0  0  0  0  0  0  0
   11.1201   13.7982   23.1113 C   0  0  0  0  0  0  0  0  0  0  0  0
   10.5818   11.4245   23.6474 C   0  0  0  0  0  0  0  0  0  0  0  0
    8.0491   11.6321   25.4578 C   0  0  0  0  0  0  0  0  0  0  0  0
    8.4076   12.4419   24.2133 C   0  0  0  0  0  0  0  0  0  0  0  0
    7.4026   10.3075   25.0800 C   0  0  0  0  0  0  0  0  0  0  0  0
    9.1628   11.5983   23.1824 C   0  0  2  0  0  0  0  0  0  0  0  0
    8.4566   10.2536   22.9538 C   0  0  1  0  0  0  0  0  0  0  0  0
    9.2267    9.3220   22.0243 C   0  0  0  0  0  0  0  0  0  0  0  0
   12.3406   12.6649   24.9545 C   0  0  0  0  0  0  0  0  0  0  0  0
   10.6924   14.9270   23.7199 N   0  0  0  0  0  0  0  0  0  0  0  0
   11.3014   12.6060   23.9149 N   0  0  0  0  0  0  0  0  0  0  0  0
   11.0041   10.2746   23.7925 O   0  0  0  0  0  0  0  0  0  0  0  0
    8.2406    9.5689   24.1924 O   0  0  0  0  0  0  0  0  0  0  0  0
   10.5714   17.4482   20.6380 Cl  0  0  0  0  0  0  0  0  0  0  0  0
   11.4453   14.7994   19.9138 H   0  0  0  0  0  0  0  0  0  0  0  0
   11.7427   12.7801   21.3052 H   0  0  0  0  0  0  0  0  0  0  0  0
   10.1949   16.9030   23.4494 H   0  0  0  0  0  0  0  0  0  0  0  0
    8.9648   11.4348   26.0281 H   0  0  0  0  0  0  0  0  0  0  0  0
    7.3807   12.2098   26.1051 H   0  0  0  0  0  0  0  0  0  0  0  0
    7.4812   12.8120   23.7560 H   0  0  0  0  0  0  0  0  0  0  0  0
    8.9924   13.3225   24.5047 H   0  0  0  0  0  0  0  0  0  0  0  0
    7.2498    9.6994   25.9772 H   0  0  0  0  0  0  0  0  0  0  0  0
    6.4217   10.4607   24.6149 H   0  0  0  0  0  0  0  0  0  0  0  0
    9.2154   12.1515   22.2367 H   0  0  0  0  0  0  0  0  0  0  0  0
    7.4763   10.4404   22.4947 H   0  0  0  0  0  0  0  0  0  0  0  0
   10.2099    9.1090   22.4428 H   0  0  0  0  0  0  0  0  0  0  0  0
    9.3505    9.7901   21.0482 H   0  0  0  0  0  0  0  0  0  0  0  0
    8.6826    8.3858   21.9024 H   0  0  0  0  0  0  0  0  0  0  0  0
   11.9002   13.0313   25.8935 H   0  0  0  0  0  0  0  0  0  0  0  0
   12.7577   11.6595   25.1130 H   0  0  0  0  0  0  0  0  0  0  0  0
   13.1412   13.3477   24.6341 H   0  0  0  0  0  0  0  0  0  0  0  0
  1  2  1  0  0  0  0
  1  4  2  0  0  0  0
  2  5  2  0  0  0  0
  3  4  1  0  0  0  0
  3 14  2  0  0  0  0
  4 18  1  0  0  0  0
  5 14  1  0  0  0  0
  5 15  1  0  0  0  0
  6 10  1  0  0  0  0
  6 15  1  0  0  0  0
  6 16  2  0  0  0  0
  7  8  1  0  0  0  0
  7  9  1  0  0  0  0
  8 10  1  0  0  0  0
  9 17  1  0  0  0  0
 10 11  1  0  0  0  0
 11 12  1  0  0  0  0
 11 17  1  0  0  0  0
 13 15  1  0  0  0  0
  1 19  1  0  0  0  0
  2 20  1  0  0  0  0
  3 21  1  0  0  0  0
  7 22  1  0  0  0  0
  7 23  1  0  0  0  0
  8 24  1  0  0  0  0
  8 25  1  0  0  0  0
  9 26  1  0  0  0  0
  9 27  1  0  0  0  0
 10 28  1  0  0  0  0
 11 29  1  0  0  0  0
 12 30  1  0  0  0  0
 12 31  1  0  0  0  0
 12 32  1  0  0  0  0
 13 33  1  0  0  0  0
 13 34  1  0  0  0  0
 13 35  1  0  0  0  0
M  END
> <Catalog ID>
Z1848028969

> <PlateID>
1337959-R-14

> <Well>
C02

> <MW (desalted)>
268.739

> <CLogP>
1.494

> <HBD>
0

> <TPSA>
42.430

> <RotBonds>
2

> <ROCS_ShapeQuery>
A71EV2A-x0451_0A_A71EV2A-x0310_0A_A71EV2A-x0416_0A_peptide

> <ROCS_TanimotoCombo>
0.417 

> <ROCS_ShapeTanimoto>
0.298 

> <ROCS_ColorTanimoto>
0.119 

> <ROCS_RefTversky>
0.267 

> <ROCS_RefColorTversky>
0.128 

> <ROCS_RefTverskyCombo>
0.395 

> <ROCS_FitTversky>
1.662 

> <ROCS_FitColorTversky>
0.614 

> <ROCS_FitTverskyCombo>
2.277 

> <ROCS_ColorScore>
-3.892

> <ROCS_Overlap>
1849.628

> <ROCS_Rank>
280                 

$$$$
untitled-dbase-764_1600
  -OEChem-11112309163D

 47 49  0     1  0  0  0  0  0999 V2000
   10.5688   13.4512   23.3230 C   0  0  0  0  0  0  0  0  0  0  0  0
    7.7259   11.3001   22.8896 C   0  0  0  0  0  0  0  0  0  0  0  0
    9.0200   10.3209   24.8552 C   0  0  0  0  0  0  0  0  0  0  0  0
   12.1279   14.8228   21.6965 C   0  0  0  0  0  0  0  0  0  0  0  0
   10.1050   14.6871   21.0395 C   0  0  0  0  0  0  0  0  0  0  0  0
    6.1834   10.5942   25.9235 C   0  0  0  0  0  0  0  0  0  0  0  0
    9.1498   11.6288   22.4437 C   0  0  0  0  0  0  0  0  0  0  0  0
   10.0892   11.4071   24.7260 C   0  0  0  0  0  0  0  0  0  0  0  0
   11.0131   13.7619   21.8914 C   0  0  0  0  0  0  0  0  0  0  0  0
   11.3931   15.2701   20.4097 C   0  0  0  0  0  0  0  0  0  0  0  0
    6.4642    9.8446   24.6069 C   0  0  1  0  0  0  0  0  0  0  0  0
    6.8879   11.8240   25.3153 C   0  0  2  0  0  0  0  0  0  0  0  0
    7.6586   10.8358   24.3583 C   0  0  0  0  0  0  0  0  0  0  0  0
   11.3906   16.7550   20.1115 C   0  0  0  0  0  0  0  0  0  0  0  0
    7.7133   14.2894   27.9218 C   0  0  0  0  0  0  0  0  0  0  0  0
    6.8468   13.4795   26.9811 C   0  0  0  0  0  0  0  0  0  0  0  0
    9.9370   12.2222   23.5175 N   0  0  0  0  0  0  0  0  0  0  0  0
   10.7882   14.2698   24.2187 O   0  0  0  0  0  0  0  0  0  0  0  0
    6.7962    8.4499   24.7244 O   0  0  0  0  0  0  0  0  0  0  0  0
    7.6718   12.6142   26.2244 O   0  0  0  0  0  0  0  0  0  0  0  0
    7.0852   12.1915   22.7524 H   0  0  0  0  0  0  0  0  0  0  0  0
    7.3066   10.5281   22.2186 H   0  0  0  0  0  0  0  0  0  0  0  0
    9.3356    9.4330   24.2994 H   0  0  0  0  0  0  0  0  0  0  0  0
    8.9453   10.0301   25.9089 H   0  0  0  0  0  0  0  0  0  0  0  0
   12.1676   15.5821   22.4871 H   0  0  0  0  0  0  0  0  0  0  0  0
   13.1343   14.4218   21.5446 H   0  0  0  0  0  0  0  0  0  0  0  0
    9.4355   14.1736   20.3433 H   0  0  0  0  0  0  0  0  0  0  0  0
    9.5186   15.4044   21.6268 H   0  0  0  0  0  0  0  0  0  0  0  0
    5.1257   10.7381   26.1588 H   0  0  0  0  0  0  0  0  0  0  0  0
    6.6842   10.1738   26.8021 H   0  0  0  0  0  0  0  0  0  0  0  0
    9.6745   10.7124   22.1248 H   0  0  0  0  0  0  0  0  0  0  0  0
    9.1062   12.2803   21.5595 H   0  0  0  0  0  0  0  0  0  0  0  0
   10.0685   12.0433   25.6255 H   0  0  0  0  0  0  0  0  0  0  0  0
   11.0995   10.9707   24.6889 H   0  0  0  0  0  0  0  0  0  0  0  0
   11.2446   12.8240   21.3723 H   0  0  0  0  0  0  0  0  0  0  0  0
   11.7174   14.6952   19.5305 H   0  0  0  0  0  0  0  0  0  0  0  0
    5.6475    9.9698   23.8852 H   0  0  0  0  0  0  0  0  0  0  0  0
    6.1745   12.4689   24.7830 H   0  0  0  0  0  0  0  0  0  0  0  0
   11.0674   17.3203   20.9895 H   0  0  0  0  0  0  0  0  0  0  0  0
   10.7092   16.9775   19.2861 H   0  0  0  0  0  0  0  0  0  0  0  0
   12.3932   17.0903   19.8332 H   0  0  0  0  0  0  0  0  0  0  0  0
    8.2582   13.6368   28.6096 H   0  0  0  0  0  0  0  0  0  0  0  0
    8.4346   14.8918   27.3599 H   0  0  0  0  0  0  0  0  0  0  0  0
    7.1026   14.9863   28.5053 H   0  0  0  0  0  0  0  0  0  0  0  0
    6.3046   14.1381   26.2960 H   0  0  0  0  0  0  0  0  0  0  0  0
    6.1273   12.8776   27.5442 H   0  0  0  0  0  0  0  0  0  0  0  0
    6.0358    8.0322   25.1501 H   0  0  0  0  0  0  0  0  0  0  0  0
  1  9  1  0  0  0  0
  1 17  1  0  0  0  0
  1 18  2  0  0  0  0
  2  7  1  0  0  0  0
  2 13  1  0  0  0  0
  3  8  1  0  0  0  0
  3 13  1  0  0  0  0
  4  9  1  0  0  0  0
  4 10  1  0  0  0  0
  5  9  1  0  0  0  0
  5 10  1  0  0  0  0
  6 11  1  0  0  0  0
  6 12  1  0  0  0  0
  7 17  1  0  0  0  0
  8 17  1  0  0  0  0
 10 14  1  0  0  0  0
 11 13  1  0  0  0  0
 11 19  1  0  0  0  0
 12 13  1  0  0  0  0
 12 20  1  0  0  0  0
 15 16  1  0  0  0  0
 16 20  1  0  0  0  0
  2 21  1  0  0  0  0
  2 22  1  0  0  0  0
  3 23  1  0  0  0  0
  3 24  1  0  0  0  0
  4 25  1  0  0  0  0
  4 26  1  0  0  0  0
  5 27  1  0  0  0  0
  5 28  1  0  0  0  0
  6 29  1  0  0  0  0
  6 30  1  0  0  0  0
  7 31  1  0  0  0  0
  7 32  1  0  0  0  0
  8 33  1  0  0  0  0
  8 34  1  0  0  0  0
  9 35  1  0  0  0  0
 10 36  1  0  0  0  0
 11 37  1  0  0  0  0
 12 38  1  0  0  0  0
 14 39  1  0  0  0  0
 14 40  1  0  0  0  0
 14 41  1  0  0  0  0
 15 42  1  0  0  0  0
 15 43  1  0  0  0  0
 15 44  1  0  0  0  0
 16 45  1  0  0  0  0
 16 46  1  0  0  0  0
 19 47  1  0  0  0  0
M  END
> <Catalog ID>
Z1375896882

> <PlateID>
1337959-R-10

> <Well>
E07

> <MW (desalted)>
281.390

> <CLogP>
0.601

> <HBD>
1

> <TPSA>
49.770

> <RotBonds>
3

> <ROCS_ShapeQuery>
A71EV2A-x0451_0A_A71EV2A-x0310_0A_A71EV2A-x0416_0A_peptide

> <ROCS_TanimotoCombo>
0.417 

> <ROCS_ShapeTanimoto>
0.284 

> <ROCS_ColorTanimoto>
0.133 

> <ROCS_RefTversky>
0.259 

> <ROCS_RefColorTversky>
0.149 

> <ROCS_RefTverskyCombo>
0.408 

> <ROCS_FitTversky>
1.522 

> <ROCS_FitColorTversky>
0.551 

> <ROCS_FitTverskyCombo>
2.073 

> <ROCS_ColorScore>
-4.540

> <ROCS_Overlap>
1795.438

> <ROCS_Rank>
281                 

$$$$
untitled-dbase-675_100
  -OEChem-11112309163D

 27 28  0     0  0  0  0  0  0999 V2000
   12.0983   14.4118   19.1612 C   0  0  0  0  0  0  0  0  0  0  0  0
    7.7510    9.6236   23.9832 C   0  0  0  0  0  0  0  0  0  0  0  0
    9.0155   10.0716   23.6011 C   0  0  0  0  0  0  0  0  0  0  0  0
    6.9150   10.4512   24.7328 C   0  0  0  0  0  0  0  0  0  0  0  0
   11.8811   16.7433   20.1047 C   0  0  0  0  0  0  0  0  0  0  0  0
    8.6080   12.1747   24.7182 C   0  0  0  0  0  0  0  0  0  0  0  0
   11.5605   17.3771   21.2850 C   0  0  0  0  0  0  0  0  0  0  0  0
   11.8162   15.3250   20.2240 C   0  0  0  0  0  0  0  0  0  0  0  0
    9.4440   11.3471   23.9686 C   0  0  0  0  0  0  0  0  0  0  0  0
    7.3435   11.7267   25.1003 C   0  0  0  0  0  0  0  0  0  0  0  0
   11.4487   14.9287   21.4912 C   0  0  0  0  0  0  0  0  0  0  0  0
   10.8853   13.3358   23.3594 C   0  0  0  0  0  0  0  0  0  0  0  0
   10.7961   11.8249   23.5594 C   0  0  0  0  0  0  0  0  0  0  0  0
   12.3274   13.6703   18.2984 N   0  0  0  0  0  0  0  0  0  0  0  0
   11.2615   13.6439   22.0545 N   0  0  0  0  0  0  0  0  0  0  0  0
   10.6461   14.1233   24.2692 O   0  0  0  0  0  0  0  0  0  0  0  0
    6.5410   12.5213   25.8205 F   0  0  0  0  0  0  0  0  0  0  0  0
   11.1834   16.2637   22.5302 S   0  0  0  0  0  0  0  0  0  0  0  0
    7.4171    8.6306   23.6967 H   0  0  0  0  0  0  0  0  0  0  0  0
    9.6601    9.4196   23.0172 H   0  0  0  0  0  0  0  0  0  0  0  0
    5.9309   10.1021   25.0306 H   0  0  0  0  0  0  0  0  0  0  0  0
   12.1470   17.2797   19.2021 H   0  0  0  0  0  0  0  0  0  0  0  0
    8.9328   13.1701   25.0087 H   0  0  0  0  0  0  0  0  0  0  0  0
   11.5292   18.4408   21.4749 H   0  0  0  0  0  0  0  0  0  0  0  0
   11.5486   11.5361   24.3118 H   0  0  0  0  0  0  0  0  0  0  0  0
   11.1057   11.3369   22.6205 H   0  0  0  0  0  0  0  0  0  0  0  0
   11.4204   12.8531   21.4336 H   0  0  0  0  0  0  0  0  0  0  0  0
  1  8  1  0  0  0  0
  1 14  3  0  0  0  0
  2  3  2  0  0  0  0
  2  4  1  0  0  0  0
  3  9  1  0  0  0  0
  4 10  2  0  0  0  0
  5  7  2  0  0  0  0
  5  8  1  0  0  0  0
  6  9  2  0  0  0  0
  6 10  1  0  0  0  0
  7 18  1  0  0  0  0
  8 11  2  0  0  0  0
  9 13  1  0  0  0  0
 10 17  1  0  0  0  0
 11 15  1  0  0  0  0
 11 18  1  0  0  0  0
 12 13  1  0  0  0  0
 12 15  1  0  0  0  0
 12 16  2  0  0  0  0
  2 19  1  0  0  0  0
  3 20  1  0  0  0  0
  4 21  1  0  0  0  0
  5 22  1  0  0  0  0
  6 23  1  0  0  0  0
  7 24  1  0  0  0  0
 13 25  1  0  0  0  0
 13 26  1  0  0  0  0
 15 27  1  0  0  0  0
M  END
> <Catalog ID>
Z29080917

> <PlateID>
1337959-R-09

> <Well>
D08

> <MW (desalted)>
260.287

> <CLogP>
1.913

> <HBD>
1

> <TPSA>
52.890

> <RotBonds>
3

> <ROCS_ShapeQuery>
A71EV2A-x0451_0A_A71EV2A-x0310_0A_A71EV2A-x0416_0A_peptide

> <ROCS_TanimotoCombo>
0.417 

> <ROCS_ShapeTanimoto>
0.291 

> <ROCS_ColorTanimoto>
0.126 

> <ROCS_RefTversky>
0.261 

> <ROCS_RefColorTversky>
0.135 

> <ROCS_RefTverskyCombo>
0.396 

> <ROCS_FitTversky>
1.636 

> <ROCS_FitColorTversky>
0.648 

> <ROCS_FitTverskyCombo>
2.284 

> <ROCS_ColorScore>
-4.103

> <ROCS_Overlap>
1812.666

> <ROCS_Rank>
282                 

$$$$
untitled-dbase-883_24
  -OEChem-11112309163D

 48 50  0     1  0  0  0  0  0999 V2000
   10.5966   13.2570   23.3824 C   0  0  0  0  0  0  0  0  0  0  0  0
   12.8431   13.3384   22.2872 C   0  0  0  0  0  0  0  0  0  0  0  0
    8.8148   10.0064   23.4856 C   0  0  0  0  0  0  0  0  0  0  0  0
    6.7109   11.3906   23.9437 C   0  0  0  0  0  0  0  0  0  0  0  0
   13.2540   14.7044   21.7583 C   0  0  0  0  0  0  0  0  0  0  0  0
    9.5827   11.0404   22.6731 C   0  0  0  0  0  0  0  0  0  0  0  0
   10.9842   14.5407   21.2866 C   0  0  0  0  0  0  0  0  0  0  0  0
    9.0133   11.9805   24.8150 C   0  0  0  0  0  0  0  0  0  0  0  0
    5.9374   11.7066   25.2094 C   0  0  0  0  0  0  0  0  0  0  0  0
    7.5454   10.0962   25.7147 C   0  0  0  0  0  0  0  0  0  0  0  0
   11.3300   13.2807   22.0780 C   0  0  2  0  0  0  0  0  0  0  0  0
    8.0258   10.8509   24.4876 C   0  0  2  0  0  0  0  0  0  0  0  0
   13.2205   15.7041   17.9720 C   0  0  0  0  0  0  0  0  0  0  0  0
   13.4533   18.0584   18.8251 C   0  0  0  0  0  0  0  0  0  0  0  0
   12.2639   16.3220   20.2469 C   0  0  0  0  0  0  0  0  0  0  0  0
   13.3684   16.5821   19.2154 C   0  0  0  0  0  0  0  0  0  0  0  0
    9.7868   12.1551   23.5916 N   0  0  0  0  0  0  0  0  0  0  0  0
   12.2674   14.9407   20.7053 N   0  0  1  0  0  0  0  0  0  0  0  0
   10.7352   14.1747   24.1926 O   0  0  0  0  0  0  0  0  0  0  0  0
    6.4223   10.8256   26.2320 O   0  0  0  0  0  0  0  0  0  0  0  0
   13.3155   12.5507   21.6863 H   0  0  0  0  0  0  0  0  0  0  0  0
   13.1569   13.1965   23.3267 H   0  0  0  0  0  0  0  0  0  0  0  0
    8.1291    9.4564   22.8291 H   0  0  0  0  0  0  0  0  0  0  0  0
    9.4826    9.2816   23.9614 H   0  0  0  0  0  0  0  0  0  0  0  0
    6.1895   10.6063   23.3818 H   0  0  0  0  0  0  0  0  0  0  0  0
    6.8154   12.2594   23.2883 H   0  0  0  0  0  0  0  0  0  0  0  0
   13.1844   15.4529   22.5581 H   0  0  0  0  0  0  0  0  0  0  0  0
   14.2781   14.6952   21.3722 H   0  0  0  0  0  0  0  0  0  0  0  0
   10.5678   10.6654   22.3750 H   0  0  0  0  0  0  0  0  0  0  0  0
    9.0387   11.3612   21.7805 H   0  0  0  0  0  0  0  0  0  0  0  0
   10.2485   14.3220   20.5041 H   0  0  0  0  0  0  0  0  0  0  0  0
   10.5660   15.3233   21.9348 H   0  0  0  0  0  0  0  0  0  0  0  0
    8.5020   12.9305   25.0088 H   0  0  0  0  0  0  0  0  0  0  0  0
    9.6795   11.7676   25.6574 H   0  0  0  0  0  0  0  0  0  0  0  0
    6.1171   12.7356   25.5402 H   0  0  0  0  0  0  0  0  0  0  0  0
    4.8592   11.5669   25.0847 H   0  0  0  0  0  0  0  0  0  0  0  0
    7.1870    9.0895   25.4629 H   0  0  0  0  0  0  0  0  0  0  0  0
    8.3004    9.9984   26.5039 H   0  0  0  0  0  0  0  0  0  0  0  0
   11.0587   12.3760   21.5239 H   0  0  0  0  0  0  0  0  0  0  0  0
   12.2891   15.9111   17.4351 H   0  0  0  0  0  0  0  0  0  0  0  0
   14.0492   15.8801   17.2775 H   0  0  0  0  0  0  0  0  0  0  0  0
   13.2316   14.6428   18.2414 H   0  0  0  0  0  0  0  0  0  0  0  0
   12.5341   18.4036   18.3405 H   0  0  0  0  0  0  0  0  0  0  0  0
   14.2809   18.2250   18.1271 H   0  0  0  0  0  0  0  0  0  0  0  0
   13.6298   18.6840   19.7065 H   0  0  0  0  0  0  0  0  0  0  0  0
   12.3863   16.9762   21.1169 H   0  0  0  0  0  0  0  0  0  0  0  0
   11.2823   16.5333   19.8084 H   0  0  0  0  0  0  0  0  0  0  0  0
   14.3206   16.3136   19.6918 H   0  0  0  0  0  0  0  0  0  0  0  0
  1 11  1  0  0  0  0
  1 17  1  0  0  0  0
  1 19  2  0  0  0  0
  2  5  1  0  0  0  0
  2 11  1  0  0  0  0
  3  6  1  0  0  0  0
  3 12  1  0  0  0  0
  4  9  1  0  0  0  0
  4 12  1  0  0  0  0
  5 18  1  0  0  0  0
  6 17  1  0  0  0  0
  7 11  1  0  0  0  0
  7 18  1  0  0  0  0
  8 12  1  0  0  0  0
  8 17  1  0  0  0  0
  9 20  1  0  0  0  0
 10 12  1  0  0  0  0
 10 20  1  0  0  0  0
 13 16  1  0  0  0  0
 14 16  1  0  0  0  0
 15 16  1  0  0  0  0
 15 18  1  0  0  0  0
  2 21  1  0  0  0  0
  2 22  1  0  0  0  0
  3 23  1  0  0  0  0
  3 24  1  0  0  0  0
  4 25  1  0  0  0  0
  4 26  1  0  0  0  0
  5 27  1  0  0  0  0
  5 28  1  0  0  0  0
  6 29  1  0  0  0  0
  6 30  1  0  0  0  0
  7 31  1  0  0  0  0
  7 32  1  0  0  0  0
  8 33  1  0  0  0  0
  8 34  1  0  0  0  0
  9 35  1  0  0  0  0
  9 36  1  0  0  0  0
 10 37  1  0  0  0  0
 10 38  1  0  0  0  0
 11 39  1  0  0  0  0
 13 40  1  0  0  0  0
 13 41  1  0  0  0  0
 13 42  1  0  0  0  0
 14 43  1  0  0  0  0
 14 44  1  0  0  0  0
 14 45  1  0  0  0  0
 15 46  1  0  0  0  0
 15 47  1  0  0  0  0
 16 48  1  0  0  0  0
M  END
> <Catalog ID>
Z1420831608

> <PlateID>
1337959-R-12

> <Well>
A07

> <MW (desalted)>
280.406

> <CLogP>
1.410

> <HBD>
0

> <TPSA>
32.780

> <RotBonds>
3

> <ROCS_ShapeQuery>
A71EV2A-x0451_0A_A71EV2A-x0310_0A_A71EV2A-x0416_0A_peptide

> <ROCS_TanimotoCombo>
0.417 

> <ROCS_ShapeTanimoto>
0.303 

> <ROCS_ColorTanimoto>
0.113 

> <ROCS_RefTversky>
0.273 

> <ROCS_RefColorTversky>
0.129 

> <ROCS_RefTverskyCombo>
0.402 

> <ROCS_FitTversky>
1.583 

> <ROCS_FitColorTversky>
0.479 

> <ROCS_FitTverskyCombo>
2.061 

> <ROCS_ColorScore>
-3.943

> <ROCS_Overlap>
1893.105

> <ROCS_Rank>
283                 

$$$$
untitled-dbase-878_34
  -OEChem-11112309163D

 29 30  0     0  0  0  0  0  0999 V2000
    7.5716   10.1488   23.8408 C   0  0  0  0  0  0  0  0  0  0  0  0
    7.3786   11.4207   24.3797 C   0  0  0  0  0  0  0  0  0  0  0  0
    9.8166   10.7635   23.1934 C   0  0  0  0  0  0  0  0  0  0  0  0
    8.7906    9.8201   23.2477 C   0  0  0  0  0  0  0  0  0  0  0  0
    8.4046   12.3641   24.3255 C   0  0  0  0  0  0  0  0  0  0  0  0
    9.6236   12.0356   23.7323 C   0  0  0  0  0  0  0  0  0  0  0  0
   10.2337   15.2919   20.2524 C   0  0  0  0  0  0  0  0  0  0  0  0
    8.9945   16.3737   22.0123 C   0  0  0  0  0  0  0  0  0  0  0  0
   11.0605   14.5155   21.2731 C   0  0  0  0  0  0  0  0  0  0  0  0
    9.7922   15.6225   23.0744 C   0  0  0  0  0  0  0  0  0  0  0  0
    9.7866   16.5745   20.7979 N   0  0  0  0  0  0  0  0  0  0  0  0
   10.2602   14.3207   22.5167 N   0  0  0  0  0  0  0  0  0  0  0  0
   11.0034   13.8790   24.9453 O   0  0  0  0  0  0  0  0  0  0  0  0
   12.0822   12.5859   23.0713 O   0  0  0  0  0  0  0  0  0  0  0  0
    8.9752    8.5987   22.7297 F   0  0  0  0  0  0  0  0  0  0  0  0
    8.2066   13.5842   24.8441 F   0  0  0  0  0  0  0  0  0  0  0  0
   10.9238   13.2272   23.6556 S   0  0  0  0  0  0  0  0  0  0  0  0
    6.7724    9.4145   23.8829 H   0  0  0  0  0  0  0  0  0  0  0  0
    6.4301   11.6774   24.8420 H   0  0  0  0  0  0  0  0  0  0  0  0
   10.7613   10.4976   22.7270 H   0  0  0  0  0  0  0  0  0  0  0  0
   10.8348   15.4752   19.3552 H   0  0  0  0  0  0  0  0  0  0  0  0
    9.3634   14.7035   19.9367 H   0  0  0  0  0  0  0  0  0  0  0  0
    8.0757   15.8277   21.7656 H   0  0  0  0  0  0  0  0  0  0  0  0
    8.6880   17.3494   22.4044 H   0  0  0  0  0  0  0  0  0  0  0  0
   11.3206   13.5378   20.8529 H   0  0  0  0  0  0  0  0  0  0  0  0
   11.9884   15.0490   21.5111 H   0  0  0  0  0  0  0  0  0  0  0  0
   10.6544   16.2134   23.4058 H   0  0  0  0  0  0  0  0  0  0  0  0
    9.1471   15.4350   23.9397 H   0  0  0  0  0  0  0  0  0  0  0  0
   10.6051   17.1390   21.0272 H   0  0  0  0  0  0  0  0  0  0  0  0
  1  2  1  0  0  0  0
  1  4  2  0  0  0  0
  2  5  2  0  0  0  0
  3  4  1  0  0  0  0
  3  6  2  0  0  0  0
  4 15  1  0  0  0  0
  5  6  1  0  0  0  0
  5 16  1  0  0  0  0
  6 17  1  0  0  0  0
  7  9  1  0  0  0  0
  7 11  1  0  0  0  0
  8 10  1  0  0  0  0
  8 11  1  0  0  0  0
  9 12  1  0  0  0  0
 10 12  1  0  0  0  0
 12 17  1  0  0  0  0
 13 17  2  0  0  0  0
 14 17  2  0  0  0  0
  1 18  1  0  0  0  0
  2 19  1  0  0  0  0
  3 20  1  0  0  0  0
  7 21  1  0  0  0  0
  7 22  1  0  0  0  0
  8 23  1  0  0  0  0
  8 24  1  0  0  0  0
  9 25  1  0  0  0  0
  9 26  1  0  0  0  0
 10 27  1  0  0  0  0
 10 28  1  0  0  0  0
 11 29  1  0  0  0  0
M  END
> <Catalog ID>
Z94598474

> <PlateID>
1337959-R-12

> <Well>
A02

> <MW (desalted)>
262.276

> <CLogP>
1.555

> <HBD>
1

> <TPSA>
49.410

> <RotBonds>
1

> <ROCS_ShapeQuery>
A71EV2A-x0451_0A_A71EV2A-x0310_0A_A71EV2A-x0416_0A_peptide

> <ROCS_TanimotoCombo>
0.417 

> <ROCS_ShapeTanimoto>
0.278 

> <ROCS_ColorTanimoto>
0.139 

> <ROCS_RefTversky>
0.251 

> <ROCS_RefColorTversky>
0.151 

> <ROCS_RefTverskyCombo>
0.402 

> <ROCS_FitTversky>
1.638 

> <ROCS_FitColorTversky>
0.630 

> <ROCS_FitTverskyCombo>
2.268 

> <ROCS_ColorScore>
-4.592

> <ROCS_Overlap>
1738.932

> <ROCS_Rank>
284                 

$$$$
untitled-dbase-290_2
  -OEChem-11112309163D

 24 25  0     0  0  0  0  0  0999 V2000
    7.5954   10.0961   24.1116 C   0  0  0  0  0  0  0  0  0  0  0  0
    7.4364   11.4061   24.5634 C   0  0  0  0  0  0  0  0  0  0  0  0
    8.8031    9.6978   23.5382 C   0  0  0  0  0  0  0  0  0  0  0  0
    8.4850   12.3179   24.4418 C   0  0  0  0  0  0  0  0  0  0  0  0
    9.8516   10.6096   23.4166 C   0  0  0  0  0  0  0  0  0  0  0  0
    9.6926   11.9196   23.8684 C   0  0  0  0  0  0  0  0  0  0  0  0
   11.4828   14.8899   20.2853 C   0  0  0  0  0  0  0  0  0  0  0  0
   11.4166   14.5804   21.5704 C   0  0  0  0  0  0  0  0  0  0  0  0
   11.7882   15.7725   22.3367 C   0  0  0  0  0  0  0  0  0  0  0  0
   11.8689   16.1939   20.1101 N   0  0  0  0  0  0  0  0  0  0  0  0
   12.0578   16.7471   21.2378 N   0  0  0  0  0  0  0  0  0  0  0  0
   11.0465   13.3054   22.0408 N   0  0  0  0  0  0  0  0  0  0  0  0
   12.2323   12.4069   24.1404 O   0  0  0  0  0  0  0  0  0  0  0  0
   10.5980   14.3059   24.3683 O   0  0  0  0  0  0  0  0  0  0  0  0
   11.0072   10.2154   22.8635 F   0  0  0  0  0  0  0  0  0  0  0  0
   11.0020   13.0651   23.7189 S   0  0  0  0  0  0  0  0  0  0  0  0
    6.7791    9.3861   24.2064 H   0  0  0  0  0  0  0  0  0  0  0  0
    6.4964   11.7159   25.0105 H   0  0  0  0  0  0  0  0  0  0  0  0
    8.9271    8.6779   23.1864 H   0  0  0  0  0  0  0  0  0  0  0  0
    8.3501   13.3359   24.7973 H   0  0  0  0  0  0  0  0  0  0  0  0
   11.2755   14.2524   19.4392 H   0  0  0  0  0  0  0  0  0  0  0  0
   10.9730   16.1383   22.9673 H   0  0  0  0  0  0  0  0  0  0  0  0
   12.6927   15.6242   22.9331 H   0  0  0  0  0  0  0  0  0  0  0  0
   10.8143   12.5719   21.3621 H   0  0  0  0  0  0  0  0  0  0  0  0
  1  2  1  0  0  0  0
  1  3  2  0  0  0  0
  2  4  2  0  0  0  0
  3  5  1  0  0  0  0
  4  6  1  0  0  0  0
  5  6  2  0  0  0  0
  5 15  1  0  0  0  0
  6 16  1  0  0  0  0
  7  8  2  0  0  0  0
  7 10  1  0  0  0  0
  8  9  1  0  0  0  0
  8 12  1  0  0  0  0
  9 11  1  0  0  0  0
 10 11  2  0  0  0  0
 12 16  1  0  0  0  0
 13 16  2  0  0  0  0
 14 16  2  0  0  0  0
  1 17  1  0  0  0  0
  2 18  1  0  0  0  0
  3 19  1  0  0  0  0
  4 20  1  0  0  0  0
  7 21  1  0  0  0  0
  9 22  1  0  0  0  0
  9 23  1  0  0  0  0
 12 24  1  0  0  0  0
M  END
> <Catalog ID>
Z431547414

> <PlateID>
1337959-R-04

> <Well>
F02

> <MW (desalted)>
241.242

> <CLogP>
1.523

> <HBD>
2

> <TPSA>
74.850

> <RotBonds>
2

> <ROCS_ShapeQuery>
A71EV2A-x0451_0A_A71EV2A-x0310_0A_A71EV2A-x0416_0A_peptide

> <ROCS_TanimotoCombo>
0.416 

> <ROCS_ShapeTanimoto>
0.282 

> <ROCS_ColorTanimoto>
0.134 

> <ROCS_RefTversky>
0.253 

> <ROCS_RefColorTversky>
0.143 

> <ROCS_RefTverskyCombo>
0.396 

> <ROCS_FitTversky>
1.697 

> <ROCS_FitColorTversky>
0.684 

> <ROCS_FitTverskyCombo>
2.382 

> <ROCS_ColorScore>
-4.339

> <ROCS_Overlap>
1754.376

> <ROCS_Rank>
285                 

$$$$
untitled-dbase-1068_459
  -OEChem-11112309163D

 32 33  0     1  0  0  0  0  0999 V2000
    7.6131   11.7834   25.0915 C   0  0  0  0  0  0  0  0  0  0  0  0
    8.9418   11.9338   24.6948 C   0  0  0  0  0  0  0  0  0  0  0  0
    6.8966   10.6478   24.7134 C   0  0  0  0  0  0  0  0  0  0  0  0
    9.5541   10.9488   23.9199 C   0  0  0  0  0  0  0  0  0  0  0  0
    7.5089    9.6628   23.9385 C   0  0  0  0  0  0  0  0  0  0  0  0
    8.8376    9.8133   23.5417 C   0  0  0  0  0  0  0  0  0  0  0  0
   10.9561   11.1119   23.5043 C   0  0  0  0  0  0  0  0  0  0  0  0
   11.7553   15.3573   22.9652 C   0  0  0  0  0  0  0  0  0  0  0  0
   11.0831   13.8640   21.0517 C   0  0  0  0  0  0  0  0  0  0  0  0
   10.2993   12.8197   21.8335 C   0  0  0  0  0  0  0  0  0  0  0  0
   12.5241   12.9770   22.7383 C   0  0  0  0  0  0  0  0  0  0  0  0
   12.1994   14.2867   22.0147 C   0  0  2  0  0  0  0  0  0  0  0  0
    6.7390    8.4501   23.5361 C   0  0  0  0  0  0  0  0  0  0  0  0
   11.2723   12.2194   22.7320 N   0  0  0  0  0  0  0  0  0  0  0  0
   11.7548   10.2482   23.8619 O   0  0  0  0  0  0  0  0  0  0  0  0
   12.2882   16.4499   23.0904 O   0  0  0  0  0  0  0  0  0  0  0  0
   10.6760   14.9486   23.6761 O   0  0  0  0  0  0  0  0  0  0  0  0
    9.4248    8.8649   22.7964 F   0  0  0  0  0  0  0  0  0  0  0  0
    7.1365   12.5500   25.6954 H   0  0  0  0  0  0  0  0  0  0  0  0
    9.4903   12.8226   24.9963 H   0  0  0  0  0  0  0  0  0  0  0  0
    5.8619   10.5385   25.0271 H   0  0  0  0  0  0  0  0  0  0  0  0
   11.4835   13.4607   20.1123 H   0  0  0  0  0  0  0  0  0  0  0  0
   10.4366   14.7168   20.7958 H   0  0  0  0  0  0  0  0  0  0  0  0
    9.4602   13.2425   22.3939 H   0  0  0  0  0  0  0  0  0  0  0  0
    9.9205   12.0284   21.1771 H   0  0  0  0  0  0  0  0  0  0  0  0
   13.3156   12.4124   22.2309 H   0  0  0  0  0  0  0  0  0  0  0  0
   12.8254   13.1290   23.7832 H   0  0  0  0  0  0  0  0  0  0  0  0
   13.0751   14.6429   21.4541 H   0  0  0  0  0  0  0  0  0  0  0  0
    6.2325    8.6200   22.5783 H   0  0  0  0  0  0  0  0  0  0  0  0
    7.3965    7.5774   23.4323 H   0  0  0  0  0  0  0  0  0  0  0  0
    5.9830    8.1907   24.2886 H   0  0  0  0  0  0  0  0  0  0  0  0
   10.3707   15.6357   24.3062 H   0  0  0  0  0  0  0  0  0  0  0  0
  1  2  2  0  0  0  0
  1  3  1  0  0  0  0
  2  4  1  0  0  0  0
  3  5  2  0  0  0  0
  4  6  2  0  0  0  0
  4  7  1  0  0  0  0
  5  6  1  0  0  0  0
  5 13  1  0  0  0  0
  6 18  1  0  0  0  0
  7 14  1  0  0  0  0
  7 15  2  0  0  0  0
  8 12  1  0  0  0  0
  8 16  2  0  0  0  0
  8 17  1  0  0  0  0
  9 10  1  0  0  0  0
  9 12  1  0  0  0  0
 10 14  1  0  0  0  0
 11 12  1  0  0  0  0
 11 14  1  0  0  0  0
  1 19  1  0  0  0  0
  2 20  1  0  0  0  0
  3 21  1  0  0  0  0
  9 22  1  0  0  0  0
  9 23  1  0  0  0  0
 10 24  1  0  0  0  0
 10 25  1  0  0  0  0
 11 26  1  0  0  0  0
 11 27  1  0  0  0  0
 12 28  1  0  0  0  0
 13 29  1  0  0  0  0
 13 30  1  0  0  0  0
 13 31  1  0  0  0  0
 17 32  1  0  0  0  0
M  END
> <Catalog ID>
Z1528736589

> <PlateID>
1337959-R-14

> <Well>
D04

> <MW (desalted)>
251.254

> <CLogP>
1.336

> <HBD>
1

> <TPSA>
57.610

> <RotBonds>
2

> <ROCS_ShapeQuery>
A71EV2A-x0451_0A_A71EV2A-x0310_0A_A71EV2A-x0416_0A_peptide

> <ROCS_TanimotoCombo>
0.416 

> <ROCS_ShapeTanimoto>
0.308 

> <ROCS_ColorTanimoto>
0.109 

> <ROCS_RefTversky>
0.274 

> <ROCS_RefColorTversky>
0.122 

> <ROCS_RefTverskyCombo>
0.395 

> <ROCS_FitTversky>
1.682 

> <ROCS_FitColorTversky>
0.507 

> <ROCS_FitTverskyCombo>
2.189 

> <ROCS_ColorScore>
-3.698

> <ROCS_Overlap>
1897.824

> <ROCS_Rank>
286                 

$$$$
untitled-dbase-768_1
  -OEChem-11112309163D

 38 39  0     1  0  0  0  0  0999 V2000
    8.6465    9.7042   23.3768 C   0  0  0  0  0  0  0  0  0  0  0  0
    7.5418   10.0323   24.1626 C   0  0  0  0  0  0  0  0  0  0  0  0
    9.6488   10.6482   23.1536 C   0  0  0  0  0  0  0  0  0  0  0  0
    8.4417   12.2487   24.5019 C   0  0  0  0  0  0  0  0  0  0  0  0
    7.4394   11.3046   24.7252 C   0  0  0  0  0  0  0  0  0  0  0  0
    9.5464   11.9205   23.7161 C   0  0  0  0  0  0  0  0  0  0  0  0
    9.8652   13.7781   19.5729 C   0  0  0  0  0  0  0  0  0  0  0  0
    8.7025   14.7624   19.7001 C   0  0  0  0  0  0  0  0  0  0  0  0
   10.0352   12.9495   20.8408 C   0  0  0  0  0  0  0  0  0  0  0  0
    9.0282   14.7511   22.2101 C   0  0  0  0  0  0  0  0  0  0  0  0
    8.8060   15.6162   20.9680 C   0  0  1  0  0  0  0  0  0  0  0  0
    6.2578   11.6547   25.5653 C   0  0  0  0  0  0  0  0  0  0  0  0
    9.6300   17.6927   21.7964 C   0  0  0  0  0  0  0  0  0  0  0  0
   10.2107   13.8584   22.0105 N   0  0  1  0  0  0  0  0  0  0  0  0
    9.8437   16.6154   20.8452 N   0  0  0  0  0  0  0  0  0  0  0  0
   10.7737   14.0710   24.5174 O   0  0  0  0  0  0  0  0  0  0  0  0
   12.0325   12.4044   23.1084 O   0  0  0  0  0  0  0  0  0  0  0  0
   10.8145   13.1151   23.4321 S   0  0  0  0  0  0  0  0  0  0  0  0
    8.7267    8.7133   22.9393 H   0  0  0  0  0  0  0  0  0  0  0  0
    6.7662    9.2900   24.3320 H   0  0  0  0  0  0  0  0  0  0  0  0
   10.5047   10.3817   22.5392 H   0  0  0  0  0  0  0  0  0  0  0  0
    8.3607   13.2401   24.9413 H   0  0  0  0  0  0  0  0  0  0  0  0
    9.6890   13.1126   18.7201 H   0  0  0  0  0  0  0  0  0  0  0  0
   10.7921   14.3245   19.3611 H   0  0  0  0  0  0  0  0  0  0  0  0
    8.6525   15.3968   18.8065 H   0  0  0  0  0  0  0  0  0  0  0  0
    7.7624   14.1963   19.7313 H   0  0  0  0  0  0  0  0  0  0  0  0
    9.1654   12.3025   21.0019 H   0  0  0  0  0  0  0  0  0  0  0  0
   10.9219   12.3151   20.7343 H   0  0  0  0  0  0  0  0  0  0  0  0
    9.1912   15.3871   23.0882 H   0  0  0  0  0  0  0  0  0  0  0  0
    8.1414   14.1348   22.4034 H   0  0  0  0  0  0  0  0  0  0  0  0
    7.8480   16.1530   21.0927 H   0  0  0  0  0  0  0  0  0  0  0  0
    6.4528   11.4143   26.6176 H   0  0  0  0  0  0  0  0  0  0  0  0
    6.0189   12.7235   25.4911 H   0  0  0  0  0  0  0  0  0  0  0  0
    5.3632   11.1062   25.2429 H   0  0  0  0  0  0  0  0  0  0  0  0
    8.6571   18.1674   21.6012 H   0  0  0  0  0  0  0  0  0  0  0  0
    9.6411   17.2867   22.8187 H   0  0  0  0  0  0  0  0  0  0  0  0
   10.4303   18.4398   21.6899 H   0  0  0  0  0  0  0  0  0  0  0  0
   10.7421   16.1748   21.0231 H   0  0  0  0  0  0  0  0  0  0  0  0
  1  2  2  0  0  0  0
  1  3  1  0  0  0  0
  2  5  1  0  0  0  0
  3  6  2  0  0  0  0
  4  5  2  0  0  0  0
  4  6  1  0  0  0  0
  5 12  1  0  0  0  0
  6 18  1  0  0  0  0
  7  8  1  0  0  0  0
  7  9  1  0  0  0  0
  8 11  1  0  0  0  0
  9 14  1  0  0  0  0
 10 11  1  0  0  0  0
 10 14  1  0  0  0  0
 11 15  1  0  0  0  0
 13 15  1  0  0  0  0
 14 18  1  0  0  0  0
 16 18  2  0  0  0  0
 17 18  2  0  0  0  0
  1 19  1  0  0  0  0
  2 20  1  0  0  0  0
  3 21  1  0  0  0  0
  4 22  1  0  0  0  0
  7 23  1  0  0  0  0
  7 24  1  0  0  0  0
  8 25  1  0  0  0  0
  8 26  1  0  0  0  0
  9 27  1  0  0  0  0
  9 28  1  0  0  0  0
 10 29  1  0  0  0  0
 10 30  1  0  0  0  0
 11 31  1  0  0  0  0
 12 32  1  0  0  0  0
 12 33  1  0  0  0  0
 12 34  1  0  0  0  0
 13 35  1  0  0  0  0
 13 36  1  0  0  0  0
 13 37  1  0  0  0  0
 15 38  1  0  0  0  0
M  END
> <Catalog ID>
Z1993859032

> <PlateID>
1337959-R-10

> <Well>
E11

> <MW (desalted)>
268.375

> <CLogP>
2.163

> <HBD>
1

> <TPSA>
49.410

> <RotBonds>
2

> <ROCS_ShapeQuery>
A71EV2A-x0451_0A_A71EV2A-x0310_0A_A71EV2A-x0416_0A_peptide

> <ROCS_TanimotoCombo>
0.416 

> <ROCS_ShapeTanimoto>
0.256 

> <ROCS_ColorTanimoto>
0.161 

> <ROCS_RefTversky>
0.235 

> <ROCS_RefColorTversky>
0.172 

> <ROCS_RefTverskyCombo>
0.407 

> <ROCS_FitTversky>
1.504 

> <ROCS_FitColorTversky>
0.717 

> <ROCS_FitTverskyCombo>
2.221 

> <ROCS_ColorScore>
-5.224

> <ROCS_Overlap>
1632.393

> <ROCS_Rank>
287                 

$$$$
untitled-dbase-254_419
  -OEChem-11112309163D

 29 30  0     1  0  0  0  0  0999 V2000
    6.9240   10.7031   24.6618 C   0  0  0  0  0  0  0  0  0  0  0  0
    7.6661   11.8212   25.0419 C   0  0  0  0  0  0  0  0  0  0  0  0
    7.5099    9.7116   23.8748 C   0  0  0  0  0  0  0  0  0  0  0  0
    9.5802   10.9566   23.8478 C   0  0  0  0  0  0  0  0  0  0  0  0
    8.9943   11.9480   24.6349 C   0  0  0  0  0  0  0  0  0  0  0  0
    8.8380    9.8384   23.4678 C   0  0  0  0  0  0  0  0  0  0  0  0
   10.9836   11.1298   23.4407 C   0  0  0  0  0  0  0  0  0  0  0  0
   11.7627   15.3828   22.9330 C   0  0  0  0  0  0  0  0  0  0  0  0
   11.1086   13.8983   21.0064 C   0  0  0  0  0  0  0  0  0  0  0  0
   10.3263   12.8448   21.7774 C   0  0  0  0  0  0  0  0  0  0  0  0
   12.5455   13.0081   22.6949 C   0  0  0  0  0  0  0  0  0  0  0  0
   12.2176   14.3208   21.9780 C   0  0  2  0  0  0  0  0  0  0  0  0
   11.2978   12.2439   22.6772 N   0  0  0  0  0  0  0  0  0  0  0  0
   11.7850   10.2682   23.7970 O   0  0  0  0  0  0  0  0  0  0  0  0
   12.2891   16.4774   23.0680 O   0  0  0  0  0  0  0  0  0  0  0  0
   10.6819   14.9638   23.6355 O   0  0  0  0  0  0  0  0  0  0  0  0
    9.6962   13.0280   25.0072 F   0  0  0  0  0  0  0  0  0  0  0  0
    9.5252    8.5888   22.4933 Cl  0  0  0  0  0  0  0  0  0  0  0  0
    5.8897   10.6049   24.9785 H   0  0  0  0  0  0  0  0  0  0  0  0
    7.2099   12.5933   25.6545 H   0  0  0  0  0  0  0  0  0  0  0  0
    6.9162    8.8474   23.5877 H   0  0  0  0  0  0  0  0  0  0  0  0
   11.5161   13.5031   20.0666 H   0  0  0  0  0  0  0  0  0  0  0  0
   10.4589   14.7493   20.7526 H   0  0  0  0  0  0  0  0  0  0  0  0
    9.4821   13.2596   22.3361 H   0  0  0  0  0  0  0  0  0  0  0  0
    9.9552   12.0558   21.1140 H   0  0  0  0  0  0  0  0  0  0  0  0
   13.3427   12.4510   22.1881 H   0  0  0  0  0  0  0  0  0  0  0  0
   12.8405   13.1550   23.7424 H   0  0  0  0  0  0  0  0  0  0  0  0
   13.0943   14.6852   21.4243 H   0  0  0  0  0  0  0  0  0  0  0  0
   10.3697   15.6452   24.2685 H   0  0  0  0  0  0  0  0  0  0  0  0
  1  2  2  0  0  0  0
  1  3  1  0  0  0  0
  2  5  1  0  0  0  0
  3  6  2  0  0  0  0
  4  5  2  0  0  0  0
  4  6  1  0  0  0  0
  4  7  1  0  0  0  0
  5 17  1  0  0  0  0
  6 18  1  0  0  0  0
  7 13  1  0  0  0  0
  7 14  2  0  0  0  0
  8 12  1  0  0  0  0
  8 15  2  0  0  0  0
  8 16  1  0  0  0  0
  9 10  1  0  0  0  0
  9 12  1  0  0  0  0
 10 13  1  0  0  0  0
 11 12  1  0  0  0  0
 11 13  1  0  0  0  0
  1 19  1  0  0  0  0
  2 20  1  0  0  0  0
  3 21  1  0  0  0  0
  9 22  1  0  0  0  0
  9 23  1  0  0  0  0
 10 24  1  0  0  0  0
 10 25  1  0  0  0  0
 11 26  1  0  0  0  0
 11 27  1  0  0  0  0
 12 28  1  0  0  0  0
 16 29  1  0  0  0  0
M  END
> <Catalog ID>
Z1078654326

> <PlateID>
1337959-R-04

> <Well>
B06

> <MW (desalted)>
271.672

> <CLogP>
1.577

> <HBD>
1

> <TPSA>
57.610

> <RotBonds>
2

> <ROCS_ShapeQuery>
A71EV2A-x0451_0A_A71EV2A-x0310_0A_A71EV2A-x0416_0A_peptide

> <ROCS_TanimotoCombo>
0.416 

> <ROCS_ShapeTanimoto>
0.307 

> <ROCS_ColorTanimoto>
0.110 

> <ROCS_RefTversky>
0.273 

> <ROCS_RefColorTversky>
0.122 

> <ROCS_RefTverskyCombo>
0.395 

> <ROCS_FitTversky>
1.686 

> <ROCS_FitColorTversky>
0.511 

> <ROCS_FitTverskyCombo>
2.196 

> <ROCS_ColorScore>
-3.725

> <ROCS_Overlap>
1890.983

> <ROCS_Rank>
288                 

$$$$
untitled-dbase-265_212
  -OEChem-11112309163D

 31 31  0     1  0  0  0  0  0999 V2000
    7.3915   11.4775   24.4180 C   0  0  0  0  0  0  0  0  0  0  0  0
    7.6436   10.1176   24.2376 C   0  0  0  0  0  0  0  0  0  0  0  0
    8.3982   12.4118   24.1746 C   0  0  0  0  0  0  0  0  0  0  0  0
    9.9093   10.6262   23.5705 C   0  0  0  0  0  0  0  0  0  0  0  0
    8.9026    9.6919   23.8139 C   0  0  0  0  0  0  0  0  0  0  0  0
    9.6571   11.9862   23.7509 C   0  0  0  0  0  0  0  0  0  0  0  0
   10.2277    7.9538   22.5429 C   0  0  0  0  0  0  0  0  0  0  0  0
    9.7959   14.6670   21.4335 C   0  0  0  0  0  0  0  0  0  0  0  0
   11.9000   13.5106   20.8893 C   0  0  0  0  0  0  0  0  0  0  0  0
    9.1714    8.2376   23.6212 C   0  0  2  0  0  0  0  0  0  0  0  0
    7.9592    7.4921   23.3271 N   0  0  0  0  0  0  0  0  0  0  0  0
   10.7086   13.5466   21.7752 N   0  0  0  0  0  0  0  0  0  0  0  0
   10.6371   14.3449   24.2458 O   0  0  0  0  0  0  0  0  0  0  0  0
   12.2054   12.4926   23.6183 O   0  0  0  0  0  0  0  0  0  0  0  0
   10.9353   13.1729   23.4434 S   0  0  0  0  0  0  0  0  0  0  0  0
    6.4110   11.8091   24.7472 H   0  0  0  0  0  0  0  0  0  0  0  0
    6.8528    9.3969   24.4286 H   0  0  0  0  0  0  0  0  0  0  0  0
    8.1907   13.4687   24.3190 H   0  0  0  0  0  0  0  0  0  0  0  0
   10.8902   10.2930   23.2399 H   0  0  0  0  0  0  0  0  0  0  0  0
    9.9180    8.3713   21.5786 H   0  0  0  0  0  0  0  0  0  0  0  0
   11.1951    8.3946   22.8085 H   0  0  0  0  0  0  0  0  0  0  0  0
   10.3900    6.8784   22.4090 H   0  0  0  0  0  0  0  0  0  0  0  0
    8.9303   14.6556   22.1123 H   0  0  0  0  0  0  0  0  0  0  0  0
   10.3319   15.6218   21.5392 H   0  0  0  0  0  0  0  0  0  0  0  0
    9.4493   14.5541   20.3957 H   0  0  0  0  0  0  0  0  0  0  0  0
   12.5462   12.6683   21.1770 H   0  0  0  0  0  0  0  0  0  0  0  0
   11.5768   13.3848   19.8454 H   0  0  0  0  0  0  0  0  0  0  0  0
   12.4594   14.4525   20.9890 H   0  0  0  0  0  0  0  0  0  0  0  0
    9.5473    7.7915   24.5589 H   0  0  0  0  0  0  0  0  0  0  0  0
    8.1947    6.5314   23.2208 H   0  0  0  0  0  0  0  0  0  0  0  0
    7.3229    7.6101   24.0826 H   0  0  0  0  0  0  0  0  0  0  0  0
  1  2  1  0  0  0  0
  1  3  2  0  0  0  0
  2  5  2  0  0  0  0
  3  6  1  0  0  0  0
  4  5  1  0  0  0  0
  4  6  2  0  0  0  0
  5 10  1  0  0  0  0
  6 15  1  0  0  0  0
  7 10  1  0  0  0  0
  8 12  1  0  0  0  0
  9 12  1  0  0  0  0
 10 11  1  0  0  0  0
 12 15  1  0  0  0  0
 13 15  2  0  0  0  0
 14 15  2  0  0  0  0
  1 16  1  0  0  0  0
  2 17  1  0  0  0  0
  3 18  1  0  0  0  0
  4 19  1  0  0  0  0
  7 20  1  0  0  0  0
  7 21  1  0  0  0  0
  7 22  1  0  0  0  0
  8 23  1  0  0  0  0
  8 24  1  0  0  0  0
  8 25  1  0  0  0  0
  9 26  1  0  0  0  0
  9 27  1  0  0  0  0
  9 28  1  0  0  0  0
 10 29  1  0  0  0  0
 11 30  1  0  0  0  0
 11 31  1  0  0  0  0
M  END
> <Catalog ID>
Z359346122

> <PlateID>
1337959-R-04

> <Well>
C07

> <MW (desalted)>
228.311

> <CLogP>
0.598

> <HBD>
1

> <TPSA>
63.400

> <RotBonds>
2

> <ROCS_ShapeQuery>
A71EV2A-x0451_0A_A71EV2A-x0310_0A_A71EV2A-x0416_0A_peptide

> <ROCS_TanimotoCombo>
0.416 

> <ROCS_ShapeTanimoto>
0.273 

> <ROCS_ColorTanimoto>
0.143 

> <ROCS_RefTversky>
0.244 

> <ROCS_RefColorTversky>
0.152 

> <ROCS_RefTverskyCombo>
0.395 

> <ROCS_FitTversky>
1.780 

> <ROCS_FitColorTversky>
0.726 

> <ROCS_FitTverskyCombo>
2.506 

> <ROCS_ColorScore>
-4.602

> <ROCS_Overlap>
1687.069

> <ROCS_Rank>
289                 

$$$$
untitled-dbase-762_442
  -OEChem-11112309163D

 35 36  0     0  0  0  0  0  0999 V2000
   10.0216   11.1568   22.9446 C   0  0  0  0  0  0  0  0  0  0  0  0
    9.3971   10.0137   23.2170 C   0  0  0  0  0  0  0  0  0  0  0  0
    9.4796   12.3453   23.6053 C   0  0  0  0  0  0  0  0  0  0  0  0
    8.2330    9.9877   24.1335 C   0  0  0  0  0  0  0  0  0  0  0  0
   10.1607   13.6310   23.3164 C   0  0  0  0  0  0  0  0  0  0  0  0
   10.8349   15.2726   21.6073 C   0  0  0  0  0  0  0  0  0  0  0  0
    9.5738   13.2125   20.9167 C   0  0  0  0  0  0  0  0  0  0  0  0
   11.8217   15.0832   20.4653 C   0  0  0  0  0  0  0  0  0  0  0  0
    9.4468   13.9229   19.5772 C   0  0  0  0  0  0  0  0  0  0  0  0
    5.4258   12.5436   27.3270 C   0  0  0  0  0  0  0  0  0  0  0  0
    6.6027   12.5265   26.3619 C   0  0  0  0  0  0  0  0  0  0  0  0
    6.7059   11.2213   25.5819 C   0  0  0  0  0  0  0  0  0  0  0  0
    8.4742   12.3893   24.4099 N   0  0  0  0  0  0  0  0  0  0  0  0
    7.8436   11.2050   24.6784 N   0  0  0  0  0  0  0  0  0  0  0  0
   10.1756   14.0221   21.9815 N   0  0  0  0  0  0  0  0  0  0  0  0
    7.6862    8.9077   24.3565 O   0  0  0  0  0  0  0  0  0  0  0  0
   10.6429   14.2063   24.2827 O   0  0  0  0  0  0  0  0  0  0  0  0
   11.0523   14.4778   18.9310 S   0  0  0  0  0  0  0  0  0  0  0  0
   10.8737   11.2181   22.2819 H   0  0  0  0  0  0  0  0  0  0  0  0
    9.7215    9.0772   22.7780 H   0  0  0  0  0  0  0  0  0  0  0  0
   11.3335   15.6724   22.5027 H   0  0  0  0  0  0  0  0  0  0  0  0
   10.0820   16.0159   21.3111 H   0  0  0  0  0  0  0  0  0  0  0  0
    8.5732   12.8502   21.2247 H   0  0  0  0  0  0  0  0  0  0  0  0
   10.1868   12.2911   20.8170 H   0  0  0  0  0  0  0  0  0  0  0  0
   12.3501   16.0281   20.2484 H   0  0  0  0  0  0  0  0  0  0  0  0
   12.5980   14.3589   20.7644 H   0  0  0  0  0  0  0  0  0  0  0  0
    9.0009   13.2427   18.8389 H   0  0  0  0  0  0  0  0  0  0  0  0
    8.7754   14.7895   19.6584 H   0  0  0  0  0  0  0  0  0  0  0  0
    4.4799   12.4018   26.7945 H   0  0  0  0  0  0  0  0  0  0  0  0
    5.5268   11.7353   28.0584 H   0  0  0  0  0  0  0  0  0  0  0  0
    5.3740   13.4886   27.8765 H   0  0  0  0  0  0  0  0  0  0  0  0
    7.5267   12.6712   26.9337 H   0  0  0  0  0  0  0  0  0  0  0  0
    6.5134   13.3724   25.6700 H   0  0  0  0  0  0  0  0  0  0  0  0
    6.8336   10.3817   26.2723 H   0  0  0  0  0  0  0  0  0  0  0  0
    5.8040   11.0405   24.9886 H   0  0  0  0  0  0  0  0  0  0  0  0
  1  2  2  0  0  0  0
  1  3  1  0  0  0  0
  2  4  1  0  0  0  0
  3  5  1  0  0  0  0
  3 13  2  0  0  0  0
  4 14  1  0  0  0  0
  4 16  2  0  0  0  0
  5 15  1  0  0  0  0
  5 17  2  0  0  0  0
  6  8  1  0  0  0  0
  6 15  1  0  0  0  0
  7  9  1  0  0  0  0
  7 15  1  0  0  0  0
  8 18  1  0  0  0  0
  9 18  1  0  0  0  0
 10 11  1  0  0  0  0
 11 12  1  0  0  0  0
 12 14  1  0  0  0  0
 13 14  1  0  0  0  0
  1 19  1  0  0  0  0
  2 20  1  0  0  0  0
  6 21  1  0  0  0  0
  6 22  1  0  0  0  0
  7 23  1  0  0  0  0
  7 24  1  0  0  0  0
  8 25  1  0  0  0  0
  8 26  1  0  0  0  0
  9 27  1  0  0  0  0
  9 28  1  0  0  0  0
 10 29  1  0  0  0  0
 10 30  1  0  0  0  0
 10 31  1  0  0  0  0
 11 32  1  0  0  0  0
 11 33  1  0  0  0  0
 12 34  1  0  0  0  0
 12 35  1  0  0  0  0
M  END
> <Catalog ID>
Z437578282

> <PlateID>
1337959-R-10

> <Well>
E05

> <MW (desalted)>
267.347

> <CLogP>
-0.093

> <HBD>
0

> <TPSA>
52.980

> <RotBonds>
3

> <ROCS_ShapeQuery>
A71EV2A-x0451_0A_A71EV2A-x0310_0A_A71EV2A-x0416_0A_peptide

> <ROCS_TanimotoCombo>
0.416 

> <ROCS_ShapeTanimoto>
0.303 

> <ROCS_ColorTanimoto>
0.113 

> <ROCS_RefTversky>
0.269 

> <ROCS_RefColorTversky>
0.126 

> <ROCS_RefTverskyCombo>
0.395 

> <ROCS_FitTversky>
1.695 

> <ROCS_FitColorTversky>
0.527 

> <ROCS_FitTverskyCombo>
2.222 

> <ROCS_ColorScore>
-3.839

> <ROCS_Overlap>
1866.832

> <ROCS_Rank>
290                 

$$$$
untitled-dbase-506_192
  -OEChem-11112309163D

 32 34  0     1  0  0  0  0  0999 V2000
    9.9405   13.0096   23.6968 C   0  0  0  0  0  0  0  0  0  0  0  0
   10.2410   14.5330   22.2809 C   0  0  0  0  0  0  0  0  0  0  0  0
   12.5985   15.8053   20.2295 C   0  0  0  0  0  0  0  0  0  0  0  0
    7.8270   10.6707   23.4859 C   0  0  0  0  0  0  0  0  0  0  0  0
   12.2086   17.2708   20.3697 C   0  0  0  0  0  0  0  0  0  0  0  0
    8.0426   11.4132   24.8160 C   0  0  0  0  0  0  0  0  0  0  0  0
    9.3349   10.3656   23.4919 C   0  0  0  0  0  0  0  0  0  0  0  0
   11.3716   14.9370   19.9430 C   0  0  0  0  0  0  0  0  0  0  0  0
   11.0625   17.4414   21.3598 C   0  0  0  0  0  0  0  0  0  0  0  0
    9.5285   11.6290   24.3885 C   0  0  0  0  0  0  0  0  0  0  0  0
   10.1886   15.1928   20.9041 C   0  0  2  0  0  0  0  0  0  0  0  0
   10.5076   13.9984   24.3475 N   0  0  0  0  0  0  0  0  0  0  0  0
   10.7051   15.0007   23.4160 N   0  0  0  0  0  0  0  0  0  0  0  0
    9.9084   16.6408   20.9613 N   0  0  0  0  0  0  0  0  0  0  0  0
    9.7372   13.2722   22.3768 O   0  0  0  0  0  0  0  0  0  0  0  0
   13.3232   15.6930   19.4111 H   0  0  0  0  0  0  0  0  0  0  0  0
   13.0963   15.4582   21.1440 H   0  0  0  0  0  0  0  0  0  0  0  0
    7.1946    9.7780   23.5749 H   0  0  0  0  0  0  0  0  0  0  0  0
    7.4648   11.2793   22.6515 H   0  0  0  0  0  0  0  0  0  0  0  0
   13.0777   17.8509   20.7060 H   0  0  0  0  0  0  0  0  0  0  0  0
   11.9165   17.6705   19.3921 H   0  0  0  0  0  0  0  0  0  0  0  0
    7.4505   12.3338   24.9057 H   0  0  0  0  0  0  0  0  0  0  0  0
    7.8924   10.8116   25.7186 H   0  0  0  0  0  0  0  0  0  0  0  0
    9.6190    9.4124   23.9495 H   0  0  0  0  0  0  0  0  0  0  0  0
    9.7990   10.4299   22.4985 H   0  0  0  0  0  0  0  0  0  0  0  0
   11.0475   15.1019   18.8970 H   0  0  0  0  0  0  0  0  0  0  0  0
   11.6691   13.8696   19.9871 H   0  0  0  0  0  0  0  0  0  0  0  0
   11.3882   17.1271   22.3539 H   0  0  0  0  0  0  0  0  0  0  0  0
   10.7770   18.4944   21.4347 H   0  0  0  0  0  0  0  0  0  0  0  0
   10.2421   11.4160   25.2523 H   0  0  0  0  0  0  0  0  0  0  0  0
    9.2558   14.7321   20.3984 H   0  0  0  0  0  0  0  0  0  0  0  0
    9.1518   16.8028   21.6378 H   0  0  0  0  0  0  0  0  0  0  0  0
  1 10  1  0  0  0  0
  1 12  2  0  0  0  0
  1 15  1  0  0  0  0
  2 11  1  0  0  0  0
  2 13  2  0  0  0  0
  2 15  1  0  0  0  0
  3  5  1  0  0  0  0
  3  8  1  0  0  0  0
  4  6  1  0  0  0  0
  4  7  1  0  0  0  0
  5  9  1  0  0  0  0
  6 10  1  0  0  0  0
  7 10  1  0  0  0  0
  8 11  1  0  0  0  0
  9 14  1  0  0  0  0
 11 14  1  0  0  0  0
 12 13  1  0  0  0  0
  3 16  1  0  0  0  0
  3 17  1  0  0  0  0
  4 18  1  0  0  0  0
  4 19  1  0  0  0  0
  5 20  1  0  0  0  0
  5 21  1  0  0  0  0
  6 22  1  0  0  0  0
  6 23  1  0  0  0  0
  7 24  1  0  0  0  0
  7 25  1  0  0  0  0
  8 26  1  0  0  0  0
  8 27  1  0  0  0  0
  9 28  1  0  0  0  0
  9 29  1  0  0  0  0
 10 30  1  0  0  0  0
 11 31  1  0  0  0  0
 14 32  1  0  0  0  0
M  END
> <Catalog ID>
Z2130642684

> <PlateID>
1337959-R-07

> <Well>
C08

> <MW (desalted)>
207.272

> <CLogP>
0.217

> <HBD>
1

> <TPSA>
50.950

> <RotBonds>
2

> <ROCS_ShapeQuery>
A71EV2A-x0451_0A_A71EV2A-x0310_0A_A71EV2A-x0416_0A_peptide

> <ROCS_TanimotoCombo>
0.416 

> <ROCS_ShapeTanimoto>
0.211 

> <ROCS_ColorTanimoto>
0.205 

> <ROCS_RefTversky>
0.199 

> <ROCS_RefColorTversky>
0.218 

> <ROCS_RefTverskyCombo>
0.417 

> <ROCS_FitTversky>
1.389 

> <ROCS_FitColorTversky>
0.779 

> <ROCS_FitTverskyCombo>
2.168 

> <ROCS_ColorScore>
-6.637

> <ROCS_Overlap>
1378.617

> <ROCS_Rank>
291                 

$$$$
untitled-dbase-785_37
  -OEChem-11112309163D

 29 30  0     1  0  0  0  0  0999 V2000
    6.8045   12.7626   26.1319 C   0  0  0  0  0  0  0  0  0  0  0  0
    6.0689   11.5101   26.1177 C   0  0  0  0  0  0  0  0  0  0  0  0
    7.9428   12.9149   25.4369 C   0  0  0  0  0  0  0  0  0  0  0  0
    6.4677   10.4339   25.4201 C   0  0  0  0  0  0  0  0  0  0  0  0
    8.4293   11.8117   24.6705 C   0  0  0  0  0  0  0  0  0  0  0  0
    9.4828   11.5962   23.8842 C   0  0  0  0  0  0  0  0  0  0  0  0
    7.7162   10.5234   24.6264 C   0  0  0  0  0  0  0  0  0  0  0  0
    9.4561   10.2002   23.3405 C   0  0  0  0  0  0  0  0  0  0  0  0
   11.8868   11.7457   23.3290 C   0  0  0  0  0  0  0  0  0  0  0  0
   10.2741   13.3611   22.2682 C   0  0  0  0  0  0  0  0  0  0  0  0
   11.0984   14.6431   22.1784 C   0  0  0  0  0  0  0  0  0  0  0  0
   10.5843   12.5286   23.5280 C   0  0  1  0  0  0  0  0  0  0  0  0
    8.2323    9.5758   23.9025 N   0  0  0  0  0  0  0  0  0  0  0  0
   10.8323   15.4647   23.3084 O   0  0  0  0  0  0  0  0  0  0  0  0
    6.4033   13.5771   26.7252 H   0  0  0  0  0  0  0  0  0  0  0  0
    5.1577   11.4688   26.7059 H   0  0  0  0  0  0  0  0  0  0  0  0
    8.4873   13.8513   25.4514 H   0  0  0  0  0  0  0  0  0  0  0  0
    5.9093    9.5063   25.4182 H   0  0  0  0  0  0  0  0  0  0  0  0
    9.3981   10.2013   22.2473 H   0  0  0  0  0  0  0  0  0  0  0  0
   10.3367    9.6331   23.6592 H   0  0  0  0  0  0  0  0  0  0  0  0
   11.7994   11.0300   22.5035 H   0  0  0  0  0  0  0  0  0  0  0  0
   12.1470   11.1849   24.2339 H   0  0  0  0  0  0  0  0  0  0  0  0
   12.7219   12.4181   23.1043 H   0  0  0  0  0  0  0  0  0  0  0  0
   10.4618   12.7618   21.3675 H   0  0  0  0  0  0  0  0  0  0  0  0
    9.2065   13.6161   22.2296 H   0  0  0  0  0  0  0  0  0  0  0  0
   10.8543   15.2097   21.2741 H   0  0  0  0  0  0  0  0  0  0  0  0
   12.1711   14.4291   22.1711 H   0  0  0  0  0  0  0  0  0  0  0  0
   10.7387   13.2254   24.3666 H   0  0  0  0  0  0  0  0  0  0  0  0
   11.3755   16.2627   23.2075 H   0  0  0  0  0  0  0  0  0  0  0  0
  1  2  1  0  0  0  0
  1  3  2  0  0  0  0
  2  4  2  0  0  0  0
  3  5  1  0  0  0  0
  4  7  1  0  0  0  0
  5  6  2  0  0  0  0
  5  7  1  0  0  0  0
  6  8  1  0  0  0  0
  6 12  1  0  0  0  0
  7 13  2  0  0  0  0
  8 13  1  0  0  0  0
  9 12  1  0  0  0  0
 10 11  1  0  0  0  0
 10 12  1  0  0  0  0
 11 14  1  0  0  0  0
  1 15  1  0  0  0  0
  2 16  1  0  0  0  0
  3 17  1  0  0  0  0
  4 18  1  0  0  0  0
  8 19  1  0  0  0  0
  8 20  1  0  0  0  0
  9 21  1  0  0  0  0
  9 22  1  0  0  0  0
  9 23  1  0  0  0  0
 10 24  1  0  0  0  0
 10 25  1  0  0  0  0
 11 26  1  0  0  0  0
 11 27  1  0  0  0  0
 12 28  1  0  0  0  0
 14 29  1  0  0  0  0
M  END
> <Catalog ID>
Z1262570410

> <PlateID>
1337959-R-10

> <Well>
G08

> <MW (desalted)>
189.254

> <CLogP>
2.101

> <HBD>
2

> <TPSA>
36.020

> <RotBonds>
3

> <ROCS_ShapeQuery>
A71EV2A-x0451_0A_A71EV2A-x0310_0A_A71EV2A-x0416_0A_peptide

> <ROCS_TanimotoCombo>
0.416 

> <ROCS_ShapeTanimoto>
0.284 

> <ROCS_ColorTanimoto>
0.131 

> <ROCS_RefTversky>
0.251 

> <ROCS_RefColorTversky>
0.144 

> <ROCS_RefTverskyCombo>
0.396 

> <ROCS_FitTversky>
1.848 

> <ROCS_FitColorTversky>
0.600 

> <ROCS_FitTverskyCombo>
2.449 

> <ROCS_ColorScore>
-4.384

> <ROCS_Overlap>
1741.459

> <ROCS_Rank>
292                 

$$$$
untitled-dbase-840_100
  -OEChem-11112309163D

 32 33  0     0  0  0  0  0  0999 V2000
    7.3546   11.6929   24.5356 C   0  0  0  0  0  0  0  0  0  0  0  0
    7.0855   10.3477   24.2834 C   0  0  0  0  0  0  0  0  0  0  0  0
    8.6462   12.1902   24.3618 C   0  0  0  0  0  0  0  0  0  0  0  0
    8.1079    9.4997   23.8577 C   0  0  0  0  0  0  0  0  0  0  0  0
    9.6687   11.3423   23.9361 C   0  0  0  0  0  0  0  0  0  0  0  0
   11.0497   15.1950   22.2444 C   0  0  0  0  0  0  0  0  0  0  0  0
    9.3996    9.9970   23.6840 C   0  0  0  0  0  0  0  0  0  0  0  0
   10.7785   15.3986   23.6107 C   0  0  0  0  0  0  0  0  0  0  0  0
   11.1854   13.8339   22.1204 C   0  0  0  0  0  0  0  0  0  0  0  0
   10.5435   16.6771   24.3047 C   0  0  0  0  0  0  0  0  0  0  0  0
   11.4750   12.9868   20.9480 C   0  0  0  0  0  0  0  0  0  0  0  0
   11.0391   11.9137   23.7641 C   0  0  0  0  0  0  0  0  0  0  0  0
   11.1638   16.2109   21.1836 C   0  0  0  0  0  0  0  0  0  0  0  0
   10.7434   14.2581   24.3050 N   0  0  0  0  0  0  0  0  0  0  0  0
   10.9943   13.3248   23.3712 N   0  0  0  0  0  0  0  0  0  0  0  0
    9.8680   16.6928   20.8245 O   0  0  0  0  0  0  0  0  0  0  0  0
   10.6388    8.9179   23.1558 Cl  0  0  0  0  0  0  0  0  0  0  0  0
    6.5581   12.3532   24.8663 H   0  0  0  0  0  0  0  0  0  0  0  0
    6.0795    9.9611   24.4177 H   0  0  0  0  0  0  0  0  0  0  0  0
    8.8450   13.2401   24.5607 H   0  0  0  0  0  0  0  0  0  0  0  0
    7.8814    8.4543   23.6644 H   0  0  0  0  0  0  0  0  0  0  0  0
    9.4722   16.9407   24.3054 H   0  0  0  0  0  0  0  0  0  0  0  0
   10.8799   16.6480   25.3562 H   0  0  0  0  0  0  0  0  0  0  0  0
   11.0918   17.5127   23.8347 H   0  0  0  0  0  0  0  0  0  0  0  0
   12.5605   12.8414   20.8202 H   0  0  0  0  0  0  0  0  0  0  0  0
   11.0117   11.9886   21.0329 H   0  0  0  0  0  0  0  0  0  0  0  0
   11.0839   13.4247   20.0132 H   0  0  0  0  0  0  0  0  0  0  0  0
   11.6283   11.8418   24.6908 H   0  0  0  0  0  0  0  0  0  0  0  0
   11.6126   11.3704   22.9980 H   0  0  0  0  0  0  0  0  0  0  0  0
   11.7720   17.0787   21.4981 H   0  0  0  0  0  0  0  0  0  0  0  0
   11.6413   15.8073   20.2721 H   0  0  0  0  0  0  0  0  0  0  0  0
    9.3682   15.9244   20.5109 H   0  0  0  0  0  0  0  0  0  0  0  0
  1  2  2  0  0  0  0
  1  3  1  0  0  0  0
  2  4  1  0  0  0  0
  3  5  2  0  0  0  0
  4  7  2  0  0  0  0
  5  7  1  0  0  0  0
  5 12  1  0  0  0  0
  6  8  1  0  0  0  0
  6  9  2  0  0  0  0
  6 13  1  0  0  0  0
  7 17  1  0  0  0  0
  8 10  1  0  0  0  0
  8 14  2  0  0  0  0
  9 11  1  0  0  0  0
  9 15  1  0  0  0  0
 12 15  1  0  0  0  0
 13 16  1  0  0  0  0
 14 15  1  0  0  0  0
  1 18  1  0  0  0  0
  2 19  1  0  0  0  0
  3 20  1  0  0  0  0
  4 21  1  0  0  0  0
 10 22  1  0  0  0  0
 10 23  1  0  0  0  0
 10 24  1  0  0  0  0
 11 25  1  0  0  0  0
 11 26  1  0  0  0  0
 11 27  1  0  0  0  0
 12 28  1  0  0  0  0
 12 29  1  0  0  0  0
 13 30  1  0  0  0  0
 13 31  1  0  0  0  0
 16 32  1  0  0  0  0
M  END
> <Catalog ID>
Z228585282

> <PlateID>
1337959-R-11

> <Well>
E03

> <MW (desalted)>
250.724

> <CLogP>
2.328

> <HBD>
1

> <TPSA>
38.050

> <RotBonds>
3

> <ROCS_ShapeQuery>
A71EV2A-x0451_0A_A71EV2A-x0310_0A_A71EV2A-x0416_0A_peptide

> <ROCS_TanimotoCombo>
0.416 

> <ROCS_ShapeTanimoto>
0.288 

> <ROCS_ColorTanimoto>
0.127 

> <ROCS_RefTversky>
0.259 

> <ROCS_RefColorTversky>
0.136 

> <ROCS_RefTverskyCombo>
0.395 

> <ROCS_FitTversky>
1.668 

> <ROCS_FitColorTversky>
0.654 

> <ROCS_FitTverskyCombo>
2.322 

> <ROCS_ColorScore>
-4.143

> <ROCS_Overlap>
1792.573

> <ROCS_Rank>
293                 

$$$$
untitled-dbase-578_556
  -OEChem-11112309163D

 41 42  0     1  0  0  0  0  0999 V2000
   10.9308   13.8499   23.0546 C   0  0  0  0  0  0  0  0  0  0  0  0
    8.9130    9.6438   24.3601 C   0  0  0  0  0  0  0  0  0  0  0  0
    7.5691   11.7245   24.7450 C   0  0  0  0  0  0  0  0  0  0  0  0
   12.7577   16.5259   21.2381 C   0  0  0  0  0  0  0  0  0  0  0  0
    9.6708   10.3871   23.2580 C   0  0  0  0  0  0  0  0  0  0  0  0
    8.3710   12.3987   23.6299 C   0  0  0  0  0  0  0  0  0  0  0  0
   12.5673   14.1545   21.1492 C   0  0  0  0  0  0  0  0  0  0  0  0
    7.4995   10.2072   24.5421 C   0  0  0  0  0  0  0  0  0  0  0  0
   13.5720   15.2735   20.9613 C   0  0  1  0  0  0  0  0  0  0  0  0
   11.8037   16.0976   22.3585 C   0  0  1  0  0  0  0  0  0  0  0  0
    6.7850    9.5298   25.7083 C   0  0  0  0  0  0  0  0  0  0  0  0
   10.4926   12.5190   22.4957 C   0  0  0  0  0  0  0  0  0  0  0  0
   10.4758   16.8397   22.2570 C   0  0  0  0  0  0  0  0  0  0  0  0
   11.6803   14.6437   22.1994 N   0  0  0  0  0  0  0  0  0  0  0  0
    9.7217   11.8298   23.5303 N   0  0  0  0  0  0  0  0  0  0  0  0
   10.6233   14.1654   24.2052 O   0  0  0  0  0  0  0  0  0  0  0  0
    9.8942   16.5484   21.0001 O   0  0  0  0  0  0  0  0  0  0  0  0
   14.0446   15.2880   19.6955 F   0  0  0  0  0  0  0  0  0  0  0  0
    8.8609    8.5775   24.1093 H   0  0  0  0  0  0  0  0  0  0  0  0
    9.4724    9.7217   25.3018 H   0  0  0  0  0  0  0  0  0  0  0  0
    8.0316   11.9530   25.7144 H   0  0  0  0  0  0  0  0  0  0  0  0
    6.5567   12.1450   24.7696 H   0  0  0  0  0  0  0  0  0  0  0  0
   13.4168   17.3218   21.6050 H   0  0  0  0  0  0  0  0  0  0  0  0
   12.2313   16.8836   20.3482 H   0  0  0  0  0  0  0  0  0  0  0  0
   10.6891    9.9819   23.2123 H   0  0  0  0  0  0  0  0  0  0  0  0
    9.1974   10.1883   22.2874 H   0  0  0  0  0  0  0  0  0  0  0  0
    7.8331   12.2994   22.6777 H   0  0  0  0  0  0  0  0  0  0  0  0
    8.4355   13.4699   23.8567 H   0  0  0  0  0  0  0  0  0  0  0  0
   11.9999   13.9390   20.2430 H   0  0  0  0  0  0  0  0  0  0  0  0
   13.0468   13.2454   21.5202 H   0  0  0  0  0  0  0  0  0  0  0  0
    6.9251   10.0052   23.6282 H   0  0  0  0  0  0  0  0  0  0  0  0
   14.4389   15.1814   21.6453 H   0  0  0  0  0  0  0  0  0  0  0  0
   12.2535   16.3175   23.3416 H   0  0  0  0  0  0  0  0  0  0  0  0
    7.3312    9.7115   26.6329 H   0  0  0  0  0  0  0  0  0  0  0  0
    6.7278    8.4563   25.5340 H   0  0  0  0  0  0  0  0  0  0  0  0
    5.7763    9.9289   25.8064 H   0  0  0  0  0  0  0  0  0  0  0  0
   11.3750   11.9339   22.2253 H   0  0  0  0  0  0  0  0  0  0  0  0
    9.8760   12.6859   21.6091 H   0  0  0  0  0  0  0  0  0  0  0  0
   10.6448   17.9128   22.3375 H   0  0  0  0  0  0  0  0  0  0  0  0
    9.8063   16.5104   23.0505 H   0  0  0  0  0  0  0  0  0  0  0  0
    9.7611   15.5856   20.9626 H   0  0  0  0  0  0  0  0  0  0  0  0
  1 12  1  0  0  0  0
  1 14  1  0  0  0  0
  1 16  2  0  0  0  0
  2  5  1  0  0  0  0
  2  8  1  0  0  0  0
  3  6  1  0  0  0  0
  3  8  1  0  0  0  0
  4  9  1  0  0  0  0
  4 10  1  0  0  0  0
  5 15  1  0  0  0  0
  6 15  1  0  0  0  0
  7  9  1  0  0  0  0
  7 14  1  0  0  0  0
  8 11  1  0  0  0  0
  9 18  1  1  0  0  0
 10 13  1  1  0  0  0
 10 14  1  0  0  0  0
 12 15  1  0  0  0  0
 13 17  1  0  0  0  0
  2 19  1  0  0  0  0
  2 20  1  0  0  0  0
  3 21  1  0  0  0  0
  3 22  1  0  0  0  0
  4 23  1  0  0  0  0
  4 24  1  0  0  0  0
  5 25  1  0  0  0  0
  5 26  1  0  0  0  0
  6 27  1  0  0  0  0
  6 28  1  0  0  0  0
  7 29  1  0  0  0  0
  7 30  1  0  0  0  0
  8 31  1  0  0  0  0
  9 32  1  0  0  0  0
 10 33  1  0  0  0  0
 11 34  1  0  0  0  0
 11 35  1  0  0  0  0
 11 36  1  0  0  0  0
 12 37  1  0  0  0  0
 12 38  1  0  0  0  0
 13 39  1  0  0  0  0
 13 40  1  0  0  0  0
 17 41  1  0  0  0  0
M  END
> <Catalog ID>
Z2060917644

> <PlateID>
1337959-R-08

> <Well>
B10

> <MW (desalted)>
258.332

> <CLogP>
1.570

> <HBD>
1

> <TPSA>
43.780

> <RotBonds>
3

> <ROCS_ShapeQuery>
A71EV2A-x0451_0A_A71EV2A-x0310_0A_A71EV2A-x0416_0A_peptide

> <ROCS_TanimotoCombo>
0.416 

> <ROCS_ShapeTanimoto>
0.285 

> <ROCS_ColorTanimoto>
0.131 

> <ROCS_RefTversky>
0.257 

> <ROCS_RefColorTversky>
0.144 

> <ROCS_RefTverskyCombo>
0.400 

> <ROCS_FitTversky>
1.619 

> <ROCS_FitColorTversky>
0.599 

> <ROCS_FitTverskyCombo>
2.218 

> <ROCS_ColorScore>
-4.366

> <ROCS_Overlap>
1780.158

> <ROCS_Rank>
294                 

$$$$
untitled-dbase-575_136
  -OEChem-11112309163D

 35 36  0     1  0  0  0  0  0999 V2000
    7.7894   11.6616   24.4530 C   0  0  0  0  0  0  0  0  0  0  0  0
    8.6548   12.6826   24.0605 C   0  0  0  0  0  0  0  0  0  0  0  0
    9.3795   10.0159   23.6780 C   0  0  0  0  0  0  0  0  0  0  0  0
    8.1518   10.3282   24.2618 C   0  0  0  0  0  0  0  0  0  0  0  0
    9.8825   12.3704   23.4767 C   0  0  0  0  0  0  0  0  0  0  0  0
   10.2449   11.0370   23.2854 C   0  0  0  0  0  0  0  0  0  0  0  0
    9.8005   14.1950   19.2617 C   0  0  0  0  0  0  0  0  0  0  0  0
    9.5002   13.7327   20.6795 C   0  0  0  0  0  0  0  0  0  0  0  0
   11.8404   14.3424   20.4931 C   0  0  0  0  0  0  0  0  0  0  0  0
   11.0293   15.0815   19.4268 C   0  0  2  0  0  0  0  0  0  0  0  0
    7.2261    9.2371   24.6821 C   0  0  0  0  0  0  0  0  0  0  0  0
   10.6692   16.5003   19.8661 C   0  0  0  0  0  0  0  0  0  0  0  0
   10.8410   13.5884   21.3079 N   0  0  1  0  0  0  0  0  0  0  0  0
    9.9827   16.4673   21.1168 N   0  0  0  0  0  0  0  0  0  0  0  0
   10.3055   14.9381   23.4382 O   0  0  0  0  0  0  0  0  0  0  0  0
   12.2840   13.3781   23.4319 O   0  0  0  0  0  0  0  0  0  0  0  0
   10.9373   13.7066   22.9998 S   0  0  0  0  0  0  0  0  0  0  0  0
   11.7534   10.5977   22.5685 Cl  0  0  0  0  0  0  0  0  0  0  0  0
    6.8354   11.9133   24.9083 H   0  0  0  0  0  0  0  0  0  0  0  0
    8.3609   13.7172   24.2167 H   0  0  0  0  0  0  0  0  0  0  0  0
    9.6547    8.9735   23.5324 H   0  0  0  0  0  0  0  0  0  0  0  0
    9.9760   13.3507   18.5801 H   0  0  0  0  0  0  0  0  0  0  0  0
    8.9509   14.7728   18.8636 H   0  0  0  0  0  0  0  0  0  0  0  0
    8.8933   14.4628   21.2233 H   0  0  0  0  0  0  0  0  0  0  0  0
    8.9837   12.7653   20.6662 H   0  0  0  0  0  0  0  0  0  0  0  0
   12.5775   13.6749   20.0307 H   0  0  0  0  0  0  0  0  0  0  0  0
   12.3713   15.0325   21.1612 H   0  0  0  0  0  0  0  0  0  0  0  0
   11.5870   15.1191   18.4989 H   0  0  0  0  0  0  0  0  0  0  0  0
    6.5502    8.9717   23.8599 H   0  0  0  0  0  0  0  0  0  0  0  0
    7.7799    8.3377   24.9813 H   0  0  0  0  0  0  0  0  0  0  0  0
    6.6205    9.5392   25.5466 H   0  0  0  0  0  0  0  0  0  0  0  0
   11.5988   17.0640   19.9599 H   0  0  0  0  0  0  0  0  0  0  0  0
   10.0297   16.9335   19.0953 H   0  0  0  0  0  0  0  0  0  0  0  0
   10.5575   16.0296   21.8132 H   0  0  0  0  0  0  0  0  0  0  0  0
    9.7656   17.4008   21.4140 H   0  0  0  0  0  0  0  0  0  0  0  0
  1  2  1  0  0  0  0
  1  4  2  0  0  0  0
  2  5  2  0  0  0  0
  3  4  1  0  0  0  0
  3  6  2  0  0  0  0
  4 11  1  0  0  0  0
  5  6  1  0  0  0  0
  5 17  1  0  0  0  0
  6 18  1  0  0  0  0
  7  8  1  0  0  0  0
  7 10  1  0  0  0  0
  8 13  1  0  0  0  0
  9 10  1  0  0  0  0
  9 13  1  0  0  0  0
 10 12  1  0  0  0  0
 12 14  1  0  0  0  0
 13 17  1  0  0  0  0
 15 17  2  0  0  0  0
 16 17  2  0  0  0  0
  1 19  1  0  0  0  0
  2 20  1  0  0  0  0
  3 21  1  0  0  0  0
  7 22  1  0  0  0  0
  7 23  1  0  0  0  0
  8 24  1  0  0  0  0
  8 25  1  0  0  0  0
  9 26  1  0  0  0  0
  9 27  1  0  0  0  0
 10 28  1  0  0  0  0
 11 29  1  0  0  0  0
 11 30  1  0  0  0  0
 11 31  1  0  0  0  0
 12 32  1  0  0  0  0
 12 33  1  0  0  0  0
 14 34  1  0  0  0  0
 14 35  1  0  0  0  0
M  END
> <Catalog ID>
Z1491272408

> <PlateID>
1337959-R-08

> <Well>
B07

> <MW (desalted)>
288.794

> <CLogP>
1.515

> <HBD>
1

> <TPSA>
63.400

> <RotBonds>
2

> <ROCS_ShapeQuery>
A71EV2A-x0451_0A_A71EV2A-x0310_0A_A71EV2A-x0416_0A_peptide

> <ROCS_TanimotoCombo>
0.416 

> <ROCS_ShapeTanimoto>
0.273 

> <ROCS_ColorTanimoto>
0.142 

> <ROCS_RefTversky>
0.248 

> <ROCS_RefColorTversky>
0.154 

> <ROCS_RefTverskyCombo>
0.402 

> <ROCS_FitTversky>
1.592 

> <ROCS_FitColorTversky>
0.644 

> <ROCS_FitTverskyCombo>
2.236 

> <ROCS_ColorScore>
-4.695

> <ROCS_Overlap>
1720.302

> <ROCS_Rank>
295                 

$$$$
untitled-dbase-706_44
  -OEChem-11112309163D

 29 30  0     0  0  0  0  0  0999 V2000
   13.9620   11.3430   25.7504 C   0  0  0  0  0  0  0  0  0  0  0  0
   12.7886   10.9124   26.3694 C   0  0  0  0  0  0  0  0  0  0  0  0
   14.0359   11.3999   24.3586 C   0  0  0  0  0  0  0  0  0  0  0  0
    6.9675   11.5500   24.5937 C   0  0  0  0  0  0  0  0  0  0  0  0
    7.9444   12.4874   24.2771 C   0  0  0  0  0  0  0  0  0  0  0  0
   11.6892   10.5385   25.5968 C   0  0  0  0  0  0  0  0  0  0  0  0
   12.9364   11.0260   23.5859 C   0  0  0  0  0  0  0  0  0  0  0  0
    7.3033   10.2086   24.5065 C   0  0  0  0  0  0  0  0  0  0  0  0
    9.2094   12.0608   23.8885 C   0  0  0  0  0  0  0  0  0  0  0  0
   11.7630   10.5952   24.2050 C   0  0  0  0  0  0  0  0  0  0  0  0
    9.4449   10.6965   23.8330 C   0  0  0  0  0  0  0  0  0  0  0  0
   10.2362   13.0357   23.5550 C   0  0  0  0  0  0  0  0  0  0  0  0
   11.8042   13.8686   21.7855 C   0  0  0  0  0  0  0  0  0  0  0  0
    8.5212    9.7560   24.1330 N   0  0  0  0  0  0  0  0  0  0  0  0
   10.7639   12.9845   22.2597 N   0  0  0  0  0  0  0  0  0  0  0  0
   10.6278   13.8553   24.4044 O   0  0  0  0  0  0  0  0  0  0  0  0
   10.6911   10.2290   23.4506 O   0  0  0  0  0  0  0  0  0  0  0  0
   14.8181   11.6348   26.3517 H   0  0  0  0  0  0  0  0  0  0  0  0
   12.7310   10.8679   27.4532 H   0  0  0  0  0  0  0  0  0  0  0  0
   14.9500   11.7355   23.8772 H   0  0  0  0  0  0  0  0  0  0  0  0
    5.9747   11.8590   24.9004 H   0  0  0  0  0  0  0  0  0  0  0  0
    7.7093   13.5468   24.3364 H   0  0  0  0  0  0  0  0  0  0  0  0
   10.7785   10.2025   26.0852 H   0  0  0  0  0  0  0  0  0  0  0  0
   13.0004   11.0705   22.5021 H   0  0  0  0  0  0  0  0  0  0  0  0
    6.5777    9.4374   24.7434 H   0  0  0  0  0  0  0  0  0  0  0  0
   11.3491   14.7333   21.2803 H   0  0  0  0  0  0  0  0  0  0  0  0
   12.4059   14.2169   22.6379 H   0  0  0  0  0  0  0  0  0  0  0  0
   12.4497   13.3284   21.0774 H   0  0  0  0  0  0  0  0  0  0  0  0
   10.4537   12.2551   21.6260 H   0  0  0  0  0  0  0  0  0  0  0  0
  1  2  2  0  0  0  0
  1  3  1  0  0  0  0
  2  6  1  0  0  0  0
  3  7  2  0  0  0  0
  4  5  1  0  0  0  0
  4  8  2  0  0  0  0
  5  9  2  0  0  0  0
  6 10  2  0  0  0  0
  7 10  1  0  0  0  0
  8 14  1  0  0  0  0
  9 11  1  0  0  0  0
  9 12  1  0  0  0  0
 10 17  1  0  0  0  0
 11 14  2  0  0  0  0
 11 17  1  0  0  0  0
 12 15  1  0  0  0  0
 12 16  2  0  0  0  0
 13 15  1  0  0  0  0
  1 18  1  0  0  0  0
  2 19  1  0  0  0  0
  3 20  1  0  0  0  0
  4 21  1  0  0  0  0
  5 22  1  0  0  0  0
  6 23  1  0  0  0  0
  7 24  1  0  0  0  0
  8 25  1  0  0  0  0
 13 26  1  0  0  0  0
 13 27  1  0  0  0  0
 13 28  1  0  0  0  0
 15 29  1  0  0  0  0
M  END
> <Catalog ID>
Z51983110

> <PlateID>
1337959-R-09

> <Well>
G09

> <MW (desalted)>
228.247

> <CLogP>
2.136

> <HBD>
1

> <TPSA>
51.220

> <RotBonds>
3

> <ROCS_ShapeQuery>
A71EV2A-x0451_0A_A71EV2A-x0310_0A_A71EV2A-x0416_0A_peptide

> <ROCS_TanimotoCombo>
0.415 

> <ROCS_ShapeTanimoto>
0.264 

> <ROCS_ColorTanimoto>
0.152 

> <ROCS_RefTversky>
0.242 

> <ROCS_RefColorTversky>
0.163 

> <ROCS_RefTverskyCombo>
0.405 

> <ROCS_FitTversky>
1.528 

> <ROCS_FitColorTversky>
0.681 

> <ROCS_FitTverskyCombo>
2.209 

> <ROCS_ColorScore>
-4.968

> <ROCS_Overlap>
1676.068

> <ROCS_Rank>
296                 

$$$$
untitled-dbase-1167_70
  -OEChem-11112309163D

 27 28  0     0  0  0  0  0  0999 V2000
    9.9239   10.7867   23.1794 C   0  0  0  0  0  0  0  0  0  0  0  0
    8.4627   12.1498   24.5178 C   0  0  0  0  0  0  0  0  0  0  0  0
    9.0834    9.7181   23.4467 C   0  0  0  0  0  0  0  0  0  0  0  0
    9.6006   12.0223   23.7289 C   0  0  0  0  0  0  0  0  0  0  0  0
    7.6875   11.0202   24.7250 C   0  0  0  0  0  0  0  0  0  0  0  0
   10.4493   13.1764   23.4802 C   0  0  0  0  0  0  0  0  0  0  0  0
    6.6681   11.6193   27.6548 C   0  0  0  0  0  0  0  0  0  0  0  0
    6.3540   10.2746   26.9765 C   0  0  0  0  0  0  0  0  0  0  0  0
    6.0140   12.3043   26.4425 C   0  0  0  0  0  0  0  0  0  0  0  0
    6.3565   11.0289   25.6097 C   0  0  0  0  0  0  0  0  0  0  0  0
   11.9384   14.1717   21.9037 C   0  0  0  0  0  0  0  0  0  0  0  0
    7.9696    9.8033   24.2080 N   0  0  0  0  0  0  0  0  0  0  0  0
   10.5959   14.1210   24.2674 O   0  0  0  0  0  0  0  0  0  0  0  0
   11.0712   13.0912   22.2643 O   0  0  0  0  0  0  0  0  0  0  0  0
   10.8044   10.6529   22.5601 H   0  0  0  0  0  0  0  0  0  0  0  0
    8.1869   13.1021   24.9592 H   0  0  0  0  0  0  0  0  0  0  0  0
    9.2910    8.7331   23.0416 H   0  0  0  0  0  0  0  0  0  0  0  0
    6.1286   11.7767   28.5978 H   0  0  0  0  0  0  0  0  0  0  0  0
    7.7285   11.8387   27.8131 H   0  0  0  0  0  0  0  0  0  0  0  0
    7.1523    9.5284   27.0850 H   0  0  0  0  0  0  0  0  0  0  0  0
    5.4024    9.8138   27.2608 H   0  0  0  0  0  0  0  0  0  0  0  0
    4.9474   12.5290   26.5462 H   0  0  0  0  0  0  0  0  0  0  0  0
    6.5343   13.2138   26.1137 H   0  0  0  0  0  0  0  0  0  0  0  0
    5.5059   10.7223   24.9815 H   0  0  0  0  0  0  0  0  0  0  0  0
   12.3681   13.9814   20.9172 H   0  0  0  0  0  0  0  0  0  0  0  0
   12.7337   14.2656   22.6474 H   0  0  0  0  0  0  0  0  0  0  0  0
   11.3591   15.0976   21.8738 H   0  0  0  0  0  0  0  0  0  0  0  0
  1  3  1  0  0  0  0
  1  4  2  0  0  0  0
  2  4  1  0  0  0  0
  2  5  2  0  0  0  0
  3 12  2  0  0  0  0
  4  6  1  0  0  0  0
  5 10  1  0  0  0  0
  5 12  1  0  0  0  0
  6 13  2  0  0  0  0
  6 14  1  0  0  0  0
  7  8  1  0  0  0  0
  7  9  1  0  0  0  0
  8 10  1  0  0  0  0
  9 10  1  0  0  0  0
 11 14  1  0  0  0  0
  1 15  1  0  0  0  0
  2 16  1  0  0  0  0
  3 17  1  0  0  0  0
  7 18  1  0  0  0  0
  7 19  1  0  0  0  0
  8 20  1  0  0  0  0
  8 21  1  0  0  0  0
  9 22  1  0  0  0  0
  9 23  1  0  0  0  0
 10 24  1  0  0  0  0
 11 25  1  0  0  0  0
 11 26  1  0  0  0  0
 11 27  1  0  0  0  0
M  END
> <Catalog ID>
Z2732662714

> <PlateID>
1337959-R-15

> <Well>
F03

> <MW (desalted)>
191.226

> <CLogP>
2.269

> <HBD>
0

> <TPSA>
39.190

> <RotBonds>
3

> <ROCS_ShapeQuery>
A71EV2A-x0451_0A_A71EV2A-x0310_0A_A71EV2A-x0416_0A_peptide

> <ROCS_TanimotoCombo>
0.415 

> <ROCS_ShapeTanimoto>
0.277 

> <ROCS_ColorTanimoto>
0.138 

> <ROCS_RefTversky>
0.247 

> <ROCS_RefColorTversky>
0.143 

> <ROCS_RefTverskyCombo>
0.390 

> <ROCS_FitTversky>
1.803 

> <ROCS_FitColorTversky>
0.806 

> <ROCS_FitTverskyCombo>
2.609 

> <ROCS_ColorScore>
-4.341

> <ROCS_Overlap>
1707.652

> <ROCS_Rank>
297                 

$$$$
untitled-dbase-1075_221
  -OEChem-11112309163D

 32 33  0     1  0  0  0  0  0999 V2000
    9.8417   10.7503   23.5110 C   0  0  0  0  0  0  0  0  0  0  0  0
    8.7679    9.9007   23.9049 C   0  0  0  0  0  0  0  0  0  0  0  0
    9.5327   12.0831   23.6716 C   0  0  0  0  0  0  0  0  0  0  0  0
    7.6790   10.6165   24.3519 C   0  0  0  0  0  0  0  0  0  0  0  0
   10.3607   13.2618   23.3837 C   0  0  0  0  0  0  0  0  0  0  0  0
   12.1931   15.3506   21.9847 C   0  0  0  0  0  0  0  0  0  0  0  0
   11.6241   13.0927   19.8888 C   0  0  0  0  0  0  0  0  0  0  0  0
   10.9937   14.4812   19.9690 C   0  0  0  0  0  0  0  0  0  0  0  0
   11.0377   12.3747   21.0950 C   0  0  0  0  0  0  0  0  0  0  0  0
   10.9203   14.7500   21.4676 C   0  0  1  0  0  0  0  0  0  0  0  0
    8.8275    8.4209   23.8370 C   0  0  0  0  0  0  0  0  0  0  0  0
    6.3771   10.1155   24.8461 C   0  0  0  0  0  0  0  0  0  0  0  0
   10.7871   13.4320   22.0738 N   0  0  0  0  0  0  0  0  0  0  0  0
   10.6289   14.0045   24.3253 O   0  0  0  0  0  0  0  0  0  0  0  0
   13.2910   15.2249   21.4631 O   0  0  0  0  0  0  0  0  0  0  0  0
   11.9633   16.0556   23.1193 O   0  0  0  0  0  0  0  0  0  0  0  0
    7.9535   12.3058   24.2952 S   0  0  0  0  0  0  0  0  0  0  0  0
   10.7934   10.4014   23.1290 H   0  0  0  0  0  0  0  0  0  0  0  0
   11.3899   12.5867   18.9480 H   0  0  0  0  0  0  0  0  0  0  0  0
   12.7142   13.1620   19.9799 H   0  0  0  0  0  0  0  0  0  0  0  0
   11.5837   15.2216   19.4200 H   0  0  0  0  0  0  0  0  0  0  0  0
    9.9838   14.4532   19.5428 H   0  0  0  0  0  0  0  0  0  0  0  0
   10.0778   11.9055   20.8520 H   0  0  0  0  0  0  0  0  0  0  0  0
   11.7125   11.6170   21.5040 H   0  0  0  0  0  0  0  0  0  0  0  0
   10.0852   15.3984   21.7476 H   0  0  0  0  0  0  0  0  0  0  0  0
    9.2172    8.0019   24.7765 H   0  0  0  0  0  0  0  0  0  0  0  0
    7.8348    7.9812   23.6540 H   0  0  0  0  0  0  0  0  0  0  0  0
    9.4753    8.0766   23.0159 H   0  0  0  0  0  0  0  0  0  0  0  0
    6.4053    9.9539   25.9347 H   0  0  0  0  0  0  0  0  0  0  0  0
    5.5579   10.8200   24.6296 H   0  0  0  0  0  0  0  0  0  0  0  0
    6.0973    9.1620   24.3695 H   0  0  0  0  0  0  0  0  0  0  0  0
   11.0170   16.0369   23.3770 H   0  0  0  0  0  0  0  0  0  0  0  0
  1  2  1  0  0  0  0
  1  3  2  0  0  0  0
  2  4  2  0  0  0  0
  2 11  1  0  0  0  0
  3  5  1  0  0  0  0
  3 17  1  0  0  0  0
  4 12  1  0  0  0  0
  4 17  1  0  0  0  0
  5 13  1  0  0  0  0
  5 14  2  0  0  0  0
  6 10  1  0  0  0  0
  6 15  2  0  0  0  0
  6 16  1  0  0  0  0
  7  8  1  0  0  0  0
  7  9  1  0  0  0  0
  8 10  1  0  0  0  0
  9 13  1  0  0  0  0
 10 13  1  0  0  0  0
  1 18  1  0  0  0  0
  7 19  1  0  0  0  0
  7 20  1  0  0  0  0
  8 21  1  0  0  0  0
  8 22  1  0  0  0  0
  9 23  1  0  0  0  0
  9 24  1  0  0  0  0
 10 25  1  0  0  0  0
 11 26  1  0  0  0  0
 11 27  1  0  0  0  0
 11 28  1  0  0  0  0
 12 29  1  0  0  0  0
 12 30  1  0  0  0  0
 12 31  1  0  0  0  0
 16 32  1  0  0  0  0
M  END
> <Catalog ID>
Z398842320

> <PlateID>
1337959-R-14

> <Well>
D11

> <MW (desalted)>
253.317

> <CLogP>
1.888

> <HBD>
1

> <TPSA>
57.610

> <RotBonds>
2

> <ROCS_ShapeQuery>
A71EV2A-x0451_0A_A71EV2A-x0310_0A_A71EV2A-x0416_0A_peptide

> <ROCS_TanimotoCombo>
0.415 

> <ROCS_ShapeTanimoto>
0.283 

> <ROCS_ColorTanimoto>
0.132 

> <ROCS_RefTversky>
0.255 

> <ROCS_RefColorTversky>
0.145 

> <ROCS_RefTverskyCombo>
0.399 

> <ROCS_FitTversky>
1.657 

> <ROCS_FitColorTversky>
0.603 

> <ROCS_FitTverskyCombo>
2.260 

> <ROCS_ColorScore>
-4.396

> <ROCS_Overlap>
1764.503

> <ROCS_Rank>
298                 

$$$$
untitled-dbase-677_7
  -OEChem-11112309163D

 27 28  0     1  0  0  0  0  0999 V2000
    6.2503   11.4832   26.1408 C   0  0  0  0  0  0  0  0  0  0  0  0
    6.9573   12.6450   26.3970 C   0  0  0  0  0  0  0  0  0  0  0  0
    6.6987   10.6036   25.1532 C   0  0  0  0  0  0  0  0  0  0  0  0
    8.0933   12.9340   25.6485 C   0  0  0  0  0  0  0  0  0  0  0  0
    7.8779   10.8345   24.3997 C   0  0  0  0  0  0  0  0  0  0  0  0
    8.5448   12.0488   24.6521 C   0  0  0  0  0  0  0  0  0  0  0  0
   10.7628    9.9675   23.8929 C   0  0  0  0  0  0  0  0  0  0  0  0
    9.7014    9.6579   22.8479 C   0  0  0  0  0  0  0  0  0  0  0  0
   11.2002   11.4200   23.8722 C   0  0  0  0  0  0  0  0  0  0  0  0
    8.2563    9.7668   23.3702 C   0  0  1  0  0  0  0  0  0  0  0  0
    7.8976    8.4355   23.8496 N   0  0  0  0  0  0  0  0  0  0  0  0
   10.4083   13.8449   24.2621 O   0  0  0  0  0  0  0  0  0  0  0  0
    9.4504   12.6222   22.2967 O   0  0  0  0  0  0  0  0  0  0  0  0
    9.9070   12.6156   23.6730 S   0  0  0  0  0  0  0  0  0  0  0  0
    5.3532   11.2511   26.7069 H   0  0  0  0  0  0  0  0  0  0  0  0
    6.6308   13.3243   27.1772 H   0  0  0  0  0  0  0  0  0  0  0  0
    6.1048    9.7040   24.9712 H   0  0  0  0  0  0  0  0  0  0  0  0
    8.6191   13.8621   25.8634 H   0  0  0  0  0  0  0  0  0  0  0  0
   10.4352    9.6707   24.8885 H   0  0  0  0  0  0  0  0  0  0  0  0
   11.6398    9.3582   23.6606 H   0  0  0  0  0  0  0  0  0  0  0  0
    9.8329   10.2986   21.9818 H   0  0  0  0  0  0  0  0  0  0  0  0
    9.8597    8.6318   22.5225 H   0  0  0  0  0  0  0  0  0  0  0  0
   11.6711   11.6564   24.8387 H   0  0  0  0  0  0  0  0  0  0  0  0
   11.9598   11.6082   23.0994 H   0  0  0  0  0  0  0  0  0  0  0  0
    7.6562    9.8852   22.4983 H   0  0  0  0  0  0  0  0  0  0  0  0
    6.9256    8.4310   24.0442 H   0  0  0  0  0  0  0  0  0  0  0  0
    8.1183    7.7834   23.1363 H   0  0  0  0  0  0  0  0  0  0  0  0
  1  2  2  0  0  0  0
  1  3  1  0  0  0  0
  2  4  1  0  0  0  0
  3  5  2  0  0  0  0
  4  6  2  0  0  0  0
  5  6  1  0  0  0  0
  5 10  1  0  0  0  0
  6 14  1  0  0  0  0
  7  8  1  0  0  0  0
  7  9  1  0  0  0  0
  8 10  1  0  0  0  0
  9 14  1  0  0  0  0
 10 11  1  0  0  0  0
 12 14  2  0  0  0  0
 13 14  2  0  0  0  0
  1 15  1  0  0  0  0
  2 16  1  0  0  0  0
  3 17  1  0  0  0  0
  4 18  1  0  0  0  0
  7 19  1  0  0  0  0
  7 20  1  0  0  0  0
  8 21  1  0  0  0  0
  8 22  1  0  0  0  0
  9 23  1  0  0  0  0
  9 24  1  0  0  0  0
 10 25  1  0  0  0  0
 11 26  1  0  0  0  0
 11 27  1  0  0  0  0
M  END
> <Catalog ID>
Z384973812

> <PlateID>
1337959-R-09

> <Well>
D10

> <MW (desalted)>
211.281

> <CLogP>
-0.043

> <HBD>
1

> <TPSA>
60.160

> <RotBonds>
0

> <ROCS_ShapeQuery>
A71EV2A-x0451_0A_A71EV2A-x0310_0A_A71EV2A-x0416_0A_peptide

> <ROCS_TanimotoCombo>
0.415 

> <ROCS_ShapeTanimoto>
0.259 

> <ROCS_ColorTanimoto>
0.156 

> <ROCS_RefTversky>
0.233 

> <ROCS_RefColorTversky>
0.167 

> <ROCS_RefTverskyCombo>
0.400 

> <ROCS_FitTversky>
1.743 

> <ROCS_FitColorTversky>
0.697 

> <ROCS_FitTverskyCombo>
2.440 

> <ROCS_ColorScore>
-5.081

> <ROCS_Overlap>
1615.938

> <ROCS_Rank>
299                 

$$$$
untitled-dbase-1086_12
  -OEChem-11112309163D

 35 36  0     1  0  0  0  0  0999 V2000
   13.1450   13.9194   23.6090 C   0  0  0  0  0  0  0  0  0  0  0  0
   13.5960   14.5758   22.4639 C   0  0  0  0  0  0  0  0  0  0  0  0
   11.8075   13.5373   23.7128 C   0  0  0  0  0  0  0  0  0  0  0  0
   12.7095   14.8503   21.4226 C   0  0  0  0  0  0  0  0  0  0  0  0
   10.9210   13.8118   22.6714 C   0  0  0  0  0  0  0  0  0  0  0  0
   11.3719   14.4683   21.5263 C   0  0  0  0  0  0  0  0  0  0  0  0
    7.8407   13.1797   25.2177 C   0  0  0  0  0  0  0  0  0  0  0  0
    9.6697   10.9965   22.8315 C   0  0  0  0  0  0  0  0  0  0  0  0
    9.5295    9.7295   23.6618 C   0  0  0  0  0  0  0  0  0  0  0  0
    8.0136   12.0523   24.2425 C   0  0  2  0  0  0  0  0  0  0  0  0
    7.8655   10.7184   25.0022 C   0  0  1  0  0  0  0  0  0  0  0  0
    6.4332   10.4897   25.4796 C   0  0  0  0  0  0  0  0  0  0  0  0
    9.4893   13.3859   22.8232 C   0  0  0  0  0  0  0  0  0  0  0  0
    9.3597   12.1801   23.6495 N   0  0  2  0  0  0  0  0  0  0  0  0
    6.5373   13.5923   25.3630 N   0  0  0  0  0  0  0  0  0  0  0  0
    8.7888   13.6628   25.8317 O   0  0  0  0  0  0  0  0  0  0  0  0
    8.1946    9.6183   24.1465 O   0  0  0  0  0  0  0  0  0  0  0  0
   10.3046   14.8247   20.2175 Cl  0  0  0  0  0  0  0  0  0  0  0  0
   13.8358   13.7050   24.4194 H   0  0  0  0  0  0  0  0  0  0  0  0
   14.6378   14.8721   22.3829 H   0  0  0  0  0  0  0  0  0  0  0  0
   11.4666   13.0260   24.6092 H   0  0  0  0  0  0  0  0  0  0  0  0
   13.0771   15.3615   20.5364 H   0  0  0  0  0  0  0  0  0  0  0  0
   10.6963   11.0577   22.4522 H   0  0  0  0  0  0  0  0  0  0  0  0
    8.9908   10.9437   21.9701 H   0  0  0  0  0  0  0  0  0  0  0  0
    9.7316    8.8519   23.0394 H   0  0  0  0  0  0  0  0  0  0  0  0
   10.2342    9.7097   24.5020 H   0  0  0  0  0  0  0  0  0  0  0  0
    7.2458   12.1297   23.4620 H   0  0  0  0  0  0  0  0  0  0  0  0
    8.5271   10.6879   25.8788 H   0  0  0  0  0  0  0  0  0  0  0  0
    5.7523   10.5145   24.6302 H   0  0  0  0  0  0  0  0  0  0  0  0
    6.1504   11.2686   26.1859 H   0  0  0  0  0  0  0  0  0  0  0  0
    6.3574    9.5199   25.9690 H   0  0  0  0  0  0  0  0  0  0  0  0
    8.8976   14.1804   23.2908 H   0  0  0  0  0  0  0  0  0  0  0  0
    9.0369   13.1741   21.8487 H   0  0  0  0  0  0  0  0  0  0  0  0
    6.3356   14.3516   26.0052 H   0  0  0  0  0  0  0  0  0  0  0  0
    5.7688   13.1680   24.8536 H   0  0  0  0  0  0  0  0  0  0  0  0
  1  2  2  0  0  0  0
  1  3  1  0  0  0  0
  2  4  1  0  0  0  0
  3  5  2  0  0  0  0
  4  6  2  0  0  0  0
  5  6  1  0  0  0  0
  5 13  1  0  0  0  0
  6 18  1  0  0  0  0
  7 10  1  1  0  0  0
  7 15  1  0  0  0  0
  7 16  2  0  0  0  0
  8  9  1  0  0  0  0
  8 14  1  0  0  0  0
  9 17  1  0  0  0  0
 10 11  1  0  0  0  0
 10 14  1  0  0  0  0
 11 12  1  6  0  0  0
 11 17  1  0  0  0  0
 13 14  1  0  0  0  0
  1 19  1  0  0  0  0
  2 20  1  0  0  0  0
  3 21  1  0  0  0  0
  4 22  1  0  0  0  0
  8 23  1  0  0  0  0
  8 24  1  0  0  0  0
  9 25  1  0  0  0  0
  9 26  1  0  0  0  0
 10 27  1  0  0  0  0
 11 28  1  0  0  0  0
 12 29  1  0  0  0  0
 12 30  1  0  0  0  0
 12 31  1  0  0  0  0
 13 32  1  0  0  0  0
 13 33  1  0  0  0  0
 15 34  1  0  0  0  0
 15 35  1  0  0  0  0
M  END
> <Catalog ID>
Z2054763196

> <PlateID>
1337959-R-14

> <Well>
F02

> <MW (desalted)>
268.739

> <CLogP>
2.105

> <HBD>
1

> <TPSA>
55.560

> <RotBonds>
3

> <ROCS_ShapeQuery>
A71EV2A-x0451_0A_A71EV2A-x0310_0A_A71EV2A-x0416_0A_peptide

> <ROCS_TanimotoCombo>
0.415 

> <ROCS_ShapeTanimoto>
0.312 

> <ROCS_ColorTanimoto>
0.102 

> <ROCS_RefTversky>
0.276 

> <ROCS_RefColorTversky>
0.115 

> <ROCS_RefTverskyCombo>
0.391 

> <ROCS_FitTversky>
1.726 

> <ROCS_FitColorTversky>
0.481 

> <ROCS_FitTverskyCombo>
2.207 

> <ROCS_ColorScore>
-3.503

> <ROCS_Overlap>
1914.777

> <ROCS_Rank>
300                 

$$$$
untitled-dbase-748_357
  -OEChem-11112309163D

 35 36  0     1  0  0  0  0  0999 V2000
    9.9630   12.3184   20.5823 C   0  0  0  0  0  0  0  0  0  0  0  0
   10.5929   13.5610   20.6516 C   0  0  0  0  0  0  0  0  0  0  0  0
    9.5716   11.6686   21.7530 C   0  0  0  0  0  0  0  0  0  0  0  0
   10.8315   14.1537   21.8915 C   0  0  0  0  0  0  0  0  0  0  0  0
    9.8102   12.2614   22.9928 C   0  0  0  0  0  0  0  0  0  0  0  0
   10.4402   13.5039   23.0621 C   0  0  0  0  0  0  0  0  0  0  0  0
    9.4667    9.1424   23.5446 C   0  0  0  0  0  0  0  0  0  0  0  0
    6.9955   11.7218   24.5774 C   0  0  0  0  0  0  0  0  0  0  0  0
    8.3194   12.3112   25.0525 C   0  0  0  0  0  0  0  0  0  0  0  0
    7.3303   10.2581   24.3348 C   0  0  0  0  0  0  0  0  0  0  0  0
    9.3774   11.5387   24.2573 C   0  0  1  0  0  0  0  0  0  0  0  0
   11.3300   15.3663   24.2435 C   0  0  0  0  0  0  0  0  0  0  0  0
    8.9987    7.8147   24.0844 C   0  0  0  0  0  0  0  0  0  0  0  0
    8.7449   10.2482   23.9689 N   0  0  0  0  0  0  0  0  0  0  0  0
    8.0271    7.3065   23.1643 N   0  0  0  0  0  0  0  0  0  0  0  0
   10.4251    9.1972   22.7721 O   0  0  0  0  0  0  0  0  0  0  0  0
   10.6815   14.0964   24.2651 O   0  0  0  0  0  0  0  0  0  0  0  0
    9.7774   11.8561   19.6170 H   0  0  0  0  0  0  0  0  0  0  0  0
   10.8982   14.0661   19.7400 H   0  0  0  0  0  0  0  0  0  0  0  0
    9.0828   10.7000   21.6883 H   0  0  0  0  0  0  0  0  0  0  0  0
   11.3227   15.1218   21.9391 H   0  0  0  0  0  0  0  0  0  0  0  0
    6.1960   11.8512   25.3124 H   0  0  0  0  0  0  0  0  0  0  0  0
    6.6842   12.1990   23.6409 H   0  0  0  0  0  0  0  0  0  0  0  0
    8.3578   13.3963   24.9125 H   0  0  0  0  0  0  0  0  0  0  0  0
    8.4408   12.1004   26.1225 H   0  0  0  0  0  0  0  0  0  0  0  0
    7.2180    9.6683   25.2513 H   0  0  0  0  0  0  0  0  0  0  0  0
    6.7184    9.8109   23.5470 H   0  0  0  0  0  0  0  0  0  0  0  0
   10.2926   11.3651   24.8672 H   0  0  0  0  0  0  0  0  0  0  0  0
   11.4619   15.7264   25.2667 H   0  0  0  0  0  0  0  0  0  0  0  0
   10.7260   16.0752   23.6714 H   0  0  0  0  0  0  0  0  0  0  0  0
   12.3081   15.2579   23.7689 H   0  0  0  0  0  0  0  0  0  0  0  0
    8.5629    7.9821   25.0649 H   0  0  0  0  0  0  0  0  0  0  0  0
    9.8585    7.1550   24.1540 H   0  0  0  0  0  0  0  0  0  0  0  0
    7.6626    6.4362   23.5014 H   0  0  0  0  0  0  0  0  0  0  0  0
    7.2757    7.9624   23.0681 H   0  0  0  0  0  0  0  0  0  0  0  0
  1  2  2  0  0  0  0
  1  3  1  0  0  0  0
  2  4  1  0  0  0  0
  3  5  2  0  0  0  0
  4  6  2  0  0  0  0
  5  6  1  0  0  0  0
  5 11  1  0  0  0  0
  6 17  1  0  0  0  0
  7 13  1  0  0  0  0
  7 14  1  0  0  0  0
  7 16  2  0  0  0  0
  8  9  1  0  0  0  0
  8 10  1  0  0  0  0
  9 11  1  0  0  0  0
 10 14  1  0  0  0  0
 11 14  1  0  0  0  0
 12 17  1  0  0  0  0
 13 15  1  0  0  0  0
  1 18  1  0  0  0  0
  2 19  1  0  0  0  0
  3 20  1  0  0  0  0
  4 21  1  0  0  0  0
  8 22  1  0  0  0  0
  8 23  1  0  0  0  0
  9 24  1  0  0  0  0
  9 25  1  0  0  0  0
 10 26  1  0  0  0  0
 10 27  1  0  0  0  0
 11 28  1  0  0  0  0
 12 29  1  0  0  0  0
 12 30  1  0  0  0  0
 12 31  1  0  0  0  0
 13 32  1  0  0  0  0
 13 33  1  0  0  0  0
 15 34  1  0  0  0  0
 15 35  1  0  0  0  0
M  END
> <Catalog ID>
Z1450278589

> <PlateID>
1337959-R-10

> <Well>
C11

> <MW (desalted)>
234.294

> <CLogP>
0.657

> <HBD>
1

> <TPSA>
55.560

> <RotBonds>
3

> <ROCS_ShapeQuery>
A71EV2A-x0451_0A_A71EV2A-x0310_0A_A71EV2A-x0416_0A_peptide

> <ROCS_TanimotoCombo>
0.415 

> <ROCS_ShapeTanimoto>
0.285 

> <ROCS_ColorTanimoto>
0.129 

> <ROCS_RefTversky>
0.256 

> <ROCS_RefColorTversky>
0.142 

> <ROCS_RefTverskyCombo>
0.398 

> <ROCS_FitTversky>
1.653 

> <ROCS_FitColorTversky>
0.593 

> <ROCS_FitTverskyCombo>
2.245 

> <ROCS_ColorScore>
-4.318

> <ROCS_Overlap>
1778.350

> <ROCS_Rank>
301                 

$$$$
untitled-dbase-741_39
  -OEChem-11112309163D

 27 28  0     1  0  0  0  0  0999 V2000
    7.3070   10.8167   24.9757 C   0  0  0  0  0  0  0  0  0  0  0  0
    8.2653    9.8038   25.0105 C   0  0  0  0  0  0  0  0  0  0  0  0
    7.4238   11.8560   24.0527 C   0  0  0  0  0  0  0  0  0  0  0  0
    9.3406    9.8303   24.1224 C   0  0  0  0  0  0  0  0  0  0  0  0
    8.4991   11.8825   23.1647 C   0  0  0  0  0  0  0  0  0  0  0  0
    9.4575   10.8697   23.1995 C   0  0  0  0  0  0  0  0  0  0  0  0
   11.4002   13.2934   23.3220 C   0  0  0  0  0  0  0  0  0  0  0  0
   10.2787   11.5761   20.9093 C   0  0  0  0  0  0  0  0  0  0  0  0
   11.9857   14.3921   21.1125 C   0  0  0  0  0  0  0  0  0  0  0  0
   10.6072   10.8987   22.2498 C   0  0  1  0  0  0  0  0  0  0  0  0
   10.7907   13.6943   24.4139 N   0  0  0  0  0  0  0  0  0  0  0  0
   10.4435   15.0066   24.1848 N   0  0  0  0  0  0  0  0  0  0  0  0
   10.8335   15.3995   22.9783 N   0  0  0  0  0  0  0  0  0  0  0  0
   11.4311   14.3269   22.4409 N   0  0  0  0  0  0  0  0  0  0  0  0
   12.0830   11.7019   22.9932 S   0  0  0  0  0  0  0  0  0  0  0  0
    6.4690   10.7952   25.6663 H   0  0  0  0  0  0  0  0  0  0  0  0
    8.1739    8.9939   25.7283 H   0  0  0  0  0  0  0  0  0  0  0  0
    6.6772   12.6441   24.0246 H   0  0  0  0  0  0  0  0  0  0  0  0
   10.0827    9.0370   24.1569 H   0  0  0  0  0  0  0  0  0  0  0  0
    8.5821   12.6963   22.4491 H   0  0  0  0  0  0  0  0  0  0  0  0
    9.9441   12.6060   21.0805 H   0  0  0  0  0  0  0  0  0  0  0  0
   11.1483   11.6220   20.2441 H   0  0  0  0  0  0  0  0  0  0  0  0
    9.4749   11.0568   20.3750 H   0  0  0  0  0  0  0  0  0  0  0  0
   11.2050   14.0975   20.4062 H   0  0  0  0  0  0  0  0  0  0  0  0
   12.3214   15.4125   20.9077 H   0  0  0  0  0  0  0  0  0  0  0  0
   12.8405   13.7134   21.0441 H   0  0  0  0  0  0  0  0  0  0  0  0
   10.9353    9.8720   22.0055 H   0  0  0  0  0  0  0  0  0  0  0  0
  1  2  2  0  0  0  0
  1  3  1  0  0  0  0
  2  4  1  0  0  0  0
  3  5  2  0  0  0  0
  4  6  2  0  0  0  0
  5  6  1  0  0  0  0
  6 10  1  0  0  0  0
  7 11  2  0  0  0  0
  7 14  1  0  0  0  0
  7 15  1  0  0  0  0
  8 10  1  0  0  0  0
  9 14  1  0  0  0  0
 10 15  1  0  0  0  0
 11 12  1  0  0  0  0
 12 13  2  0  0  0  0
 13 14  1  0  0  0  0
  1 16  1  0  0  0  0
  2 17  1  0  0  0  0
  3 18  1  0  0  0  0
  4 19  1  0  0  0  0
  5 20  1  0  0  0  0
  8 21  1  0  0  0  0
  8 22  1  0  0  0  0
  8 23  1  0  0  0  0
  9 24  1  0  0  0  0
  9 25  1  0  0  0  0
  9 26  1  0  0  0  0
 10 27  1  0  0  0  0
M  END
> <Catalog ID>
Z18519243

> <PlateID>
1337959-R-10

> <Well>
C04

> <MW (desalted)>
220.294

> <CLogP>
2.389

> <HBD>
0

> <TPSA>
43.600

> <RotBonds>
3

> <ROCS_ShapeQuery>
A71EV2A-x0451_0A_A71EV2A-x0310_0A_A71EV2A-x0416_0A_peptide

> <ROCS_TanimotoCombo>
0.415 

> <ROCS_ShapeTanimoto>
0.257 

> <ROCS_ColorTanimoto>
0.157 

> <ROCS_RefTversky>
0.234 

> <ROCS_RefColorTversky>
0.171 

> <ROCS_RefTverskyCombo>
0.405 

> <ROCS_FitTversky>
1.649 

> <ROCS_FitColorTversky>
0.660 

> <ROCS_FitTverskyCombo>
2.308 

> <ROCS_ColorScore>
-5.218

> <ROCS_Overlap>
1618.756

> <ROCS_Rank>
302                 

$$$$
untitled-dbase-780_234
  -OEChem-11112309163D

 32 33  0     1  0  0  0  0  0999 V2000
   10.0093   13.1698   24.2863 C   0  0  0  0  0  0  0  0  0  0  0  0
    7.0255   10.9856   24.6546 C   0  0  0  0  0  0  0  0  0  0  0  0
    7.4431    9.8317   23.9915 C   0  0  0  0  0  0  0  0  0  0  0  0
    7.8797   12.0844   24.7475 C   0  0  0  0  0  0  0  0  0  0  0  0
    8.7150    9.7765   23.4215 C   0  0  0  0  0  0  0  0  0  0  0  0
    9.1516   12.0293   24.1774 C   0  0  0  0  0  0  0  0  0  0  0  0
    9.5692   10.8753   23.5144 C   0  0  0  0  0  0  0  0  0  0  0  0
   13.4340   12.6449   23.5471 C   0  0  0  0  0  0  0  0  0  0  0  0
   13.1244   13.0910   21.1082 C   0  0  0  0  0  0  0  0  0  0  0  0
   10.8321   12.4503   21.1371 C   0  0  0  0  0  0  0  0  0  0  0  0
   12.8687   12.1251   22.2649 C   0  0  2  0  0  0  0  0  0  0  0  0
   11.7433   13.5797   20.7084 C   0  0  2  0  0  0  0  0  0  0  0  0
   10.9307   10.7794   22.8887 C   0  0  0  0  0  0  0  0  0  0  0  0
   10.7050   14.0945   24.3747 N   0  0  0  0  0  0  0  0  0  0  0  0
   11.4106   12.0747   22.4265 N   0  0  2  0  0  0  0  0  0  0  0  0
   13.8110   11.6583   24.4273 N   0  0  0  0  0  0  0  0  0  0  0  0
   13.5571   13.8475   23.7662 O   0  0  0  0  0  0  0  0  0  0  0  0
   11.6780   13.7682   19.3714 F   0  0  0  0  0  0  0  0  0  0  0  0
    6.0352   11.0283   25.0984 H   0  0  0  0  0  0  0  0  0  0  0  0
    6.7779    8.9762   23.9193 H   0  0  0  0  0  0  0  0  0  0  0  0
    7.5385   12.9763   25.2679 H   0  0  0  0  0  0  0  0  0  0  0  0
    9.0305    8.8725   22.9071 H   0  0  0  0  0  0  0  0  0  0  0  0
   13.7781   13.9312   21.3650 H   0  0  0  0  0  0  0  0  0  0  0  0
   13.5839   12.5609   20.2653 H   0  0  0  0  0  0  0  0  0  0  0  0
    9.7945   12.7857   21.2311 H   0  0  0  0  0  0  0  0  0  0  0  0
   10.8659   11.6343   20.4040 H   0  0  0  0  0  0  0  0  0  0  0  0
   13.3150   11.1480   22.0456 H   0  0  0  0  0  0  0  0  0  0  0  0
   11.4926   14.5196   21.2129 H   0  0  0  0  0  0  0  0  0  0  0  0
   11.6588   10.3866   23.6068 H   0  0  0  0  0  0  0  0  0  0  0  0
   10.9216   10.0999   22.0300 H   0  0  0  0  0  0  0  0  0  0  0  0
   14.2049   11.9288   25.3224 H   0  0  0  0  0  0  0  0  0  0  0  0
   13.7112   10.6704   24.2176 H   0  0  0  0  0  0  0  0  0  0  0  0
  1  6  1  0  0  0  0
  1 14  3  0  0  0  0
  2  3  2  0  0  0  0
  2  4  1  0  0  0  0
  3  5  1  0  0  0  0
  4  6  2  0  0  0  0
  5  7  2  0  0  0  0
  6  7  1  0  0  0  0
  7 13  1  0  0  0  0
  8 11  1  1  0  0  0
  8 16  1  0  0  0  0
  8 17  2  0  0  0  0
  9 11  1  0  0  0  0
  9 12  1  0  0  0  0
 10 12  1  0  0  0  0
 10 15  1  0  0  0  0
 11 15  1  0  0  0  0
 12 18  1  6  0  0  0
 13 15  1  0  0  0  0
  2 19  1  0  0  0  0
  3 20  1  0  0  0  0
  4 21  1  0  0  0  0
  5 22  1  0  0  0  0
  9 23  1  0  0  0  0
  9 24  1  0  0  0  0
 10 25  1  0  0  0  0
 10 26  1  0  0  0  0
 11 27  1  0  0  0  0
 12 28  1  0  0  0  0
 13 29  1  0  0  0  0
 13 30  1  0  0  0  0
 16 31  1  0  0  0  0
 16 32  1  0  0  0  0
M  END
> <Catalog ID>
Z2054558134

> <PlateID>
1337959-R-10

> <Well>
G03

> <MW (desalted)>
247.268

> <CLogP>
0.859

> <HBD>
1

> <TPSA>
70.120

> <RotBonds>
3

> <ROCS_ShapeQuery>
A71EV2A-x0451_0A_A71EV2A-x0310_0A_A71EV2A-x0416_0A_peptide

> <ROCS_TanimotoCombo>
0.415 

> <ROCS_ShapeTanimoto>
0.256 

> <ROCS_ColorTanimoto>
0.158 

> <ROCS_RefTversky>
0.237 

> <ROCS_RefColorTversky>
0.170 

> <ROCS_RefTverskyCombo>
0.406 

> <ROCS_FitTversky>
1.463 

> <ROCS_FitColorTversky>
0.708 

> <ROCS_FitTverskyCombo>
2.171 

> <ROCS_ColorScore>
-5.157

> <ROCS_Overlap>
1643.724

> <ROCS_Rank>
303                 

$$$$
untitled-dbase-519_67
  -OEChem-11112309163D

 29 29  0     1  0  0  0  0  0999 V2000
    7.3362   11.4481   24.1793 C   0  0  0  0  0  0  0  0  0  0  0  0
    8.3824   12.3631   24.0619 C   0  0  0  0  0  0  0  0  0  0  0  0
    9.9465   10.5407   23.7977 C   0  0  0  0  0  0  0  0  0  0  0  0
    7.5951   10.0794   24.1060 C   0  0  0  0  0  0  0  0  0  0  0  0
    8.9002    9.6257   23.9152 C   0  0  0  0  0  0  0  0  0  0  0  0
    9.6876   11.9094   23.8711 C   0  0  0  0  0  0  0  0  0  0  0  0
   12.0733   16.1473   21.7034 C   0  0  0  0  0  0  0  0  0  0  0  0
   10.4200   14.3658   19.9167 C   0  0  0  0  0  0  0  0  0  0  0  0
   10.6283   15.7666   21.9991 C   0  0  0  0  0  0  0  0  0  0  0  0
   10.2502   14.3922   21.4321 C   0  0  2  0  0  0  0  0  0  0  0  0
   11.0406   13.3410   22.0290 N   0  0  0  0  0  0  0  0  0  0  0  0
   10.6098   14.2955   24.3870 O   0  0  0  0  0  0  0  0  0  0  0  0
   12.2232   12.3830   24.1346 O   0  0  0  0  0  0  0  0  0  0  0  0
    6.5908    9.2002   24.2187 F   0  0  0  0  0  0  0  0  0  0  0  0
    9.1490    8.3114   23.8466 F   0  0  0  0  0  0  0  0  0  0  0  0
   11.0132   13.0696   23.7248 S   0  0  0  0  0  0  0  0  0  0  0  0
    6.3197   11.8007   24.3268 H   0  0  0  0  0  0  0  0  0  0  0  0
    8.1695   13.4271   24.1210 H   0  0  0  0  0  0  0  0  0  0  0  0
   10.9591   10.1755   23.6497 H   0  0  0  0  0  0  0  0  0  0  0  0
   12.2702   16.1651   20.6271 H   0  0  0  0  0  0  0  0  0  0  0  0
   12.2880   17.1449   22.0996 H   0  0  0  0  0  0  0  0  0  0  0  0
   12.7678   15.4413   22.1699 H   0  0  0  0  0  0  0  0  0  0  0  0
   11.4553   14.5826   19.6341 H   0  0  0  0  0  0  0  0  0  0  0  0
   10.1494   13.3876   19.5034 H   0  0  0  0  0  0  0  0  0  0  0  0
    9.7760   15.1133   19.4404 H   0  0  0  0  0  0  0  0  0  0  0  0
   10.4881   15.7645   23.0869 H   0  0  0  0  0  0  0  0  0  0  0  0
    9.9665   16.5406   21.5910 H   0  0  0  0  0  0  0  0  0  0  0  0
    9.2041   14.1713   21.6738 H   0  0  0  0  0  0  0  0  0  0  0  0
   11.2889   12.5316   21.4271 H   0  0  0  0  0  0  0  0  0  0  0  0
  1  2  1  0  0  0  0
  1  4  2  0  0  0  0
  2  6  2  0  0  0  0
  3  5  2  0  0  0  0
  3  6  1  0  0  0  0
  4  5  1  0  0  0  0
  4 14  1  0  0  0  0
  5 15  1  0  0  0  0
  6 16  1  0  0  0  0
  7  9  1  0  0  0  0
  8 10  1  0  0  0  0
  9 10  1  0  0  0  0
 10 11  1  0  0  0  0
 11 16  1  0  0  0  0
 12 16  2  0  0  0  0
 13 16  2  0  0  0  0
  1 17  1  0  0  0  0
  2 18  1  0  0  0  0
  3 19  1  0  0  0  0
  7 20  1  0  0  0  0
  7 21  1  0  0  0  0
  7 22  1  0  0  0  0
  8 23  1  0  0  0  0
  8 24  1  0  0  0  0
  8 25  1  0  0  0  0
  9 26  1  0  0  0  0
  9 27  1  0  0  0  0
 10 28  1  0  0  0  0
 11 29  1  0  0  0  0
M  END
> <Catalog ID>
Z45507556

> <PlateID>
1337959-R-07

> <Well>
D11

> <MW (desalted)>
249.278

> <CLogP>
2.912

> <HBD>
1

> <TPSA>
46.170

> <RotBonds>
3

> <ROCS_ShapeQuery>
A71EV2A-x0451_0A_A71EV2A-x0310_0A_A71EV2A-x0416_0A_peptide

> <ROCS_TanimotoCombo>
0.414 

> <ROCS_ShapeTanimoto>
0.281 

> <ROCS_ColorTanimoto>
0.134 

> <ROCS_RefTversky>
0.251 

> <ROCS_RefColorTversky>
0.142 

> <ROCS_RefTverskyCombo>
0.393 

> <ROCS_FitTversky>
1.747 

> <ROCS_FitColorTversky>
0.682 

> <ROCS_FitTverskyCombo>
2.429 

> <ROCS_ColorScore>
-4.325

> <ROCS_Overlap>
1737.204

> <ROCS_Rank>
304                 

$$$$
untitled-dbase-796_298
  -OEChem-11112309163D

 42 44  0     1  0  0  0  0  0999 V2000
   12.0862   12.0528   23.4281 C   0  0  0  0  0  0  0  0  0  0  0  0
   13.1064   12.5634   24.2031 C   0  0  0  0  0  0  0  0  0  0  0  0
   12.8295   14.2714   22.8555 C   0  0  0  0  0  0  0  0  0  0  0  0
   11.3977   10.7570   23.4919 C   0  0  0  0  0  0  0  0  0  0  0  0
    6.8620   11.9924   26.2574 C   0  0  0  0  0  0  0  0  0  0  0  0
    7.4628   10.6236   25.8834 C   0  0  0  0  0  0  0  0  0  0  0  0
    6.7385   12.2813   24.7495 C   0  0  0  0  0  0  0  0  0  0  0  0
    7.7406   10.3463   23.2928 C   0  0  0  0  0  0  0  0  0  0  0  0
    9.3010   11.8049   24.4653 C   0  0  0  0  0  0  0  0  0  0  0  0
    9.1423    9.7613   23.1399 C   0  0  2  0  0  0  0  0  0  0  0  0
    7.8788   11.2491   24.5140 C   0  0  0  0  0  0  0  0  0  0  0  0
   13.7683   11.8791   25.3328 C   0  0  0  0  0  0  0  0  0  0  0  0
    9.2890    8.4186   23.8552 C   0  0  0  0  0  0  0  0  0  0  0  0
   11.0323   16.6781   22.9060 C   0  0  0  0  0  0  0  0  0  0  0  0
   13.0037   15.5967   22.2228 C   0  0  0  0  0  0  0  0  0  0  0  0
   13.5342   13.8353   23.8760 N   0  0  0  0  0  0  0  0  0  0  0  0
   10.0252   10.7779   23.7144 N   0  0  0  0  0  0  0  0  0  0  0  0
   12.0872    9.7497   23.3509 O   0  0  0  0  0  0  0  0  0  0  0  0
   12.4419   16.6093   23.0558 O   0  0  0  0  0  0  0  0  0  0  0  0
   11.6351   13.2041   22.2397 S   0  0  0  0  0  0  0  0  0  0  0  0
    5.9223   11.9619   26.8144 H   0  0  0  0  0  0  0  0  0  0  0  0
    7.5625   12.6548   26.7785 H   0  0  0  0  0  0  0  0  0  0  0  0
    8.2722   10.2757   26.5312 H   0  0  0  0  0  0  0  0  0  0  0  0
    6.7103    9.8293   25.8086 H   0  0  0  0  0  0  0  0  0  0  0  0
    5.7700   11.9837   24.3296 H   0  0  0  0  0  0  0  0  0  0  0  0
    6.9463   13.3122   24.4500 H   0  0  0  0  0  0  0  0  0  0  0  0
    7.5015   10.9522   22.4098 H   0  0  0  0  0  0  0  0  0  0  0  0
    6.9601    9.5871   23.4026 H   0  0  0  0  0  0  0  0  0  0  0  0
    9.3551   12.7367   23.8916 H   0  0  0  0  0  0  0  0  0  0  0  0
    9.7551   11.9546   25.4495 H   0  0  0  0  0  0  0  0  0  0  0  0
    9.3919    9.6203   22.0820 H   0  0  0  0  0  0  0  0  0  0  0  0
   14.6374   11.2961   24.9882 H   0  0  0  0  0  0  0  0  0  0  0  0
   14.1227   12.5918   26.0963 H   0  0  0  0  0  0  0  0  0  0  0  0
   13.0848   11.1877   25.8539 H   0  0  0  0  0  0  0  0  0  0  0  0
    9.0456    8.5347   24.9098 H   0  0  0  0  0  0  0  0  0  0  0  0
   10.3131    8.0618   23.7621 H   0  0  0  0  0  0  0  0  0  0  0  0
    8.6143    7.6891   23.4109 H   0  0  0  0  0  0  0  0  0  0  0  0
   10.6338   17.4612   23.5557 H   0  0  0  0  0  0  0  0  0  0  0  0
   10.5898   15.7134   23.1667 H   0  0  0  0  0  0  0  0  0  0  0  0
   10.7965   16.9157   21.8660 H   0  0  0  0  0  0  0  0  0  0  0  0
   14.0673   15.8398   22.0587 H   0  0  0  0  0  0  0  0  0  0  0  0
   12.5098   15.6481   21.2377 H   0  0  0  0  0  0  0  0  0  0  0  0
  1  2  2  0  0  0  0
  1  4  1  0  0  0  0
  1 20  1  0  0  0  0
  2 12  1  0  0  0  0
  2 16  1  0  0  0  0
  3 15  1  0  0  0  0
  3 16  2  0  0  0  0
  3 20  1  0  0  0  0
  4 17  1  0  0  0  0
  4 18  2  0  0  0  0
  5  6  1  0  0  0  0
  5  7  1  0  0  0  0
  6 11  1  0  0  0  0
  7 11  1  0  0  0  0
  8 10  1  0  0  0  0
  8 11  1  0  0  0  0
  9 11  1  0  0  0  0
  9 17  1  0  0  0  0
 10 13  1  0  0  0  0
 10 17  1  0  0  0  0
 14 19  1  0  0  0  0
 15 19  1  0  0  0  0
  5 21  1  0  0  0  0
  5 22  1  0  0  0  0
  6 23  1  0  0  0  0
  6 24  1  0  0  0  0
  7 25  1  0  0  0  0
  7 26  1  0  0  0  0
  8 27  1  0  0  0  0
  8 28  1  0  0  0  0
  9 29  1  0  0  0  0
  9 30  1  0  0  0  0
 10 31  1  0  0  0  0
 12 32  1  0  0  0  0
 12 33  1  0  0  0  0
 12 34  1  0  0  0  0
 13 35  1  0  0  0  0
 13 36  1  0  0  0  0
 13 37  1  0  0  0  0
 14 38  1  0  0  0  0
 14 39  1  0  0  0  0
 14 40  1  0  0  0  0
 15 41  1  0  0  0  0
 15 42  1  0  0  0  0
M  END
> <Catalog ID>
Z1870716158

> <PlateID>
1337959-R-10

> <Well>
H09

> <MW (desalted)>
294.412

> <CLogP>
1.658

> <HBD>
0

> <TPSA>
42.430

> <RotBonds>
3

> <ROCS_ShapeQuery>
A71EV2A-x0451_0A_A71EV2A-x0310_0A_A71EV2A-x0416_0A_peptide

> <ROCS_TanimotoCombo>
0.414 

> <ROCS_ShapeTanimoto>
0.288 

> <ROCS_ColorTanimoto>
0.126 

> <ROCS_RefTversky>
0.262 

> <ROCS_RefColorTversky>
0.139 

> <ROCS_RefTverskyCombo>
0.401 

> <ROCS_FitTversky>
1.528 

> <ROCS_FitColorTversky>
0.580 

> <ROCS_FitTverskyCombo>
2.108 

> <ROCS_ColorScore>
-4.231

> <ROCS_Overlap>
1817.522

> <ROCS_Rank>
305                 

$$$$
untitled-dbase-68_110
  -OEChem-11112309163D

 33 34  0     1  0  0  0  0  0999 V2000
   11.4638   12.4772   20.5524 C   0  0  0  0  0  0  0  0  0  0  0  0
   12.0089   13.7147   20.8945 C   0  0  0  0  0  0  0  0  0  0  0  0
   10.6500   11.7987   21.4597 C   0  0  0  0  0  0  0  0  0  0  0  0
   11.7403   14.2737   22.1439 C   0  0  0  0  0  0  0  0  0  0  0  0
   10.3815   12.3577   22.7091 C   0  0  0  0  0  0  0  0  0  0  0  0
   10.9266   13.5952   23.0512 C   0  0  0  0  0  0  0  0  0  0  0  0
    7.6393   11.5017   25.1532 C   0  0  0  0  0  0  0  0  0  0  0  0
    7.0573   10.5869   24.0773 C   0  0  0  0  0  0  0  0  0  0  0  0
    8.7416   12.3976   24.5747 C   0  0  0  0  0  0  0  0  0  0  0  0
    9.5563   10.2111   23.6965 C   0  0  0  0  0  0  0  0  0  0  0  0
    8.1342    9.6928   23.4344 C   0  0  1  0  0  0  0  0  0  0  0  0
   11.2762   15.4254   24.5290 C   0  0  0  0  0  0  0  0  0  0  0  0
    9.5686   11.6707   23.6036 N   0  0  3  0  0  0  0  0  0  0  0  0
    8.0335    8.3240   23.9445 N   0  0  0  0  0  0  0  0  0  0  0  0
   10.6767   14.1584   24.2668 O   0  0  0  0  0  0  0  0  0  0  0  0
   11.6736   12.0416   19.5799 H   0  0  0  0  0  0  0  0  0  0  0  0
   12.6421   14.2430   20.1879 H   0  0  0  0  0  0  0  0  0  0  0  0
   10.2303   10.8350   21.1819 H   0  0  0  0  0  0  0  0  0  0  0  0
   12.1677   15.2385   22.4042 H   0  0  0  0  0  0  0  0  0  0  0  0
    6.8474   12.1258   25.5736 H   0  0  0  0  0  0  0  0  0  0  0  0
    8.0487   10.8998   25.9660 H   0  0  0  0  0  0  0  0  0  0  0  0
    6.2630    9.9627   24.5236 H   0  0  0  0  0  0  0  0  0  0  0  0
    6.5655   11.2008   23.3037 H   0  0  0  0  0  0  0  0  0  0  0  0
    8.2698   13.2685   24.0982 H   0  0  0  0  0  0  0  0  0  0  0  0
    9.3739   12.7748   25.3915 H   0  0  0  0  0  0  0  0  0  0  0  0
    9.9002    9.9032   24.6898 H   0  0  0  0  0  0  0  0  0  0  0  0
   10.2370    9.7787   22.9558 H   0  0  0  0  0  0  0  0  0  0  0  0
    7.9689    9.6528   22.3506 H   0  0  0  0  0  0  0  0  0  0  0  0
   10.9970   15.7611   25.5307 H   0  0  0  0  0  0  0  0  0  0  0  0
   10.9397   16.1501   23.7833 H   0  0  0  0  0  0  0  0  0  0  0  0
   12.3624   15.3235   24.4710 H   0  0  0  0  0  0  0  0  0  0  0  0
    7.1267    7.9824   23.7333 H   0  0  0  0  0  0  0  0  0  0  0  0
    8.7294    7.7771   23.4971 H   0  0  0  0  0  0  0  0  0  0  0  0
  1  2  2  0  0  0  0
  1  3  1  0  0  0  0
  2  4  1  0  0  0  0
  3  5  2  0  0  0  0
  4  6  2  0  0  0  0
  5  6  1  0  0  0  0
  5 13  1  0  0  0  0
  6 15  1  0  0  0  0
  7  8  1  0  0  0  0
  7  9  1  0  0  0  0
  8 11  1  0  0  0  0
  9 13  1  0  0  0  0
 10 11  1  0  0  0  0
 10 13  1  0  0  0  0
 11 14  1  0  0  0  0
 12 15  1  0  0  0  0
  1 16  1  0  0  0  0
  2 17  1  0  0  0  0
  3 18  1  0  0  0  0
  4 19  1  0  0  0  0
  7 20  1  0  0  0  0
  7 21  1  0  0  0  0
  8 22  1  0  0  0  0
  8 23  1  0  0  0  0
  9 24  1  0  0  0  0
  9 25  1  0  0  0  0
 10 26  1  0  0  0  0
 10 27  1  0  0  0  0
 11 28  1  0  0  0  0
 12 29  1  0  0  0  0
 12 30  1  0  0  0  0
 12 31  1  0  0  0  0
 14 32  1  0  0  0  0
 14 33  1  0  0  0  0
M  END
> <Catalog ID>
Z839143272

> <PlateID>
1337959-R-01

> <Well>
G09

> <MW (desalted)>
206.284

> <CLogP>
1.747

> <HBD>
1

> <TPSA>
38.490

> <RotBonds>
2

> <ROCS_ShapeQuery>
A71EV2A-x0451_0A_A71EV2A-x0310_0A_A71EV2A-x0416_0A_peptide

> <ROCS_TanimotoCombo>
0.414 

> <ROCS_ShapeTanimoto>
0.263 

> <ROCS_ColorTanimoto>
0.151 

> <ROCS_RefTversky>
0.238 

> <ROCS_RefColorTversky>
0.159 

> <ROCS_RefTverskyCombo>
0.397 

> <ROCS_FitTversky>
1.671 

> <ROCS_FitColorTversky>
0.762 

> <ROCS_FitTverskyCombo>
2.432 

> <ROCS_ColorScore>
-4.825

> <ROCS_Overlap>
1647.836

> <ROCS_Rank>
306                 

$$$$
untitled-dbase-934_48
  -OEChem-11112309163D

 37 38  0     1  0  0  0  0  0999 V2000
    9.4895   10.3121   23.2411 C   0  0  0  0  0  0  0  0  0  0  0  0
    8.6065    9.5810   24.0356 C   0  0  0  0  0  0  0  0  0  0  0  0
    8.5916   12.3689   24.1356 C   0  0  0  0  0  0  0  0  0  0  0  0
    9.4821   11.7061   23.2911 C   0  0  0  0  0  0  0  0  0  0  0  0
    7.7160   10.2438   24.8802 C   0  0  0  0  0  0  0  0  0  0  0  0
    7.7085   11.6378   24.9302 C   0  0  0  0  0  0  0  0  0  0  0  0
   10.4118   12.4757   22.4548 C   0  0  0  0  0  0  0  0  0  0  0  0
   12.4159   16.0558   23.6939 C   0  0  0  0  0  0  0  0  0  0  0  0
   12.3051   14.8413   24.6067 C   0  0  0  0  0  0  0  0  0  0  0  0
   12.2978   15.6291   22.2347 C   0  0  0  0  0  0  0  0  0  0  0  0
   11.0210   14.0607   24.3478 C   0  0  0  0  0  0  0  0  0  0  0  0
   11.0237   14.8207   21.9564 C   0  0  2  0  0  0  0  0  0  0  0  0
    6.7729    9.4598   25.7291 C   0  0  0  0  0  0  0  0  0  0  0  0
    9.7719   15.7014   21.9138 C   0  0  0  0  0  0  0  0  0  0  0  0
   10.8546   13.7202   22.9246 N   0  0  0  0  0  0  0  0  0  0  0  0
    9.9091   16.6777   20.8881 N   0  0  0  0  0  0  0  0  0  0  0  0
   10.7267   11.9609   21.3826 O   0  0  0  0  0  0  0  0  0  0  0  0
    6.8577   12.2831   25.7401 F   0  0  0  0  0  0  0  0  0  0  0  0
   10.1793    9.7854   22.5864 H   0  0  0  0  0  0  0  0  0  0  0  0
    8.6191    8.4953   23.9892 H   0  0  0  0  0  0  0  0  0  0  0  0
    8.5777   13.4548   24.1838 H   0  0  0  0  0  0  0  0  0  0  0  0
   11.6341   16.7830   23.9417 H   0  0  0  0  0  0  0  0  0  0  0  0
   13.3781   16.5542   23.8567 H   0  0  0  0  0  0  0  0  0  0  0  0
   13.1696   14.1835   24.4529 H   0  0  0  0  0  0  0  0  0  0  0  0
   12.3334   15.1652   25.6531 H   0  0  0  0  0  0  0  0  0  0  0  0
   12.3358   16.5138   21.5882 H   0  0  0  0  0  0  0  0  0  0  0  0
   13.1699   15.0157   21.9730 H   0  0  0  0  0  0  0  0  0  0  0  0
   11.0189   13.1632   24.9720 H   0  0  0  0  0  0  0  0  0  0  0  0
   10.1481   14.6551   24.6417 H   0  0  0  0  0  0  0  0  0  0  0  0
   11.1303   14.3823   20.9567 H   0  0  0  0  0  0  0  0  0  0  0  0
    7.2298    9.2361   26.7008 H   0  0  0  0  0  0  0  0  0  0  0  0
    5.8399   10.0116   25.9020 H   0  0  0  0  0  0  0  0  0  0  0  0
    6.4972    8.5125   25.2477 H   0  0  0  0  0  0  0  0  0  0  0  0
    8.9279   15.0458   21.7129 H   0  0  0  0  0  0  0  0  0  0  0  0
    9.6824   16.1750   22.8886 H   0  0  0  0  0  0  0  0  0  0  0  0
   10.0585   16.2314   20.0002 H   0  0  0  0  0  0  0  0  0  0  0  0
    9.0783   17.2400   20.8298 H   0  0  0  0  0  0  0  0  0  0  0  0
  1  2  1  0  0  0  0
  1  4  2  0  0  0  0
  2  5  2  0  0  0  0
  3  4  1  0  0  0  0
  3  6  2  0  0  0  0
  4  7  1  0  0  0  0
  5  6  1  0  0  0  0
  5 13  1  0  0  0  0
  6 18  1  0  0  0  0
  7 15  1  0  0  0  0
  7 17  2  0  0  0  0
  8  9  1  0  0  0  0
  8 10  1  0  0  0  0
  9 11  1  0  0  0  0
 10 12  1  0  0  0  0
 11 15  1  0  0  0  0
 12 14  1  0  0  0  0
 12 15  1  0  0  0  0
 14 16  1  0  0  0  0
  1 19  1  0  0  0  0
  2 20  1  0  0  0  0
  3 21  1  0  0  0  0
  8 22  1  0  0  0  0
  8 23  1  0  0  0  0
  9 24  1  0  0  0  0
  9 25  1  0  0  0  0
 10 26  1  0  0  0  0
 10 27  1  0  0  0  0
 11 28  1  0  0  0  0
 11 29  1  0  0  0  0
 12 30  1  0  0  0  0
 13 31  1  0  0  0  0
 13 32  1  0  0  0  0
 13 33  1  0  0  0  0
 14 34  1  0  0  0  0
 14 35  1  0  0  0  0
 16 36  1  0  0  0  0
 16 37  1  0  0  0  0
M  END
> <Catalog ID>
Z871858400

> <PlateID>
1337959-R-12

> <Well>
F08

> <MW (desalted)>
250.312

> <CLogP>
2.152

> <HBD>
1

> <TPSA>
46.330

> <RotBonds>
2

> <ROCS_ShapeQuery>
A71EV2A-x0451_0A_A71EV2A-x0310_0A_A71EV2A-x0416_0A_peptide

> <ROCS_TanimotoCombo>
0.414 

> <ROCS_ShapeTanimoto>
0.304 

> <ROCS_ColorTanimoto>
0.110 

> <ROCS_RefTversky>
0.270 

> <ROCS_RefColorTversky>
0.120 

> <ROCS_RefTverskyCombo>
0.390 

> <ROCS_FitTversky>
1.685 

> <ROCS_FitColorTversky>
0.575 

> <ROCS_FitTverskyCombo>
2.260 

> <ROCS_ColorScore>
-3.641

> <ROCS_Overlap>
1874.888

> <ROCS_Rank>
307                 

$$$$
untitled-dbase-825_54
  -OEChem-11112309163D

 36 37  0     1  0  0  0  0  0999 V2000
    8.1710   12.0854   24.4187 C   0  0  0  0  0  0  0  0  0  0  0  0
    9.4659   10.3568   24.0064 C   0  0  0  0  0  0  0  0  0  0  0  0
    9.4842   11.7292   24.0575 C   0  0  0  0  0  0  0  0  0  0  0  0
   11.6940   16.0220   20.0822 C   0  0  0  0  0  0  0  0  0  0  0  0
   11.7593   15.9436   21.6039 C   0  0  0  0  0  0  0  0  0  0  0  0
   11.2021   14.7154   19.4640 C   0  0  0  0  0  0  0  0  0  0  0  0
   10.4233   15.5086   22.2055 C   0  0  0  0  0  0  0  0  0  0  0  0
    9.8559   14.2775   20.0615 C   0  0  2  0  0  0  0  0  0  0  0  0
    9.9081   14.1966   21.6021 C   0  0  1  0  0  0  0  0  0  0  0  0
    9.3798   12.9705   19.4247 C   0  0  0  0  0  0  0  0  0  0  0  0
    7.6849    8.6398   24.4059 C   0  0  0  0  0  0  0  0  0  0  0  0
    7.3763   11.0248   24.5851 N   0  0  0  0  0  0  0  0  0  0  0  0
    8.1924    9.9887   24.3272 N   0  0  0  0  0  0  0  0  0  0  0  0
   10.7004   13.0825   22.0739 N   0  0  0  0  0  0  0  0  0  0  0  0
   10.6247   14.0414   24.4613 O   0  0  0  0  0  0  0  0  0  0  0  0
   12.0579   12.0330   23.9751 O   0  0  0  0  0  0  0  0  0  0  0  0
   10.8517   12.8034   23.7403 S   0  0  0  0  0  0  0  0  0  0  0  0
    7.7571   13.0726   24.5679 H   0  0  0  0  0  0  0  0  0  0  0  0
   10.2313    9.6286   23.7747 H   0  0  0  0  0  0  0  0  0  0  0  0
   11.0217   16.8381   19.7899 H   0  0  0  0  0  0  0  0  0  0  0  0
   12.6848   16.2682   19.6842 H   0  0  0  0  0  0  0  0  0  0  0  0
   12.5508   15.2461   21.9023 H   0  0  0  0  0  0  0  0  0  0  0  0
   12.0378   16.9237   22.0080 H   0  0  0  0  0  0  0  0  0  0  0  0
   11.1012   14.8496   18.3801 H   0  0  0  0  0  0  0  0  0  0  0  0
   11.9580   13.9345   19.6118 H   0  0  0  0  0  0  0  0  0  0  0  0
   10.5317   15.4091   23.2923 H   0  0  0  0  0  0  0  0  0  0  0  0
    9.6811   16.2980   22.0310 H   0  0  0  0  0  0  0  0  0  0  0  0
    9.1157   15.0470   19.8030 H   0  0  0  0  0  0  0  0  0  0  0  0
    8.8722   14.0415   21.9751 H   0  0  0  0  0  0  0  0  0  0  0  0
   10.0839   12.1732   19.6535 H   0  0  0  0  0  0  0  0  0  0  0  0
    9.3135   13.0912   18.3455 H   0  0  0  0  0  0  0  0  0  0  0  0
    8.3998   12.7070   19.8170 H   0  0  0  0  0  0  0  0  0  0  0  0
    7.8314    8.2834   25.4289 H   0  0  0  0  0  0  0  0  0  0  0  0
    6.6223    8.6349   24.1477 H   0  0  0  0  0  0  0  0  0  0  0  0
    8.2283    8.0074   23.6981 H   0  0  0  0  0  0  0  0  0  0  0  0
   10.7932   12.3068   21.4177 H   0  0  0  0  0  0  0  0  0  0  0  0
  1  3  1  0  0  0  0
  1 12  2  0  0  0  0
  2  3  2  0  0  0  0
  2 13  1  0  0  0  0
  3 17  1  0  0  0  0
  4  5  1  0  0  0  0
  4  6  1  0  0  0  0
  5  7  1  0  0  0  0
  6  8  1  0  0  0  0
  7  9  1  0  0  0  0
  8  9  1  0  0  0  0
  8 10  1  0  0  0  0
  9 14  1  0  0  0  0
 11 13  1  0  0  0  0
 12 13  1  0  0  0  0
 14 17  1  0  0  0  0
 15 17  2  0  0  0  0
 16 17  2  0  0  0  0
  1 18  1  0  0  0  0
  2 19  1  0  0  0  0
  4 20  1  0  0  0  0
  4 21  1  0  0  0  0
  5 22  1  0  0  0  0
  5 23  1  0  0  0  0
  6 24  1  0  0  0  0
  6 25  1  0  0  0  0
  7 26  1  0  0  0  0
  7 27  1  0  0  0  0
  8 28  1  0  0  0  0
  9 29  1  0  0  0  0
 10 30  1  0  0  0  0
 10 31  1  0  0  0  0
 10 32  1  0  0  0  0
 11 33  1  0  0  0  0
 11 34  1  0  0  0  0
 11 35  1  0  0  0  0
 14 36  1  0  0  0  0
M  END
> <Catalog ID>
Z416331648

> <PlateID>
1337959-R-11

> <Well>
C08

> <MW (desalted)>
257.352

> <CLogP>
2.179

> <HBD>
1

> <TPSA>
63.990

> <RotBonds>
2

> <ROCS_ShapeQuery>
A71EV2A-x0451_0A_A71EV2A-x0310_0A_A71EV2A-x0416_0A_peptide

> <ROCS_TanimotoCombo>
0.414 

> <ROCS_ShapeTanimoto>
0.262 

> <ROCS_ColorTanimoto>
0.152 

> <ROCS_RefTversky>
0.239 

> <ROCS_RefColorTversky>
0.164 

> <ROCS_RefTverskyCombo>
0.402 

> <ROCS_FitTversky>
1.581 

> <ROCS_FitColorTversky>
0.683 

> <ROCS_FitTverskyCombo>
2.264 

> <ROCS_ColorScore>
-4.978

> <ROCS_Overlap>
1654.894

> <ROCS_Rank>
308                 

$$$$
untitled-dbase-1042_25
  -OEChem-11112309163D

 35 36  0     0  0  0  0  0  0999 V2000
    7.1173   10.5571   24.2967 C   0  0  0  0  0  0  0  0  0  0  0  0
    7.9450    9.7238   23.5444 C   0  0  0  0  0  0  0  0  0  0  0  0
    8.9615   12.0797   24.6394 C   0  0  0  0  0  0  0  0  0  0  0  0
    7.6255   11.7351   24.8442 C   0  0  0  0  0  0  0  0  0  0  0  0
    9.7893   11.2464   23.8871 C   0  0  0  0  0  0  0  0  0  0  0  0
    9.2810   10.0684   23.3396 C   0  0  0  0  0  0  0  0  0  0  0  0
   11.9283   13.3330   20.4752 C   0  0  0  0  0  0  0  0  0  0  0  0
   11.2300   15.0562   22.0147 C   0  0  0  0  0  0  0  0  0  0  0  0
   11.7841   12.3928   21.4154 C   0  0  0  0  0  0  0  0  0  0  0  0
   11.6415   14.7160   20.7835 C   0  0  0  0  0  0  0  0  0  0  0  0
   11.0635   14.0169   23.0766 C   0  0  0  0  0  0  0  0  0  0  0  0
    6.7396   12.6264   25.6472 C   0  0  0  0  0  0  0  0  0  0  0  0
   11.8251   15.7144   19.6830 C   0  0  0  0  0  0  0  0  0  0  0  0
   10.7763    8.2193   23.3088 C   0  0  0  0  0  0  0  0  0  0  0  0
   11.2244   11.6334   23.6756 C   0  0  0  0  0  0  0  0  0  0  0  0
   11.3621   12.7040   22.6955 N   0  0  0  0  0  0  0  0  0  0  0  0
   10.6836   14.3671   24.1929 O   0  0  0  0  0  0  0  0  0  0  0  0
   10.0758    9.2419   22.6035 O   0  0  0  0  0  0  0  0  0  0  0  0
    6.0773   10.2814   24.4508 H   0  0  0  0  0  0  0  0  0  0  0  0
    7.5416    8.8086   23.1194 H   0  0  0  0  0  0  0  0  0  0  0  0
    9.3567   12.9986   25.0663 H   0  0  0  0  0  0  0  0  0  0  0  0
   12.2604   13.0698   19.4769 H   0  0  0  0  0  0  0  0  0  0  0  0
   11.0052   16.0824   22.2844 H   0  0  0  0  0  0  0  0  0  0  0  0
   11.9932   11.3492   21.2079 H   0  0  0  0  0  0  0  0  0  0  0  0
    6.7740   12.3451   26.7068 H   0  0  0  0  0  0  0  0  0  0  0  0
    7.0435   13.6773   25.5562 H   0  0  0  0  0  0  0  0  0  0  0  0
    5.6981   12.5664   25.3049 H   0  0  0  0  0  0  0  0  0  0  0  0
   10.8956   15.8203   19.1266 H   0  0  0  0  0  0  0  0  0  0  0  0
   12.6135   15.3782   19.0114 H   0  0  0  0  0  0  0  0  0  0  0  0
   12.1063   16.6775   20.1061 H   0  0  0  0  0  0  0  0  0  0  0  0
   11.3720    7.6328   22.6051 H   0  0  0  0  0  0  0  0  0  0  0  0
   10.0598    7.5736   23.8227 H   0  0  0  0  0  0  0  0  0  0  0  0
   11.4377    8.6837   24.0440 H   0  0  0  0  0  0  0  0  0  0  0  0
   11.6745   11.9753   24.6140 H   0  0  0  0  0  0  0  0  0  0  0  0
   11.8139   10.7800   23.3242 H   0  0  0  0  0  0  0  0  0  0  0  0
  1  2  1  0  0  0  0
  1  4  2  0  0  0  0
  2  6  2  0  0  0  0
  3  4  1  0  0  0  0
  3  5  2  0  0  0  0
  4 12  1  0  0  0  0
  5  6  1  0  0  0  0
  5 15  1  0  0  0  0
  6 18  1  0  0  0  0
  7  9  2  0  0  0  0
  7 10  1  0  0  0  0
  8 10  2  0  0  0  0
  8 11  1  0  0  0  0
  9 16  1  0  0  0  0
 10 13  1  0  0  0  0
 11 16  1  0  0  0  0
 11 17  2  0  0  0  0
 14 18  1  0  0  0  0
 15 16  1  0  0  0  0
  1 19  1  0  0  0  0
  2 20  1  0  0  0  0
  3 21  1  0  0  0  0
  7 22  1  0  0  0  0
  8 23  1  0  0  0  0
  9 24  1  0  0  0  0
 12 25  1  0  0  0  0
 12 26  1  0  0  0  0
 12 27  1  0  0  0  0
 13 28  1  0  0  0  0
 13 29  1  0  0  0  0
 13 30  1  0  0  0  0
 14 31  1  0  0  0  0
 14 32  1  0  0  0  0
 14 33  1  0  0  0  0
 15 34  1  0  0  0  0
 15 35  1  0  0  0  0
M  END
> <Catalog ID>
Z1134990361

> <PlateID>
1337959-R-14

> <Well>
A08

> <MW (desalted)>
243.301

> <CLogP>
2.599

> <HBD>
0

> <TPSA>
29.540

> <RotBonds>
3

> <ROCS_ShapeQuery>
A71EV2A-x0451_0A_A71EV2A-x0310_0A_A71EV2A-x0416_0A_peptide

> <ROCS_TanimotoCombo>
0.414 

> <ROCS_ShapeTanimoto>
0.315 

> <ROCS_ColorTanimoto>
0.099 

> <ROCS_RefTversky>
0.278 

> <ROCS_RefColorTversky>
0.106 

> <ROCS_RefTverskyCombo>
0.384 

> <ROCS_FitTversky>
1.717 

> <ROCS_FitColorTversky>
0.595 

> <ROCS_FitTverskyCombo>
2.313 

> <ROCS_ColorScore>
-3.206

> <ROCS_Overlap>
1931.196

> <ROCS_Rank>
309                 

$$$$
untitled-dbase-830_26
  -OEChem-11112309163D

 38 39  0     1  0  0  0  0  0999 V2000
    9.2621   11.7801   23.8783 C   0  0  0  0  0  0  0  0  0  0  0  0
    8.1403   12.0521   24.6802 C   0  0  0  0  0  0  0  0  0  0  0  0
    9.1366   10.4484   23.5834 C   0  0  0  0  0  0  0  0  0  0  0  0
   11.0870   15.6975   20.5048 C   0  0  0  0  0  0  0  0  0  0  0  0
   10.6340   13.2215   20.6551 C   0  0  0  0  0  0  0  0  0  0  0  0
    9.2117   14.7987   21.9313 C   0  0  0  0  0  0  0  0  0  0  0  0
   11.7123   14.2943   20.4744 C   0  0  1  0  0  0  0  0  0  0  0  0
   10.2566   15.9087   21.7802 C   0  0  2  0  0  0  0  0  0  0  0  0
    7.7496   13.3322   25.2944 C   0  0  0  0  0  0  0  0  0  0  0  0
    9.9345    9.4971   22.7985 C   0  0  0  0  0  0  0  0  0  0  0  0
   12.4776   14.0731   19.1715 C   0  0  0  0  0  0  0  0  0  0  0  0
    9.5855   17.2804   21.7656 C   0  0  0  0  0  0  0  0  0  0  0  0
    7.3772   10.9717   24.8683 N   0  0  0  0  0  0  0  0  0  0  0  0
    9.8639   13.4606   21.9067 N   0  0  0  0  0  0  0  0  0  0  0  0
   10.5904   13.9744   24.3191 O   0  0  0  0  0  0  0  0  0  0  0  0
   11.7144   12.1026   23.0619 O   0  0  0  0  0  0  0  0  0  0  0  0
    8.0155    9.9546   24.1685 O   0  0  0  0  0  0  0  0  0  0  0  0
   10.5378   12.8873   23.3661 S   0  0  0  0  0  0  0  0  0  0  0  0
   11.8791   16.4563   20.4497 H   0  0  0  0  0  0  0  0  0  0  0  0
   10.4515   15.8404   19.6192 H   0  0  0  0  0  0  0  0  0  0  0  0
    9.9440   13.2068   19.7967 H   0  0  0  0  0  0  0  0  0  0  0  0
   11.1150   12.2332   20.7125 H   0  0  0  0  0  0  0  0  0  0  0  0
    8.6868   14.9251   22.8904 H   0  0  0  0  0  0  0  0  0  0  0  0
    8.4582   14.8545   21.1299 H   0  0  0  0  0  0  0  0  0  0  0  0
   12.4245   14.2183   21.3060 H   0  0  0  0  0  0  0  0  0  0  0  0
   10.9358   15.8698   22.6415 H   0  0  0  0  0  0  0  0  0  0  0  0
    7.1003   13.9180   24.6214 H   0  0  0  0  0  0  0  0  0  0  0  0
    7.2022   13.1899   26.2434 H   0  0  0  0  0  0  0  0  0  0  0  0
    8.6242   13.9602   25.5420 H   0  0  0  0  0  0  0  0  0  0  0  0
   10.6975    8.9979   23.4225 H   0  0  0  0  0  0  0  0  0  0  0  0
    9.3138    8.7043   22.3406 H   0  0  0  0  0  0  0  0  0  0  0  0
   10.4638    9.9844   21.9583 H   0  0  0  0  0  0  0  0  0  0  0  0
   11.7951   14.1428   18.3260 H   0  0  0  0  0  0  0  0  0  0  0  0
   12.9387   13.0868   19.1771 H   0  0  0  0  0  0  0  0  0  0  0  0
   13.2540   14.8293   19.0665 H   0  0  0  0  0  0  0  0  0  0  0  0
    8.9036   17.3490   20.9195 H   0  0  0  0  0  0  0  0  0  0  0  0
   10.3406   18.0600   21.6790 H   0  0  0  0  0  0  0  0  0  0  0  0
    9.0253   17.4273   22.6878 H   0  0  0  0  0  0  0  0  0  0  0  0
  1  2  1  0  0  0  0
  1  3  2  0  0  0  0
  1 18  1  0  0  0  0
  2  9  1  0  0  0  0
  2 13  2  0  0  0  0
  3 10  1  0  0  0  0
  3 17  1  0  0  0  0
  4  7  1  0  0  0  0
  4  8  1  0  0  0  0
  5  7  1  0  0  0  0
  5 14  1  0  0  0  0
  6  8  1  0  0  0  0
  6 14  1  0  0  0  0
  7 11  1  0  0  0  0
  8 12  1  0  0  0  0
 13 17  1  0  0  0  0
 14 18  1  0  0  0  0
 15 18  2  0  0  0  0
 16 18  2  0  0  0  0
  4 19  1  0  0  0  0
  4 20  1  0  0  0  0
  5 21  1  0  0  0  0
  5 22  1  0  0  0  0
  6 23  1  0  0  0  0
  6 24  1  0  0  0  0
  7 25  1  0  0  0  0
  8 26  1  0  0  0  0
  9 27  1  0  0  0  0
  9 28  1  0  0  0  0
  9 29  1  0  0  0  0
 10 30  1  0  0  0  0
 10 31  1  0  0  0  0
 10 32  1  0  0  0  0
 11 33  1  0  0  0  0
 11 34  1  0  0  0  0
 11 35  1  0  0  0  0
 12 36  1  0  0  0  0
 12 37  1  0  0  0  0
 12 38  1  0  0  0  0
M  END
> <Catalog ID>
Z45524367

> <PlateID>
1337959-R-11

> <Well>
D03

> <MW (desalted)>
272.364

> <CLogP>
2.361

> <HBD>
0

> <TPSA>
63.410

> <RotBonds>
1

> <ROCS_ShapeQuery>
A71EV2A-x0451_0A_A71EV2A-x0310_0A_A71EV2A-x0416_0A_peptide

> <ROCS_TanimotoCombo>
0.413 

> <ROCS_ShapeTanimoto>
0.281 

> <ROCS_ColorTanimoto>
0.132 

> <ROCS_RefTversky>
0.254 

> <ROCS_RefColorTversky>
0.141 

> <ROCS_RefTverskyCombo>
0.395 

> <ROCS_FitTversky>
1.619 

> <ROCS_FitColorTversky>
0.676 

> <ROCS_FitTverskyCombo>
2.295 

> <ROCS_ColorScore>
-4.284

> <ROCS_Overlap>
1761.472

> <ROCS_Rank>
310                 

$$$$
untitled-dbase-1108_39
  -OEChem-11112309163D

 36 37  0     1  0  0  0  0  0999 V2000
    9.1998   12.3056   23.9645 C   0  0  0  0  0  0  0  0  0  0  0  0
    7.9332   12.2151   24.4862 C   0  0  0  0  0  0  0  0  0  0  0  0
    8.4554   10.3102   23.7639 C   0  0  0  0  0  0  0  0  0  0  0  0
   10.1540   13.4023   23.8401 C   0  0  0  0  0  0  0  0  0  0  0  0
    8.8211   14.3618   21.9757 C   0  0  0  0  0  0  0  0  0  0  0  0
   11.2455   14.8178   22.0090 C   0  0  0  0  0  0  0  0  0  0  0  0
    8.5647   15.8393   21.6621 C   0  0  2  0  0  0  0  0  0  0  0  0
   10.9449   16.2858   21.6749 C   0  0  1  0  0  0  0  0  0  0  0  0
    7.1112   13.2606   25.1127 C   0  0  0  0  0  0  0  0  0  0  0  0
    8.5409    8.8989   23.3588 C   0  0  0  0  0  0  0  0  0  0  0  0
    7.2877   16.0015   20.8413 C   0  0  0  0  0  0  0  0  0  0  0  0
   12.0859   16.8958   20.8640 C   0  0  0  0  0  0  0  0  0  0  0  0
    7.4614   10.9341   24.3545 N   0  0  0  0  0  0  0  0  0  0  0  0
    9.6950   16.4041   20.9139 N   0  0  0  0  0  0  0  0  0  0  0  0
   10.0976   14.1809   22.6692 N   0  0  0  0  0  0  0  0  0  0  0  0
   10.9696   13.6174   24.7386 O   0  0  0  0  0  0  0  0  0  0  0  0
    9.5479   11.0758   23.4935 O   0  0  0  0  0  0  0  0  0  0  0  0
    7.9997   13.9586   22.5778 H   0  0  0  0  0  0  0  0  0  0  0  0
    8.8703   13.7646   21.0561 H   0  0  0  0  0  0  0  0  0  0  0  0
   11.4446   14.2402   21.0971 H   0  0  0  0  0  0  0  0  0  0  0  0
   12.1437   14.7595   22.6300 H   0  0  0  0  0  0  0  0  0  0  0  0
    8.4358   16.3969   22.6001 H   0  0  0  0  0  0  0  0  0  0  0  0
   10.8526   16.8586   22.6083 H   0  0  0  0  0  0  0  0  0  0  0  0
    6.4903   13.7868   24.3661 H   0  0  0  0  0  0  0  0  0  0  0  0
    6.4288   12.8535   25.8815 H   0  0  0  0  0  0  0  0  0  0  0  0
    7.7236   14.0227   25.6291 H   0  0  0  0  0  0  0  0  0  0  0  0
    8.1691    8.7523   22.3294 H   0  0  0  0  0  0  0  0  0  0  0  0
    9.5768    8.5148   23.3939 H   0  0  0  0  0  0  0  0  0  0  0  0
    7.9527    8.2367   24.0203 H   0  0  0  0  0  0  0  0  0  0  0  0
    7.3815   15.4594   19.9017 H   0  0  0  0  0  0  0  0  0  0  0  0
    7.1166   17.0556   20.6292 H   0  0  0  0  0  0  0  0  0  0  0  0
    6.4388   15.6071   21.3974 H   0  0  0  0  0  0  0  0  0  0  0  0
   12.2062   16.3511   19.9291 H   0  0  0  0  0  0  0  0  0  0  0  0
   13.0131   16.8393   21.4317 H   0  0  0  0  0  0  0  0  0  0  0  0
   11.8652   17.9388   20.6436 H   0  0  0  0  0  0  0  0  0  0  0  0
    9.7917   15.9141   20.0241 H   0  0  0  0  0  0  0  0  0  0  0  0
  1  2  2  0  0  0  0
  1  4  1  0  0  0  0
  1 17  1  0  0  0  0
  2  9  1  0  0  0  0
  2 13  1  0  0  0  0
  3 10  1  0  0  0  0
  3 13  2  0  0  0  0
  3 17  1  0  0  0  0
  4 15  1  0  0  0  0
  4 16  2  0  0  0  0
  5  7  1  0  0  0  0
  5 15  1  0  0  0  0
  6  8  1  0  0  0  0
  6 15  1  0  0  0  0
  7 11  1  0  0  0  0
  7 14  1  0  0  0  0
  8 12  1  0  0  0  0
  8 14  1  0  0  0  0
  5 18  1  0  0  0  0
  5 19  1  0  0  0  0
  6 20  1  0  0  0  0
  6 21  1  0  0  0  0
  7 22  1  0  0  0  0
  8 23  1  0  0  0  0
  9 24  1  0  0  0  0
  9 25  1  0  0  0  0
  9 26  1  0  0  0  0
 10 27  1  0  0  0  0
 10 28  1  0  0  0  0
 10 29  1  0  0  0  0
 11 30  1  0  0  0  0
 11 31  1  0  0  0  0
 11 32  1  0  0  0  0
 12 33  1  0  0  0  0
 12 34  1  0  0  0  0
 12 35  1  0  0  0  0
 14 36  1  0  0  0  0
M  END
> <Catalog ID>
Z2242852043

> <PlateID>
1337959-R-14

> <Well>
H04

> <MW (desalted)>
237.298

> <CLogP>
0.409

> <HBD>
1

> <TPSA>
58.370

> <RotBonds>
1

> <ROCS_ShapeQuery>
A71EV2A-x0451_0A_A71EV2A-x0310_0A_A71EV2A-x0416_0A_peptide

> <ROCS_TanimotoCombo>
0.413 

> <ROCS_ShapeTanimoto>
0.252 

> <ROCS_ColorTanimoto>
0.162 

> <ROCS_RefTversky>
0.232 

> <ROCS_RefColorTversky>
0.173 

> <ROCS_RefTverskyCombo>
0.405 

> <ROCS_FitTversky>
1.492 

> <ROCS_FitColorTversky>
0.721 

> <ROCS_FitTverskyCombo>
2.213 

> <ROCS_ColorScore>
-5.252

> <ROCS_Overlap>
1611.004

> <ROCS_Rank>
311                 

$$$$
untitled-dbase-941_240
  -OEChem-11112309163D

 35 37  0     1  0  0  0  0  0999 V2000
    7.5437   11.7683   24.5910 C   0  0  0  0  0  0  0  0  0  0  0  0
    8.5570   12.5760   24.0747 C   0  0  0  0  0  0  0  0  0  0  0  0
    7.6906   10.3812   24.5937 C   0  0  0  0  0  0  0  0  0  0  0  0
    9.8641   10.6094   23.5637 C   0  0  0  0  0  0  0  0  0  0  0  0
    9.7172   11.9965   23.5610 C   0  0  0  0  0  0  0  0  0  0  0  0
    8.8508    9.8017   24.0800 C   0  0  0  0  0  0  0  0  0  0  0  0
   10.9096   14.2080   23.6352 C   0  0  0  0  0  0  0  0  0  0  0  0
   11.1268   12.7546   21.5409 C   0  0  0  0  0  0  0  0  0  0  0  0
   12.0798   12.2063   22.5529 C   0  0  0  0  0  0  0  0  0  0  0  0
   11.7625   13.7635   27.2279 C   0  0  0  0  0  0  0  0  0  0  0  0
   11.3779   13.1324   25.8950 C   0  0  0  0  0  0  0  0  0  0  0  0
   11.2104   15.5269   25.7209 C   0  0  0  0  0  0  0  0  0  0  0  0
   11.0994   15.1428   27.1948 C   0  0  1  0  0  0  0  0  0  0  0  0
   10.7924   12.8542   23.0132 C   0  0  0  0  0  0  0  0  0  0  0  0
   11.1678   14.2627   24.9963 N   0  0  0  0  0  0  0  0  0  0  0  0
    9.6960   15.0576   27.5932 N   0  0  0  0  0  0  0  0  0  0  0  0
   10.7398   15.1934   22.9218 O   0  0  0  0  0  0  0  0  0  0  0  0
    9.0314    8.0902   24.0836 Cl  0  0  0  0  0  0  0  0  0  0  0  0
    6.6404   12.2195   24.9910 H   0  0  0  0  0  0  0  0  0  0  0  0
    8.4329   13.6557   24.0772 H   0  0  0  0  0  0  0  0  0  0  0  0
    6.8928    9.7644   24.9994 H   0  0  0  0  0  0  0  0  0  0  0  0
   10.7706   10.1618   23.1621 H   0  0  0  0  0  0  0  0  0  0  0  0
   11.4220   13.6498   21.0054 H   0  0  0  0  0  0  0  0  0  0  0  0
   10.5732   12.0459   20.9355 H   0  0  0  0  0  0  0  0  0  0  0  0
   12.1679   11.1284   22.6282 H   0  0  0  0  0  0  0  0  0  0  0  0
   13.0164   12.7324   22.6987 H   0  0  0  0  0  0  0  0  0  0  0  0
   11.3640   13.1528   28.0555 H   0  0  0  0  0  0  0  0  0  0  0  0
   12.8530   13.8267   27.3592 H   0  0  0  0  0  0  0  0  0  0  0  0
   12.1979   12.5290   25.4890 H   0  0  0  0  0  0  0  0  0  0  0  0
   10.4778   12.5134   25.9639 H   0  0  0  0  0  0  0  0  0  0  0  0
   10.3559   16.1272   25.3761 H   0  0  0  0  0  0  0  0  0  0  0  0
   12.1307   16.0786   25.4868 H   0  0  0  0  0  0  0  0  0  0  0  0
   11.6179   15.8347   27.8136 H   0  0  0  0  0  0  0  0  0  0  0  0
    9.1288   15.3240   26.8204 H   0  0  0  0  0  0  0  0  0  0  0  0
    9.4976   14.1197   27.8597 H   0  0  0  0  0  0  0  0  0  0  0  0
  1  2  1  0  0  0  0
  1  3  2  0  0  0  0
  2  5  2  0  0  0  0
  3  6  1  0  0  0  0
  4  5  1  0  0  0  0
  4  6  2  0  0  0  0
  5 14  1  0  0  0  0
  6 18  1  0  0  0  0
  7 14  1  0  0  0  0
  7 15  1  0  0  0  0
  7 17  2  0  0  0  0
  8  9  1  0  0  0  0
  8 14  1  0  0  0  0
  9 14  1  0  0  0  0
 10 11  1  0  0  0  0
 10 13  1  0  0  0  0
 11 15  1  0  0  0  0
 12 13  1  0  0  0  0
 12 15  1  0  0  0  0
 13 16  1  1  0  0  0
  1 19  1  0  0  0  0
  2 20  1  0  0  0  0
  3 21  1  0  0  0  0
  4 22  1  0  0  0  0
  8 23  1  0  0  0  0
  8 24  1  0  0  0  0
  9 25  1  0  0  0  0
  9 26  1  0  0  0  0
 10 27  1  0  0  0  0
 10 28  1  0  0  0  0
 11 29  1  0  0  0  0
 11 30  1  0  0  0  0
 12 31  1  0  0  0  0
 12 32  1  0  0  0  0
 13 33  1  0  0  0  0
 16 34  1  0  0  0  0
 16 35  1  0  0  0  0
M  END
> <Catalog ID>
Z2242924759

> <PlateID>
1337959-R-12

> <Well>
G05

> <MW (desalted)>
264.751

> <CLogP>
1.781

> <HBD>
1

> <TPSA>
46.330

> <RotBonds>
2

> <ROCS_ShapeQuery>
A71EV2A-x0451_0A_A71EV2A-x0310_0A_A71EV2A-x0416_0A_peptide

> <ROCS_TanimotoCombo>
0.413 

> <ROCS_ShapeTanimoto>
0.274 

> <ROCS_ColorTanimoto>
0.139 

> <ROCS_RefTversky>
0.250 

> <ROCS_RefColorTversky>
0.148 

> <ROCS_RefTverskyCombo>
0.398 

> <ROCS_FitTversky>
1.549 

> <ROCS_FitColorTversky>
0.709 

> <ROCS_FitTverskyCombo>
2.258 

> <ROCS_ColorScore>
-4.491

> <ROCS_Overlap>
1731.876

> <ROCS_Rank>
312                 

$$$$
untitled-dbase-848_102
  -OEChem-11112309163D

 27 28  0     0  0  0  0  0  0999 V2000
    7.8198   11.9111   24.2644 C   0  0  0  0  0  0  0  0  0  0  0  0
    7.7253   10.5346   24.4694 C   0  0  0  0  0  0  0  0  0  0  0  0
   13.2732   15.3453   19.9944 C   0  0  0  0  0  0  0  0  0  0  0  0
    8.9806   12.4564   23.7159 C   0  0  0  0  0  0  0  0  0  0  0  0
    8.7916    9.7035   24.1261 C   0  0  0  0  0  0  0  0  0  0  0  0
   12.1903   16.0747   19.5037 C   0  0  0  0  0  0  0  0  0  0  0  0
   13.1480   14.6244   21.1820 C   0  0  0  0  0  0  0  0  0  0  0  0
   10.8568   15.3626   21.3884 C   0  0  0  0  0  0  0  0  0  0  0  0
   10.0469   11.6253   23.3725 C   0  0  0  0  0  0  0  0  0  0  0  0
   10.9821   16.0834   20.2007 C   0  0  0  0  0  0  0  0  0  0  0  0
    9.9524   10.2488   23.5776 C   0  0  0  0  0  0  0  0  0  0  0  0
   11.9398   14.6331   21.8790 C   0  0  0  0  0  0  0  0  0  0  0  0
   11.2340   12.1863   22.8115 N   0  0  0  0  0  0  0  0  0  0  0  0
   10.7159   14.3425   24.1469 O   0  0  0  0  0  0  0  0  0  0  0  0
   13.1023   13.5861   23.9659 O   0  0  0  0  0  0  0  0  0  0  0  0
    9.9424   16.7842   19.7294 F   0  0  0  0  0  0  0  0  0  0  0  0
   10.9716    9.4411   23.2517 F   0  0  0  0  0  0  0  0  0  0  0  0
   11.7800   13.7164   23.3845 S   0  0  0  0  0  0  0  0  0  0  0  0
    6.9894   12.5582   24.5312 H   0  0  0  0  0  0  0  0  0  0  0  0
    6.8214   10.1105   24.8969 H   0  0  0  0  0  0  0  0  0  0  0  0
   14.2138   15.3391   19.4514 H   0  0  0  0  0  0  0  0  0  0  0  0
    9.0433   13.5302   23.5590 H   0  0  0  0  0  0  0  0  0  0  0  0
    8.7184    8.6320   24.2866 H   0  0  0  0  0  0  0  0  0  0  0  0
   12.2877   16.6362   18.5791 H   0  0  0  0  0  0  0  0  0  0  0  0
   13.9979   14.0589   21.5547 H   0  0  0  0  0  0  0  0  0  0  0  0
    9.9107   15.3772   21.9229 H   0  0  0  0  0  0  0  0  0  0  0  0
   11.9779   11.5069   22.5839 H   0  0  0  0  0  0  0  0  0  0  0  0
  1  2  2  0  0  0  0
  1  4  1  0  0  0  0
  2  5  1  0  0  0  0
  3  6  1  0  0  0  0
  3  7  2  0  0  0  0
  4  9  2  0  0  0  0
  5 11  2  0  0  0  0
  6 10  2  0  0  0  0
  7 12  1  0  0  0  0
  8 10  1  0  0  0  0
  8 12  2  0  0  0  0
  9 11  1  0  0  0  0
  9 13  1  0  0  0  0
 10 16  1  0  0  0  0
 11 17  1  0  0  0  0
 12 18  1  0  0  0  0
 13 18  1  0  0  0  0
 14 18  2  0  0  0  0
 15 18  2  0  0  0  0
  1 19  1  0  0  0  0
  2 20  1  0  0  0  0
  3 21  1  0  0  0  0
  4 22  1  0  0  0  0
  5 23  1  0  0  0  0
  6 24  1  0  0  0  0
  7 25  1  0  0  0  0
  8 26  1  0  0  0  0
 13 27  1  0  0  0  0
M  END
> <Catalog ID>
Z45639791

> <PlateID>
1337959-R-11

> <Well>
F02

> <MW (desalted)>
269.267

> <CLogP>
2.787

> <HBD>
1

> <TPSA>
46.170

> <RotBonds>
2

> <ROCS_ShapeQuery>
A71EV2A-x0451_0A_A71EV2A-x0310_0A_A71EV2A-x0416_0A_peptide

> <ROCS_TanimotoCombo>
0.413 

> <ROCS_ShapeTanimoto>
0.289 

> <ROCS_ColorTanimoto>
0.124 

> <ROCS_RefTversky>
0.260 

> <ROCS_RefColorTversky>
0.134 

> <ROCS_RefTverskyCombo>
0.394 

> <ROCS_FitTversky>
1.623 

> <ROCS_FitColorTversky>
0.640 

> <ROCS_FitTverskyCombo>
2.263 

> <ROCS_ColorScore>
-4.057

> <ROCS_Overlap>
1803.471

> <ROCS_Rank>
313                 

$$$$
untitled-dbase-590_123
  -OEChem-11112309163D

 27 28  0     0  0  0  0  0  0999 V2000
    7.8856   11.5629   24.8257 C   0  0  0  0  0  0  0  0  0  0  0  0
    7.8543   10.1785   24.6581 C   0  0  0  0  0  0  0  0  0  0  0  0
    8.8117   12.3302   24.1190 C   0  0  0  0  0  0  0  0  0  0  0  0
    8.7491    9.5614   23.7839 C   0  0  0  0  0  0  0  0  0  0  0  0
   11.9724   15.9007   21.3941 C   0  0  0  0  0  0  0  0  0  0  0  0
    9.7064   11.7131   23.2448 C   0  0  0  0  0  0  0  0  0  0  0  0
    9.6752   10.3287   23.0773 C   0  0  0  0  0  0  0  0  0  0  0  0
   11.0357   15.1581   22.1378 C   0  0  0  0  0  0  0  0  0  0  0  0
    9.8167   15.6636   21.7571 C   0  0  0  0  0  0  0  0  0  0  0  0
    8.4388   15.3302   22.1557 C   0  0  0  0  0  0  0  0  0  0  0  0
   11.3977   16.8087   20.6008 N   0  0  0  0  0  0  0  0  0  0  0  0
   10.0867   16.6399   20.8438 N   0  0  0  0  0  0  0  0  0  0  0  0
   10.6533   12.5011   22.5230 N   0  0  0  0  0  0  0  0  0  0  0  0
   10.6040   14.1737   24.4980 O   0  0  0  0  0  0  0  0  0  0  0  0
   12.8013   13.6968   23.3828 O   0  0  0  0  0  0  0  0  0  0  0  0
   10.5310    9.7255   22.2400 F   0  0  0  0  0  0  0  0  0  0  0  0
   11.3631   13.8646   23.3006 S   0  0  0  0  0  0  0  0  0  0  0  0
    7.1886   12.0435   25.5060 H   0  0  0  0  0  0  0  0  0  0  0  0
    7.1334    9.5814   25.2089 H   0  0  0  0  0  0  0  0  0  0  0  0
    8.8266   13.4084   24.2560 H   0  0  0  0  0  0  0  0  0  0  0  0
    8.7254    8.4835   23.6541 H   0  0  0  0  0  0  0  0  0  0  0  0
   13.0501   15.8199   21.3952 H   0  0  0  0  0  0  0  0  0  0  0  0
    8.1150   15.9332   23.0214 H   0  0  0  0  0  0  0  0  0  0  0  0
    7.7147   15.5046   21.3399 H   0  0  0  0  0  0  0  0  0  0  0  0
    8.3305   14.2662   22.4328 H   0  0  0  0  0  0  0  0  0  0  0  0
    9.4292   17.2293   20.3484 H   0  0  0  0  0  0  0  0  0  0  0  0
   11.2809   11.9717   21.8962 H   0  0  0  0  0  0  0  0  0  0  0  0
  1  2  2  0  0  0  0
  1  3  1  0  0  0  0
  2  4  1  0  0  0  0
  3  6  2  0  0  0  0
  4  7  2  0  0  0  0
  5  8  1  0  0  0  0
  5 11  2  0  0  0  0
  6  7  1  0  0  0  0
  6 13  1  0  0  0  0
  7 16  1  0  0  0  0
  8  9  2  0  0  0  0
  8 17  1  0  0  0  0
  9 10  1  0  0  0  0
  9 12  1  0  0  0  0
 11 12  1  0  0  0  0
 13 17  1  0  0  0  0
 14 17  2  0  0  0  0
 15 17  2  0  0  0  0
  1 18  1  0  0  0  0
  2 19  1  0  0  0  0
  3 20  1  0  0  0  0
  4 21  1  0  0  0  0
  5 22  1  0  0  0  0
 10 23  1  0  0  0  0
 10 24  1  0  0  0  0
 10 25  1  0  0  0  0
 12 26  1  0  0  0  0
 13 27  1  0  0  0  0
M  END
> <Catalog ID>
Z600617644

> <PlateID>
1337959-R-08

> <Well>
D02

> <MW (desalted)>
255.269

> <CLogP>
1.908

> <HBD>
2

> <TPSA>
74.850

> <RotBonds>
2

> <ROCS_ShapeQuery>
A71EV2A-x0451_0A_A71EV2A-x0310_0A_A71EV2A-x0416_0A_peptide

> <ROCS_TanimotoCombo>
0.413 

> <ROCS_ShapeTanimoto>
0.277 

> <ROCS_ColorTanimoto>
0.136 

> <ROCS_RefTversky>
0.251 

> <ROCS_RefColorTversky>
0.152 

> <ROCS_RefTverskyCombo>
0.402 

> <ROCS_FitTversky>
1.619 

> <ROCS_FitColorTversky>
0.561 

> <ROCS_FitTverskyCombo>
2.180 

> <ROCS_ColorScore>
-4.622

> <ROCS_Overlap>
1738.297

> <ROCS_Rank>
314                 

$$$$
untitled-dbase-1134_145
  -OEChem-11112309163D

 32 33  0     1  0  0  0  0  0999 V2000
   10.5791   11.9458   22.7667 C   0  0  0  0  0  0  0  0  0  0  0  0
   10.6852   14.4257   23.3066 C   0  0  0  0  0  0  0  0  0  0  0  0
    7.1393   11.2166   23.3928 C   0  0  0  0  0  0  0  0  0  0  0  0
    7.2006   10.1375   24.4750 C   0  0  0  0  0  0  0  0  0  0  0  0
   11.2176   13.6290   20.9414 C   0  0  0  0  0  0  0  0  0  0  0  0
    9.7275   13.6646   21.0666 C   0  0  0  0  0  0  0  0  0  0  0  0
    8.2573   12.2395   23.5687 C   0  0  0  0  0  0  0  0  0  0  0  0
    9.6783   10.5745   24.7117 C   0  0  0  0  0  0  0  0  0  0  0  0
    8.5928    9.4945   24.5864 C   0  0  2  0  0  0  0  0  0  0  0  0
   10.5735   13.3742   22.2836 C   0  0  0  0  0  0  0  0  0  0  0  0
    8.8797    8.5571   23.4098 C   0  0  0  0  0  0  0  0  0  0  0  0
    9.5615   11.5801   23.6471 N   0  0  0  0  0  0  0  0  0  0  0  0
   11.4631   11.1801   22.3740 O   0  0  0  0  0  0  0  0  0  0  0  0
   10.6957   15.6266   23.0805 O   0  0  0  0  0  0  0  0  0  0  0  0
   10.7785   13.8814   24.5445 O   0  0  0  0  0  0  0  0  0  0  0  0
    7.9480    7.5935   23.3519 F   0  0  0  0  0  0  0  0  0  0  0  0
    8.8646    9.2461   22.2588 F   0  0  0  0  0  0  0  0  0  0  0  0
   10.0851    7.9873   23.5594 F   0  0  0  0  0  0  0  0  0  0  0  0
    7.2164   10.7502   22.4042 H   0  0  0  0  0  0  0  0  0  0  0  0
    6.1674   11.7238   23.4334 H   0  0  0  0  0  0  0  0  0  0  0  0
    6.9112   10.5767   25.4439 H   0  0  0  0  0  0  0  0  0  0  0  0
    6.4471    9.3618   24.2535 H   0  0  0  0  0  0  0  0  0  0  0  0
   11.6573   12.7986   20.4011 H   0  0  0  0  0  0  0  0  0  0  0  0
   11.7325   14.5709   20.7921 H   0  0  0  0  0  0  0  0  0  0  0  0
    9.2401   14.6305   21.0013 H   0  0  0  0  0  0  0  0  0  0  0  0
    9.1650   12.8582   20.6104 H   0  0  0  0  0  0  0  0  0  0  0  0
    8.2879   12.9261   22.7137 H   0  0  0  0  0  0  0  0  0  0  0  0
    8.0712   12.8419   24.4642 H   0  0  0  0  0  0  0  0  0  0  0  0
    9.6271   11.0349   25.7043 H   0  0  0  0  0  0  0  0  0  0  0  0
   10.6809   10.1303   24.6228 H   0  0  0  0  0  0  0  0  0  0  0  0
    8.6158    8.8834   25.5114 H   0  0  0  0  0  0  0  0  0  0  0  0
   10.8558   14.5673   25.2415 H   0  0  0  0  0  0  0  0  0  0  0  0
  1 10  1  0  0  0  0
  1 12  1  0  0  0  0
  1 13  2  0  0  0  0
  2 10  1  0  0  0  0
  2 14  2  0  0  0  0
  2 15  1  0  0  0  0
  3  4  1  0  0  0  0
  3  7  1  0  0  0  0
  4  9  1  0  0  0  0
  5  6  1  0  0  0  0
  5 10  1  0  0  0  0
  6 10  1  0  0  0  0
  7 12  1  0  0  0  0
  8  9  1  0  0  0  0
  8 12  1  0  0  0  0
  9 11  1  0  0  0  0
 11 16  1  0  0  0  0
 11 17  1  0  0  0  0
 11 18  1  0  0  0  0
  3 19  1  0  0  0  0
  3 20  1  0  0  0  0
  4 21  1  0  0  0  0
  4 22  1  0  0  0  0
  5 23  1  0  0  0  0
  5 24  1  0  0  0  0
  6 25  1  0  0  0  0
  6 26  1  0  0  0  0
  7 27  1  0  0  0  0
  7 28  1  0  0  0  0
  8 29  1  0  0  0  0
  8 30  1  0  0  0  0
  9 31  1  0  0  0  0
 15 32  1  0  0  0  0
M  END
> <Catalog ID>
Z1263869841

> <PlateID>
1337959-R-15

> <Well>
B10

> <MW (desalted)>
265.229

> <CLogP>
0.922

> <HBD>
1

> <TPSA>
57.610

> <RotBonds>
3

> <ROCS_ShapeQuery>
A71EV2A-x0451_0A_A71EV2A-x0310_0A_A71EV2A-x0416_0A_peptide

> <ROCS_TanimotoCombo>
0.413 

> <ROCS_ShapeTanimoto>
0.288 

> <ROCS_ColorTanimoto>
0.125 

> <ROCS_RefTversky>
0.260 

> <ROCS_RefColorTversky>
0.135 

> <ROCS_RefTverskyCombo>
0.394 

> <ROCS_FitTversky>
1.602 

> <ROCS_FitColorTversky>
0.644 

> <ROCS_FitTverskyCombo>
2.246 

> <ROCS_ColorScore>
-4.088

> <ROCS_Overlap>
1799.961

> <ROCS_Rank>
315                 

$$$$
untitled-dbase-716_27
  -OEChem-11112309163D

 36 37  0     1  0  0  0  0  0999 V2000
    8.9116   11.6669   23.7587 C   0  0  0  0  0  0  0  0  0  0  0  0
    7.6853   11.9791   24.3705 C   0  0  0  0  0  0  0  0  0  0  0  0
    9.0696   10.3297   24.0095 C   0  0  0  0  0  0  0  0  0  0  0  0
   13.4058   13.0305   23.7434 C   0  0  0  0  0  0  0  0  0  0  0  0
   11.8185   15.7512   23.3213 C   0  0  0  0  0  0  0  0  0  0  0  0
   10.5828   15.3943   24.1366 C   0  0  0  0  0  0  0  0  0  0  0  0
   12.1429   14.6539   22.3104 C   0  0  0  0  0  0  0  0  0  0  0  0
   10.7163   14.0047   24.7600 C   0  0  0  0  0  0  0  0  0  0  0  0
   12.1627   13.2516   22.9305 C   0  0  2  0  0  0  0  0  0  0  0  0
    7.0031   13.2832   24.4235 C   0  0  0  0  0  0  0  0  0  0  0  0
   10.1068    9.3450   23.6751 C   0  0  0  0  0  0  0  0  0  0  0  0
    9.8358   12.5799   23.0059 C   0  0  0  0  0  0  0  0  0  0  0  0
    7.1255   10.9167   24.9559 N   0  0  0  0  0  0  0  0  0  0  0  0
   11.0160   12.9364   23.7948 N   0  0  2  0  0  0  0  0  0  0  0  0
   13.5067   11.7640   24.2689 N   0  0  0  0  0  0  0  0  0  0  0  0
   14.2501   13.9096   23.8973 O   0  0  0  0  0  0  0  0  0  0  0  0
    8.0101    9.8704   24.7233 O   0  0  0  0  0  0  0  0  0  0  0  0
   11.6506   16.7006   22.7907 H   0  0  0  0  0  0  0  0  0  0  0  0
   12.6773   15.9111   23.9886 H   0  0  0  0  0  0  0  0  0  0  0  0
   10.4339   16.1412   24.9272 H   0  0  0  0  0  0  0  0  0  0  0  0
    9.6948   15.4277   23.4945 H   0  0  0  0  0  0  0  0  0  0  0  0
   11.4093   14.6897   21.4872 H   0  0  0  0  0  0  0  0  0  0  0  0
   13.1183   14.8782   21.8425 H   0  0  0  0  0  0  0  0  0  0  0  0
   11.5217   14.0536   25.5173 H   0  0  0  0  0  0  0  0  0  0  0  0
    9.7886   13.7706   25.3196 H   0  0  0  0  0  0  0  0  0  0  0  0
   12.1970   12.4864   22.0911 H   0  0  0  0  0  0  0  0  0  0  0  0
    6.3246   13.4157   23.5634 H   0  0  0  0  0  0  0  0  0  0  0  0
    6.4017   13.4023   25.3425 H   0  0  0  0  0  0  0  0  0  0  0  0
    7.7158   14.1273   24.4178 H   0  0  0  0  0  0  0  0  0  0  0  0
   10.8855    9.2960   24.4575 H   0  0  0  0  0  0  0  0  0  0  0  0
    9.6962    8.3249   23.5555 H   0  0  0  0  0  0  0  0  0  0  0  0
   10.6145    9.5761   22.7197 H   0  0  0  0  0  0  0  0  0  0  0  0
   10.1794   12.1043   22.0809 H   0  0  0  0  0  0  0  0  0  0  0  0
    9.3279   13.5085   22.7249 H   0  0  0  0  0  0  0  0  0  0  0  0
   14.3190   11.5336   24.8317 H   0  0  0  0  0  0  0  0  0  0  0  0
   12.8014   11.0504   24.1165 H   0  0  0  0  0  0  0  0  0  0  0  0
  1  2  1  0  0  0  0
  1  3  2  0  0  0  0
  1 12  1  0  0  0  0
  2 10  1  0  0  0  0
  2 13  2  0  0  0  0
  3 11  1  0  0  0  0
  3 17  1  0  0  0  0
  4  9  1  0  0  0  0
  4 15  1  0  0  0  0
  4 16  2  0  0  0  0
  5  6  1  0  0  0  0
  5  7  1  0  0  0  0
  6  8  1  0  0  0  0
  7  9  1  0  0  0  0
  8 14  1  0  0  0  0
  9 14  1  0  0  0  0
 12 14  1  0  0  0  0
 13 17  1  0  0  0  0
  5 18  1  0  0  0  0
  5 19  1  0  0  0  0
  6 20  1  0  0  0  0
  6 21  1  0  0  0  0
  7 22  1  0  0  0  0
  7 23  1  0  0  0  0
  8 24  1  0  0  0  0
  8 25  1  0  0  0  0
  9 26  1  0  0  0  0
 10 27  1  0  0  0  0
 10 28  1  0  0  0  0
 10 29  1  0  0  0  0
 11 30  1  0  0  0  0
 11 31  1  0  0  0  0
 11 32  1  0  0  0  0
 12 33  1  0  0  0  0
 12 34  1  0  0  0  0
 15 35  1  0  0  0  0
 15 36  1  0  0  0  0
M  END
> <Catalog ID>
Z103866266

> <PlateID>
1337959-R-09

> <Well>
H09

> <MW (desalted)>
237.298

> <CLogP>
0.419

> <HBD>
1

> <TPSA>
72.360

> <RotBonds>
3

> <ROCS_ShapeQuery>
A71EV2A-x0451_0A_A71EV2A-x0310_0A_A71EV2A-x0416_0A_peptide

> <ROCS_TanimotoCombo>
0.412 

> <ROCS_ShapeTanimoto>
0.292 

> <ROCS_ColorTanimoto>
0.120 

> <ROCS_RefTversky>
0.261 

> <ROCS_RefColorTversky>
0.133 

> <ROCS_RefTverskyCombo>
0.394 

> <ROCS_FitTversky>
1.688 

> <ROCS_FitColorTversky>
0.554 

> <ROCS_FitTverskyCombo>
2.242 

> <ROCS_ColorScore>
-4.039

> <ROCS_Overlap>
1810.785

> <ROCS_Rank>
316                 

$$$$
untitled-dbase-650_70
  -OEChem-11112309163D

 31 32  0     1  0  0  0  0  0999 V2000
   12.0615   15.5012   19.8744 C   0  0  0  0  0  0  0  0  0  0  0  0
   12.2434   15.9706   21.1752 C   0  0  0  0  0  0  0  0  0  0  0  0
   11.2086   13.4156   20.7463 C   0  0  0  0  0  0  0  0  0  0  0  0
   11.5440   14.2237   19.6599 C   0  0  0  0  0  0  0  0  0  0  0  0
   11.9080   15.1626   22.2616 C   0  0  0  0  0  0  0  0  0  0  0  0
   11.3906   13.8850   22.0472 C   0  0  0  0  0  0  0  0  0  0  0  0
    8.1286   10.9857   24.4241 C   0  0  0  0  0  0  0  0  0  0  0  0
    8.3745   12.0368   23.3746 C   0  0  0  0  0  0  0  0  0  0  0  0
   10.0492    9.6650   23.5053 C   0  0  0  0  0  0  0  0  0  0  0  0
   10.0080   10.5653   22.2891 C   0  0  0  0  0  0  0  0  0  0  0  0
   11.3498   13.7219   18.2691 C   0  0  0  0  0  0  0  0  0  0  0  0
    8.8853    9.8366   24.3528 N   0  0  0  0  0  0  0  0  0  0  0  0
    9.6999   11.9464   22.7308 N   0  0  2  0  0  0  0  0  0  0  0  0
    7.2326   11.1323   25.2579 O   0  0  0  0  0  0  0  0  0  0  0  0
   12.0926   11.9821   23.6779 O   0  0  0  0  0  0  0  0  0  0  0  0
   10.4287   13.7043   24.4610 O   0  0  0  0  0  0  0  0  0  0  0  0
   12.0892   15.6235   23.5072 F   0  0  0  0  0  0  0  0  0  0  0  0
   10.9689   12.8570   23.4191 S   0  0  0  0  0  0  0  0  0  0  0  0
   12.3258   16.1378   19.0341 H   0  0  0  0  0  0  0  0  0  0  0  0
   12.6467   16.9651   21.3419 H   0  0  0  0  0  0  0  0  0  0  0  0
   10.8066   12.4196   20.5773 H   0  0  0  0  0  0  0  0  0  0  0  0
    7.5876   11.9427   22.6172 H   0  0  0  0  0  0  0  0  0  0  0  0
    8.2869   13.0146   23.8621 H   0  0  0  0  0  0  0  0  0  0  0  0
   10.1002    8.6104   23.2127 H   0  0  0  0  0  0  0  0  0  0  0  0
   10.9256    9.8879   24.1266 H   0  0  0  0  0  0  0  0  0  0  0  0
   10.9885   10.5401   21.7875 H   0  0  0  0  0  0  0  0  0  0  0  0
    9.2533   10.2214   21.5621 H   0  0  0  0  0  0  0  0  0  0  0  0
   12.2527   13.2064   17.9194 H   0  0  0  0  0  0  0  0  0  0  0  0
   10.5057   13.0224   18.2119 H   0  0  0  0  0  0  0  0  0  0  0  0
   11.1282   14.5441   17.5761 H   0  0  0  0  0  0  0  0  0  0  0  0
    8.6072    9.0509   24.9373 H   0  0  0  0  0  0  0  0  0  0  0  0
  1  2  1  0  0  0  0
  1  4  2  0  0  0  0
  2  5  2  0  0  0  0
  3  4  1  0  0  0  0
  3  6  2  0  0  0  0
  4 11  1  0  0  0  0
  5  6  1  0  0  0  0
  5 17  1  0  0  0  0
  6 18  1  0  0  0  0
  7  8  1  0  0  0  0
  7 12  1  0  0  0  0
  7 14  2  0  0  0  0
  8 13  1  0  0  0  0
  9 10  1  0  0  0  0
  9 12  1  0  0  0  0
 10 13  1  0  0  0  0
 13 18  1  0  0  0  0
 15 18  2  0  0  0  0
 16 18  2  0  0  0  0
  1 19  1  0  0  0  0
  2 20  1  0  0  0  0
  3 21  1  0  0  0  0
  8 22  1  0  0  0  0
  8 23  1  0  0  0  0
  9 24  1  0  0  0  0
  9 25  1  0  0  0  0
 10 26  1  0  0  0  0
 10 27  1  0  0  0  0
 11 28  1  0  0  0  0
 11 29  1  0  0  0  0
 11 30  1  0  0  0  0
 12 31  1  0  0  0  0
M  END
> <Catalog ID>
Z408160318

> <PlateID>
1337959-R-09

> <Well>
B03

> <MW (desalted)>
272.296

> <CLogP>
1.589

> <HBD>
1

> <TPSA>
66.480

> <RotBonds>
1

> <ROCS_ShapeQuery>
A71EV2A-x0451_0A_A71EV2A-x0310_0A_A71EV2A-x0416_0A_peptide

> <ROCS_TanimotoCombo>
0.412 

> <ROCS_ShapeTanimoto>
0.286 

> <ROCS_ColorTanimoto>
0.126 

> <ROCS_RefTversky>
0.258 

> <ROCS_RefColorTversky>
0.139 

> <ROCS_RefTverskyCombo>
0.397 

> <ROCS_FitTversky>
1.616 

> <ROCS_FitColorTversky>
0.579 

> <ROCS_FitTverskyCombo>
2.195 

> <ROCS_ColorScore>
-4.222

> <ROCS_Overlap>
1789.213

> <ROCS_Rank>
317                 

$$$$
untitled-dbase-599_2
  -OEChem-11112309163D

 32 33  0     1  0  0  0  0  0999 V2000
    7.7021    9.7352   24.1382 C   0  0  0  0  0  0  0  0  0  0  0  0
    8.8474    9.6652   23.3452 C   0  0  0  0  0  0  0  0  0  0  0  0
    7.3690   10.9289   24.7785 C   0  0  0  0  0  0  0  0  0  0  0  0
    9.6597   10.7889   23.1924 C   0  0  0  0  0  0  0  0  0  0  0  0
    8.1812   12.0525   24.6258 C   0  0  0  0  0  0  0  0  0  0  0  0
    9.3266   11.9825   23.8327 C   0  0  0  0  0  0  0  0  0  0  0  0
   10.1835   13.1676   23.6717 C   0  0  0  0  0  0  0  0  0  0  0  0
   11.5544   15.7272   22.6277 C   0  0  0  0  0  0  0  0  0  0  0  0
    9.8568   14.5661   20.2585 C   0  0  0  0  0  0  0  0  0  0  0  0
   11.3715   14.5800   20.4374 C   0  0  0  0  0  0  0  0  0  0  0  0
    9.3972   13.5508   21.2889 C   0  0  0  0  0  0  0  0  0  0  0  0
   11.5685   14.3813   21.9502 C   0  0  1  0  0  0  0  0  0  0  0  0
   12.8758   13.6477   22.2377 C   0  0  0  0  0  0  0  0  0  0  0  0
   10.3634   13.6603   22.3820 N   0  0  0  0  0  0  0  0  0  0  0  0
   10.6657   13.6434   24.6972 O   0  0  0  0  0  0  0  0  0  0  0  0
   12.5386   16.4247   22.8236 O   0  0  0  0  0  0  0  0  0  0  0  0
   10.2945   16.0640   22.9971 O   0  0  0  0  0  0  0  0  0  0  0  0
    7.0697    8.8603   24.2571 H   0  0  0  0  0  0  0  0  0  0  0  0
    9.1068    8.7357   22.8469 H   0  0  0  0  0  0  0  0  0  0  0  0
    6.4770   10.9835   25.3957 H   0  0  0  0  0  0  0  0  0  0  0  0
   10.5499   10.7232   22.5721 H   0  0  0  0  0  0  0  0  0  0  0  0
    7.9120   12.9773   25.1295 H   0  0  0  0  0  0  0  0  0  0  0  0
    9.4386   15.5539   20.4842 H   0  0  0  0  0  0  0  0  0  0  0  0
    9.5627   14.2924   19.2412 H   0  0  0  0  0  0  0  0  0  0  0  0
   11.8084   13.7481   19.8707 H   0  0  0  0  0  0  0  0  0  0  0  0
   11.8030   15.5140   20.0619 H   0  0  0  0  0  0  0  0  0  0  0  0
    8.3781   13.7420   21.6372 H   0  0  0  0  0  0  0  0  0  0  0  0
    9.4553   12.5297   20.8956 H   0  0  0  0  0  0  0  0  0  0  0  0
   12.8720   12.6779   21.7425 H   0  0  0  0  0  0  0  0  0  0  0  0
   12.9880   13.4994   23.3106 H   0  0  0  0  0  0  0  0  0  0  0  0
   13.7168   14.2330   21.8689 H   0  0  0  0  0  0  0  0  0  0  0  0
    9.6435   15.3725   22.7515 H   0  0  0  0  0  0  0  0  0  0  0  0
  1  2  2  0  0  0  0
  1  3  1  0  0  0  0
  2  4  1  0  0  0  0
  3  5  2  0  0  0  0
  4  6  2  0  0  0  0
  5  6  1  0  0  0  0
  6  7  1  0  0  0  0
  7 14  1  0  0  0  0
  7 15  2  0  0  0  0
  8 12  1  0  0  0  0
  8 16  2  0  0  0  0
  8 17  1  0  0  0  0
  9 10  1  0  0  0  0
  9 11  1  0  0  0  0
 10 12  1  0  0  0  0
 11 14  1  0  0  0  0
 12 13  1  0  0  0  0
 12 14  1  0  0  0  0
  1 18  1  0  0  0  0
  2 19  1  0  0  0  0
  3 20  1  0  0  0  0
  4 21  1  0  0  0  0
  5 22  1  0  0  0  0
  9 23  1  0  0  0  0
  9 24  1  0  0  0  0
 10 25  1  0  0  0  0
 10 26  1  0  0  0  0
 11 27  1  0  0  0  0
 11 28  1  0  0  0  0
 13 29  1  0  0  0  0
 13 30  1  0  0  0  0
 13 31  1  0  0  0  0
 17 32  1  0  0  0  0
M  END
> <Catalog ID>
Z1147171478

> <PlateID>
1337959-R-08

> <Well>
D11

> <MW (desalted)>
233.263

> <CLogP>
1.682

> <HBD>
1

> <TPSA>
57.610

> <RotBonds>
2

> <ROCS_ShapeQuery>
A71EV2A-x0451_0A_A71EV2A-x0310_0A_A71EV2A-x0416_0A_peptide

> <ROCS_TanimotoCombo>
0.412 

> <ROCS_ShapeTanimoto>
0.283 

> <ROCS_ColorTanimoto>
0.129 

> <ROCS_RefTversky>
0.256 

> <ROCS_RefColorTversky>
0.141 

> <ROCS_RefTverskyCombo>
0.397 

> <ROCS_FitTversky>
1.624 

> <ROCS_FitColorTversky>
0.590 

> <ROCS_FitTverskyCombo>
2.214 

> <ROCS_ColorScore>
-4.303

> <ROCS_Overlap>
1771.812

> <ROCS_Rank>
318                 

$$$$
untitled-dbase-858_80
  -OEChem-11112309163D

 24 24  0     0  0  0  0  0  0999 V2000
    7.5981   10.0731   24.1129 C   0  0  0  0  0  0  0  0  0  0  0  0
    8.7254    9.7556   23.3553 C   0  0  0  0  0  0  0  0  0  0  0  0
    7.5123   11.3108   24.7506 C   0  0  0  0  0  0  0  0  0  0  0  0
    9.7670   10.6756   23.2354 C   0  0  0  0  0  0  0  0  0  0  0  0
    8.5539   12.2308   24.6307 C   0  0  0  0  0  0  0  0  0  0  0  0
    9.6812   11.9132   23.8731 C   0  0  0  0  0  0  0  0  0  0  0  0
   12.4072   15.6227   21.1521 C   0  0  0  0  0  0  0  0  0  0  0  0
   11.1583   15.3645   20.7480 C   0  0  0  0  0  0  0  0  0  0  0  0
   10.2429   14.4037   21.4334 C   0  0  0  0  0  0  0  0  0  0  0  0
   11.0482   13.3318   22.0360 N   0  0  0  0  0  0  0  0  0  0  0  0
   10.5912   14.3067   24.3764 O   0  0  0  0  0  0  0  0  0  0  0  0
   12.2143   12.4010   24.1352 O   0  0  0  0  0  0  0  0  0  0  0  0
   10.8455   10.3585   22.5054 F   0  0  0  0  0  0  0  0  0  0  0  0
    8.4593   13.4171   25.2474 F   0  0  0  0  0  0  0  0  0  0  0  0
   10.9852   13.0653   23.7229 S   0  0  0  0  0  0  0  0  0  0  0  0
    6.7876    9.3560   24.2052 H   0  0  0  0  0  0  0  0  0  0  0  0
    8.7936    8.7920   22.8594 H   0  0  0  0  0  0  0  0  0  0  0  0
    6.6344   11.5578   25.3400 H   0  0  0  0  0  0  0  0  0  0  0  0
   13.0212   16.3371   20.6147 H   0  0  0  0  0  0  0  0  0  0  0  0
   12.8370   15.1307   22.0177 H   0  0  0  0  0  0  0  0  0  0  0  0
   10.7747   15.8906   19.8773 H   0  0  0  0  0  0  0  0  0  0  0  0
    9.5557   13.9629   20.7046 H   0  0  0  0  0  0  0  0  0  0  0  0
    9.6489   14.8821   22.2185 H   0  0  0  0  0  0  0  0  0  0  0  0
   11.2841   12.5445   21.4196 H   0  0  0  0  0  0  0  0  0  0  0  0
  1  2  1  0  0  0  0
  1  3  2  0  0  0  0
  2  4  2  0  0  0  0
  3  5  1  0  0  0  0
  4  6  1  0  0  0  0
  4 13  1  0  0  0  0
  5  6  2  0  0  0  0
  5 14  1  0  0  0  0
  6 15  1  0  0  0  0
  7  8  2  0  0  0  0
  8  9  1  0  0  0  0
  9 10  1  0  0  0  0
 10 15  1  0  0  0  0
 11 15  2  0  0  0  0
 12 15  2  0  0  0  0
  1 16  1  0  0  0  0
  2 17  1  0  0  0  0
  3 18  1  0  0  0  0
  7 19  1  0  0  0  0
  7 20  1  0  0  0  0
  8 21  1  0  0  0  0
  9 22  1  0  0  0  0
  9 23  1  0  0  0  0
 10 24  1  0  0  0  0
M  END
> <Catalog ID>
Z45529979

> <PlateID>
1337959-R-11

> <Well>
G02

> <MW (desalted)>
233.235

> <CLogP>
2.389

> <HBD>
1

> <TPSA>
46.170

> <RotBonds>
3

> <ROCS_ShapeQuery>
A71EV2A-x0451_0A_A71EV2A-x0310_0A_A71EV2A-x0416_0A_peptide

> <ROCS_TanimotoCombo>
0.412 

> <ROCS_ShapeTanimoto>
0.278 

> <ROCS_ColorTanimoto>
0.134 

> <ROCS_RefTversky>
0.248 

> <ROCS_RefColorTversky>
0.142 

> <ROCS_RefTverskyCombo>
0.390 

> <ROCS_FitTversky>
1.781 

> <ROCS_FitColorTversky>
0.683 

> <ROCS_FitTverskyCombo>
2.464 

> <ROCS_ColorScore>
-4.327

> <ROCS_Overlap>
1716.806

> <ROCS_Rank>
319                 

$$$$
untitled-dbase-119_12
  -OEChem-11112309163D

 26 27  0     1  0  0  0  0  0999 V2000
   10.3726   11.2549   23.0735 C   0  0  0  0  0  0  0  0  0  0  0  0
    9.6896   10.0600   23.3012 C   0  0  0  0  0  0  0  0  0  0  0  0
    8.6792   12.4656   24.3034 C   0  0  0  0  0  0  0  0  0  0  0  0
    9.8653   12.4565   23.5690 C   0  0  0  0  0  0  0  0  0  0  0  0
    8.4958   10.0701   24.0231 C   0  0  0  0  0  0  0  0  0  0  0  0
    8.0025   11.2694   24.5429 C   0  0  0  0  0  0  0  0  0  0  0  0
    6.5078    9.0385   24.6305 C   0  0  0  0  0  0  0  0  0  0  0  0
    6.4424   10.0524   25.7561 C   0  0  0  0  0  0  0  0  0  0  0  0
   10.5900   13.7342   23.3095 C   0  0  1  0  0  0  0  0  0  0  0  0
   11.6107   14.0776   24.3962 C   0  0  0  0  0  0  0  0  0  0  0  0
   11.2292   13.7462   22.0050 N   0  0  0  0  0  0  0  0  0  0  0  0
    7.8596    8.8686   24.1952 O   0  0  0  0  0  0  0  0  0  0  0  0
    6.8544   11.3396   25.2877 O   0  0  0  0  0  0  0  0  0  0  0  0
   11.0144   14.2388   25.6003 F   0  0  0  0  0  0  0  0  0  0  0  0
   12.5183   13.0847   24.5315 F   0  0  0  0  0  0  0  0  0  0  0  0
   12.2815   15.2157   24.1191 F   0  0  0  0  0  0  0  0  0  0  0  0
   11.3028   11.2397   22.5115 H   0  0  0  0  0  0  0  0  0  0  0  0
   10.0986    9.1273   22.9225 H   0  0  0  0  0  0  0  0  0  0  0  0
    8.2774   13.4033   24.6797 H   0  0  0  0  0  0  0  0  0  0  0  0
    6.1144    8.0629   24.9417 H   0  0  0  0  0  0  0  0  0  0  0  0
    5.9226    9.3840   23.7727 H   0  0  0  0  0  0  0  0  0  0  0  0
    5.4283   10.1366   26.1662 H   0  0  0  0  0  0  0  0  0  0  0  0
    7.1159    9.7627   26.5685 H   0  0  0  0  0  0  0  0  0  0  0  0
    9.8753   14.5744   23.2647 H   0  0  0  0  0  0  0  0  0  0  0  0
   12.2068   13.8819   22.1308 H   0  0  0  0  0  0  0  0  0  0  0  0
   11.0565   12.8741   21.5585 H   0  0  0  0  0  0  0  0  0  0  0  0
  1  2  1  0  0  0  0
  1  4  2  0  0  0  0
  2  5  2  0  0  0  0
  3  4  1  0  0  0  0
  3  6  2  0  0  0  0
  4  9  1  0  0  0  0
  5  6  1  0  0  0  0
  5 12  1  0  0  0  0
  6 13  1  0  0  0  0
  7  8  1  0  0  0  0
  7 12  1  0  0  0  0
  8 13  1  0  0  0  0
  9 10  1  0  0  0  0
  9 11  1  0  0  0  0
 10 14  1  0  0  0  0
 10 15  1  0  0  0  0
 10 16  1  0  0  0  0
  1 17  1  0  0  0  0
  2 18  1  0  0  0  0
  3 19  1  0  0  0  0
  7 20  1  0  0  0  0
  7 21  1  0  0  0  0
  8 22  1  0  0  0  0
  8 23  1  0  0  0  0
  9 24  1  0  0  0  0
 11 25  1  0  0  0  0
 11 26  1  0  0  0  0
M  END
> <Catalog ID>
Z104346714

> <PlateID>
1337959-R-02

> <Well>
D10

> <MW (desalted)>
233.187

> <CLogP>
1.791

> <HBD>
1

> <TPSA>
44.480

> <RotBonds>
2

> <ROCS_ShapeQuery>
A71EV2A-x0451_0A_A71EV2A-x0310_0A_A71EV2A-x0416_0A_peptide

> <ROCS_TanimotoCombo>
0.412 

> <ROCS_ShapeTanimoto>
0.294 

> <ROCS_ColorTanimoto>
0.117 

> <ROCS_RefTversky>
0.262 

> <ROCS_RefColorTversky>
0.130 

> <ROCS_RefTverskyCombo>
0.392 

> <ROCS_FitTversky>
1.717 

> <ROCS_FitColorTversky>
0.542 

> <ROCS_FitTverskyCombo>
2.259 

> <ROCS_ColorScore>
-3.956

> <ROCS_Overlap>
1817.783

> <ROCS_Rank>
320                 

$$$$
untitled-dbase-1076_0
  -OEChem-11112309163D

 39 40  0     1  0  0  0  0  0999 V2000
    8.4129   12.2277   24.3005 C   0  0  0  0  0  0  0  0  0  0  0  0
    7.3044   11.4223   24.3961 C   0  0  0  0  0  0  0  0  0  0  0  0
    9.4443   11.3601   23.8940 C   0  0  0  0  0  0  0  0  0  0  0  0
   11.2162   13.1115   23.8313 C   0  0  0  0  0  0  0  0  0  0  0  0
   13.2915   15.2631   24.7251 C   0  0  0  0  0  0  0  0  0  0  0  0
   13.5391   13.9033   24.0751 C   0  0  0  0  0  0  0  0  0  0  0  0
   12.9743   16.3198   23.6772 C   0  0  0  0  0  0  0  0  0  0  0  0
   12.4399   13.5425   23.0719 C   0  0  2  0  0  0  0  0  0  0  0  0
   12.1543   14.7196   22.1275 C   0  0  1  0  0  0  0  0  0  0  0  0
   10.7327   15.6261   20.2820 C   0  0  0  0  0  0  0  0  0  0  0  0
    6.9099    8.9784   24.0071 C   0  0  0  0  0  0  0  0  0  0  0  0
   11.7750   10.7070   23.3352 C   0  0  0  0  0  0  0  0  0  0  0  0
   10.9867   14.4602   21.1817 C   0  0  0  0  0  0  0  0  0  0  0  0
    9.0281   10.1000   23.7421 N   0  0  0  0  0  0  0  0  0  0  0  0
    7.7230   10.1700   24.0548 N   0  0  0  0  0  0  0  0  0  0  0  0
   10.8139   11.7720   23.6609 N   0  0  0  0  0  0  0  0  0  0  0  0
   10.6733   13.9393   24.5673 O   0  0  0  0  0  0  0  0  0  0  0  0
   11.8737   15.9143   22.8648 O   0  0  0  0  0  0  0  0  0  0  0  0
    8.4598   13.2890   24.4981 H   0  0  0  0  0  0  0  0  0  0  0  0
    6.2798   11.6308   24.6716 H   0  0  0  0  0  0  0  0  0  0  0  0
   12.4440   15.1767   25.4157 H   0  0  0  0  0  0  0  0  0  0  0  0
   14.1632   15.5640   25.3159 H   0  0  0  0  0  0  0  0  0  0  0  0
   14.5012   13.9358   23.5480 H   0  0  0  0  0  0  0  0  0  0  0  0
   13.6284   13.1357   24.8531 H   0  0  0  0  0  0  0  0  0  0  0  0
   12.6981   17.2584   24.1679 H   0  0  0  0  0  0  0  0  0  0  0  0
   13.8434   16.5239   23.0409 H   0  0  0  0  0  0  0  0  0  0  0  0
   12.7609   12.6716   22.4873 H   0  0  0  0  0  0  0  0  0  0  0  0
   13.0437   14.9039   21.5098 H   0  0  0  0  0  0  0  0  0  0  0  0
   10.5159   16.5166   20.8836 H   0  0  0  0  0  0  0  0  0  0  0  0
    9.8713   15.4372   19.6325 H   0  0  0  0  0  0  0  0  0  0  0  0
   11.6107   15.8396   19.6632 H   0  0  0  0  0  0  0  0  0  0  0  0
    6.4921    8.8951   23.0003 H   0  0  0  0  0  0  0  0  0  0  0  0
    7.5281    8.1063   24.2378 H   0  0  0  0  0  0  0  0  0  0  0  0
    6.1102    9.0567   24.7488 H   0  0  0  0  0  0  0  0  0  0  0  0
   11.8069   10.5620   22.2452 H   0  0  0  0  0  0  0  0  0  0  0  0
   12.7742   10.9920   23.6964 H   0  0  0  0  0  0  0  0  0  0  0  0
   11.4630    9.7706   23.8206 H   0  0  0  0  0  0  0  0  0  0  0  0
   11.2026   13.5736   20.5785 H   0  0  0  0  0  0  0  0  0  0  0  0
   10.0881   14.2497   21.7690 H   0  0  0  0  0  0  0  0  0  0  0  0
  1  2  2  0  0  0  0
  1  3  1  0  0  0  0
  2 15  1  0  0  0  0
  3 14  2  0  0  0  0
  3 16  1  0  0  0  0
  4  8  1  0  0  0  0
  4 16  1  0  0  0  0
  4 17  2  0  0  0  0
  5  6  1  0  0  0  0
  5  7  1  0  0  0  0
  6  8  1  0  0  0  0
  7 18  1  0  0  0  0
  8  9  1  0  0  0  0
  9 13  1  0  0  0  0
  9 18  1  0  0  0  0
 10 13  1  0  0  0  0
 11 15  1  0  0  0  0
 12 16  1  0  0  0  0
 14 15  1  0  0  0  0
  1 19  1  0  0  0  0
  2 20  1  0  0  0  0
  5 21  1  0  0  0  0
  5 22  1  0  0  0  0
  6 23  1  0  0  0  0
  6 24  1  0  0  0  0
  7 25  1  0  0  0  0
  7 26  1  0  0  0  0
  8 27  1  0  0  0  0
  9 28  1  0  0  0  0
 10 29  1  0  0  0  0
 10 30  1  0  0  0  0
 10 31  1  0  0  0  0
 11 32  1  0  0  0  0
 11 33  1  0  0  0  0
 11 34  1  0  0  0  0
 12 35  1  0  0  0  0
 12 36  1  0  0  0  0
 12 37  1  0  0  0  0
 13 38  1  0  0  0  0
 13 39  1  0  0  0  0
M  END
> <Catalog ID>
Z1864896725

> <PlateID>
1337959-R-14

> <Well>
E02

> <MW (desalted)>
251.325

> <CLogP>
0.838

> <HBD>
0

> <TPSA>
47.360

> <RotBonds>
3

> <ROCS_ShapeQuery>
A71EV2A-x0451_0A_A71EV2A-x0310_0A_A71EV2A-x0416_0A_peptide

> <ROCS_TanimotoCombo>
0.412 

> <ROCS_ShapeTanimoto>
0.280 

> <ROCS_ColorTanimoto>
0.131 

> <ROCS_RefTversky>
0.254 

> <ROCS_RefColorTversky>
0.144 

> <ROCS_RefTverskyCombo>
0.398 

> <ROCS_FitTversky>
1.573 

> <ROCS_FitColorTversky>
0.601 

> <ROCS_FitTverskyCombo>
2.174 

> <ROCS_ColorScore>
-4.380

> <ROCS_Overlap>
1763.002

> <ROCS_Rank>
321                 

$$$$
untitled-dbase-491_520
  -OEChem-11112309163D

 35 37  0     1  0  0  0  0  0999 V2000
   10.3060   13.8801   23.2922 C   0  0  0  0  0  0  0  0  0  0  0  0
   13.5282   15.5756   20.2408 C   0  0  0  0  0  0  0  0  0  0  0  0
   12.2902   15.1053   19.5377 C   0  0  0  0  0  0  0  0  0  0  0  0
    9.9398   10.8799   23.5366 C   0  0  0  0  0  0  0  0  0  0  0  0
    7.6346   11.3396   24.4429 C   0  0  0  0  0  0  0  0  0  0  0  0
    8.3904   12.5205   22.2540 C   0  0  0  0  0  0  0  0  0  0  0  0
    9.4891    9.4439   23.2636 C   0  0  0  0  0  0  0  0  0  0  0  0
    7.2752    9.8870   24.1303 C   0  0  0  0  0  0  0  0  0  0  0  0
    8.9569   13.3125   23.4036 C   0  0  1  0  0  0  0  0  0  0  0  0
   12.3163   15.1750   21.0438 C   0  0  0  0  0  0  0  0  0  0  0  0
    8.7505   11.8150   23.5399 C   0  0  0  0  0  0  0  0  0  0  0  0
   12.3339   13.9236   21.8540 C   0  0  0  0  0  0  0  0  0  0  0  0
    8.4526    9.0181   24.2079 N   0  0  0  0  0  0  0  0  0  0  0  0
   10.9923   13.4821   22.1608 N   0  0  0  0  0  0  0  0  0  0  0  0
   10.7179   14.6350   24.1653 O   0  0  0  0  0  0  0  0  0  0  0  0
   14.3886   14.9180   20.2377 H   0  0  0  0  0  0  0  0  0  0  0  0
   13.7699   16.6300   20.1861 H   0  0  0  0  0  0  0  0  0  0  0  0
   11.6974   15.8429   19.0109 H   0  0  0  0  0  0  0  0  0  0  0  0
   12.3184   14.1315   19.0647 H   0  0  0  0  0  0  0  0  0  0  0  0
   10.4393   10.9340   24.5122 H   0  0  0  0  0  0  0  0  0  0  0  0
   10.6793   11.1704   22.7810 H   0  0  0  0  0  0  0  0  0  0  0  0
    6.7407   11.9655   24.3344 H   0  0  0  0  0  0  0  0  0  0  0  0
    7.9598   11.4271   25.4873 H   0  0  0  0  0  0  0  0  0  0  0  0
    7.3421   12.6603   22.0161 H   0  0  0  0  0  0  0  0  0  0  0  0
    9.0136   12.3564   21.3823 H   0  0  0  0  0  0  0  0  0  0  0  0
    9.1158    9.3520   22.2361 H   0  0  0  0  0  0  0  0  0  0  0  0
   10.3503    8.7732   23.3551 H   0  0  0  0  0  0  0  0  0  0  0  0
    6.5277    9.5380   24.8510 H   0  0  0  0  0  0  0  0  0  0  0  0
    6.8230    9.8127   23.1336 H   0  0  0  0  0  0  0  0  0  0  0  0
    8.2574   13.9550   23.9300 H   0  0  0  0  0  0  0  0  0  0  0  0
   11.7466   15.9628   21.5213 H   0  0  0  0  0  0  0  0  0  0  0  0
   12.8502   13.1355   21.2862 H   0  0  0  0  0  0  0  0  0  0  0  0
   12.8736   14.1119   22.7938 H   0  0  0  0  0  0  0  0  0  0  0  0
    8.1765    8.0605   23.9921 H   0  0  0  0  0  0  0  0  0  0  0  0
   10.5318   12.8489   21.5138 H   0  0  0  0  0  0  0  0  0  0  0  0
  1  9  1  0  0  0  0
  1 14  1  0  0  0  0
  1 15  2  0  0  0  0
  2  3  1  0  0  0  0
  2 10  1  0  0  0  0
  3 10  1  0  0  0  0
  4  7  1  0  0  0  0
  4 11  1  0  0  0  0
  5  8  1  0  0  0  0
  5 11  1  0  0  0  0
  6  9  1  0  0  0  0
  6 11  1  0  0  0  0
  7 13  1  0  0  0  0
  8 13  1  0  0  0  0
  9 11  1  0  0  0  0
 10 12  1  0  0  0  0
 12 14  1  0  0  0  0
  2 16  1  0  0  0  0
  2 17  1  0  0  0  0
  3 18  1  0  0  0  0
  3 19  1  0  0  0  0
  4 20  1  0  0  0  0
  4 21  1  0  0  0  0
  5 22  1  0  0  0  0
  5 23  1  0  0  0  0
  6 24  1  0  0  0  0
  6 25  1  0  0  0  0
  7 26  1  0  0  0  0
  7 27  1  0  0  0  0
  8 28  1  0  0  0  0
  8 29  1  0  0  0  0
  9 30  1  0  0  0  0
 10 31  1  0  0  0  0
 12 32  1  0  0  0  0
 12 33  1  0  0  0  0
 13 34  1  0  0  0  0
 14 35  1  0  0  0  0
M  END
> <Catalog ID>
Z1546035900

> <PlateID>
1337959-R-07

> <Well>
B03

> <MW (desalted)>
208.300

> <CLogP>
0.051

> <HBD>
2

> <TPSA>
41.130

> <RotBonds>
3

> <ROCS_ShapeQuery>
A71EV2A-x0451_0A_A71EV2A-x0310_0A_A71EV2A-x0416_0A_peptide

> <ROCS_TanimotoCombo>
0.411 

> <ROCS_ShapeTanimoto>
0.261 

> <ROCS_ColorTanimoto>
0.150 

> <ROCS_RefTversky>
0.236 

> <ROCS_RefColorTversky>
0.158 

> <ROCS_RefTverskyCombo>
0.394 

> <ROCS_FitTversky>
1.681 

> <ROCS_FitColorTversky>
0.757 

> <ROCS_FitTverskyCombo>
2.438 

> <ROCS_ColorScore>
-4.797

> <ROCS_Overlap>
1636.007

> <ROCS_Rank>
322                 

$$$$
untitled-dbase-282_162
  -OEChem-11112309163D

 27 28  0     0  0  0  0  0  0999 V2000
    7.3465   13.1309   25.7587 C   0  0  0  0  0  0  0  0  0  0  0  0
    6.8439   11.9582   26.3064 C   0  0  0  0  0  0  0  0  0  0  0  0
    8.1958   13.0791   24.6502 C   0  0  0  0  0  0  0  0  0  0  0  0
    7.1915   10.7326   25.7462 C   0  0  0  0  0  0  0  0  0  0  0  0
    8.5717   11.8519   24.0720 C   0  0  0  0  0  0  0  0  0  0  0  0
    8.0537   10.6732   24.6400 C   0  0  0  0  0  0  0  0  0  0  0  0
   10.0229   10.6424   22.4302 C   0  0  0  0  0  0  0  0  0  0  0  0
   11.6060   13.7395   23.5555 C   0  0  0  0  0  0  0  0  0  0  0  0
   10.0542    9.4620   23.3650 C   0  0  0  0  0  0  0  0  0  0  0  0
   11.0718   13.4962   22.1606 C   0  0  0  0  0  0  0  0  0  0  0  0
    9.6156   13.0501   22.1513 C   0  0  0  0  0  0  0  0  0  0  0  0
    9.4148   11.8123   22.9051 N   0  0  0  0  0  0  0  0  0  0  0  0
   10.6134   10.5607   21.3487 O   0  0  0  0  0  0  0  0  0  0  0  0
   12.7602   13.5585   23.9173 O   0  0  0  0  0  0  0  0  0  0  0  0
   10.6335   14.2024   24.3842 O   0  0  0  0  0  0  0  0  0  0  0  0
    8.4107    9.0709   23.9529 S   0  0  0  0  0  0  0  0  0  0  0  0
    7.0769   14.0910   26.1893 H   0  0  0  0  0  0  0  0  0  0  0  0
    6.1798   11.9970   27.1645 H   0  0  0  0  0  0  0  0  0  0  0  0
    8.5589   14.0272   24.2628 H   0  0  0  0  0  0  0  0  0  0  0  0
    6.7806    9.8249   26.1831 H   0  0  0  0  0  0  0  0  0  0  0  0
   10.4509    8.5924   22.8320 H   0  0  0  0  0  0  0  0  0  0  0  0
   10.7262    9.6822   24.2013 H   0  0  0  0  0  0  0  0  0  0  0  0
   11.1845   14.4188   21.5800 H   0  0  0  0  0  0  0  0  0  0  0  0
   11.6848   12.7096   21.7066 H   0  0  0  0  0  0  0  0  0  0  0  0
    9.2511   12.8803   21.1332 H   0  0  0  0  0  0  0  0  0  0  0  0
    8.9857   13.8133   22.6189 H   0  0  0  0  0  0  0  0  0  0  0  0
   10.9247   14.3834   25.3037 H   0  0  0  0  0  0  0  0  0  0  0  0
  1  2  2  0  0  0  0
  1  3  1  0  0  0  0
  2  4  1  0  0  0  0
  3  5  2  0  0  0  0
  4  6  2  0  0  0  0
  5  6  1  0  0  0  0
  5 12  1  0  0  0  0
  6 16  1  0  0  0  0
  7  9  1  0  0  0  0
  7 12  1  0  0  0  0
  7 13  2  0  0  0  0
  8 10  1  0  0  0  0
  8 14  2  0  0  0  0
  8 15  1  0  0  0  0
  9 16  1  0  0  0  0
 10 11  1  0  0  0  0
 11 12  1  0  0  0  0
  1 17  1  0  0  0  0
  2 18  1  0  0  0  0
  3 19  1  0  0  0  0
  4 20  1  0  0  0  0
  9 21  1  0  0  0  0
  9 22  1  0  0  0  0
 10 23  1  0  0  0  0
 10 24  1  0  0  0  0
 11 25  1  0  0  0  0
 11 26  1  0  0  0  0
 15 27  1  0  0  0  0
M  END
> <Catalog ID>
Z94598708

> <PlateID>
1337959-R-04

> <Well>
E04

> <MW (desalted)>
237.275

> <CLogP>
1.367

> <HBD>
1

> <TPSA>
57.610

> <RotBonds>
3

> <ROCS_ShapeQuery>
A71EV2A-x0451_0A_A71EV2A-x0310_0A_A71EV2A-x0416_0A_peptide

> <ROCS_TanimotoCombo>
0.411 

> <ROCS_ShapeTanimoto>
0.290 

> <ROCS_ColorTanimoto>
0.122 

> <ROCS_RefTversky>
0.258 

> <ROCS_RefColorTversky>
0.134 

> <ROCS_RefTverskyCombo>
0.392 

> <ROCS_FitTversky>
1.750 

> <ROCS_FitColorTversky>
0.560 

> <ROCS_FitTverskyCombo>
2.310 

> <ROCS_ColorScore>
-4.088

> <ROCS_Overlap>
1786.918

> <ROCS_Rank>
323                 

$$$$
untitled-dbase-674_22
  -OEChem-11112309163D

 33 34  0     0  0  0  0  0  0999 V2000
    9.5323   13.6398   21.0481 C   0  0  0  0  0  0  0  0  0  0  0  0
    9.8405   14.0689   19.7572 C   0  0  0  0  0  0  0  0  0  0  0  0
   11.6894   14.4082   21.8186 C   0  0  0  0  0  0  0  0  0  0  0  0
   10.4568   13.8095   22.0789 C   0  0  0  0  0  0  0  0  0  0  0  0
   11.0731   14.6676   19.4969 C   0  0  0  0  0  0  0  0  0  0  0  0
   11.9976   14.8373   20.5276 C   0  0  0  0  0  0  0  0  0  0  0  0
   10.1317   13.3563   23.4407 C   0  0  0  0  0  0  0  0  0  0  0  0
    9.1944   11.1559   22.6177 C   0  0  0  0  0  0  0  0  0  0  0  0
    9.1839    9.8135   23.3370 C   0  0  0  0  0  0  0  0  0  0  0  0
    7.4595   10.8972   24.5989 C   0  0  0  0  0  0  0  0  0  0  0  0
    8.4064   12.1077   24.7968 C   0  0  0  0  0  0  0  0  0  0  0  0
    7.5157   13.3493   24.9974 C   0  0  0  0  0  0  0  0  0  0  0  0
    9.2674   11.8770   26.0534 C   0  0  0  0  0  0  0  0  0  0  0  0
    9.2718   12.2566   23.5899 N   0  0  0  0  0  0  0  0  0  0  0  0
   10.6381   14.0070   24.3534 O   0  0  0  0  0  0  0  0  0  0  0  0
    8.1649    9.6892   24.3276 O   0  0  0  0  0  0  0  0  0  0  0  0
   11.3687   15.0805   18.2576 F   0  0  0  0  0  0  0  0  0  0  0  0
   13.1809   15.4128   20.2776 F   0  0  0  0  0  0  0  0  0  0  0  0
    8.5691   13.1741   21.2402 H   0  0  0  0  0  0  0  0  0  0  0  0
    9.1210   13.9374   18.9543 H   0  0  0  0  0  0  0  0  0  0  0  0
   12.4171   14.5452   22.6142 H   0  0  0  0  0  0  0  0  0  0  0  0
   10.0225   11.1753   21.9222 H   0  0  0  0  0  0  0  0  0  0  0  0
    8.2668   11.2897   22.0694 H   0  0  0  0  0  0  0  0  0  0  0  0
    9.0231    8.9999   22.5960 H   0  0  0  0  0  0  0  0  0  0  0  0
   10.1785    9.5941   23.7930 H   0  0  0  0  0  0  0  0  0  0  0  0
    6.8146   10.7451   25.4775 H   0  0  0  0  0  0  0  0  0  0  0  0
    6.7868   11.0730   23.7485 H   0  0  0  0  0  0  0  0  0  0  0  0
    8.1458   14.2203   25.1397 H   0  0  0  0  0  0  0  0  0  0  0  0
    6.8910   13.2017   25.8715 H   0  0  0  0  0  0  0  0  0  0  0  0
    6.8930   13.4862   24.1202 H   0  0  0  0  0  0  0  0  0  0  0  0
    9.9274   12.7250   26.1879 H   0  0  0  0  0  0  0  0  0  0  0  0
    9.8486   10.9730   25.9201 H   0  0  0  0  0  0  0  0  0  0  0  0
    8.6156   11.7751   26.9122 H   0  0  0  0  0  0  0  0  0  0  0  0
  1  2  1  0  0  0  0
  1  4  2  0  0  0  0
  2  5  2  0  0  0  0
  3  4  1  0  0  0  0
  3  6  2  0  0  0  0
  4  7  1  0  0  0  0
  5  6  1  0  0  0  0
  5 17  1  0  0  0  0
  6 18  1  0  0  0  0
  7 14  1  0  0  0  0
  7 15  2  0  0  0  0
  8  9  1  0  0  0  0
  8 14  1  0  0  0  0
  9 16  1  0  0  0  0
 10 11  1  0  0  0  0
 10 16  1  0  0  0  0
 11 12  1  0  0  0  0
 11 13  1  0  0  0  0
 11 14  1  0  0  0  0
  1 19  1  0  0  0  0
  2 20  1  0  0  0  0
  3 21  1  0  0  0  0
  8 22  1  0  0  0  0
  8 23  1  0  0  0  0
  9 24  1  0  0  0  0
  9 25  1  0  0  0  0
 10 26  1  0  0  0  0
 10 27  1  0  0  0  0
 12 28  1  0  0  0  0
 12 29  1  0  0  0  0
 12 30  1  0  0  0  0
 13 31  1  0  0  0  0
 13 32  1  0  0  0  0
 13 33  1  0  0  0  0
M  END
> <Catalog ID>
Z785975382

> <PlateID>
1337959-R-09

> <Well>
D07

> <MW (desalted)>
255.261

> <CLogP>
2.128

> <HBD>
0

> <TPSA>
29.540

> <RotBonds>
1

> <ROCS_ShapeQuery>
A71EV2A-x0451_0A_A71EV2A-x0310_0A_A71EV2A-x0416_0A_peptide

> <ROCS_TanimotoCombo>
0.411 

> <ROCS_ShapeTanimoto>
0.277 

> <ROCS_ColorTanimoto>
0.134 

> <ROCS_RefTversky>
0.252 

> <ROCS_RefColorTversky>
0.143 

> <ROCS_RefTverskyCombo>
0.395 

> <ROCS_FitTversky>
1.553 

> <ROCS_FitColorTversky>
0.686 

> <ROCS_FitTverskyCombo>
2.239 

> <ROCS_ColorScore>
-4.347

> <ROCS_Overlap>
1748.755

> <ROCS_Rank>
324                 

$$$$
untitled-dbase-713_88
  -OEChem-11112309163D

 36 37  0     0  0  0  0  0  0999 V2000
    9.0145   11.9905   23.9410 C   0  0  0  0  0  0  0  0  0  0  0  0
    9.2172   10.6029   23.6920 C   0  0  0  0  0  0  0  0  0  0  0  0
    7.8376   12.1803   24.6322 C   0  0  0  0  0  0  0  0  0  0  0  0
    9.9001   13.0769   23.5386 C   0  0  0  0  0  0  0  0  0  0  0  0
   11.1990   14.9591   20.7547 C   0  0  0  0  0  0  0  0  0  0  0  0
    8.9737   13.9530   20.1158 C   0  0  0  0  0  0  0  0  0  0  0  0
   11.4240   13.7881   21.7107 C   0  0  0  0  0  0  0  0  0  0  0  0
    9.2515   12.8011   21.0795 C   0  0  0  0  0  0  0  0  0  0  0  0
   10.2632   14.6039   19.5874 C   0  0  0  0  0  0  0  0  0  0  0  0
   10.3733   10.0220   22.9749 C   0  0  0  0  0  0  0  0  0  0  0  0
   10.9619   13.7200   18.5513 C   0  0  0  0  0  0  0  0  0  0  0  0
    7.9143   14.2723   25.9899 C   0  0  0  0  0  0  0  0  0  0  0  0
    8.2898    9.7613   24.1424 N   0  0  0  0  0  0  0  0  0  0  0  0
   10.1458   13.2348   22.1619 N   0  0  0  0  0  0  0  0  0  0  0  0
    7.2818   13.3395   25.0600 N   0  0  0  0  0  0  0  0  0  0  0  0
   10.3992   13.8155   24.3894 O   0  0  0  0  0  0  0  0  0  0  0  0
    7.1108   10.6530   24.9020 S   0  0  0  0  0  0  0  0  0  0  0  0
   10.7825   15.8103   21.3183 H   0  0  0  0  0  0  0  0  0  0  0  0
   12.1740   15.2992   20.3648 H   0  0  0  0  0  0  0  0  0  0  0  0
    8.3646   13.5826   19.2729 H   0  0  0  0  0  0  0  0  0  0  0  0
    8.3580   14.7118   20.6268 H   0  0  0  0  0  0  0  0  0  0  0  0
   12.0288   13.0195   21.2184 H   0  0  0  0  0  0  0  0  0  0  0  0
   11.9732   14.1177   22.6009 H   0  0  0  0  0  0  0  0  0  0  0  0
    8.3196   12.4574   21.5450 H   0  0  0  0  0  0  0  0  0  0  0  0
    9.6663   11.9553   20.5251 H   0  0  0  0  0  0  0  0  0  0  0  0
    9.9808   15.5502   19.0821 H   0  0  0  0  0  0  0  0  0  0  0  0
   11.1901    9.7820   23.6733 H   0  0  0  0  0  0  0  0  0  0  0  0
   10.1025    9.0967   22.4409 H   0  0  0  0  0  0  0  0  0  0  0  0
   10.7721   10.7113   22.2126 H   0  0  0  0  0  0  0  0  0  0  0  0
   11.2567   12.7767   19.0086 H   0  0  0  0  0  0  0  0  0  0  0  0
   11.8493   14.2250   18.1728 H   0  0  0  0  0  0  0  0  0  0  0  0
   10.2859   13.5178   17.7217 H   0  0  0  0  0  0  0  0  0  0  0  0
    8.9024   13.8869   26.2814 H   0  0  0  0  0  0  0  0  0  0  0  0
    8.0319   15.2518   25.5032 H   0  0  0  0  0  0  0  0  0  0  0  0
    7.2844   14.3810   26.8851 H   0  0  0  0  0  0  0  0  0  0  0  0
    6.3474   13.6109   24.7256 H   0  0  0  0  0  0  0  0  0  0  0  0
  1  2  1  0  0  0  0
  1  3  2  0  0  0  0
  1  4  1  0  0  0  0
  2 10  1  0  0  0  0
  2 13  2  0  0  0  0
  3 15  1  0  0  0  0
  3 17  1  0  0  0  0
  4 14  1  0  0  0  0
  4 16  2  0  0  0  0
  5  7  1  0  0  0  0
  5  9  1  0  0  0  0
  6  8  1  0  0  0  0
  6  9  1  0  0  0  0
  7 14  1  0  0  0  0
  8 14  1  0  0  0  0
  9 11  1  0  0  0  0
 12 15  1  0  0  0  0
 13 17  1  0  0  0  0
  5 18  1  0  0  0  0
  5 19  1  0  0  0  0
  6 20  1  0  0  0  0
  6 21  1  0  0  0  0
  7 22  1  0  0  0  0
  7 23  1  0  0  0  0
  8 24  1  0  0  0  0
  8 25  1  0  0  0  0
  9 26  1  0  0  0  0
 10 27  1  0  0  0  0
 10 28  1  0  0  0  0
 10 29  1  0  0  0  0
 11 30  1  0  0  0  0
 11 31  1  0  0  0  0
 11 32  1  0  0  0  0
 12 33  1  0  0  0  0
 12 34  1  0  0  0  0
 12 35  1  0  0  0  0
 15 36  1  0  0  0  0
M  END
> <Catalog ID>
Z119914894

> <PlateID>
1337959-R-09

> <Well>
H06

> <MW (desalted)>
253.364

> <CLogP>
1.953

> <HBD>
1

> <TPSA>
45.230

> <RotBonds>
2

> <ROCS_ShapeQuery>
A71EV2A-x0451_0A_A71EV2A-x0310_0A_A71EV2A-x0416_0A_peptide

> <ROCS_TanimotoCombo>
0.411 

> <ROCS_ShapeTanimoto>
0.260 

> <ROCS_ColorTanimoto>
0.152 

> <ROCS_RefTversky>
0.237 

> <ROCS_RefColorTversky>
0.159 

> <ROCS_RefTverskyCombo>
0.397 

> <ROCS_FitTversky>
1.565 

> <ROCS_FitColorTversky>
0.763 

> <ROCS_FitTverskyCombo>
2.327 

> <ROCS_ColorScore>
-4.833

> <ROCS_Overlap>
1645.621

> <ROCS_Rank>
325                 

$$$$
untitled-dbase-868_126
  -OEChem-11112309163D

 30 31  0     1  0  0  0  0  0999 V2000
    9.3741   10.4033   23.7690 C   0  0  0  0  0  0  0  0  0  0  0  0
    9.3157   11.8013   23.9239 C   0  0  0  0  0  0  0  0  0  0  0  0
    8.0434   12.0433   24.3811 C   0  0  0  0  0  0  0  0  0  0  0  0
   10.3545   12.8083   23.6679 C   0  0  0  0  0  0  0  0  0  0  0  0
   12.3902   13.3385   20.6390 C   0  0  0  0  0  0  0  0  0  0  0  0
   10.4464   12.0704   21.2332 C   0  0  0  0  0  0  0  0  0  0  0  0
   11.1519   12.6867   20.0396 C   0  0  1  0  0  0  0  0  0  0  0  0
   11.9124   13.8326   22.0080 C   0  0  1  0  0  0  0  0  0  0  0  0
    7.3387   13.2856   24.7418 C   0  0  0  0  0  0  0  0  0  0  0  0
   11.4001   15.2715   21.9562 C   0  0  0  0  0  0  0  0  0  0  0  0
    8.2299    9.7995   24.1010 N   0  0  0  0  0  0  0  0  0  0  0  0
    7.4406   10.8230   24.4692 N   0  0  0  0  0  0  0  0  0  0  0  0
   10.8495   12.8946   22.3737 N   0  0  0  0  0  0  0  0  0  0  0  0
   10.7029   13.5079   24.6161 O   0  0  0  0  0  0  0  0  0  0  0  0
   10.5660   15.4912   23.0782 O   0  0  0  0  0  0  0  0  0  0  0  0
   10.3541   13.6499   19.5067 F   0  0  0  0  0  0  0  0  0  0  0  0
   10.2013    9.7969   23.4280 H   0  0  0  0  0  0  0  0  0  0  0  0
   13.1744   12.5843   20.7754 H   0  0  0  0  0  0  0  0  0  0  0  0
   12.7783   14.1445   20.0094 H   0  0  0  0  0  0  0  0  0  0  0  0
    9.3576   12.0751   21.1302 H   0  0  0  0  0  0  0  0  0  0  0  0
   10.7977   11.0507   21.4242 H   0  0  0  0  0  0  0  0  0  0  0  0
   11.3850   11.9636   19.2542 H   0  0  0  0  0  0  0  0  0  0  0  0
   12.7184   13.7720   22.7481 H   0  0  0  0  0  0  0  0  0  0  0  0
    6.8168   13.7171   23.8707 H   0  0  0  0  0  0  0  0  0  0  0  0
    6.5859   13.1229   25.5335 H   0  0  0  0  0  0  0  0  0  0  0  0
    8.0266   14.0564   25.1329 H   0  0  0  0  0  0  0  0  0  0  0  0
   10.8268   15.4273   21.0432 H   0  0  0  0  0  0  0  0  0  0  0  0
   12.2398   15.9646   21.9883 H   0  0  0  0  0  0  0  0  0  0  0  0
    6.4958   10.6147   24.7680 H   0  0  0  0  0  0  0  0  0  0  0  0
    9.8320   14.8558   23.0179 H   0  0  0  0  0  0  0  0  0  0  0  0
  1  2  1  0  0  0  0
  1 11  2  0  0  0  0
  2  3  2  0  0  0  0
  2  4  1  0  0  0  0
  3  9  1  0  0  0  0
  3 12  1  0  0  0  0
  4 13  1  0  0  0  0
  4 14  2  0  0  0  0
  5  7  1  0  0  0  0
  5  8  1  0  0  0  0
  6  7  1  0  0  0  0
  6 13  1  0  0  0  0
  7 16  1  1  0  0  0
  8 10  1  1  0  0  0
  8 13  1  0  0  0  0
 10 15  1  0  0  0  0
 11 12  1  0  0  0  0
  1 17  1  0  0  0  0
  5 18  1  0  0  0  0
  5 19  1  0  0  0  0
  6 20  1  0  0  0  0
  6 21  1  0  0  0  0
  7 22  1  0  0  0  0
  8 23  1  0  0  0  0
  9 24  1  0  0  0  0
  9 25  1  0  0  0  0
  9 26  1  0  0  0  0
 10 27  1  0  0  0  0
 10 28  1  0  0  0  0
 12 29  1  0  0  0  0
 15 30  1  0  0  0  0
M  END
> <Catalog ID>
Z2060926323

> <PlateID>
1337959-R-11

> <Well>
H02

> <MW (desalted)>
227.235

> <CLogP>
-0.203

> <HBD>
2

> <TPSA>
69.220

> <RotBonds>
2

> <ROCS_ShapeQuery>
A71EV2A-x0451_0A_A71EV2A-x0310_0A_A71EV2A-x0416_0A_peptide

> <ROCS_TanimotoCombo>
0.411 

> <ROCS_ShapeTanimoto>
0.262 

> <ROCS_ColorTanimoto>
0.149 

> <ROCS_RefTversky>
0.239 

> <ROCS_RefColorTversky>
0.165 

> <ROCS_RefTverskyCombo>
0.404 

> <ROCS_FitTversky>
1.582 

> <ROCS_FitColorTversky>
0.611 

> <ROCS_FitTverskyCombo>
2.193 

> <ROCS_ColorScore>
-5.030

> <ROCS_Overlap>
1655.733

> <ROCS_Rank>
326                 

$$$$
untitled-dbase-3_20
  -OEChem-11112309163D

 34 35  0     1  0  0  0  0  0999 V2000
   10.7557   13.2492   19.3716 C   0  0  0  0  0  0  0  0  0  0  0  0
   10.2894   14.5399   19.1224 C   0  0  0  0  0  0  0  0  0  0  0  0
   10.9379   12.8148   20.6846 C   0  0  0  0  0  0  0  0  0  0  0  0
   10.1874   14.9620   21.4991 C   0  0  0  0  0  0  0  0  0  0  0  0
   10.0052   15.3963   20.1861 C   0  0  0  0  0  0  0  0  0  0  0  0
   10.6537   13.6712   21.7483 C   0  0  0  0  0  0  0  0  0  0  0  0
    9.9544   10.5859   23.1346 C   0  0  0  0  0  0  0  0  0  0  0  0
    8.8413   12.0048   24.8074 C   0  0  0  0  0  0  0  0  0  0  0  0
    8.6644    9.7719   23.0335 C   0  0  1  0  0  0  0  0  0  0  0  0
    7.5926   11.1381   24.6447 C   0  0  2  0  0  0  0  0  0  0  0  0
    8.9606    8.3160   22.7034 C   0  0  0  0  0  0  0  0  0  0  0  0
    6.8046   11.0645   25.9447 C   0  0  0  0  0  0  0  0  0  0  0  0
    9.6068   11.9836   23.5261 N   0  0  0  0  0  0  0  0  0  0  0  0
   12.1469   12.4204   23.4743 O   0  0  0  0  0  0  0  0  0  0  0  0
   10.6005   14.2341   24.2909 O   0  0  0  0  0  0  0  0  0  0  0  0
    7.9715    9.8029   24.2876 O   0  0  0  0  0  0  0  0  0  0  0  0
    9.5576   16.6359   19.9464 F   0  0  0  0  0  0  0  0  0  0  0  0
   10.8819   13.1207   23.4100 S   0  0  0  0  0  0  0  0  0  0  0  0
   10.9770   12.5829   18.5430 H   0  0  0  0  0  0  0  0  0  0  0  0
   10.1476   14.8783   18.1001 H   0  0  0  0  0  0  0  0  0  0  0  0
   11.3009   11.8069   20.8673 H   0  0  0  0  0  0  0  0  0  0  0  0
    9.9631   15.6382   22.3197 H   0  0  0  0  0  0  0  0  0  0  0  0
   10.6249   10.1641   23.8932 H   0  0  0  0  0  0  0  0  0  0  0  0
   10.4686   10.5927   22.1676 H   0  0  0  0  0  0  0  0  0  0  0  0
    8.5529   13.0341   25.0458 H   0  0  0  0  0  0  0  0  0  0  0  0
    9.4840   11.6188   25.6079 H   0  0  0  0  0  0  0  0  0  0  0  0
    8.0069   10.1852   22.2579 H   0  0  0  0  0  0  0  0  0  0  0  0
    6.9425   11.5417   23.8578 H   0  0  0  0  0  0  0  0  0  0  0  0
    9.6137    7.8852   23.4631 H   0  0  0  0  0  0  0  0  0  0  0  0
    9.4539    8.2450   21.7333 H   0  0  0  0  0  0  0  0  0  0  0  0
    8.0330    7.7434   22.6701 H   0  0  0  0  0  0  0  0  0  0  0  0
    7.4332   10.6652   26.7415 H   0  0  0  0  0  0  0  0  0  0  0  0
    5.9377   10.4145   25.8208 H   0  0  0  0  0  0  0  0  0  0  0  0
    6.4614   12.0592   26.2314 H   0  0  0  0  0  0  0  0  0  0  0  0
  1  2  2  0  0  0  0
  1  3  1  0  0  0  0
  2  5  1  0  0  0  0
  3  6  2  0  0  0  0
  4  5  2  0  0  0  0
  4  6  1  0  0  0  0
  5 17  1  0  0  0  0
  6 18  1  0  0  0  0
  7  9  1  0  0  0  0
  7 13  1  0  0  0  0
  8 10  1  0  0  0  0
  8 13  1  0  0  0  0
  9 11  1  0  0  0  0
  9 16  1  0  0  0  0
 10 12  1  0  0  0  0
 10 16  1  0  0  0  0
 13 18  1  0  0  0  0
 14 18  2  0  0  0  0
 15 18  2  0  0  0  0
  1 19  1  0  0  0  0
  2 20  1  0  0  0  0
  3 21  1  0  0  0  0
  4 22  1  0  0  0  0
  7 23  1  0  0  0  0
  7 24  1  0  0  0  0
  8 25  1  0  0  0  0
  8 26  1  0  0  0  0
  9 27  1  0  0  0  0
 10 28  1  0  0  0  0
 11 29  1  0  0  0  0
 11 30  1  0  0  0  0
 11 31  1  0  0  0  0
 12 32  1  0  0  0  0
 12 33  1  0  0  0  0
 12 34  1  0  0  0  0
M  END
> <Catalog ID>
Z45508228

> <PlateID>
1337959-R-01

> <Well>
A04

> <MW (desalted)>
273.324

> <CLogP>
2.464

> <HBD>
0

> <TPSA>
46.610

> <RotBonds>
1

> <ROCS_ShapeQuery>
A71EV2A-x0451_0A_A71EV2A-x0310_0A_A71EV2A-x0416_0A_peptide

> <ROCS_TanimotoCombo>
0.411 

> <ROCS_ShapeTanimoto>
0.279 

> <ROCS_ColorTanimoto>
0.132 

> <ROCS_RefTversky>
0.253 

> <ROCS_RefColorTversky>
0.141 

> <ROCS_RefTverskyCombo>
0.394 

> <ROCS_FitTversky>
1.601 

> <ROCS_FitColorTversky>
0.675 

> <ROCS_FitTverskyCombo>
2.276 

> <ROCS_ColorScore>
-4.278

> <ROCS_Overlap>
1753.036

> <ROCS_Rank>
327                 

$$$$
untitled-dbase-886_165
  -OEChem-11112309163D

 34 35  0     1  0  0  0  0  0999 V2000
    8.5280   10.0007   23.2672 C   0  0  0  0  0  0  0  0  0  0  0  0
    9.7749   10.6020   23.0961 C   0  0  0  0  0  0  0  0  0  0  0  0
    7.5504   10.6295   24.0384 C   0  0  0  0  0  0  0  0  0  0  0  0
    9.0667   12.4608   24.4674 C   0  0  0  0  0  0  0  0  0  0  0  0
   10.0443   11.8321   23.6962 C   0  0  0  0  0  0  0  0  0  0  0  0
    7.8197   11.8595   24.6385 C   0  0  0  0  0  0  0  0  0  0  0  0
   10.8621   14.6060   22.2935 C   0  0  0  0  0  0  0  0  0  0  0  0
   12.5185   11.4573   23.2834 C   0  0  0  0  0  0  0  0  0  0  0  0
   12.3837   12.8244   21.3222 C   0  0  0  0  0  0  0  0  0  0  0  0
   11.4015   12.4854   23.5092 C   0  0  1  0  0  0  0  0  0  0  0  0
   12.6489   11.3858   21.7577 C   0  0  1  0  0  0  0  0  0  0  0  0
   13.9981   10.8602   21.2985 C   0  0  0  0  0  0  0  0  0  0  0  0
   10.5254   15.1307   20.9353 C   0  0  0  0  0  0  0  0  0  0  0  0
   11.4847   13.3655   22.3389 N   0  0  0  0  0  0  0  0  0  0  0  0
    9.8990   16.4042   21.1209 N   0  0  0  0  0  0  0  0  0  0  0  0
   10.5611   15.2755   23.2775 O   0  0  0  0  0  0  0  0  0  0  0  0
    6.8813   12.4633   25.3793 F   0  0  0  0  0  0  0  0  0  0  0  0
    8.3180    9.0432   22.7996 H   0  0  0  0  0  0  0  0  0  0  0  0
   10.5306   10.1045   22.4937 H   0  0  0  0  0  0  0  0  0  0  0  0
    6.5800   10.1611   24.1719 H   0  0  0  0  0  0  0  0  0  0  0  0
    9.2669   13.4195   24.9383 H   0  0  0  0  0  0  0  0  0  0  0  0
   13.4515   11.8342   23.7217 H   0  0  0  0  0  0  0  0  0  0  0  0
   12.3099   10.4754   23.7216 H   0  0  0  0  0  0  0  0  0  0  0  0
   13.2948   13.4333   21.3248 H   0  0  0  0  0  0  0  0  0  0  0  0
   11.9241   12.8811   20.3312 H   0  0  0  0  0  0  0  0  0  0  0  0
   11.6050   13.0880   24.4313 H   0  0  0  0  0  0  0  0  0  0  0  0
   11.8578   10.7387   21.3603 H   0  0  0  0  0  0  0  0  0  0  0  0
   14.8007   11.4918   21.6843 H   0  0  0  0  0  0  0  0  0  0  0  0
   14.0503   10.8555   20.2080 H   0  0  0  0  0  0  0  0  0  0  0  0
   14.1498    9.8415   21.6605 H   0  0  0  0  0  0  0  0  0  0  0  0
    9.8514   14.4260   20.4575 H   0  0  0  0  0  0  0  0  0  0  0  0
   11.4478   15.2238   20.3698 H   0  0  0  0  0  0  0  0  0  0  0  0
    9.6250   16.7805   20.2337 H   0  0  0  0  0  0  0  0  0  0  0  0
    9.0873   16.3018   21.6993 H   0  0  0  0  0  0  0  0  0  0  0  0
  1  2  1  0  0  0  0
  1  3  2  0  0  0  0
  2  5  2  0  0  0  0
  3  6  1  0  0  0  0
  4  5  1  0  0  0  0
  4  6  2  0  0  0  0
  5 10  1  0  0  0  0
  6 17  1  0  0  0  0
  7 13  1  0  0  0  0
  7 14  1  0  0  0  0
  7 16  2  0  0  0  0
  8 10  1  0  0  0  0
  8 11  1  0  0  0  0
  9 11  1  0  0  0  0
  9 14  1  0  0  0  0
 10 14  1  0  0  0  0
 11 12  1  0  0  0  0
 13 15  1  0  0  0  0
  1 18  1  0  0  0  0
  2 19  1  0  0  0  0
  3 20  1  0  0  0  0
  4 21  1  0  0  0  0
  8 22  1  0  0  0  0
  8 23  1  0  0  0  0
  9 24  1  0  0  0  0
  9 25  1  0  0  0  0
 10 26  1  0  0  0  0
 11 27  1  0  0  0  0
 12 28  1  0  0  0  0
 12 29  1  0  0  0  0
 12 30  1  0  0  0  0
 13 31  1  0  0  0  0
 13 32  1  0  0  0  0
 15 33  1  0  0  0  0
 15 34  1  0  0  0  0
M  END
> <Catalog ID>
Z2242899530

> <PlateID>
1337959-R-12

> <Well>
A10

> <MW (desalted)>
236.285

> <CLogP>
1.400

> <HBD>
1

> <TPSA>
46.330

> <RotBonds>
2

> <ROCS_ShapeQuery>
A71EV2A-x0451_0A_A71EV2A-x0310_0A_A71EV2A-x0416_0A_peptide

> <ROCS_TanimotoCombo>
0.411 

> <ROCS_ShapeTanimoto>
0.267 

> <ROCS_ColorTanimoto>
0.145 

> <ROCS_RefTversky>
0.243 

> <ROCS_RefColorTversky>
0.153 

> <ROCS_RefTverskyCombo>
0.396 

> <ROCS_FitTversky>
1.570 

> <ROCS_FitColorTversky>
0.732 

> <ROCS_FitTverskyCombo>
2.302 

> <ROCS_ColorScore>
-4.639

> <ROCS_Overlap>
1684.763

> <ROCS_Rank>
328                 

$$$$
untitled-dbase-291_23
  -OEChem-11112309163D

 34 36  0     0  0  0  0  0  0999 V2000
    7.5892    7.9561   23.3011 C   0  0  0  0  0  0  0  0  0  0  0  0
    6.4505    8.5651   23.8090 C   0  0  0  0  0  0  0  0  0  0  0  0
    8.7572    8.6973   23.1034 C   0  0  0  0  0  0  0  0  0  0  0  0
    6.4533    9.9239   24.1299 C   0  0  0  0  0  0  0  0  0  0  0  0
    8.7923   10.0772   23.4189 C   0  0  0  0  0  0  0  0  0  0  0  0
    9.8561   11.0340   23.3055 C   0  0  0  0  0  0  0  0  0  0  0  0
    7.6325   10.6683   23.9294 C   0  0  0  0  0  0  0  0  0  0  0  0
    9.4904   12.2925   23.7203 C   0  0  0  0  0  0  0  0  0  0  0  0
   10.2863   13.5267   23.7559 C   0  0  0  0  0  0  0  0  0  0  0  0
   10.8602   16.6084   21.8093 C   0  0  0  0  0  0  0  0  0  0  0  0
    8.6676   15.7220   21.3549 C   0  0  0  0  0  0  0  0  0  0  0  0
   11.3759   15.2236   22.1985 C   0  0  0  0  0  0  0  0  0  0  0  0
    9.1320   14.3149   21.7180 C   0  0  0  0  0  0  0  0  0  0  0  0
   11.2109   10.6994   22.7935 C   0  0  0  0  0  0  0  0  0  0  0  0
    9.7761   16.5211   20.8291 N   0  0  0  0  0  0  0  0  0  0  0  0
   10.2760   14.3511   22.6281 N   0  0  0  0  0  0  0  0  0  0  0  0
   10.9051   13.7450   24.7965 O   0  0  0  0  0  0  0  0  0  0  0  0
    7.8713   12.3455   24.2504 S   0  0  0  0  0  0  0  0  0  0  0  0
    7.5748    6.8979   23.0553 H   0  0  0  0  0  0  0  0  0  0  0  0
    5.5466    7.9804   23.9577 H   0  0  0  0  0  0  0  0  0  0  0  0
    9.6390    8.2024   22.7040 H   0  0  0  0  0  0  0  0  0  0  0  0
    5.5572   10.3923   24.5268 H   0  0  0  0  0  0  0  0  0  0  0  0
   10.5205   17.1506   22.7005 H   0  0  0  0  0  0  0  0  0  0  0  0
   11.6819   17.1884   21.3753 H   0  0  0  0  0  0  0  0  0  0  0  0
    7.8857   15.6557   20.5906 H   0  0  0  0  0  0  0  0  0  0  0  0
    8.2230   16.2142   22.2286 H   0  0  0  0  0  0  0  0  0  0  0  0
   11.8513   14.7358   21.3386 H   0  0  0  0  0  0  0  0  0  0  0  0
   12.1364   15.3259   22.9770 H   0  0  0  0  0  0  0  0  0  0  0  0
    8.3030   13.7531   22.1602 H   0  0  0  0  0  0  0  0  0  0  0  0
    9.4514   13.7713   20.8202 H   0  0  0  0  0  0  0  0  0  0  0  0
   11.2583   10.8385   21.7048 H   0  0  0  0  0  0  0  0  0  0  0  0
   11.9838   11.3309   23.2548 H   0  0  0  0  0  0  0  0  0  0  0  0
   11.4815    9.6577   23.0193 H   0  0  0  0  0  0  0  0  0  0  0  0
    9.4415   17.4595   20.6122 H   0  0  0  0  0  0  0  0  0  0  0  0
  1  2  2  0  0  0  0
  1  3  1  0  0  0  0
  2  4  1  0  0  0  0
  3  5  2  0  0  0  0
  4  7  2  0  0  0  0
  5  6  1  0  0  0  0
  5  7  1  0  0  0  0
  6  8  2  0  0  0  0
  6 14  1  0  0  0  0
  7 18  1  0  0  0  0
  8  9  1  0  0  0  0
  8 18  1  0  0  0  0
  9 16  1  0  0  0  0
  9 17  2  0  0  0  0
 10 12  1  0  0  0  0
 10 15  1  0  0  0  0
 11 13  1  0  0  0  0
 11 15  1  0  0  0  0
 12 16  1  0  0  0  0
 13 16  1  0  0  0  0
  1 19  1  0  0  0  0
  2 20  1  0  0  0  0
  3 21  1  0  0  0  0
  4 22  1  0  0  0  0
 10 23  1  0  0  0  0
 10 24  1  0  0  0  0
 11 25  1  0  0  0  0
 11 26  1  0  0  0  0
 12 27  1  0  0  0  0
 12 28  1  0  0  0  0
 13 29  1  0  0  0  0
 13 30  1  0  0  0  0
 14 31  1  0  0  0  0
 14 32  1  0  0  0  0
 14 33  1  0  0  0  0
 15 34  1  0  0  0  0
M  END
> <Catalog ID>
Z1255523388

> <PlateID>
1337959-R-04

> <Well>
F03

> <MW (desalted)>
260.355

> <CLogP>
2.417

> <HBD>
1

> <TPSA>
32.340

> <RotBonds>
1

> <ROCS_ShapeQuery>
A71EV2A-x0451_0A_A71EV2A-x0310_0A_A71EV2A-x0416_0A_peptide

> <ROCS_TanimotoCombo>
0.411 

> <ROCS_ShapeTanimoto>
0.266 

> <ROCS_ColorTanimoto>
0.145 

> <ROCS_RefTversky>
0.244 

> <ROCS_RefColorTversky>
0.157 

> <ROCS_RefTverskyCombo>
0.401 

> <ROCS_FitTversky>
1.513 

> <ROCS_FitColorTversky>
0.654 

> <ROCS_FitTverskyCombo>
2.167 

> <ROCS_ColorScore>
-4.773

> <ROCS_Overlap>
1692.969

> <ROCS_Rank>
329                 

$$$$
untitled-dbase-195_53
  -OEChem-11112309163D

 31 32  0     1  0  0  0  0  0999 V2000
    7.7889   10.2864   24.9408 C   0  0  0  0  0  0  0  0  0  0  0  0
    7.5246   11.6259   24.6555 C   0  0  0  0  0  0  0  0  0  0  0  0
    8.9327    9.6761   24.4260 C   0  0  0  0  0  0  0  0  0  0  0  0
    8.4041   12.3552   23.8553 C   0  0  0  0  0  0  0  0  0  0  0  0
    9.8121   10.4054   23.6257 C   0  0  0  0  0  0  0  0  0  0  0  0
    9.5478   11.7449   23.3404 C   0  0  0  0  0  0  0  0  0  0  0  0
   10.6250   13.8922   22.6769 C   0  0  0  0  0  0  0  0  0  0  0  0
   11.9609   15.8516   21.9283 C   0  0  0  0  0  0  0  0  0  0  0  0
   11.3759   17.0241   21.1616 C   0  0  0  0  0  0  0  0  0  0  0  0
    9.9760   15.2341   20.6755 C   0  0  0  0  0  0  0  0  0  0  0  0
   11.1280   14.6508   21.4875 C   0  0  2  0  0  0  0  0  0  0  0  0
   11.2750   11.7339   21.5549 C   0  0  0  0  0  0  0  0  0  0  0  0
    9.9720   16.6586   21.0099 N   0  0  0  0  0  0  0  0  0  0  0  0
   10.4614   12.5028   22.5092 N   0  0  0  0  0  0  0  0  0  0  0  0
   10.4217   14.5217   23.7182 O   0  0  0  0  0  0  0  0  0  0  0  0
    7.1047    9.7184   25.5645 H   0  0  0  0  0  0  0  0  0  0  0  0
    6.6347   12.1016   25.0569 H   0  0  0  0  0  0  0  0  0  0  0  0
    9.1387    8.6332   24.6491 H   0  0  0  0  0  0  0  0  0  0  0  0
    8.1878   13.3986   23.6398 H   0  0  0  0  0  0  0  0  0  0  0  0
   10.7005    9.9193   23.2300 H   0  0  0  0  0  0  0  0  0  0  0  0
   13.0056   15.6979   21.6282 H   0  0  0  0  0  0  0  0  0  0  0  0
   11.9474   16.0275   23.0092 H   0  0  0  0  0  0  0  0  0  0  0  0
   11.4714   17.9532   21.7384 H   0  0  0  0  0  0  0  0  0  0  0  0
   11.8653   17.1666   20.1924 H   0  0  0  0  0  0  0  0  0  0  0  0
   10.1313   15.0937   19.6008 H   0  0  0  0  0  0  0  0  0  0  0  0
    9.0122   14.7796   20.9372 H   0  0  0  0  0  0  0  0  0  0  0  0
   11.7403   13.9702   20.8860 H   0  0  0  0  0  0  0  0  0  0  0  0
   10.7371   11.6483   20.5992 H   0  0  0  0  0  0  0  0  0  0  0  0
   12.2330   12.2492   21.3914 H   0  0  0  0  0  0  0  0  0  0  0  0
   11.4638   10.7290   21.9606 H   0  0  0  0  0  0  0  0  0  0  0  0
    9.4569   16.8249   21.8735 H   0  0  0  0  0  0  0  0  0  0  0  0
  1  2  2  0  0  0  0
  1  3  1  0  0  0  0
  2  4  1  0  0  0  0
  3  5  2  0  0  0  0
  4  6  2  0  0  0  0
  5  6  1  0  0  0  0
  6 14  1  0  0  0  0
  7 11  1  0  0  0  0
  7 14  1  0  0  0  0
  7 15  2  0  0  0  0
  8  9  1  0  0  0  0
  8 11  1  0  0  0  0
  9 13  1  0  0  0  0
 10 11  1  0  0  0  0
 10 13  1  0  0  0  0
 12 14  1  0  0  0  0
  1 16  1  0  0  0  0
  2 17  1  0  0  0  0
  3 18  1  0  0  0  0
  4 19  1  0  0  0  0
  5 20  1  0  0  0  0
  8 21  1  0  0  0  0
  8 22  1  0  0  0  0
  9 23  1  0  0  0  0
  9 24  1  0  0  0  0
 10 25  1  0  0  0  0
 10 26  1  0  0  0  0
 11 27  1  0  0  0  0
 12 28  1  0  0  0  0
 12 29  1  0  0  0  0
 12 30  1  0  0  0  0
 13 31  1  0  0  0  0
M  END
> <Catalog ID>
Z1457921102

> <PlateID>
1337959-R-03

> <Well>
D07

> <MW (desalted)>
204.268

> <CLogP>
1.101

> <HBD>
1

> <TPSA>
32.340

> <RotBonds>
2

> <ROCS_ShapeQuery>
A71EV2A-x0451_0A_A71EV2A-x0310_0A_A71EV2A-x0416_0A_peptide

> <ROCS_TanimotoCombo>
0.411 

> <ROCS_ShapeTanimoto>
0.254 

> <ROCS_ColorTanimoto>
0.157 

> <ROCS_RefTversky>
0.231 

> <ROCS_RefColorTversky>
0.164 

> <ROCS_RefTverskyCombo>
0.395 

> <ROCS_FitTversky>
1.615 

> <ROCS_FitColorTversky>
0.787 

> <ROCS_FitTverskyCombo>
2.402 

> <ROCS_ColorScore>
-4.985

> <ROCS_Overlap>
1602.891

> <ROCS_Rank>
330                 

$$$$
untitled-dbase-1111_73
  -OEChem-11112309163D

 29 30  0     1  0  0  0  0  0999 V2000
    8.8524   12.0434   24.0462 C   0  0  0  0  0  0  0  0  0  0  0  0
    9.8932   10.1840   23.2488 C   0  0  0  0  0  0  0  0  0  0  0  0
    6.6313   10.8042   24.2265 C   0  0  0  0  0  0  0  0  0  0  0  0
    5.8638   11.7822   25.1010 C   0  0  0  0  0  0  0  0  0  0  0  0
    8.1483   10.8341   26.1735 C   0  0  0  0  0  0  0  0  0  0  0  0
    8.0943   10.8520   24.6523 C   0  0  2  0  0  0  0  0  0  0  0  0
   11.3708   14.9386   25.1280 C   0  0  0  0  0  0  0  0  0  0  0  0
   10.7880   12.4088   22.5145 C   0  0  0  0  0  0  0  0  0  0  0  0
   11.5744   13.2694   23.4864 C   0  0  0  0  0  0  0  0  0  0  0  0
    8.8530    9.7629   24.0761 N   0  0  0  0  0  0  0  0  0  0  0  0
    9.8685   11.5624   23.2486 N   0  0  0  0  0  0  0  0  0  0  0  0
    8.5811   13.2192   24.2549 O   0  0  0  0  0  0  0  0  0  0  0  0
   10.6662    9.4476   22.6497 O   0  0  0  0  0  0  0  0  0  0  0  0
   10.6791   14.1068   24.2068 O   0  0  0  0  0  0  0  0  0  0  0  0
    6.6413   11.6824   26.7348 S   0  0  0  0  0  0  0  0  0  0  0  0
    6.2085    9.7914   24.2998 H   0  0  0  0  0  0  0  0  0  0  0  0
    6.5315   11.0914   23.1674 H   0  0  0  0  0  0  0  0  0  0  0  0
    5.9087   12.8023   24.7062 H   0  0  0  0  0  0  0  0  0  0  0  0
    4.8109   11.4922   25.1902 H   0  0  0  0  0  0  0  0  0  0  0  0
    8.1951    9.8173   26.5856 H   0  0  0  0  0  0  0  0  0  0  0  0
    9.0202   11.3804   26.5575 H   0  0  0  0  0  0  0  0  0  0  0  0
   10.6538   15.5667   25.6624 H   0  0  0  0  0  0  0  0  0  0  0  0
   12.0878   15.5631   24.5892 H   0  0  0  0  0  0  0  0  0  0  0  0
   11.9047   14.3091   25.8438 H   0  0  0  0  0  0  0  0  0  0  0  0
   10.2074   13.0241   21.8197 H   0  0  0  0  0  0  0  0  0  0  0  0
   11.4634   11.7644   21.9438 H   0  0  0  0  0  0  0  0  0  0  0  0
   12.2712   13.9117   22.9390 H   0  0  0  0  0  0  0  0  0  0  0  0
   12.1371   12.6590   24.2002 H   0  0  0  0  0  0  0  0  0  0  0  0
    8.6463    8.7821   24.2579 H   0  0  0  0  0  0  0  0  0  0  0  0
  1  6  1  0  0  0  0
  1 11  1  0  0  0  0
  1 12  2  0  0  0  0
  2 10  1  0  0  0  0
  2 11  1  0  0  0  0
  2 13  2  0  0  0  0
  3  4  1  0  0  0  0
  3  6  1  0  0  0  0
  4 15  1  0  0  0  0
  5  6  1  0  0  0  0
  5 15  1  0  0  0  0
  6 10  1  0  0  0  0
  7 14  1  0  0  0  0
  8  9  1  0  0  0  0
  8 11  1  0  0  0  0
  9 14  1  0  0  0  0
  3 16  1  0  0  0  0
  3 17  1  0  0  0  0
  4 18  1  0  0  0  0
  4 19  1  0  0  0  0
  5 20  1  0  0  0  0
  5 21  1  0  0  0  0
  7 22  1  0  0  0  0
  7 23  1  0  0  0  0
  7 24  1  0  0  0  0
  8 25  1  0  0  0  0
  8 26  1  0  0  0  0
  9 27  1  0  0  0  0
  9 28  1  0  0  0  0
 10 29  1  0  0  0  0
M  END
> <Catalog ID>
Z167765994

> <PlateID>
1337959-R-14

> <Well>
H07

> <MW (desalted)>
230.284

> <CLogP>
-0.285

> <HBD>
1

> <TPSA>
58.640

> <RotBonds>
3

> <ROCS_ShapeQuery>
A71EV2A-x0451_0A_A71EV2A-x0310_0A_A71EV2A-x0416_0A_peptide

> <ROCS_TanimotoCombo>
0.411 

> <ROCS_ShapeTanimoto>
0.274 

> <ROCS_ColorTanimoto>
0.136 

> <ROCS_RefTversky>
0.246 

> <ROCS_RefColorTversky>
0.149 

> <ROCS_RefTverskyCombo>
0.395 

> <ROCS_FitTversky>
1.731 

> <ROCS_FitColorTversky>
0.621 

> <ROCS_FitTverskyCombo>
2.353 

> <ROCS_ColorScore>
-4.527

> <ROCS_Overlap>
1702.979

> <ROCS_Rank>
331                 

$$$$
untitled-dbase-798_26
  -OEChem-11112309163D

 37 38  0     1  0  0  0  0  0999 V2000
    7.8587   10.0184   23.7440 C   0  0  0  0  0  0  0  0  0  0  0  0
    7.3164   11.2252   24.1858 C   0  0  0  0  0  0  0  0  0  0  0  0
    9.9656   11.1213   23.3175 C   0  0  0  0  0  0  0  0  0  0  0  0
    9.4233   12.3281   23.7593 C   0  0  0  0  0  0  0  0  0  0  0  0
    9.1833    9.9665   23.3099 C   0  0  0  0  0  0  0  0  0  0  0  0
    8.0987   12.3800   24.1935 C   0  0  0  0  0  0  0  0  0  0  0  0
   10.2438   13.5345   23.7651 C   0  0  0  0  0  0  0  0  0  0  0  0
    9.0416   14.3720   21.7585 C   0  0  0  0  0  0  0  0  0  0  0  0
   11.3694   15.1159   22.0976 C   0  0  0  0  0  0  0  0  0  0  0  0
    8.6463   15.8152   21.4295 C   0  0  2  0  0  0  0  0  0  0  0  0
   10.9343   16.5447   21.7427 C   0  0  1  0  0  0  0  0  0  0  0  0
    9.7631    8.6762   22.8375 C   0  0  0  0  0  0  0  0  0  0  0  0
    7.4693   15.8425   20.4576 C   0  0  0  0  0  0  0  0  0  0  0  0
   12.0825   17.3074   21.0859 C   0  0  0  0  0  0  0  0  0  0  0  0
    9.7819   16.5303   20.8331 N   0  0  0  0  0  0  0  0  0  0  0  0
   10.2361   14.3293   22.6037 N   0  0  0  0  0  0  0  0  0  0  0  0
   10.9107   13.8242   24.7601 O   0  0  0  0  0  0  0  0  0  0  0  0
    7.5673   13.5346   24.6197 F   0  0  0  0  0  0  0  0  0  0  0  0
    7.2414    9.1240   23.7404 H   0  0  0  0  0  0  0  0  0  0  0  0
    6.2849   11.2656   24.5230 H   0  0  0  0  0  0  0  0  0  0  0  0
   10.9984   11.0785   22.9784 H   0  0  0  0  0  0  0  0  0  0  0  0
    8.2109   13.8572   22.2536 H   0  0  0  0  0  0  0  0  0  0  0  0
    9.2749   13.8072   20.8467 H   0  0  0  0  0  0  0  0  0  0  0  0
   11.7486   14.5890   21.2125 H   0  0  0  0  0  0  0  0  0  0  0  0
   12.1835   15.1489   22.8272 H   0  0  0  0  0  0  0  0  0  0  0  0
    8.3364   16.3301   22.3493 H   0  0  0  0  0  0  0  0  0  0  0  0
   10.6590   17.0790   22.6627 H   0  0  0  0  0  0  0  0  0  0  0  0
    9.6059    8.5592   21.7583 H   0  0  0  0  0  0  0  0  0  0  0  0
   10.8409    8.6259   23.0396 H   0  0  0  0  0  0  0  0  0  0  0  0
    9.3036    7.8213   23.3508 H   0  0  0  0  0  0  0  0  0  0  0  0
    7.7430   15.3389   19.5319 H   0  0  0  0  0  0  0  0  0  0  0  0
    7.1975   16.8733   20.2358 H   0  0  0  0  0  0  0  0  0  0  0  0
    6.6134   15.3352   20.9000 H   0  0  0  0  0  0  0  0  0  0  0  0
   12.3822   16.8045   20.1681 H   0  0  0  0  0  0  0  0  0  0  0  0
   12.9332   17.3491   21.7640 H   0  0  0  0  0  0  0  0  0  0  0  0
   11.7643   18.3215   20.8496 H   0  0  0  0  0  0  0  0  0  0  0  0
   10.0462   16.0775   19.9577 H   0  0  0  0  0  0  0  0  0  0  0  0
  1  2  1  0  0  0  0
  1  5  2  0  0  0  0
  2  6  2  0  0  0  0
  3  4  2  0  0  0  0
  3  5  1  0  0  0  0
  4  6  1  0  0  0  0
  4  7  1  0  0  0  0
  5 12  1  0  0  0  0
  6 18  1  0  0  0  0
  7 16  1  0  0  0  0
  7 17  2  0  0  0  0
  8 10  1  0  0  0  0
  8 16  1  0  0  0  0
  9 11  1  0  0  0  0
  9 16  1  0  0  0  0
 10 13  1  0  0  0  0
 10 15  1  0  0  0  0
 11 14  1  0  0  0  0
 11 15  1  0  0  0  0
  1 19  1  0  0  0  0
  2 20  1  0  0  0  0
  3 21  1  0  0  0  0
  8 22  1  0  0  0  0
  8 23  1  0  0  0  0
  9 24  1  0  0  0  0
  9 25  1  0  0  0  0
 10 26  1  0  0  0  0
 11 27  1  0  0  0  0
 12 28  1  0  0  0  0
 12 29  1  0  0  0  0
 12 30  1  0  0  0  0
 13 31  1  0  0  0  0
 13 32  1  0  0  0  0
 13 33  1  0  0  0  0
 14 34  1  0  0  0  0
 14 35  1  0  0  0  0
 14 36  1  0  0  0  0
 15 37  1  0  0  0  0
M  END
> <Catalog ID>
Z1457196988

> <PlateID>
1337959-R-10

> <Well>
H11

> <MW (desalted)>
250.312

> <CLogP>
2.514

> <HBD>
1

> <TPSA>
32.340

> <RotBonds>
1

> <ROCS_ShapeQuery>
A71EV2A-x0451_0A_A71EV2A-x0310_0A_A71EV2A-x0416_0A_peptide

> <ROCS_TanimotoCombo>
0.411 

> <ROCS_ShapeTanimoto>
0.259 

> <ROCS_ColorTanimoto>
0.152 

> <ROCS_RefTversky>
0.239 

> <ROCS_RefColorTversky>
0.159 

> <ROCS_RefTverskyCombo>
0.398 

> <ROCS_FitTversky>
1.485 

> <ROCS_FitColorTversky>
0.763 

> <ROCS_FitTverskyCombo>
2.249 

> <ROCS_ColorScore>
-4.837

> <ROCS_Overlap>
1655.556

> <ROCS_Rank>
332                 

$$$$
untitled-dbase-895_35
  -OEChem-11112309163D

 28 28  0     0  0  0  0  0  0999 V2000
    9.1913   11.5155   23.4490 C   0  0  0  0  0  0  0  0  0  0  0  0
    8.1263   12.0374   24.2034 C   0  0  0  0  0  0  0  0  0  0  0  0
    9.1494   10.1720   23.7124 C   0  0  0  0  0  0  0  0  0  0  0  0
    7.6882   13.4395   24.3105 C   0  0  0  0  0  0  0  0  0  0  0  0
    9.9504    9.0210   23.2749 C   0  0  0  0  0  0  0  0  0  0  0  0
   12.7563   15.3166   22.4317 C   0  0  0  0  0  0  0  0  0  0  0  0
   10.4793   14.9810   21.4195 C   0  0  0  0  0  0  0  0  0  0  0  0
   11.7118   14.2998   21.9957 C   0  0  0  0  0  0  0  0  0  0  0  0
    7.4738   11.0900   24.8827 N   0  0  0  0  0  0  0  0  0  0  0  0
   10.1018   12.2408   22.6034 N   0  0  0  0  0  0  0  0  0  0  0  0
   10.5582   14.0987   24.3187 O   0  0  0  0  0  0  0  0  0  0  0  0
   12.4323   12.5098   23.7634 O   0  0  0  0  0  0  0  0  0  0  0  0
    8.1286    9.9056   24.5668 O   0  0  0  0  0  0  0  0  0  0  0  0
   11.2584   13.2616   23.3598 S   0  0  0  0  0  0  0  0  0  0  0  0
    6.9363   13.6840   23.5408 H   0  0  0  0  0  0  0  0  0  0  0  0
    7.2405   13.6624   25.2954 H   0  0  0  0  0  0  0  0  0  0  0  0
    8.5271   14.1486   24.1929 H   0  0  0  0  0  0  0  0  0  0  0  0
   10.8038    8.8410   23.9532 H   0  0  0  0  0  0  0  0  0  0  0  0
    9.3588    8.0872   23.2353 H   0  0  0  0  0  0  0  0  0  0  0  0
   10.3618    9.1571   22.2571 H   0  0  0  0  0  0  0  0  0  0  0  0
   12.3481   15.9977   23.1855 H   0  0  0  0  0  0  0  0  0  0  0  0
   13.6379   14.8245   22.8570 H   0  0  0  0  0  0  0  0  0  0  0  0
   13.0934   15.9179   21.5805 H   0  0  0  0  0  0  0  0  0  0  0  0
   10.0264   15.6556   22.1533 H   0  0  0  0  0  0  0  0  0  0  0  0
    9.7239   14.2476   21.1169 H   0  0  0  0  0  0  0  0  0  0  0  0
   10.7390   15.5707   20.5337 H   0  0  0  0  0  0  0  0  0  0  0  0
   12.1447   13.6321   21.2430 H   0  0  0  0  0  0  0  0  0  0  0  0
   10.4567   11.6900   21.8100 H   0  0  0  0  0  0  0  0  0  0  0  0
  1  2  1  0  0  0  0
  1  3  2  0  0  0  0
  1 10  1  0  0  0  0
  2  4  1  0  0  0  0
  2  9  2  0  0  0  0
  3  5  1  0  0  0  0
  3 13  1  0  0  0  0
  6  8  1  0  0  0  0
  7  8  1  0  0  0  0
  8 14  1  0  0  0  0
  9 13  1  0  0  0  0
 10 14  1  0  0  0  0
 11 14  2  0  0  0  0
 12 14  2  0  0  0  0
  4 15  1  0  0  0  0
  4 16  1  0  0  0  0
  4 17  1  0  0  0  0
  5 18  1  0  0  0  0
  5 19  1  0  0  0  0
  5 20  1  0  0  0  0
  6 21  1  0  0  0  0
  6 22  1  0  0  0  0
  6 23  1  0  0  0  0
  7 24  1  0  0  0  0
  7 25  1  0  0  0  0
  7 26  1  0  0  0  0
  8 27  1  0  0  0  0
 10 28  1  0  0  0  0
M  END
> <Catalog ID>
Z1065888114

> <PlateID>
1337959-R-12

> <Well>
B09

> <MW (desalted)>
218.273

> <CLogP>
-0.202

> <HBD>
1

> <TPSA>
72.200

> <RotBonds>
2

> <ROCS_ShapeQuery>
A71EV2A-x0451_0A_A71EV2A-x0310_0A_A71EV2A-x0416_0A_peptide

> <ROCS_TanimotoCombo>
0.411 

> <ROCS_ShapeTanimoto>
0.283 

> <ROCS_ColorTanimoto>
0.127 

> <ROCS_RefTversky>
0.250 

> <ROCS_RefColorTversky>
0.140 

> <ROCS_RefTverskyCombo>
0.390 

> <ROCS_FitTversky>
1.891 

> <ROCS_FitColorTversky>
0.584 

> <ROCS_FitTverskyCombo>
2.475 

> <ROCS_ColorScore>
-4.258

> <ROCS_Overlap>
1730.568

> <ROCS_Rank>
333                 

$$$$
untitled-dbase-591_21
  -OEChem-11112309163D

 36 37  0     1  0  0  0  0  0999 V2000
   11.5372   15.4359   22.6950 C   0  0  0  0  0  0  0  0  0  0  0  0
    6.3960   11.9718   25.7520 C   0  0  0  0  0  0  0  0  0  0  0  0
    6.6703   12.5858   24.5301 C   0  0  0  0  0  0  0  0  0  0  0  0
    7.2665   11.0067   26.2587 C   0  0  0  0  0  0  0  0  0  0  0  0
    7.8151   12.2347   23.8146 C   0  0  0  0  0  0  0  0  0  0  0  0
    8.4112   10.6556   25.5432 C   0  0  0  0  0  0  0  0  0  0  0  0
    8.6856   11.2696   24.3212 C   0  0  0  0  0  0  0  0  0  0  0  0
   10.7426   13.2028   23.1448 C   0  0  0  0  0  0  0  0  0  0  0  0
   10.3821   13.5916   19.8229 C   0  0  0  0  0  0  0  0  0  0  0  0
   11.8903   13.7440   19.7767 C   0  0  0  0  0  0  0  0  0  0  0  0
    9.9904   14.3783   21.0683 C   0  0  0  0  0  0  0  0  0  0  0  0
   12.3063   13.5744   21.2337 C   0  0  0  0  0  0  0  0  0  0  0  0
   11.1488   14.1651   22.0632 C   0  0  0  0  0  0  0  0  0  0  0  0
   11.0720   10.4456   24.4550 C   0  0  0  0  0  0  0  0  0  0  0  0
    9.9278   10.8881   23.5453 C   0  0  2  0  0  0  0  0  0  0  0  0
   11.8436   16.4379   23.1933 N   0  0  0  0  0  0  0  0  0  0  0  0
   10.3544   11.9619   22.6770 N   0  0  0  0  0  0  0  0  0  0  0  0
   10.7804   13.5597   24.3165 O   0  0  0  0  0  0  0  0  0  0  0  0
    5.5053   12.2462   26.3097 H   0  0  0  0  0  0  0  0  0  0  0  0
    5.9932   13.3380   24.1360 H   0  0  0  0  0  0  0  0  0  0  0  0
    7.0537   10.5292   27.2106 H   0  0  0  0  0  0  0  0  0  0  0  0
    8.0207   12.7183   22.8632 H   0  0  0  0  0  0  0  0  0  0  0  0
    9.0837    9.9026   25.9456 H   0  0  0  0  0  0  0  0  0  0  0  0
    9.8957   13.9742   18.9211 H   0  0  0  0  0  0  0  0  0  0  0  0
   10.1085   12.5363   19.9398 H   0  0  0  0  0  0  0  0  0  0  0  0
   12.3644   13.0072   19.1219 H   0  0  0  0  0  0  0  0  0  0  0  0
   12.1613   14.7447   19.4197 H   0  0  0  0  0  0  0  0  0  0  0  0
    9.8849   15.4380   20.8003 H   0  0  0  0  0  0  0  0  0  0  0  0
    9.0180   14.0440   21.4464 H   0  0  0  0  0  0  0  0  0  0  0  0
   12.4382   12.5043   21.4400 H   0  0  0  0  0  0  0  0  0  0  0  0
   13.2715   14.0588   21.4206 H   0  0  0  0  0  0  0  0  0  0  0  0
   11.3550   11.2439   25.1498 H   0  0  0  0  0  0  0  0  0  0  0  0
   10.7769    9.5708   25.0453 H   0  0  0  0  0  0  0  0  0  0  0  0
   11.9636   10.1626   23.8842 H   0  0  0  0  0  0  0  0  0  0  0  0
    9.6911   10.0512   22.8767 H   0  0  0  0  0  0  0  0  0  0  0  0
   10.3696   11.7964   21.6751 H   0  0  0  0  0  0  0  0  0  0  0  0
  1 13  1  0  0  0  0
  1 16  3  0  0  0  0
  2  3  2  0  0  0  0
  2  4  1  0  0  0  0
  3  5  1  0  0  0  0
  4  6  2  0  0  0  0
  5  7  2  0  0  0  0
  6  7  1  0  0  0  0
  7 15  1  0  0  0  0
  8 13  1  0  0  0  0
  8 17  1  0  0  0  0
  8 18  2  0  0  0  0
  9 10  1  0  0  0  0
  9 11  1  0  0  0  0
 10 12  1  0  0  0  0
 11 13  1  0  0  0  0
 12 13  1  0  0  0  0
 14 15  1  0  0  0  0
 15 17  1  0  0  0  0
  2 19  1  0  0  0  0
  3 20  1  0  0  0  0
  4 21  1  0  0  0  0
  5 22  1  0  0  0  0
  6 23  1  0  0  0  0
  9 24  1  0  0  0  0
  9 25  1  0  0  0  0
 10 26  1  0  0  0  0
 10 27  1  0  0  0  0
 11 28  1  0  0  0  0
 11 29  1  0  0  0  0
 12 30  1  0  0  0  0
 12 31  1  0  0  0  0
 14 32  1  0  0  0  0
 14 33  1  0  0  0  0
 14 34  1  0  0  0  0
 15 35  1  0  0  0  0
 17 36  1  0  0  0  0
M  END
> <Catalog ID>
Z104387538

> <PlateID>
1337959-R-08

> <Well>
D03

> <MW (desalted)>
242.316

> <CLogP>
2.140

> <HBD>
1

> <TPSA>
52.890

> <RotBonds>
3

> <ROCS_ShapeQuery>
A71EV2A-x0451_0A_A71EV2A-x0310_0A_A71EV2A-x0416_0A_peptide

> <ROCS_TanimotoCombo>
0.410 

> <ROCS_ShapeTanimoto>
0.269 

> <ROCS_ColorTanimoto>
0.141 

> <ROCS_RefTversky>
0.246 

> <ROCS_RefColorTversky>
0.150 

> <ROCS_RefTverskyCombo>
0.396 

> <ROCS_FitTversky>
1.536 

> <ROCS_FitColorTversky>
0.717 

> <ROCS_FitTverskyCombo>
2.253 

> <ROCS_ColorScore>
-4.542

> <ROCS_Overlap>
1707.177

> <ROCS_Rank>
334                 

$$$$
untitled-dbase-938_30
  -OEChem-11112309163D

 33 34  0     0  0  0  0  0  0999 V2000
   11.8682   14.9045   20.4944 C   0  0  0  0  0  0  0  0  0  0  0  0
   10.9093   14.7509   19.4932 C   0  0  0  0  0  0  0  0  0  0  0  0
    9.4245   13.6919   21.0777 C   0  0  0  0  0  0  0  0  0  0  0  0
   10.3834   13.8455   22.0790 C   0  0  0  0  0  0  0  0  0  0  0  0
   11.6053   14.4517   21.7874 C   0  0  0  0  0  0  0  0  0  0  0  0
    9.6875   14.1446   19.7848 C   0  0  0  0  0  0  0  0  0  0  0  0
   10.1028   13.3667   23.4420 C   0  0  0  0  0  0  0  0  0  0  0  0
    9.1417   11.1804   22.6090 C   0  0  0  0  0  0  0  0  0  0  0  0
    9.1559    9.8248   23.3033 C   0  0  0  0  0  0  0  0  0  0  0  0
    7.4719   10.8822   24.6399 C   0  0  0  0  0  0  0  0  0  0  0  0
    8.4234   12.0905   24.8295 C   0  0  0  0  0  0  0  0  0  0  0  0
    7.5383   13.3267   25.0817 C   0  0  0  0  0  0  0  0  0  0  0  0
    9.3247   11.8380   26.0533 C   0  0  0  0  0  0  0  0  0  0  0  0
    9.2494   12.2630   23.5984 N   0  0  0  0  0  0  0  0  0  0  0  0
   10.6377   14.0013   24.3498 O   0  0  0  0  0  0  0  0  0  0  0  0
    8.1694    9.6806   24.3237 O   0  0  0  0  0  0  0  0  0  0  0  0
   12.5348   14.6055   22.7411 F   0  0  0  0  0  0  0  0  0  0  0  0
    8.5044   13.9553   18.5492 Cl  0  0  0  0  0  0  0  0  0  0  0  0
   12.8197   15.3763   20.2676 H   0  0  0  0  0  0  0  0  0  0  0  0
   11.1277   15.1085   18.4903 H   0  0  0  0  0  0  0  0  0  0  0  0
    8.4726   13.2185   21.3084 H   0  0  0  0  0  0  0  0  0  0  0  0
    9.9470   11.2139   21.8877 H   0  0  0  0  0  0  0  0  0  0  0  0
    8.1968   11.3227   22.0934 H   0  0  0  0  0  0  0  0  0  0  0  0
    8.9722    9.0248   22.5529 H   0  0  0  0  0  0  0  0  0  0  0  0
   10.1648    9.5987   23.7229 H   0  0  0  0  0  0  0  0  0  0  0  0
    6.8557   10.7129   25.5357 H   0  0  0  0  0  0  0  0  0  0  0  0
    6.7719   11.0726   23.8149 H   0  0  0  0  0  0  0  0  0  0  0  0
    8.1717   14.1959   25.2197 H   0  0  0  0  0  0  0  0  0  0  0  0
    6.9423   13.1620   25.9725 H   0  0  0  0  0  0  0  0  0  0  0  0
    6.8875   13.4788   24.2276 H   0  0  0  0  0  0  0  0  0  0  0  0
    9.9878   12.6844   26.1821 H   0  0  0  0  0  0  0  0  0  0  0  0
    9.9022   10.9375   25.8847 H   0  0  0  0  0  0  0  0  0  0  0  0
    8.7010   11.7192   26.9306 H   0  0  0  0  0  0  0  0  0  0  0  0
  1  2  1  0  0  0  0
  1  5  2  0  0  0  0
  2  6  2  0  0  0  0
  3  4  2  0  0  0  0
  3  6  1  0  0  0  0
  4  5  1  0  0  0  0
  4  7  1  0  0  0  0
  5 17  1  0  0  0  0
  6 18  1  0  0  0  0
  7 14  1  0  0  0  0
  7 15  2  0  0  0  0
  8  9  1  0  0  0  0
  8 14  1  0  0  0  0
  9 16  1  0  0  0  0
 10 11  1  0  0  0  0
 10 16  1  0  0  0  0
 11 12  1  0  0  0  0
 11 13  1  0  0  0  0
 11 14  1  0  0  0  0
  1 19  1  0  0  0  0
  2 20  1  0  0  0  0
  3 21  1  0  0  0  0
  8 22  1  0  0  0  0
  8 23  1  0  0  0  0
  9 24  1  0  0  0  0
  9 25  1  0  0  0  0
 10 26  1  0  0  0  0
 10 27  1  0  0  0  0
 12 28  1  0  0  0  0
 12 29  1  0  0  0  0
 12 30  1  0  0  0  0
 13 31  1  0  0  0  0
 13 32  1  0  0  0  0
 13 33  1  0  0  0  0
M  END
> <Catalog ID>
Z785974974

> <PlateID>
1337959-R-12

> <Well>
G02

> <MW (desalted)>
271.715

> <CLogP>
2.768

> <HBD>
0

> <TPSA>
29.540

> <RotBonds>
1

> <ROCS_ShapeQuery>
A71EV2A-x0451_0A_A71EV2A-x0310_0A_A71EV2A-x0416_0A_peptide

> <ROCS_TanimotoCombo>
0.410 

> <ROCS_ShapeTanimoto>
0.276 

> <ROCS_ColorTanimoto>
0.134 

> <ROCS_RefTversky>
0.251 

> <ROCS_RefColorTversky>
0.143 

> <ROCS_RefTverskyCombo>
0.394 

> <ROCS_FitTversky>
1.560 

> <ROCS_FitColorTversky>
0.687 

> <ROCS_FitTverskyCombo>
2.246 

> <ROCS_ColorScore>
-4.349

> <ROCS_Overlap>
1741.973

> <ROCS_Rank>
335                 

$$$$
untitled-dbase-756_104
  -OEChem-11112309163D

 36 37  0     1  0  0  0  0  0999 V2000
    7.7363   10.0222   24.2835 C   0  0  0  0  0  0  0  0  0  0  0  0
    7.4998   11.3133   24.7554 C   0  0  0  0  0  0  0  0  0  0  0  0
    9.7999   10.7694   23.2734 C   0  0  0  0  0  0  0  0  0  0  0  0
    9.5635   12.0605   23.7453 C   0  0  0  0  0  0  0  0  0  0  0  0
    8.8864    9.7502   23.5425 C   0  0  0  0  0  0  0  0  0  0  0  0
    8.4134   12.3325   24.4863 C   0  0  0  0  0  0  0  0  0  0  0  0
   10.5281   13.1329   23.4590 C   0  0  0  0  0  0  0  0  0  0  0  0
   12.6036   15.1409   21.9256 C   0  0  0  0  0  0  0  0  0  0  0  0
   12.6170   13.6499   22.2717 C   0  0  0  0  0  0  0  0  0  0  0  0
   10.7997   12.4204   21.0382 C   0  0  0  0  0  0  0  0  0  0  0  0
   11.2199   13.0832   19.7293 C   0  0  0  0  0  0  0  0  0  0  0  0
   12.4475   15.4728   20.4356 C   0  0  2  0  0  0  0  0  0  0  0  0
    9.1391    8.3698   23.0379 C   0  0  0  0  0  0  0  0  0  0  0  0
   12.5095   16.9860   20.2225 C   0  0  0  0  0  0  0  0  0  0  0  0
   11.2758   13.0634   22.2721 N   0  0  0  0  0  0  0  0  0  0  0  0
   10.6145   14.0260   24.3016 O   0  0  0  0  0  0  0  0  0  0  0  0
    8.1761   13.5697   24.9443 F   0  0  0  0  0  0  0  0  0  0  0  0
   10.8799   14.8679   19.7079 S   0  0  0  0  0  0  0  0  0  0  0  0
    7.0184    9.2348   24.4969 H   0  0  0  0  0  0  0  0  0  0  0  0
    6.6040   11.5251   25.3316 H   0  0  0  0  0  0  0  0  0  0  0  0
   10.6962   10.5549   22.6952 H   0  0  0  0  0  0  0  0  0  0  0  0
   11.8066   15.6136   22.5013 H   0  0  0  0  0  0  0  0  0  0  0  0
   13.5374   15.5870   22.2715 H   0  0  0  0  0  0  0  0  0  0  0  0
   13.2435   13.1218   21.5543 H   0  0  0  0  0  0  0  0  0  0  0  0
   13.0670   13.4967   23.2520 H   0  0  0  0  0  0  0  0  0  0  0  0
    9.6987   12.3209   21.0969 H   0  0  0  0  0  0  0  0  0  0  0  0
   11.1776   11.3808   21.0277 H   0  0  0  0  0  0  0  0  0  0  0  0
   12.2743   12.9088   19.5206 H   0  0  0  0  0  0  0  0  0  0  0  0
   10.6487   12.6391   18.9144 H   0  0  0  0  0  0  0  0  0  0  0  0
   13.2799   15.0356   19.8719 H   0  0  0  0  0  0  0  0  0  0  0  0
    8.6984    8.2405   22.0418 H   0  0  0  0  0  0  0  0  0  0  0  0
   10.2146    8.1601   22.9723 H   0  0  0  0  0  0  0  0  0  0  0  0
    8.7089    7.6151   23.7093 H   0  0  0  0  0  0  0  0  0  0  0  0
   11.6985   17.4670   20.7657 H   0  0  0  0  0  0  0  0  0  0  0  0
   12.4138   17.2120   19.1624 H   0  0  0  0  0  0  0  0  0  0  0  0
   13.4609   17.3695   20.5860 H   0  0  0  0  0  0  0  0  0  0  0  0
  1  2  1  0  0  0  0
  1  5  2  0  0  0  0
  2  6  2  0  0  0  0
  3  4  2  0  0  0  0
  3  5  1  0  0  0  0
  4  6  1  0  0  0  0
  4  7  1  0  0  0  0
  5 13  1  0  0  0  0
  6 17  1  0  0  0  0
  7 15  1  0  0  0  0
  7 16  2  0  0  0  0
  8  9  1  0  0  0  0
  8 12  1  0  0  0  0
  9 15  1  0  0  0  0
 10 11  1  0  0  0  0
 10 15  1  0  0  0  0
 11 18  1  0  0  0  0
 12 14  1  0  0  0  0
 12 18  1  0  0  0  0
  1 19  1  0  0  0  0
  2 20  1  0  0  0  0
  3 21  1  0  0  0  0
  8 22  1  0  0  0  0
  8 23  1  0  0  0  0
  9 24  1  0  0  0  0
  9 25  1  0  0  0  0
 10 26  1  0  0  0  0
 10 27  1  0  0  0  0
 11 28  1  0  0  0  0
 11 29  1  0  0  0  0
 12 30  1  0  0  0  0
 13 31  1  0  0  0  0
 13 32  1  0  0  0  0
 13 33  1  0  0  0  0
 14 34  1  0  0  0  0
 14 35  1  0  0  0  0
 14 36  1  0  0  0  0
M  END
> <Catalog ID>
Z1861963622

> <PlateID>
1337959-R-10

> <Well>
D09

> <MW (desalted)>
267.362

> <CLogP>
2.775

> <HBD>
0

> <TPSA>
20.310

> <RotBonds>
1

> <ROCS_ShapeQuery>
A71EV2A-x0451_0A_A71EV2A-x0310_0A_A71EV2A-x0416_0A_peptide

> <ROCS_TanimotoCombo>
0.410 

> <ROCS_ShapeTanimoto>
0.302 

> <ROCS_ColorTanimoto>
0.109 

> <ROCS_RefTversky>
0.268 

> <ROCS_RefColorTversky>
0.112 

> <ROCS_RefTverskyCombo>
0.381 

> <ROCS_FitTversky>
1.703 

> <ROCS_FitColorTversky>
0.766 

> <ROCS_FitTverskyCombo>
2.469 

> <ROCS_ColorScore>
-3.399

> <ROCS_Overlap>
1860.662

> <ROCS_Rank>
336                 

$$$$
untitled-dbase-729_209
  -OEChem-11112309163D

 32 33  0     1  0  0  0  0  0999 V2000
    9.0998   10.2530   23.3996 C   0  0  0  0  0  0  0  0  0  0  0  0
    8.6704   12.5427   23.9973 C   0  0  0  0  0  0  0  0  0  0  0  0
    8.1282    9.8877   24.3174 C   0  0  0  0  0  0  0  0  0  0  0  0
    7.7179   12.0749   24.8881 C   0  0  0  0  0  0  0  0  0  0  0  0
    9.3701   11.6078   23.2425 C   0  0  0  0  0  0  0  0  0  0  0  0
   11.4150   14.1922   23.1048 C   0  0  0  0  0  0  0  0  0  0  0  0
   12.9214   16.1437   21.0895 C   0  0  0  0  0  0  0  0  0  0  0  0
   13.4142   14.8879   21.7679 C   0  0  0  0  0  0  0  0  0  0  0  0
   12.7752   17.0951   22.2550 C   0  0  0  0  0  0  0  0  0  0  0  0
   12.7128   14.9342   23.1116 C   0  0  1  0  0  0  0  0  0  0  0  0
   12.6294   12.0210   23.3436 C   0  0  0  0  0  0  0  0  0  0  0  0
   10.4139   12.0594   22.2623 C   0  0  0  0  0  0  0  0  0  0  0  0
    7.4277   10.7669   25.0684 N   0  0  0  0  0  0  0  0  0  0  0  0
   11.4842   12.8120   22.9116 N   0  0  0  0  0  0  0  0  0  0  0  0
   10.3635   14.8173   23.2664 O   0  0  0  0  0  0  0  0  0  0  0  0
   12.3771   16.2990   23.3788 O   0  0  0  0  0  0  0  0  0  0  0  0
    9.6287    9.4988   22.8267 H   0  0  0  0  0  0  0  0  0  0  0  0
    8.8585   13.6061   23.8971 H   0  0  0  0  0  0  0  0  0  0  0  0
    7.8808    8.8434   24.4782 H   0  0  0  0  0  0  0  0  0  0  0  0
    7.1449   12.7636   25.5001 H   0  0  0  0  0  0  0  0  0  0  0  0
   13.5959   16.5170   20.3146 H   0  0  0  0  0  0  0  0  0  0  0  0
   11.9424   15.9587   20.6322 H   0  0  0  0  0  0  0  0  0  0  0  0
   13.2181   13.9824   21.1873 H   0  0  0  0  0  0  0  0  0  0  0  0
   14.4964   14.9619   21.9273 H   0  0  0  0  0  0  0  0  0  0  0  0
   13.7307   17.5709   22.5012 H   0  0  0  0  0  0  0  0  0  0  0  0
   12.0315   17.8757   22.0728 H   0  0  0  0  0  0  0  0  0  0  0  0
   13.3296   14.5381   23.9224 H   0  0  0  0  0  0  0  0  0  0  0  0
   12.4659   11.6701   24.3732 H   0  0  0  0  0  0  0  0  0  0  0  0
   12.7495   11.1550   22.6760 H   0  0  0  0  0  0  0  0  0  0  0  0
   13.5375   12.6406   23.3074 H   0  0  0  0  0  0  0  0  0  0  0  0
   10.8656   11.1996   21.7557 H   0  0  0  0  0  0  0  0  0  0  0  0
    9.9761   12.6994   21.4891 H   0  0  0  0  0  0  0  0  0  0  0  0
  1  3  1  0  0  0  0
  1  5  2  0  0  0  0
  2  4  2  0  0  0  0
  2  5  1  0  0  0  0
  3 13  2  0  0  0  0
  4 13  1  0  0  0  0
  5 12  1  0  0  0  0
  6 10  1  0  0  0  0
  6 14  1  0  0  0  0
  6 15  2  0  0  0  0
  7  8  1  0  0  0  0
  7  9  1  0  0  0  0
  8 10  1  0  0  0  0
  9 16  1  0  0  0  0
 10 16  1  0  0  0  0
 11 14  1  0  0  0  0
 12 14  1  0  0  0  0
  1 17  1  0  0  0  0
  2 18  1  0  0  0  0
  3 19  1  0  0  0  0
  4 20  1  0  0  0  0
  7 21  1  0  0  0  0
  7 22  1  0  0  0  0
  8 23  1  0  0  0  0
  8 24  1  0  0  0  0
  9 25  1  0  0  0  0
  9 26  1  0  0  0  0
 10 27  1  0  0  0  0
 11 28  1  0  0  0  0
 11 29  1  0  0  0  0
 11 30  1  0  0  0  0
 12 31  1  0  0  0  0
 12 32  1  0  0  0  0
M  END
> <Catalog ID>
Z361336988

> <PlateID>
1337959-R-10

> <Well>
B02

> <MW (desalted)>
220.268

> <CLogP>
0.189

> <HBD>
0

> <TPSA>
42.430

> <RotBonds>
3

> <ROCS_ShapeQuery>
A71EV2A-x0451_0A_A71EV2A-x0310_0A_A71EV2A-x0416_0A_peptide

> <ROCS_TanimotoCombo>
0.410 

> <ROCS_ShapeTanimoto>
0.270 

> <ROCS_ColorTanimoto>
0.140 

> <ROCS_RefTversky>
0.245 

> <ROCS_RefColorTversky>
0.148 

> <ROCS_RefTverskyCombo>
0.393 

> <ROCS_FitTversky>
1.633 

> <ROCS_FitColorTversky>
0.712 

> <ROCS_FitTverskyCombo>
2.344 

> <ROCS_ColorScore>
-4.508

> <ROCS_Overlap>
1695.438

> <ROCS_Rank>
337                 

$$$$
untitled-dbase-834_277
  -OEChem-11112309163D

 32 33  0     1  0  0  0  0  0999 V2000
    7.7174   11.8864   24.8351 C   0  0  0  0  0  0  0  0  0  0  0  0
    7.2182   10.5843   24.8022 C   0  0  0  0  0  0  0  0  0  0  0  0
    8.9181   12.1894   24.1930 C   0  0  0  0  0  0  0  0  0  0  0  0
    7.9198    9.5853   24.1274 C   0  0  0  0  0  0  0  0  0  0  0  0
    9.6196   11.1904   23.5181 C   0  0  0  0  0  0  0  0  0  0  0  0
    9.1205    9.8883   23.4853 C   0  0  0  0  0  0  0  0  0  0  0  0
   10.8827   11.5137   22.8439 C   0  0  0  0  0  0  0  0  0  0  0  0
   11.4079   15.3558   22.8596 C   0  0  0  0  0  0  0  0  0  0  0  0
    9.1499   14.0740   21.0848 C   0  0  0  0  0  0  0  0  0  0  0  0
   10.2462   15.0619   20.6832 C   0  0  0  0  0  0  0  0  0  0  0  0
    9.6534   12.6374   21.0198 C   0  0  0  0  0  0  0  0  0  0  0  0
   11.9748   13.3647   21.4705 C   0  0  0  0  0  0  0  0  0  0  0  0
   11.5476   14.8353   21.4578 C   0  0  2  0  0  0  0  0  0  0  0  0
   10.8606   12.4733   21.8281 N   0  0  0  0  0  0  0  0  0  0  0  0
   11.8774   10.9055   23.2357 O   0  0  0  0  0  0  0  0  0  0  0  0
   10.6166   14.9332   23.6895 O   0  0  0  0  0  0  0  0  0  0  0  0
   12.2817   16.3674   23.0840 O   0  0  0  0  0  0  0  0  0  0  0  0
    9.7861    8.9195   22.8401 F   0  0  0  0  0  0  0  0  0  0  0  0
    7.1713   12.6641   25.3607 H   0  0  0  0  0  0  0  0  0  0  0  0
    6.2833   10.3484   25.3020 H   0  0  0  0  0  0  0  0  0  0  0  0
    9.2970   13.2077   24.2253 H   0  0  0  0  0  0  0  0  0  0  0  0
    7.5313    8.5715   24.1016 H   0  0  0  0  0  0  0  0  0  0  0  0
    8.7981   14.2966   22.0995 H   0  0  0  0  0  0  0  0  0  0  0  0
    8.2888   14.1930   20.4175 H   0  0  0  0  0  0  0  0  0  0  0  0
   10.4489   14.9446   19.6110 H   0  0  0  0  0  0  0  0  0  0  0  0
    9.8823   16.0862   20.8280 H   0  0  0  0  0  0  0  0  0  0  0  0
    8.8672   11.9542   21.3569 H   0  0  0  0  0  0  0  0  0  0  0  0
    9.9072   12.3625   19.9892 H   0  0  0  0  0  0  0  0  0  0  0  0
   12.3043   13.0651   20.4681 H   0  0  0  0  0  0  0  0  0  0  0  0
   12.8251   13.2258   22.1439 H   0  0  0  0  0  0  0  0  0  0  0  0
   12.3403   15.4317   20.9916 H   0  0  0  0  0  0  0  0  0  0  0  0
   12.2046   16.7228   23.9951 H   0  0  0  0  0  0  0  0  0  0  0  0
  1  2  2  0  0  0  0
  1  3  1  0  0  0  0
  2  4  1  0  0  0  0
  3  5  2  0  0  0  0
  4  6  2  0  0  0  0
  5  6  1  0  0  0  0
  5  7  1  0  0  0  0
  6 18  1  0  0  0  0
  7 14  1  0  0  0  0
  7 15  2  0  0  0  0
  8 13  1  0  0  0  0
  8 16  2  0  0  0  0
  8 17  1  0  0  0  0
  9 10  1  0  0  0  0
  9 11  1  0  0  0  0
 10 13  1  0  0  0  0
 11 14  1  0  0  0  0
 12 13  1  0  0  0  0
 12 14  1  0  0  0  0
  1 19  1  0  0  0  0
  2 20  1  0  0  0  0
  3 21  1  0  0  0  0
  4 22  1  0  0  0  0
  9 23  1  0  0  0  0
  9 24  1  0  0  0  0
 10 25  1  0  0  0  0
 10 26  1  0  0  0  0
 11 27  1  0  0  0  0
 11 28  1  0  0  0  0
 12 29  1  0  0  0  0
 12 30  1  0  0  0  0
 13 31  1  0  0  0  0
 17 32  1  0  0  0  0
M  END
> <Catalog ID>
Z85894378

> <PlateID>
1337959-R-11

> <Well>
D07

> <MW (desalted)>
251.254

> <CLogP>
1.396

> <HBD>
1

> <TPSA>
57.610

> <RotBonds>
2

> <ROCS_ShapeQuery>
A71EV2A-x0451_0A_A71EV2A-x0310_0A_A71EV2A-x0416_0A_peptide

> <ROCS_TanimotoCombo>
0.410 

> <ROCS_ShapeTanimoto>
0.294 

> <ROCS_ColorTanimoto>
0.116 

> <ROCS_RefTversky>
0.264 

> <ROCS_RefColorTversky>
0.129 

> <ROCS_RefTverskyCombo>
0.393 

> <ROCS_FitTversky>
1.627 

> <ROCS_FitColorTversky>
0.536 

> <ROCS_FitTverskyCombo>
2.163 

> <ROCS_ColorScore>
-3.912

> <ROCS_Overlap>
1833.997

> <ROCS_Rank>
338                 

$$$$
untitled-dbase-1037_32
  -OEChem-11112309163D

 30 32  0     0  0  0  0  0  0999 V2000
   12.2279   13.6937   22.7584 C   0  0  0  0  0  0  0  0  0  0  0  0
   12.2042   15.0029   23.2693 C   0  0  0  0  0  0  0  0  0  0  0  0
   10.9126   13.4274   22.4839 C   0  0  0  0  0  0  0  0  0  0  0  0
    8.4490   12.0337   23.7170 C   0  0  0  0  0  0  0  0  0  0  0  0
    9.7644   10.1635   23.2585 C   0  0  0  0  0  0  0  0  0  0  0  0
    6.4056   11.3156   26.0387 C   0  0  0  0  0  0  0  0  0  0  0  0
    7.9290   11.1405   26.1975 C   0  0  0  0  0  0  0  0  0  0  0  0
    6.4992   10.4927   24.7385 C   0  0  0  0  0  0  0  0  0  0  0  0
    7.9939   10.8751   24.6780 C   0  0  0  0  0  0  0  0  0  0  0  0
   13.3432   15.8102   23.7346 C   0  0  0  0  0  0  0  0  0  0  0  0
   10.1878   12.2373   21.9248 C   0  0  0  0  0  0  0  0  0  0  0  0
   10.9687   15.5098   23.3087 N   0  0  0  0  0  0  0  0  0  0  0  0
    8.8909    9.7738   24.2871 N   0  0  0  0  0  0  0  0  0  0  0  0
    9.4770   11.5026   22.9529 N   0  0  0  0  0  0  0  0  0  0  0  0
    7.9983   13.1717   23.6434 O   0  0  0  0  0  0  0  0  0  0  0  0
   10.6119    9.4498   22.7365 O   0  0  0  0  0  0  0  0  0  0  0  0
   10.1512   14.5036   22.8081 O   0  0  0  0  0  0  0  0  0  0  0  0
   13.0748   13.0396   22.6115 H   0  0  0  0  0  0  0  0  0  0  0  0
    5.7928   10.8804   26.8322 H   0  0  0  0  0  0  0  0  0  0  0  0
    6.0969   12.3550   25.8795 H   0  0  0  0  0  0  0  0  0  0  0  0
    8.4602   12.0278   26.5533 H   0  0  0  0  0  0  0  0  0  0  0  0
    8.2116   10.2858   26.8231 H   0  0  0  0  0  0  0  0  0  0  0  0
    6.3069    9.4227   24.8807 H   0  0  0  0  0  0  0  0  0  0  0  0
    5.8761   10.8558   23.9165 H   0  0  0  0  0  0  0  0  0  0  0  0
   13.7779   16.4036   22.9115 H   0  0  0  0  0  0  0  0  0  0  0  0
   13.0566   16.5152   24.5359 H   0  0  0  0  0  0  0  0  0  0  0  0
   14.1524   15.1872   24.1573 H   0  0  0  0  0  0  0  0  0  0  0  0
    9.4594   12.5493   21.1684 H   0  0  0  0  0  0  0  0  0  0  0  0
   10.8843   11.5453   21.4396 H   0  0  0  0  0  0  0  0  0  0  0  0
    8.9006    8.8417   24.6868 H   0  0  0  0  0  0  0  0  0  0  0  0
  1  2  1  0  0  0  0
  1  3  2  0  0  0  0
  2 10  1  0  0  0  0
  2 12  2  0  0  0  0
  3 11  1  0  0  0  0
  3 17  1  0  0  0  0
  4  9  1  0  0  0  0
  4 14  1  0  0  0  0
  4 15  2  0  0  0  0
  5 13  1  0  0  0  0
  5 14  1  0  0  0  0
  5 16  2  0  0  0  0
  6  7  1  0  0  0  0
  6  8  1  0  0  0  0
  7  9  1  0  0  0  0
  8  9  1  0  0  0  0
  9 13  1  0  0  0  0
 11 14  1  0  0  0  0
 12 17  1  0  0  0  0
  1 18  1  0  0  0  0
  6 19  1  0  0  0  0
  6 20  1  0  0  0  0
  7 21  1  0  0  0  0
  7 22  1  0  0  0  0
  8 23  1  0  0  0  0
  8 24  1  0  0  0  0
 10 25  1  0  0  0  0
 10 26  1  0  0  0  0
 10 27  1  0  0  0  0
 11 28  1  0  0  0  0
 11 29  1  0  0  0  0
 13 30  1  0  0  0  0
M  END
> <Catalog ID>
Z995476540

> <PlateID>
1337959-R-14

> <Well>
A02

> <MW (desalted)>
235.239

> <CLogP>
-0.176

> <HBD>
1

> <TPSA>
75.440

> <RotBonds>
2

> <ROCS_ShapeQuery>
A71EV2A-x0451_0A_A71EV2A-x0310_0A_A71EV2A-x0416_0A_peptide

> <ROCS_TanimotoCombo>
0.410 

> <ROCS_ShapeTanimoto>
0.299 

> <ROCS_ColorTanimoto>
0.111 

> <ROCS_RefTversky>
0.267 

> <ROCS_RefColorTversky>
0.127 

> <ROCS_RefTverskyCombo>
0.394 

> <ROCS_FitTversky>
1.676 

> <ROCS_FitColorTversky>
0.471 

> <ROCS_FitTverskyCombo>
2.147 

> <ROCS_ColorScore>
-3.879

> <ROCS_Overlap>
1849.129

> <ROCS_Rank>
339                 

$$$$
untitled-dbase-1100_8
  -OEChem-11112309163D

 35 37  0     1  0  0  0  0  0999 V2000
   12.1963   15.5541   22.6171 C   0  0  0  0  0  0  0  0  0  0  0  0
   12.0173   15.6854   21.2400 C   0  0  0  0  0  0  0  0  0  0  0  0
   11.1005   13.4521   21.1463 C   0  0  0  0  0  0  0  0  0  0  0  0
   11.8275   14.3718   23.2588 C   0  0  0  0  0  0  0  0  0  0  0  0
   11.2795   13.3208   22.5234 C   0  0  0  0  0  0  0  0  0  0  0  0
   11.4694   14.6344   20.5046 C   0  0  0  0  0  0  0  0  0  0  0  0
    8.6984    9.4493   23.6033 C   0  0  0  0  0  0  0  0  0  0  0  0
    7.9441   10.3821   22.6656 C   0  0  0  0  0  0  0  0  0  0  0  0
    9.7761   11.1572   25.1942 C   0  0  0  0  0  0  0  0  0  0  0  0
    8.5597   12.6625   23.6809 C   0  0  0  0  0  0  0  0  0  0  0  0
    8.6327   10.1592   24.9491 C   0  0  1  0  0  0  0  0  0  0  0  0
    7.5209   11.5350   23.5660 C   0  0  2  0  0  0  0  0  0  0  0  0
   12.0297   14.2544   24.7338 C   0  0  0  0  0  0  0  0  0  0  0  0
   10.8767   12.0380   23.1915 C   0  0  0  0  0  0  0  0  0  0  0  0
    9.8657   12.2519   24.2171 N   0  0  0  0  0  0  0  0  0  0  0  0
    7.4182   10.9244   24.8639 O   0  0  0  0  0  0  0  0  0  0  0  0
   11.2968   14.7605   19.1824 F   0  0  0  0  0  0  0  0  0  0  0  0
   12.6252   16.3782   23.1814 H   0  0  0  0  0  0  0  0  0  0  0  0
   12.3060   16.6055   20.7409 H   0  0  0  0  0  0  0  0  0  0  0  0
   10.6753   12.6389   20.5640 H   0  0  0  0  0  0  0  0  0  0  0  0
    8.1690    8.4901   23.6577 H   0  0  0  0  0  0  0  0  0  0  0  0
    9.7218    9.2408   23.2748 H   0  0  0  0  0  0  0  0  0  0  0  0
    8.5389   10.7029   21.8041 H   0  0  0  0  0  0  0  0  0  0  0  0
    7.0590    9.8626   22.2784 H   0  0  0  0  0  0  0  0  0  0  0  0
    9.6539   11.5837   26.2177 H   0  0  0  0  0  0  0  0  0  0  0  0
   10.7423   10.6032   25.2103 H   0  0  0  0  0  0  0  0  0  0  0  0
    8.7064   13.1226   22.6772 H   0  0  0  0  0  0  0  0  0  0  0  0
    8.1320   13.4674   24.3242 H   0  0  0  0  0  0  0  0  0  0  0  0
    8.5558    9.4511   25.7880 H   0  0  0  0  0  0  0  0  0  0  0  0
    6.5402   11.9452   23.2810 H   0  0  0  0  0  0  0  0  0  0  0  0
   11.1392   14.6048   25.2684 H   0  0  0  0  0  0  0  0  0  0  0  0
   12.2262   13.2153   25.0255 H   0  0  0  0  0  0  0  0  0  0  0  0
   12.8918   14.8471   25.0641 H   0  0  0  0  0  0  0  0  0  0  0  0
   10.4700   11.3323   22.4589 H   0  0  0  0  0  0  0  0  0  0  0  0
   11.7374   11.5547   23.6655 H   0  0  0  0  0  0  0  0  0  0  0  0
  1  2  1  0  0  0  0
  1  4  2  0  0  0  0
  2  6  2  0  0  0  0
  3  5  2  0  0  0  0
  3  6  1  0  0  0  0
  4  5  1  0  0  0  0
  4 13  1  0  0  0  0
  5 14  1  0  0  0  0
  6 17  1  0  0  0  0
  7  8  1  0  0  0  0
  7 11  1  0  0  0  0
  8 12  1  0  0  0  0
  9 11  1  0  0  0  0
  9 15  1  0  0  0  0
 10 12  1  0  0  0  0
 10 15  1  0  0  0  0
 11 16  1  0  0  0  0
 12 16  1  0  0  0  0
 14 15  1  0  0  0  0
  1 18  1  0  0  0  0
  2 19  1  0  0  0  0
  3 20  1  0  0  0  0
  7 21  1  0  0  0  0
  7 22  1  0  0  0  0
  8 23  1  0  0  0  0
  8 24  1  0  0  0  0
  9 25  1  0  0  0  0
  9 26  1  0  0  0  0
 10 27  1  0  0  0  0
 10 28  1  0  0  0  0
 11 29  1  0  0  0  0
 12 30  1  0  0  0  0
 13 31  1  0  0  0  0
 13 32  1  0  0  0  0
 13 33  1  0  0  0  0
 14 34  1  0  0  0  0
 14 35  1  0  0  0  0
M  END
> <Catalog ID>
Z1620337779

> <PlateID>
1337959-R-14

> <Well>
G06

> <MW (desalted)>
235.297

> <CLogP>
2.925

> <HBD>
0

> <TPSA>
12.470

> <RotBonds>
2

> <ROCS_ShapeQuery>
A71EV2A-x0451_0A_A71EV2A-x0310_0A_A71EV2A-x0416_0A_peptide

> <ROCS_TanimotoCombo>
0.410 

> <ROCS_ShapeTanimoto>
0.274 

> <ROCS_ColorTanimoto>
0.136 

> <ROCS_RefTversky>
0.249 

> <ROCS_RefColorTversky>
0.159 

> <ROCS_RefTverskyCombo>
0.408 

> <ROCS_FitTversky>
1.581 

> <ROCS_FitColorTversky>
0.486 

> <ROCS_FitTverskyCombo>
2.067 

> <ROCS_ColorScore>
-4.861

> <ROCS_Overlap>
1725.763

> <ROCS_Rank>
340                 

$$$$
untitled-dbase-745_121
  -OEChem-11112309163D

 26 27  0     0  0  0  0  0  0999 V2000
    8.5947   12.2358   24.8866 C   0  0  0  0  0  0  0  0  0  0  0  0
    7.3035   12.0077   25.3168 C   0  0  0  0  0  0  0  0  0  0  0  0
   10.8682   15.2029   23.5150 C   0  0  0  0  0  0  0  0  0  0  0  0
   11.1431   14.9402   22.1959 C   0  0  0  0  0  0  0  0  0  0  0  0
    9.2016   11.1819   24.2345 C   0  0  0  0  0  0  0  0  0  0  0  0
    7.3447    9.8942   24.4809 C   0  0  0  0  0  0  0  0  0  0  0  0
   10.9302   13.1131   23.2878 C   0  0  0  0  0  0  0  0  0  0  0  0
   10.7196   16.5008   24.1885 C   0  0  0  0  0  0  0  0  0  0  0  0
   11.3841   15.7599   21.0037 C   0  0  0  0  0  0  0  0  0  0  0  0
    6.6522    8.5925   24.2590 C   0  0  0  0  0  0  0  0  0  0  0  0
    6.6456   10.8447   25.1301 N   0  0  0  0  0  0  0  0  0  0  0  0
   10.7326   14.0282   24.2096 N   0  0  0  0  0  0  0  0  0  0  0  0
    8.6039    9.9926   24.0138 N   0  0  0  0  0  0  0  0  0  0  0  0
   11.1855   13.5879   22.0379 O   0  0  0  0  0  0  0  0  0  0  0  0
   10.8707   11.3614   23.6353 S   0  0  0  0  0  0  0  0  0  0  0  0
    9.0818   13.1872   25.0602 H   0  0  0  0  0  0  0  0  0  0  0  0
    6.7458   12.7773   25.8397 H   0  0  0  0  0  0  0  0  0  0  0  0
    9.6720   16.8501   24.1650 H   0  0  0  0  0  0  0  0  0  0  0  0
   11.0306   16.4619   25.2489 H   0  0  0  0  0  0  0  0  0  0  0  0
   11.3406   17.2889   23.7234 H   0  0  0  0  0  0  0  0  0  0  0  0
   12.4578   15.9942   20.8816 H   0  0  0  0  0  0  0  0  0  0  0  0
   11.0501   15.2619   20.0732 H   0  0  0  0  0  0  0  0  0  0  0  0
   10.8404   16.7236   21.0359 H   0  0  0  0  0  0  0  0  0  0  0  0
    6.1117    8.6049   23.3045 H   0  0  0  0  0  0  0  0  0  0  0  0
    7.3661    7.7586   24.2435 H   0  0  0  0  0  0  0  0  0  0  0  0
    5.9344    8.3807   25.0624 H   0  0  0  0  0  0  0  0  0  0  0  0
  1  2  1  0  0  0  0
  1  5  2  0  0  0  0
  2 11  2  0  0  0  0
  3  4  2  0  0  0  0
  3  8  1  0  0  0  0
  3 12  1  0  0  0  0
  4  9  1  0  0  0  0
  4 14  1  0  0  0  0
  5 13  1  0  0  0  0
  5 15  1  0  0  0  0
  6 10  1  0  0  0  0
  6 11  1  0  0  0  0
  6 13  2  0  0  0  0
  7 12  2  0  0  0  0
  7 14  1  0  0  0  0
  7 15  1  0  0  0  0
  1 16  1  0  0  0  0
  2 17  1  0  0  0  0
  8 18  1  0  0  0  0
  8 19  1  0  0  0  0
  8 20  1  0  0  0  0
  9 21  1  0  0  0  0
  9 22  1  0  0  0  0
  9 23  1  0  0  0  0
 10 24  1  0  0  0  0
 10 25  1  0  0  0  0
 10 26  1  0  0  0  0
M  END
> <Catalog ID>
Z1272163303

> <PlateID>
1337959-R-10

> <Well>
C08

> <MW (desalted)>
221.279

> <CLogP>
1.757

> <HBD>
0

> <TPSA>
51.810

> <RotBonds>
2

> <ROCS_ShapeQuery>
A71EV2A-x0451_0A_A71EV2A-x0310_0A_A71EV2A-x0416_0A_peptide

> <ROCS_TanimotoCombo>
0.410 

> <ROCS_ShapeTanimoto>
0.273 

> <ROCS_ColorTanimoto>
0.137 

> <ROCS_RefTversky>
0.245 

> <ROCS_RefColorTversky>
0.145 

> <ROCS_RefTverskyCombo>
0.391 

> <ROCS_FitTversky>
1.714 

> <ROCS_FitColorTversky>
0.696 

> <ROCS_FitTverskyCombo>
2.410 

> <ROCS_ColorScore>
-4.413

> <ROCS_Overlap>
1700.693

> <ROCS_Rank>
341                 

$$$$
untitled-dbase-693_241
  -OEChem-11112309163D

 40 42  0     1  0  0  0  0  0999 V2000
   10.9857   13.9414   21.4479 C   0  0  0  0  0  0  0  0  0  0  0  0
   10.4683   15.9888   22.0783 C   0  0  0  0  0  0  0  0  0  0  0  0
   10.7753   14.0118   22.8048 C   0  0  0  0  0  0  0  0  0  0  0  0
    6.9463   11.7173   25.9239 C   0  0  0  0  0  0  0  0  0  0  0  0
    8.4189   11.2470   25.8766 C   0  0  0  0  0  0  0  0  0  0  0  0
    7.1683   12.3816   24.5448 C   0  0  0  0  0  0  0  0  0  0  0  0
    8.0813   10.1786   23.5568 C   0  0  0  0  0  0  0  0  0  0  0  0
    9.5296   10.3436   23.0476 C   0  0  0  0  0  0  0  0  0  0  0  0
    8.3563   11.4487   24.3641 C   0  0  0  0  0  0  0  0  0  0  0  0
   13.4038   16.0371   19.7212 C   0  0  0  0  0  0  0  0  0  0  0  0
   12.2350   15.8265   17.5177 C   0  0  0  0  0  0  0  0  0  0  0  0
   10.8875   15.6627   19.6285 C   0  0  0  0  0  0  0  0  0  0  0  0
   12.2490   15.3641   18.9761 C   0  0  0  0  0  0  0  0  0  0  0  0
   10.4533   15.2889   23.1909 N   0  0  0  0  0  0  0  0  0  0  0  0
   10.7851   15.2154   20.9962 N   0  0  0  0  0  0  0  0  0  0  0  0
    9.5311   11.7678   23.5267 N   0  0  1  0  0  0  0  0  0  0  0  0
   12.1005   11.9372   23.6493 O   0  0  0  0  0  0  0  0  0  0  0  0
   10.6995   13.2376   25.2906 O   0  0  0  0  0  0  0  0  0  0  0  0
   10.8887   12.6781   23.9617 S   0  0  0  0  0  0  0  0  0  0  0  0
   11.2507   13.1269   20.7881 H   0  0  0  0  0  0  0  0  0  0  0  0
   10.2595   17.0469   21.9948 H   0  0  0  0  0  0  0  0  0  0  0  0
    6.2220   10.8950   25.9039 H   0  0  0  0  0  0  0  0  0  0  0  0
    6.6918   12.3965   26.7414 H   0  0  0  0  0  0  0  0  0  0  0  0
    9.1061   11.9284   26.3913 H   0  0  0  0  0  0  0  0  0  0  0  0
    8.5993   10.2312   26.2386 H   0  0  0  0  0  0  0  0  0  0  0  0
    6.3412   12.2787   23.8373 H   0  0  0  0  0  0  0  0  0  0  0  0
    7.4453   13.4403   24.6098 H   0  0  0  0  0  0  0  0  0  0  0  0
    7.3277   10.2851   22.7689 H   0  0  0  0  0  0  0  0  0  0  0  0
    7.8890    9.2590   24.1158 H   0  0  0  0  0  0  0  0  0  0  0  0
   10.2714    9.7330   23.5727 H   0  0  0  0  0  0  0  0  0  0  0  0
    9.6666   10.2574   21.9673 H   0  0  0  0  0  0  0  0  0  0  0  0
   13.2710   17.1243   19.7407 H   0  0  0  0  0  0  0  0  0  0  0  0
   13.4670   15.6864   20.7568 H   0  0  0  0  0  0  0  0  0  0  0  0
   14.3623   15.8355   19.2333 H   0  0  0  0  0  0  0  0  0  0  0  0
   12.0602   16.9057   17.4530 H   0  0  0  0  0  0  0  0  0  0  0  0
   13.1942   15.6152   17.0335 H   0  0  0  0  0  0  0  0  0  0  0  0
   11.4481   15.3209   16.9475 H   0  0  0  0  0  0  0  0  0  0  0  0
   10.6675   16.7370   19.6026 H   0  0  0  0  0  0  0  0  0  0  0  0
   10.0792   15.1628   19.0793 H   0  0  0  0  0  0  0  0  0  0  0  0
   12.4268   14.2812   18.9836 H   0  0  0  0  0  0  0  0  0  0  0  0
  1  3  2  0  0  0  0
  1 15  1  0  0  0  0
  2 14  2  0  0  0  0
  2 15  1  0  0  0  0
  3 14  1  0  0  0  0
  3 19  1  0  0  0  0
  4  5  1  0  0  0  0
  4  6  1  0  0  0  0
  5  9  1  0  0  0  0
  6  9  1  0  0  0  0
  7  8  1  0  0  0  0
  7  9  1  0  0  0  0
  8 16  1  0  0  0  0
  9 16  1  0  0  0  0
 10 13  1  0  0  0  0
 11 13  1  0  0  0  0
 12 13  1  0  0  0  0
 12 15  1  0  0  0  0
 16 19  1  0  0  0  0
 17 19  2  0  0  0  0
 18 19  2  0  0  0  0
  1 20  1  0  0  0  0
  2 21  1  0  0  0  0
  4 22  1  0  0  0  0
  4 23  1  0  0  0  0
  5 24  1  0  0  0  0
  5 25  1  0  0  0  0
  6 26  1  0  0  0  0
  6 27  1  0  0  0  0
  7 28  1  0  0  0  0
  7 29  1  0  0  0  0
  8 30  1  0  0  0  0
  8 31  1  0  0  0  0
 10 32  1  0  0  0  0
 10 33  1  0  0  0  0
 10 34  1  0  0  0  0
 11 35  1  0  0  0  0
 11 36  1  0  0  0  0
 11 37  1  0  0  0  0
 12 38  1  0  0  0  0
 12 39  1  0  0  0  0
 13 40  1  0  0  0  0
M  END
> <Catalog ID>
Z1343420001

> <PlateID>
1337959-R-09

> <Well>
F06

> <MW (desalted)>
283.390

> <CLogP>
1.789

> <HBD>
0

> <TPSA>
55.200

> <RotBonds>
3

> <ROCS_ShapeQuery>
A71EV2A-x0451_0A_A71EV2A-x0310_0A_A71EV2A-x0416_0A_peptide

> <ROCS_TanimotoCombo>
0.410 

> <ROCS_ShapeTanimoto>
0.291 

> <ROCS_ColorTanimoto>
0.118 

> <ROCS_RefTversky>
0.263 

> <ROCS_RefColorTversky>
0.138 

> <ROCS_RefTverskyCombo>
0.401 

> <ROCS_FitTversky>
1.593 

> <ROCS_FitColorTversky>
0.457 

> <ROCS_FitTverskyCombo>
2.050 

> <ROCS_ColorScore>
-4.210

> <ROCS_Overlap>
1821.995

> <ROCS_Rank>
342                 

$$$$
untitled-dbase-625_19
  -OEChem-11112309163D

 29 30  0     0  0  0  0  0  0999 V2000
    8.7141    9.4454   24.0750 C   0  0  0  0  0  0  0  0  0  0  0  0
   11.2575   16.6795   20.8035 C   0  0  0  0  0  0  0  0  0  0  0  0
    9.5967   10.1961   23.3064 C   0  0  0  0  0  0  0  0  0  0  0  0
   10.9401   15.7747   21.8164 C   0  0  0  0  0  0  0  0  0  0  0  0
   12.9098   14.4827   21.2797 C   0  0  0  0  0  0  0  0  0  0  0  0
    7.7504   10.1235   24.8039 C   0  0  0  0  0  0  0  0  0  0  0  0
    8.4917   12.1648   24.0543 C   0  0  0  0  0  0  0  0  0  0  0  0
   12.4011   16.4859   20.0285 C   0  0  0  0  0  0  0  0  0  0  0  0
    9.4902   11.5824   23.2904 C   0  0  0  0  0  0  0  0  0  0  0  0
   13.2272   15.3875   20.2667 C   0  0  0  0  0  0  0  0  0  0  0  0
   11.7662   14.6763   22.0546 C   0  0  0  0  0  0  0  0  0  0  0  0
   12.7377   17.4558   18.9466 C   0  0  0  0  0  0  0  0  0  0  0  0
    7.6160   11.4687   24.8134 N   0  0  0  0  0  0  0  0  0  0  0  0
   10.3869   12.3858   22.5039 N   0  0  0  0  0  0  0  0  0  0  0  0
   10.5317   14.2386   24.2930 O   0  0  0  0  0  0  0  0  0  0  0  0
   12.5951   12.9048   23.7802 O   0  0  0  0  0  0  0  0  0  0  0  0
   14.3276   15.1925   19.5267 F   0  0  0  0  0  0  0  0  0  0  0  0
   11.3674   13.5431   23.3212 S   0  0  0  0  0  0  0  0  0  0  0  0
    8.7780    8.3638   24.1024 H   0  0  0  0  0  0  0  0  0  0  0  0
   10.6083   17.5329   20.6263 H   0  0  0  0  0  0  0  0  0  0  0  0
   10.3619    9.6919   22.7228 H   0  0  0  0  0  0  0  0  0  0  0  0
   10.0469   15.9348   22.4142 H   0  0  0  0  0  0  0  0  0  0  0  0
   13.5603   13.6305   21.4565 H   0  0  0  0  0  0  0  0  0  0  0  0
    7.0377    9.5841   25.4190 H   0  0  0  0  0  0  0  0  0  0  0  0
    8.3581   13.2423   24.0802 H   0  0  0  0  0  0  0  0  0  0  0  0
   13.3715   18.2605   19.3388 H   0  0  0  0  0  0  0  0  0  0  0  0
   13.2700   16.9641   18.1221 H   0  0  0  0  0  0  0  0  0  0  0  0
   11.8320   17.9039   18.5175 H   0  0  0  0  0  0  0  0  0  0  0  0
   10.8315   11.8919   21.7188 H   0  0  0  0  0  0  0  0  0  0  0  0
  1  3  1  0  0  0  0
  1  6  2  0  0  0  0
  2  4  1  0  0  0  0
  2  8  2  0  0  0  0
  3  9  2  0  0  0  0
  4 11  2  0  0  0  0
  5 10  2  0  0  0  0
  5 11  1  0  0  0  0
  6 13  1  0  0  0  0
  7  9  1  0  0  0  0
  7 13  2  0  0  0  0
  8 10  1  0  0  0  0
  8 12  1  0  0  0  0
  9 14  1  0  0  0  0
 10 17  1  0  0  0  0
 11 18  1  0  0  0  0
 14 18  1  0  0  0  0
 15 18  2  0  0  0  0
 16 18  2  0  0  0  0
  1 19  1  0  0  0  0
  2 20  1  0  0  0  0
  3 21  1  0  0  0  0
  4 22  1  0  0  0  0
  5 23  1  0  0  0  0
  6 24  1  0  0  0  0
  7 25  1  0  0  0  0
 12 26  1  0  0  0  0
 12 27  1  0  0  0  0
 12 28  1  0  0  0  0
 14 29  1  0  0  0  0
M  END
> <Catalog ID>
Z1138600552

> <PlateID>
1337959-R-08

> <Well>
G08

> <MW (desalted)>
266.291

> <CLogP>
2.461

> <HBD>
1

> <TPSA>
59.060

> <RotBonds>
2

> <ROCS_ShapeQuery>
A71EV2A-x0451_0A_A71EV2A-x0310_0A_A71EV2A-x0416_0A_peptide

> <ROCS_TanimotoCombo>
0.410 

> <ROCS_ShapeTanimoto>
0.289 

> <ROCS_ColorTanimoto>
0.121 

> <ROCS_RefTversky>
0.260 

> <ROCS_RefColorTversky>
0.133 

> <ROCS_RefTverskyCombo>
0.393 

> <ROCS_FitTversky>
1.624 

> <ROCS_FitColorTversky>
0.557 

> <ROCS_FitTverskyCombo>
2.181 

> <ROCS_ColorScore>
-4.060

> <ROCS_Overlap>
1803.182

> <ROCS_Rank>
343                 

$$$$
untitled-dbase-724_75
  -OEChem-11112309163D

 38 40  0     1  0  0  0  0  0999 V2000
   10.6531   12.8019   22.3622 C   0  0  0  0  0  0  0  0  0  0  0  0
   12.4673   15.2651   23.1744 C   0  0  0  0  0  0  0  0  0  0  0  0
    7.8531   12.0585   26.6066 C   0  0  0  0  0  0  0  0  0  0  0  0
   11.3218   15.2109   22.1922 C   0  0  0  0  0  0  0  0  0  0  0  0
    8.7563   11.0921   25.8416 C   0  0  0  0  0  0  0  0  0  0  0  0
    9.0670    9.7326   23.7117 C   0  0  0  0  0  0  0  0  0  0  0  0
   10.3240   10.4352   23.2160 C   0  0  0  0  0  0  0  0  0  0  0  0
    8.5660   12.0573   23.4923 C   0  0  0  0  0  0  0  0  0  0  0  0
    6.3909   11.6618   26.4713 C   0  0  0  0  0  0  0  0  0  0  0  0
   11.7573   15.0746   24.4955 C   0  0  0  0  0  0  0  0  0  0  0  0
    6.7598   10.5251   24.4295 C   0  0  0  0  0  0  0  0  0  0  0  0
   10.3893   14.1988   22.8301 C   0  0  2  0  0  0  0  0  0  0  0  0
    8.2581   10.8504   24.3982 C   0  0  2  0  0  0  0  0  0  0  0  0
    9.9105   11.8139   22.9842 N   0  0  0  0  0  0  0  0  0  0  0  0
   11.4882   12.5862   21.4823 O   0  0  0  0  0  0  0  0  0  0  0  0
    6.0231   11.5496   25.0980 O   0  0  0  0  0  0  0  0  0  0  0  0
   10.6440   14.2085   24.2375 O   0  0  0  0  0  0  0  0  0  0  0  0
   13.1542   14.4300   22.9927 H   0  0  0  0  0  0  0  0  0  0  0  0
   13.0407   16.1945   23.1280 H   0  0  0  0  0  0  0  0  0  0  0  0
    8.1419   12.0877   27.6642 H   0  0  0  0  0  0  0  0  0  0  0  0
    7.9933   13.0702   26.2034 H   0  0  0  0  0  0  0  0  0  0  0  0
   10.8249   16.1873   22.1585 H   0  0  0  0  0  0  0  0  0  0  0  0
   11.6394   14.9536   21.1780 H   0  0  0  0  0  0  0  0  0  0  0  0
    9.7859   11.4734   25.8390 H   0  0  0  0  0  0  0  0  0  0  0  0
    8.7837   10.1327   26.3774 H   0  0  0  0  0  0  0  0  0  0  0  0
    8.5198    9.2476   22.8976 H   0  0  0  0  0  0  0  0  0  0  0  0
    9.3463    8.9599   24.4388 H   0  0  0  0  0  0  0  0  0  0  0  0
   11.1416   10.3891   23.9403 H   0  0  0  0  0  0  0  0  0  0  0  0
   10.6693   10.0197   22.2637 H   0  0  0  0  0  0  0  0  0  0  0  0
    7.8647   12.1871   22.6618 H   0  0  0  0  0  0  0  0  0  0  0  0
    8.6057   12.9968   24.0562 H   0  0  0  0  0  0  0  0  0  0  0  0
    6.1857   10.7140   26.9823 H   0  0  0  0  0  0  0  0  0  0  0  0
    5.7537   12.4268   26.9261 H   0  0  0  0  0  0  0  0  0  0  0  0
   12.4009   14.6304   25.2600 H   0  0  0  0  0  0  0  0  0  0  0  0
   11.3637   16.0237   24.8758 H   0  0  0  0  0  0  0  0  0  0  0  0
    6.3444   10.4409   23.4187 H   0  0  0  0  0  0  0  0  0  0  0  0
    6.5692    9.5674   24.9319 H   0  0  0  0  0  0  0  0  0  0  0  0
    9.3349   14.4271   22.6432 H   0  0  0  0  0  0  0  0  0  0  0  0
  1 12  1  6  0  0  0
  1 14  1  0  0  0  0
  1 15  2  0  0  0  0
  2  4  1  0  0  0  0
  2 10  1  0  0  0  0
  3  5  1  0  0  0  0
  3  9  1  0  0  0  0
  4 12  1  0  0  0  0
  5 13  1  0  0  0  0
  6  7  1  0  0  0  0
  6 13  1  0  0  0  0
  7 14  1  0  0  0  0
  8 13  1  0  0  0  0
  8 14  1  0  0  0  0
  9 16  1  0  0  0  0
 10 17  1  0  0  0  0
 11 13  1  0  0  0  0
 11 16  1  0  0  0  0
 12 17  1  0  0  0  0
  2 18  1  0  0  0  0
  2 19  1  0  0  0  0
  3 20  1  0  0  0  0
  3 21  1  0  0  0  0
  4 22  1  0  0  0  0
  4 23  1  0  0  0  0
  5 24  1  0  0  0  0
  5 25  1  0  0  0  0
  6 26  1  0  0  0  0
  6 27  1  0  0  0  0
  7 28  1  0  0  0  0
  7 29  1  0  0  0  0
  8 30  1  0  0  0  0
  8 31  1  0  0  0  0
  9 32  1  0  0  0  0
  9 33  1  0  0  0  0
 10 34  1  0  0  0  0
 10 35  1  0  0  0  0
 11 36  1  0  0  0  0
 11 37  1  0  0  0  0
 12 38  1  0  0  0  0
M  END
> <Catalog ID>
Z2044981890

> <PlateID>
1337959-R-10

> <Well>
A07

> <MW (desalted)>
239.311

> <CLogP>
0.464

> <HBD>
0

> <TPSA>
38.770

> <RotBonds>
1

> <ROCS_ShapeQuery>
A71EV2A-x0451_0A_A71EV2A-x0310_0A_A71EV2A-x0416_0A_peptide

> <ROCS_TanimotoCombo>
0.409 

> <ROCS_ShapeTanimoto>
0.289 

> <ROCS_ColorTanimoto>
0.121 

> <ROCS_RefTversky>
0.259 

> <ROCS_RefColorTversky>
0.134 

> <ROCS_RefTverskyCombo>
0.393 

> <ROCS_FitTversky>
1.656 

> <ROCS_FitColorTversky>
0.558 

> <ROCS_FitTverskyCombo>
2.214 

> <ROCS_ColorScore>
-4.065

> <ROCS_Overlap>
1796.024

> <ROCS_Rank>
344                 

$$$$
untitled-dbase-1123_86
  -OEChem-11112309163D

 34 36  0     0  0  0  0  0  0999 V2000
   10.6769   13.0941   23.3963 C   0  0  0  0  0  0  0  0  0  0  0  0
    8.3409   11.8517   23.0938 C   0  0  0  0  0  0  0  0  0  0  0  0
    9.7437   10.8008   24.3775 C   0  0  0  0  0  0  0  0  0  0  0  0
    7.9397   12.2035   25.6378 C   0  0  0  0  0  0  0  0  0  0  0  0
    7.2194   10.2927   24.8600 C   0  0  0  0  0  0  0  0  0  0  0  0
    6.0512   11.1020   27.0579 C   0  0  0  0  0  0  0  0  0  0  0  0
    5.3736   12.0890   25.2582 C   0  0  0  0  0  0  0  0  0  0  0  0
    9.8934   11.7946   23.1887 C   0  0  0  0  0  0  0  0  0  0  0  0
    8.3155   11.2728   24.4935 C   0  0  0  0  0  0  0  0  0  0  0  0
    6.6451   11.4076   25.7091 C   0  0  0  0  0  0  0  0  0  0  0  0
    5.0037   12.2131   26.7634 C   0  0  0  0  0  0  0  0  0  0  0  0
   12.3318   14.4677   22.4173 C   0  0  0  0  0  0  0  0  0  0  0  0
   10.3890   11.0457   22.0341 N   0  0  0  0  0  0  0  0  0  0  0  0
   10.5361   13.8323   24.3620 O   0  0  0  0  0  0  0  0  0  0  0  0
   11.5325   13.2824   22.3516 O   0  0  0  0  0  0  0  0  0  0  0  0
    3.7252   11.9083   27.0776 F   0  0  0  0  0  0  0  0  0  0  0  0
    5.2698   13.4162   27.3228 F   0  0  0  0  0  0  0  0  0  0  0  0
    7.9483   12.8691   23.0350 H   0  0  0  0  0  0  0  0  0  0  0  0
    7.8701   11.2549   22.3136 H   0  0  0  0  0  0  0  0  0  0  0  0
    9.8973    9.7414   24.1575 H   0  0  0  0  0  0  0  0  0  0  0  0
   10.3708   11.0607   25.2368 H   0  0  0  0  0  0  0  0  0  0  0  0
    8.5771   12.1675   26.5214 H   0  0  0  0  0  0  0  0  0  0  0  0
    7.8032   13.2455   25.3385 H   0  0  0  0  0  0  0  0  0  0  0  0
    6.5818    9.9931   24.0161 H   0  0  0  0  0  0  0  0  0  0  0  0
    7.5268    9.3832   25.3913 H   0  0  0  0  0  0  0  0  0  0  0  0
    5.6341   10.0994   27.1994 H   0  0  0  0  0  0  0  0  0  0  0  0
    6.6967   11.3360   27.9139 H   0  0  0  0  0  0  0  0  0  0  0  0
    5.5242   13.0559   24.7687 H   0  0  0  0  0  0  0  0  0  0  0  0
    4.6861   11.4886   24.6594 H   0  0  0  0  0  0  0  0  0  0  0  0
   12.9778   14.5218   21.5376 H   0  0  0  0  0  0  0  0  0  0  0  0
   12.9375   14.4499   23.3269 H   0  0  0  0  0  0  0  0  0  0  0  0
   11.6737   15.3396   22.4374 H   0  0  0  0  0  0  0  0  0  0  0  0
   10.6959   10.1607   22.3555 H   0  0  0  0  0  0  0  0  0  0  0  0
    9.6420   10.9515   21.3909 H   0  0  0  0  0  0  0  0  0  0  0  0
  1  8  1  0  0  0  0
  1 14  2  0  0  0  0
  1 15  1  0  0  0  0
  2  8  1  0  0  0  0
  2  9  1  0  0  0  0
  3  8  1  0  0  0  0
  3  9  1  0  0  0  0
  4  9  1  0  0  0  0
  4 10  1  0  0  0  0
  5  9  1  0  0  0  0
  5 10  1  0  0  0  0
  6 10  1  0  0  0  0
  6 11  1  0  0  0  0
  7 10  1  0  0  0  0
  7 11  1  0  0  0  0
  8 13  1  0  0  0  0
 11 16  1  0  0  0  0
 11 17  1  0  0  0  0
 12 15  1  0  0  0  0
  2 18  1  0  0  0  0
  2 19  1  0  0  0  0
  3 20  1  0  0  0  0
  3 21  1  0  0  0  0
  4 22  1  0  0  0  0
  4 23  1  0  0  0  0
  5 24  1  0  0  0  0
  5 25  1  0  0  0  0
  6 26  1  0  0  0  0
  6 27  1  0  0  0  0
  7 28  1  0  0  0  0
  7 29  1  0  0  0  0
 12 30  1  0  0  0  0
 12 31  1  0  0  0  0
 12 32  1  0  0  0  0
 13 33  1  0  0  0  0
 13 34  1  0  0  0  0
M  END
> <Catalog ID>
Z4565483656

> <PlateID>
1337959-R-15

> <Well>
A09

> <MW (desalted)>
245.266

> <CLogP>
1.197

> <HBD>
1

> <TPSA>
52.320

> <RotBonds>
2

> <ROCS_ShapeQuery>
A71EV2A-x0451_0A_A71EV2A-x0310_0A_A71EV2A-x0416_0A_peptide

> <ROCS_TanimotoCombo>
0.409 

> <ROCS_ShapeTanimoto>
0.276 

> <ROCS_ColorTanimoto>
0.133 

> <ROCS_RefTversky>
0.250 

> <ROCS_RefColorTversky>
0.146 

> <ROCS_RefTverskyCombo>
0.396 

> <ROCS_FitTversky>
1.595 

> <ROCS_FitColorTversky>
0.605 

> <ROCS_FitTverskyCombo>
2.199 

> <ROCS_ColorScore>
-4.436

> <ROCS_Overlap>
1736.758

> <ROCS_Rank>
345                 

$$$$
untitled-dbase-1077_357
  -OEChem-11112309163D

 34 35  0     1  0  0  0  0  0999 V2000
    7.2157   11.3861   24.7975 C   0  0  0  0  0  0  0  0  0  0  0  0
    7.4101   10.0051   24.7747 C   0  0  0  0  0  0  0  0  0  0  0  0
    8.1572   12.2327   24.2122 C   0  0  0  0  0  0  0  0  0  0  0  0
    8.5460    9.4706   24.1668 C   0  0  0  0  0  0  0  0  0  0  0  0
    9.2932   11.6983   23.6042 C   0  0  0  0  0  0  0  0  0  0  0  0
    9.4876   10.3172   23.5815 C   0  0  0  0  0  0  0  0  0  0  0  0
   11.4626   15.6045   22.6305 C   0  0  0  0  0  0  0  0  0  0  0  0
   13.0637   12.8549   24.5484 C   0  0  0  0  0  0  0  0  0  0  0  0
   11.6484   12.8985   25.1124 C   0  0  0  0  0  0  0  0  0  0  0  0
   13.1904   14.1941   23.8384 C   0  0  0  0  0  0  0  0  0  0  0  0
   10.8532   13.6168   24.0193 C   0  0  2  0  0  0  0  0  0  0  0  0
   10.2849   12.6452   22.9867 C   0  0  0  0  0  0  0  0  0  0  0  0
   10.2399   15.3958   21.7730 C   0  0  0  0  0  0  0  0  0  0  0  0
   11.8314   14.5255   23.4174 N   0  0  0  0  0  0  0  0  0  0  0  0
   10.0261   16.6093   21.0446 N   0  0  0  0  0  0  0  0  0  0  0  0
   12.0629   16.6801   22.6061 O   0  0  0  0  0  0  0  0  0  0  0  0
   10.8805    9.6195   22.8385 Cl  0  0  0  0  0  0  0  0  0  0  0  0
    6.3306   11.8021   25.2702 H   0  0  0  0  0  0  0  0  0  0  0  0
    6.6762    9.3462   25.2295 H   0  0  0  0  0  0  0  0  0  0  0  0
    7.9958   13.3074   24.2352 H   0  0  0  0  0  0  0  0  0  0  0  0
    8.6821    8.3922   24.1565 H   0  0  0  0  0  0  0  0  0  0  0  0
   13.8170   12.7253   25.3306 H   0  0  0  0  0  0  0  0  0  0  0  0
   13.1648   12.0316   23.8320 H   0  0  0  0  0  0  0  0  0  0  0  0
   11.2666   11.9001   25.3457 H   0  0  0  0  0  0  0  0  0  0  0  0
   11.6369   13.4936   26.0339 H   0  0  0  0  0  0  0  0  0  0  0  0
   13.5303   14.9780   24.5238 H   0  0  0  0  0  0  0  0  0  0  0  0
   13.8666   14.1521   22.9801 H   0  0  0  0  0  0  0  0  0  0  0  0
   10.0318   14.2012   24.4493 H   0  0  0  0  0  0  0  0  0  0  0  0
   11.1037   12.0821   22.5277 H   0  0  0  0  0  0  0  0  0  0  0  0
    9.8092   13.2100   22.1786 H   0  0  0  0  0  0  0  0  0  0  0  0
    9.4011   15.1758   22.4267 H   0  0  0  0  0  0  0  0  0  0  0  0
   10.4335   14.5631   21.1033 H   0  0  0  0  0  0  0  0  0  0  0  0
    9.2002   16.5274   20.4831 H   0  0  0  0  0  0  0  0  0  0  0  0
    9.9147   17.3731   21.6834 H   0  0  0  0  0  0  0  0  0  0  0  0
  1  2  2  0  0  0  0
  1  3  1  0  0  0  0
  2  4  1  0  0  0  0
  3  5  2  0  0  0  0
  4  6  2  0  0  0  0
  5  6  1  0  0  0  0
  5 12  1  0  0  0  0
  6 17  1  0  0  0  0
  7 13  1  0  0  0  0
  7 14  1  0  0  0  0
  7 16  2  0  0  0  0
  8  9  1  0  0  0  0
  8 10  1  0  0  0  0
  9 11  1  0  0  0  0
 10 14  1  0  0  0  0
 11 12  1  0  0  0  0
 11 14  1  0  0  0  0
 13 15  1  0  0  0  0
  1 18  1  0  0  0  0
  2 19  1  0  0  0  0
  3 20  1  0  0  0  0
  4 21  1  0  0  0  0
  8 22  1  0  0  0  0
  8 23  1  0  0  0  0
  9 24  1  0  0  0  0
  9 25  1  0  0  0  0
 10 26  1  0  0  0  0
 10 27  1  0  0  0  0
 11 28  1  0  0  0  0
 12 29  1  0  0  0  0
 12 30  1  0  0  0  0
 13 31  1  0  0  0  0
 13 32  1  0  0  0  0
 15 33  1  0  0  0  0
 15 34  1  0  0  0  0
M  END
> <Catalog ID>
Z1450151469

> <PlateID>
1337959-R-14

> <Well>
E03

> <MW (desalted)>
252.740

> <CLogP>
1.980

> <HBD>
1

> <TPSA>
46.330

> <RotBonds>
3

> <ROCS_ShapeQuery>
A71EV2A-x0451_0A_A71EV2A-x0310_0A_A71EV2A-x0416_0A_peptide

> <ROCS_TanimotoCombo>
0.409 

> <ROCS_ShapeTanimoto>
0.283 

> <ROCS_ColorTanimoto>
0.126 

> <ROCS_RefTversky>
0.254 

> <ROCS_RefColorTversky>
0.135 

> <ROCS_RefTverskyCombo>
0.390 

> <ROCS_FitTversky>
1.663 

> <ROCS_FitColorTversky>
0.649 

> <ROCS_FitTverskyCombo>
2.313 

> <ROCS_ColorScore>
-4.115

> <ROCS_Overlap>
1763.594

> <ROCS_Rank>
346                 

$$$$
untitled-dbase-556_23
  -OEChem-11112309163D

 31 32  0     0  0  0  0  0  0999 V2000
    8.8708    9.7035   23.4973 C   0  0  0  0  0  0  0  0  0  0  0  0
    9.6026   10.8197   23.0922 C   0  0  0  0  0  0  0  0  0  0  0  0
    8.2762   12.2180   24.5492 C   0  0  0  0  0  0  0  0  0  0  0  0
    7.5444   11.1017   24.9543 C   0  0  0  0  0  0  0  0  0  0  0  0
    7.8417    9.8445   24.4283 C   0  0  0  0  0  0  0  0  0  0  0  0
    9.3053   12.0769   23.6181 C   0  0  0  0  0  0  0  0  0  0  0  0
   12.4168   12.0470   23.8828 C   0  0  0  0  0  0  0  0  0  0  0  0
   12.7031   13.5308   21.9412 C   0  0  0  0  0  0  0  0  0  0  0  0
   13.2259   13.0430   24.7003 C   0  0  0  0  0  0  0  0  0  0  0  0
   13.5009   14.4667   22.8372 C   0  0  0  0  0  0  0  0  0  0  0  0
    6.4448   11.2566   25.9498 C   0  0  0  0  0  0  0  0  0  0  0  0
   11.7334   12.7533   22.7629 N   0  0  0  0  0  0  0  0  0  0  0  0
    9.6508   13.9733   21.8695 O   0  0  0  0  0  0  0  0  0  0  0  0
   10.3843   14.3624   24.2482 O   0  0  0  0  0  0  0  0  0  0  0  0
   14.1642   13.7249   23.8640 O   0  0  0  0  0  0  0  0  0  0  0  0
    7.1446    8.7659   24.8119 F   0  0  0  0  0  0  0  0  0  0  0  0
   10.2313   13.4893   23.1039 S   0  0  0  0  0  0  0  0  0  0  0  0
    9.1018    8.7242   23.0887 H   0  0  0  0  0  0  0  0  0  0  0  0
   10.4018   10.6983   22.3661 H   0  0  0  0  0  0  0  0  0  0  0  0
    8.0430   13.1978   24.9597 H   0  0  0  0  0  0  0  0  0  0  0  0
   13.0758   11.2709   23.4650 H   0  0  0  0  0  0  0  0  0  0  0  0
   11.6705   11.5623   24.5277 H   0  0  0  0  0  0  0  0  0  0  0  0
   12.1636   14.1173   21.1845 H   0  0  0  0  0  0  0  0  0  0  0  0
   13.3764   12.8290   21.4261 H   0  0  0  0  0  0  0  0  0  0  0  0
   12.5797   13.7785   25.1942 H   0  0  0  0  0  0  0  0  0  0  0  0
   13.7906   12.5189   25.4776 H   0  0  0  0  0  0  0  0  0  0  0  0
   14.2670   14.9838   22.2511 H   0  0  0  0  0  0  0  0  0  0  0  0
   12.8601   15.2283   23.2971 H   0  0  0  0  0  0  0  0  0  0  0  0
    5.4942   11.4576   25.4407 H   0  0  0  0  0  0  0  0  0  0  0  0
    6.3284   10.3510   26.5592 H   0  0  0  0  0  0  0  0  0  0  0  0
    6.6492   12.0823   26.6439 H   0  0  0  0  0  0  0  0  0  0  0  0
  1  2  1  0  0  0  0
  1  5  2  0  0  0  0
  2  6  2  0  0  0  0
  3  4  2  0  0  0  0
  3  6  1  0  0  0  0
  4  5  1  0  0  0  0
  4 11  1  0  0  0  0
  5 16  1  0  0  0  0
  6 17  1  0  0  0  0
  7  9  1  0  0  0  0
  7 12  1  0  0  0  0
  8 10  1  0  0  0  0
  8 12  1  0  0  0  0
  9 15  1  0  0  0  0
 10 15  1  0  0  0  0
 12 17  1  0  0  0  0
 13 17  2  0  0  0  0
 14 17  2  0  0  0  0
  1 18  1  0  0  0  0
  2 19  1  0  0  0  0
  3 20  1  0  0  0  0
  7 21  1  0  0  0  0
  7 22  1  0  0  0  0
  8 23  1  0  0  0  0
  8 24  1  0  0  0  0
  9 25  1  0  0  0  0
  9 26  1  0  0  0  0
 10 27  1  0  0  0  0
 10 28  1  0  0  0  0
 11 29  1  0  0  0  0
 11 30  1  0  0  0  0
 11 31  1  0  0  0  0
M  END
> <Catalog ID>
Z57901832

> <PlateID>
1337959-R-07

> <Well>
H08

> <MW (desalted)>
259.297

> <CLogP>
1.925

> <HBD>
0

> <TPSA>
46.610

> <RotBonds>
1

> <ROCS_ShapeQuery>
A71EV2A-x0451_0A_A71EV2A-x0310_0A_A71EV2A-x0416_0A_peptide

> <ROCS_TanimotoCombo>
0.409 

> <ROCS_ShapeTanimoto>
0.290 

> <ROCS_ColorTanimoto>
0.119 

> <ROCS_RefTversky>
0.259 

> <ROCS_RefColorTversky>
0.129 

> <ROCS_RefTverskyCombo>
0.388 

> <ROCS_FitTversky>
1.699 

> <ROCS_FitColorTversky>
0.617 

> <ROCS_FitTverskyCombo>
2.316 

> <ROCS_ColorScore>
-3.911

> <ROCS_Overlap>
1795.487

> <ROCS_Rank>
347                 

$$$$
untitled-dbase-985_10
  -OEChem-11112309163D

 31 32  0     1  0  0  0  0  0999 V2000
    6.5348   11.0998   25.7620 C   0  0  0  0  0  0  0  0  0  0  0  0
    6.3764    9.7861   26.1479 C   0  0  0  0  0  0  0  0  0  0  0  0
    7.6195   11.2714   24.8448 C   0  0  0  0  0  0  0  0  0  0  0  0
    8.2422   10.0647   24.5912 C   0  0  0  0  0  0  0  0  0  0  0  0
   10.3736   13.3461   23.3768 C   0  0  0  0  0  0  0  0  0  0  0  0
    9.4308    9.9053   23.7047 C   0  0  0  0  0  0  0  0  0  0  0  0
    9.5087   11.1047   22.7571 C   0  0  0  0  0  0  0  0  0  0  0  0
    8.0689   12.5760   24.2288 C   0  0  2  0  0  0  0  0  0  0  0  0
    5.7181   13.4004   24.0215 C   0  0  0  0  0  0  0  0  0  0  0  0
   12.1551   14.2594   21.9073 C   0  0  0  0  0  0  0  0  0  0  0  0
    7.0064   13.1720   23.3033 C   0  0  0  0  0  0  0  0  0  0  0  0
    9.3517   12.3799   23.4861 N   0  0  0  0  0  0  0  0  0  0  0  0
   11.0759   13.3358   22.1761 N   0  0  0  0  0  0  0  0  0  0  0  0
   10.6386   14.1488   24.2774 O   0  0  0  0  0  0  0  0  0  0  0  0
    7.5364    8.7594   25.4199 S   0  0  0  0  0  0  0  0  0  0  0  0
    5.8998   11.9005   26.1193 H   0  0  0  0  0  0  0  0  0  0  0  0
    5.6372    9.3823   26.8252 H   0  0  0  0  0  0  0  0  0  0  0  0
   10.3395    9.8539   24.3163 H   0  0  0  0  0  0  0  0  0  0  0  0
    9.3669    8.9816   23.1188 H   0  0  0  0  0  0  0  0  0  0  0  0
   10.4551   11.0769   22.2079 H   0  0  0  0  0  0  0  0  0  0  0  0
    8.7056   11.0600   22.0112 H   0  0  0  0  0  0  0  0  0  0  0  0
    8.2479   13.2688   25.0580 H   0  0  0  0  0  0  0  0  0  0  0  0
    5.3498   12.4494   24.4239 H   0  0  0  0  0  0  0  0  0  0  0  0
    4.9568   13.7995   23.3430 H   0  0  0  0  0  0  0  0  0  0  0  0
    5.8541   14.0935   24.8584 H   0  0  0  0  0  0  0  0  0  0  0  0
   11.7519   15.1685   21.4371 H   0  0  0  0  0  0  0  0  0  0  0  0
   12.6537   14.5252   22.8511 H   0  0  0  0  0  0  0  0  0  0  0  0
   12.8813   13.7873   21.2293 H   0  0  0  0  0  0  0  0  0  0  0  0
    7.3768   14.1174   22.9007 H   0  0  0  0  0  0  0  0  0  0  0  0
    6.8451   12.4916   22.4643 H   0  0  0  0  0  0  0  0  0  0  0  0
   10.8229   12.6593   21.4671 H   0  0  0  0  0  0  0  0  0  0  0  0
  1  2  2  0  0  0  0
  1  3  1  0  0  0  0
  2 15  1  0  0  0  0
  3  4  2  0  0  0  0
  3  8  1  0  0  0  0
  4  6  1  0  0  0  0
  4 15  1  0  0  0  0
  5 12  1  0  0  0  0
  5 13  1  0  0  0  0
  5 14  2  0  0  0  0
  6  7  1  0  0  0  0
  7 12  1  0  0  0  0
  8 11  1  0  0  0  0
  8 12  1  0  0  0  0
  9 11  1  0  0  0  0
 10 13  1  0  0  0  0
  1 16  1  0  0  0  0
  2 17  1  0  0  0  0
  6 18  1  0  0  0  0
  6 19  1  0  0  0  0
  7 20  1  0  0  0  0
  7 21  1  0  0  0  0
  8 22  1  0  0  0  0
  9 23  1  0  0  0  0
  9 24  1  0  0  0  0
  9 25  1  0  0  0  0
 10 26  1  0  0  0  0
 10 27  1  0  0  0  0
 10 28  1  0  0  0  0
 11 29  1  0  0  0  0
 11 30  1  0  0  0  0
 13 31  1  0  0  0  0
M  END
> <Catalog ID>
Z281113396

> <PlateID>
1337959-R-13

> <Well>
C10

> <MW (desalted)>
224.323

> <CLogP>
2.335

> <HBD>
1

> <TPSA>
32.340

> <RotBonds>
1

> <ROCS_ShapeQuery>
A71EV2A-x0451_0A_A71EV2A-x0310_0A_A71EV2A-x0416_0A_peptide

> <ROCS_TanimotoCombo>
0.409 

> <ROCS_ShapeTanimoto>
0.266 

> <ROCS_ColorTanimoto>
0.143 

> <ROCS_RefTversky>
0.240 

> <ROCS_RefColorTversky>
0.151 

> <ROCS_RefTverskyCombo>
0.391 

> <ROCS_FitTversky>
1.705 

> <ROCS_FitColorTversky>
0.725 

> <ROCS_FitTverskyCombo>
2.430 

> <ROCS_ColorScore>
-4.600

> <ROCS_Overlap>
1659.773

> <ROCS_Rank>
348                 

$$$$
untitled-dbase-387_24
  -OEChem-11112309163D

 33 34  0     1  0  0  0  0  0999 V2000
    6.6318   11.2427   26.1600 C   0  0  0  0  0  0  0  0  0  0  0  0
    6.5178   12.4923   25.5346 C   0  0  0  0  0  0  0  0  0  0  0  0
    7.6166   10.3358   25.7637 C   0  0  0  0  0  0  0  0  0  0  0  0
    7.3874   12.8534   24.5038 C   0  0  0  0  0  0  0  0  0  0  0  0
    8.4697   10.6920   24.7296 C   0  0  0  0  0  0  0  0  0  0  0  0
    8.3577   11.9447   24.1033 C   0  0  0  0  0  0  0  0  0  0  0  0
   10.5840   12.9118   23.5467 C   0  0  0  0  0  0  0  0  0  0  0  0
    9.8207   10.6359   22.8070 C   0  0  0  0  0  0  0  0  0  0  0  0
    9.6237    9.9124   24.1591 C   0  0  2  0  0  0  0  0  0  0  0  0
    9.4191   12.1089   23.0485 C   0  0  1  0  0  0  0  0  0  0  0  0
    8.1773    8.1779   23.0624 C   0  0  0  0  0  0  0  0  0  0  0  0
   10.6194    7.7260   23.4307 C   0  0  0  0  0  0  0  0  0  0  0  0
    9.3746    8.4223   23.9816 C   0  0  0  0  0  0  0  0  0  0  0  0
    8.9806   12.7423   21.8126 N   0  0  0  0  0  0  0  0  0  0  0  0
   10.5194   13.7919   24.3921 O   0  0  0  0  0  0  0  0  0  0  0  0
   11.7280   12.5305   22.9277 O   0  0  0  0  0  0  0  0  0  0  0  0
    5.9513   10.9816   26.9660 H   0  0  0  0  0  0  0  0  0  0  0  0
    5.7498   13.1882   25.8610 H   0  0  0  0  0  0  0  0  0  0  0  0
    7.7073    9.3782   26.2653 H   0  0  0  0  0  0  0  0  0  0  0  0
    7.3012   13.8278   24.0341 H   0  0  0  0  0  0  0  0  0  0  0  0
   10.8484   10.5255   22.4412 H   0  0  0  0  0  0  0  0  0  0  0  0
    9.1613   10.1819   22.0520 H   0  0  0  0  0  0  0  0  0  0  0  0
   10.5025   10.0692   24.7974 H   0  0  0  0  0  0  0  0  0  0  0  0
    8.3517    8.5947   22.0644 H   0  0  0  0  0  0  0  0  0  0  0  0
    7.2746    8.6440   23.4708 H   0  0  0  0  0  0  0  0  0  0  0  0
    7.9802    7.1063   22.9519 H   0  0  0  0  0  0  0  0  0  0  0  0
   10.8948    8.1240   22.4481 H   0  0  0  0  0  0  0  0  0  0  0  0
   10.4519    6.6489   23.3251 H   0  0  0  0  0  0  0  0  0  0  0  0
   11.4715    7.8674   24.1040 H   0  0  0  0  0  0  0  0  0  0  0  0
    9.1457    7.9856   24.9634 H   0  0  0  0  0  0  0  0  0  0  0  0
    9.5141   13.5694   21.6778 H   0  0  0  0  0  0  0  0  0  0  0  0
    9.1296   12.1057   21.0647 H   0  0  0  0  0  0  0  0  0  0  0  0
   12.5023   13.0461   23.2390 H   0  0  0  0  0  0  0  0  0  0  0  0
  1  2  2  0  0  0  0
  1  3  1  0  0  0  0
  2  4  1  0  0  0  0
  3  5  2  0  0  0  0
  4  6  2  0  0  0  0
  5  6  1  0  0  0  0
  5  9  1  0  0  0  0
  6 10  1  0  0  0  0
  7 10  1  0  0  0  0
  7 15  2  0  0  0  0
  7 16  1  0  0  0  0
  8  9  1  0  0  0  0
  8 10  1  0  0  0  0
  9 13  1  0  0  0  0
 10 14  1  0  0  0  0
 11 13  1  0  0  0  0
 12 13  1  0  0  0  0
  1 17  1  0  0  0  0
  2 18  1  0  0  0  0
  3 19  1  0  0  0  0
  4 20  1  0  0  0  0
  8 21  1  0  0  0  0
  8 22  1  0  0  0  0
  9 23  1  0  0  0  0
 11 24  1  0  0  0  0
 11 25  1  0  0  0  0
 11 26  1  0  0  0  0
 12 27  1  0  0  0  0
 12 28  1  0  0  0  0
 12 29  1  0  0  0  0
 13 30  1  0  0  0  0
 14 31  1  0  0  0  0
 14 32  1  0  0  0  0
 16 33  1  0  0  0  0
M  END
> <Catalog ID>
Z1946004722

> <PlateID>
1337959-R-05

> <Well>
G09

> <MW (desalted)>
219.280

> <CLogP>
0.253

> <HBD>
2

> <TPSA>
63.320

> <RotBonds>
2

> <ROCS_ShapeQuery>
A71EV2A-x0451_0A_A71EV2A-x0310_0A_A71EV2A-x0416_0A_peptide

> <ROCS_TanimotoCombo>
0.409 

> <ROCS_ShapeTanimoto>
0.287 

> <ROCS_ColorTanimoto>
0.122 

> <ROCS_RefTversky>
0.256 

> <ROCS_RefColorTversky>
0.142 

> <ROCS_RefTverskyCombo>
0.398 

> <ROCS_FitTversky>
1.711 

> <ROCS_FitColorTversky>
0.469 

> <ROCS_FitTverskyCombo>
2.180 

> <ROCS_ColorScore>
-4.321

> <ROCS_Overlap>
1777.609

> <ROCS_Rank>
349                 

$$$$
untitled-dbase-60_0
  -OEChem-11112309163D

 25 26  0     0  0  0  0  0  0999 V2000
    8.8829    9.7132   23.6823 C   0  0  0  0  0  0  0  0  0  0  0  0
    9.5933   10.8616   23.3510 C   0  0  0  0  0  0  0  0  0  0  0  0
    9.1964   13.4319   21.0955 C   0  0  0  0  0  0  0  0  0  0  0  0
   11.2988   14.4410   21.7268 C   0  0  0  0  0  0  0  0  0  0  0  0
   10.5586   14.5288   19.4287 C   0  0  0  0  0  0  0  0  0  0  0  0
    7.7490    9.8554   24.4659 C   0  0  0  0  0  0  0  0  0  0  0  0
    9.1543   12.0997   23.8070 C   0  0  0  0  0  0  0  0  0  0  0  0
   10.1439   13.7389   22.0720 C   0  0  0  0  0  0  0  0  0  0  0  0
    9.4037   13.8268   19.7738 C   0  0  0  0  0  0  0  0  0  0  0  0
   11.5061   14.8359   20.4052 C   0  0  0  0  0  0  0  0  0  0  0  0
    8.0082   12.1351   24.5849 C   0  0  0  0  0  0  0  0  0  0  0  0
    9.9278   13.3272   23.4499 C   0  0  0  0  0  0  0  0  0  0  0  0
    7.2918   11.0410   24.9274 N   0  0  0  0  0  0  0  0  0  0  0  0
    7.5557   13.3934   25.0558 N   0  0  0  0  0  0  0  0  0  0  0  0
   10.3902   14.0001   24.3832 O   0  0  0  0  0  0  0  0  0  0  0  0
    8.4939   13.5320   18.8360 F   0  0  0  0  0  0  0  0  0  0  0  0
   12.6151   15.5101   20.0736 F   0  0  0  0  0  0  0  0  0  0  0  0
    9.2076    8.7375   23.3394 H   0  0  0  0  0  0  0  0  0  0  0  0
   10.4868   10.7793   22.7379 H   0  0  0  0  0  0  0  0  0  0  0  0
    8.2929   12.8854   21.3529 H   0  0  0  0  0  0  0  0  0  0  0  0
   12.0439   14.6857   22.4793 H   0  0  0  0  0  0  0  0  0  0  0  0
   10.7200   14.8363   18.3998 H   0  0  0  0  0  0  0  0  0  0  0  0
    7.1599    8.9903   24.7520 H   0  0  0  0  0  0  0  0  0  0  0  0
    8.0977   14.2050   24.8548 H   0  0  0  0  0  0  0  0  0  0  0  0
    6.7598   13.4242   25.6545 H   0  0  0  0  0  0  0  0  0  0  0  0
  1  2  1  0  0  0  0
  1  6  2  0  0  0  0
  2  7  2  0  0  0  0
  3  8  2  0  0  0  0
  3  9  1  0  0  0  0
  4  8  1  0  0  0  0
  4 10  2  0  0  0  0
  5  9  2  0  0  0  0
  5 10  1  0  0  0  0
  6 13  1  0  0  0  0
  7 11  1  0  0  0  0
  7 12  1  0  0  0  0
  8 12  1  0  0  0  0
  9 16  1  0  0  0  0
 10 17  1  0  0  0  0
 11 13  2  0  0  0  0
 11 14  1  0  0  0  0
 12 15  2  0  0  0  0
  1 18  1  0  0  0  0
  2 19  1  0  0  0  0
  3 20  1  0  0  0  0
  4 21  1  0  0  0  0
  5 22  1  0  0  0  0
  6 23  1  0  0  0  0
 14 24  1  0  0  0  0
 14 25  1  0  0  0  0
M  END
> <Catalog ID>
Z1192043634

> <PlateID>
1337959-R-01

> <Well>
F11

> <MW (desalted)>
234.202

> <CLogP>
2.805

> <HBD>
1

> <TPSA>
55.980

> <RotBonds>
2

> <ROCS_ShapeQuery>
A71EV2A-x0451_0A_A71EV2A-x0310_0A_A71EV2A-x0416_0A_peptide

> <ROCS_TanimotoCombo>
0.409 

> <ROCS_ShapeTanimoto>
0.266 

> <ROCS_ColorTanimoto>
0.143 

> <ROCS_RefTversky>
0.243 

> <ROCS_RefColorTversky>
0.155 

> <ROCS_RefTverskyCombo>
0.398 

> <ROCS_FitTversky>
1.538 

> <ROCS_FitColorTversky>
0.647 

> <ROCS_FitTverskyCombo>
2.185 

> <ROCS_ColorScore>
-4.719

> <ROCS_Overlap>
1687.652

> <ROCS_Rank>
350                 

$$$$
untitled-dbase-12_27
  -OEChem-11112309163D

 19 19  0     0  0  0  0  0  0999 V2000
    9.0835    9.9973   23.6341 C   0  0  0  0  0  0  0  0  0  0  0  0
    9.2908   11.2636   23.0985 C   0  0  0  0  0  0  0  0  0  0  0  0
    8.1010    9.8549   24.6007 C   0  0  0  0  0  0  0  0  0  0  0  0
    7.5629   12.0866   24.5103 C   0  0  0  0  0  0  0  0  0  0  0  0
    8.5202   12.3336   23.5396 C   0  0  0  0  0  0  0  0  0  0  0  0
    8.7176   13.6998   22.9857 C   0  0  0  0  0  0  0  0  0  0  0  0
    7.3327   10.8705   25.0542 N   0  0  0  0  0  0  0  0  0  0  0  0
   11.2052   13.3786   22.1141 N   0  0  0  0  0  0  0  0  0  0  0  0
   10.4705   15.6334   23.1108 O   0  0  0  0  0  0  0  0  0  0  0  0
   10.7456   13.6345   24.6321 O   0  0  0  0  0  0  0  0  0  0  0  0
   10.3694   14.2040   23.3498 S   0  0  0  0  0  0  0  0  0  0  0  0
    9.6721    9.1486   23.3052 H   0  0  0  0  0  0  0  0  0  0  0  0
   10.0540   11.4071   22.3385 H   0  0  0  0  0  0  0  0  0  0  0  0
    7.9008    8.8877   25.0499 H   0  0  0  0  0  0  0  0  0  0  0  0
    6.9315   12.8824   24.8933 H   0  0  0  0  0  0  0  0  0  0  0  0
    8.0369   14.4363   23.4315 H   0  0  0  0  0  0  0  0  0  0  0  0
    8.5900   13.7338   21.8960 H   0  0  0  0  0  0  0  0  0  0  0  0
   11.6003   13.9378   21.3480 H   0  0  0  0  0  0  0  0  0  0  0  0
   11.7875   12.5764   22.3842 H   0  0  0  0  0  0  0  0  0  0  0  0
  1  2  1  0  0  0  0
  1  3  2  0  0  0  0
  2  5  2  0  0  0  0
  3  7  1  0  0  0  0
  4  5  1  0  0  0  0
  4  7  2  0  0  0  0
  5  6  1  0  0  0  0
  6 11  1  0  0  0  0
  8 11  1  0  0  0  0
  9 11  2  0  0  0  0
 10 11  2  0  0  0  0
  1 12  1  0  0  0  0
  2 13  1  0  0  0  0
  3 14  1  0  0  0  0
  4 15  1  0  0  0  0
  6 16  1  0  0  0  0
  6 17  1  0  0  0  0
  8 18  1  0  0  0  0
  8 19  1  0  0  0  0
M  END
> <Catalog ID>
Z385450900

> <PlateID>
1337959-R-01

> <Well>
B03

> <MW (desalted)>
172.205

> <CLogP>
-1.223

> <HBD>
1

> <TPSA>
73.050

> <RotBonds>
2

> <ROCS_ShapeQuery>
A71EV2A-x0451_0A_A71EV2A-x0310_0A_A71EV2A-x0416_0A_peptide

> <ROCS_TanimotoCombo>
0.409 

> <ROCS_ShapeTanimoto>
0.216 

> <ROCS_ColorTanimoto>
0.193 

> <ROCS_RefTversky>
0.198 

> <ROCS_RefColorTversky>
0.196 

> <ROCS_RefTverskyCombo>
0.394 

> <ROCS_FitTversky>
1.720 

> <ROCS_FitColorTversky>
0.939 

> <ROCS_FitTverskyCombo>
2.659 

> <ROCS_ColorScore>
-5.949

> <ROCS_Overlap>
1368.278

> <ROCS_Rank>
351                 

$$$$
untitled-dbase-894_91
  -OEChem-11112309163D

 35 36  0     1  0  0  0  0  0999 V2000
    6.4048   13.2435   25.6854 C   0  0  0  0  0  0  0  0  0  0  0  0
    6.6488   10.9408   24.8989 C   0  0  0  0  0  0  0  0  0  0  0  0
    7.4230    9.9284   24.3321 C   0  0  0  0  0  0  0  0  0  0  0  0
    8.5215   12.4594   24.7444 C   0  0  0  0  0  0  0  0  0  0  0  0
    7.1980   12.2063   25.1050 C   0  0  0  0  0  0  0  0  0  0  0  0
    9.2957   11.4470   24.1777 C   0  0  0  0  0  0  0  0  0  0  0  0
    8.7464   10.1814   23.9715 C   0  0  0  0  0  0  0  0  0  0  0  0
   11.5982   15.2799   21.5338 C   0  0  0  0  0  0  0  0  0  0  0  0
   10.1585   14.8931   21.8343 C   0  0  0  0  0  0  0  0  0  0  0  0
   12.4973   14.9077   22.7055 C   0  0  0  0  0  0  0  0  0  0  0  0
   10.0603   13.4251   22.2427 C   0  0  0  0  0  0  0  0  0  0  0  0
   12.3412   13.4258   23.1031 C   0  0  1  0  0  0  0  0  0  0  0  0
   10.7203   11.7214   23.7911 C   0  0  0  0  0  0  0  0  0  0  0  0
   13.2663   13.1520   24.2976 C   0  0  0  0  0  0  0  0  0  0  0  0
    5.7606   14.0858   26.1567 N   0  0  0  0  0  0  0  0  0  0  0  0
   10.9225   13.1189   23.3978 N   0  0  2  0  0  0  0  0  0  0  0  0
   13.4790   11.7577   24.3798 O   0  0  0  0  0  0  0  0  0  0  0  0
    9.4826    9.2020   23.4278 F   0  0  0  0  0  0  0  0  0  0  0  0
    5.6186   10.7280   25.1742 H   0  0  0  0  0  0  0  0  0  0  0  0
    6.9961    8.9430   24.1699 H   0  0  0  0  0  0  0  0  0  0  0  0
    8.9555   13.4445   24.9034 H   0  0  0  0  0  0  0  0  0  0  0  0
   11.9391   14.7618   20.6291 H   0  0  0  0  0  0  0  0  0  0  0  0
   11.6655   16.3551   21.3349 H   0  0  0  0  0  0  0  0  0  0  0  0
    9.7672   15.5271   22.6401 H   0  0  0  0  0  0  0  0  0  0  0  0
    9.5342   15.0752   20.9524 H   0  0  0  0  0  0  0  0  0  0  0  0
   13.5394   15.1161   22.4343 H   0  0  0  0  0  0  0  0  0  0  0  0
   12.2582   15.5517   23.5623 H   0  0  0  0  0  0  0  0  0  0  0  0
    9.0132   13.2183   22.4967 H   0  0  0  0  0  0  0  0  0  0  0  0
   10.3184   12.7870   21.3870 H   0  0  0  0  0  0  0  0  0  0  0  0
   12.6830   12.8058   22.2625 H   0  0  0  0  0  0  0  0  0  0  0  0
   11.3955   11.5049   24.6262 H   0  0  0  0  0  0  0  0  0  0  0  0
   11.0284   11.0893   22.9516 H   0  0  0  0  0  0  0  0  0  0  0  0
   12.7936   13.5054   25.2101 H   0  0  0  0  0  0  0  0  0  0  0  0
   14.2150   13.6595   24.1450 H   0  0  0  0  0  0  0  0  0  0  0  0
   14.0660   11.5997   25.1401 H   0  0  0  0  0  0  0  0  0  0  0  0
  1  5  1  0  0  0  0
  1 15  3  0  0  0  0
  2  3  1  0  0  0  0
  2  5  2  0  0  0  0
  3  7  2  0  0  0  0
  4  5  1  0  0  0  0
  4  6  2  0  0  0  0
  6  7  1  0  0  0  0
  6 13  1  0  0  0  0
  7 18  1  0  0  0  0
  8  9  1  0  0  0  0
  8 10  1  0  0  0  0
  9 11  1  0  0  0  0
 10 12  1  0  0  0  0
 11 16  1  0  0  0  0
 12 14  1  0  0  0  0
 12 16  1  0  0  0  0
 13 16  1  0  0  0  0
 14 17  1  0  0  0  0
  2 19  1  0  0  0  0
  3 20  1  0  0  0  0
  4 21  1  0  0  0  0
  8 22  1  0  0  0  0
  8 23  1  0  0  0  0
  9 24  1  0  0  0  0
  9 25  1  0  0  0  0
 10 26  1  0  0  0  0
 10 27  1  0  0  0  0
 11 28  1  0  0  0  0
 11 29  1  0  0  0  0
 12 30  1  0  0  0  0
 13 31  1  0  0  0  0
 13 32  1  0  0  0  0
 14 33  1  0  0  0  0
 14 34  1  0  0  0  0
 17 35  1  0  0  0  0
M  END
> <Catalog ID>
Z647442548

> <PlateID>
1337959-R-12

> <Well>
B08

> <MW (desalted)>
248.296

> <CLogP>
2.110

> <HBD>
1

> <TPSA>
47.260

> <RotBonds>
3

> <ROCS_ShapeQuery>
A71EV2A-x0451_0A_A71EV2A-x0310_0A_A71EV2A-x0416_0A_peptide

> <ROCS_TanimotoCombo>
0.409 

> <ROCS_ShapeTanimoto>
0.327 

> <ROCS_ColorTanimoto>
0.082 

> <ROCS_RefTversky>
0.286 

> <ROCS_RefColorTversky>
0.094 

> <ROCS_RefTverskyCombo>
0.380 

> <ROCS_FitTversky>
1.791 

> <ROCS_FitColorTversky>
0.391 

> <ROCS_FitTverskyCombo>
2.183 

> <ROCS_ColorScore>
-2.852

> <ROCS_Overlap>
1982.196

> <ROCS_Rank>
352                 

$$$$
untitled-dbase-1017_45
  -OEChem-11112309163D

 28 29  0     1  0  0  0  0  0999 V2000
   11.5245   14.1432   19.6480 C   0  0  0  0  0  0  0  0  0  0  0  0
   12.0381   15.4290   19.8162 C   0  0  0  0  0  0  0  0  0  0  0  0
   11.2037   13.3689   20.7631 C   0  0  0  0  0  0  0  0  0  0  0  0
   12.2311   15.9407   21.0994 C   0  0  0  0  0  0  0  0  0  0  0  0
   11.3967   13.8805   22.0463 C   0  0  0  0  0  0  0  0  0  0  0  0
   11.9104   15.1664   22.2145 C   0  0  0  0  0  0  0  0  0  0  0  0
    8.1288   10.9853   24.4201 C   0  0  0  0  0  0  0  0  0  0  0  0
    8.3775   12.0338   23.3685 C   0  0  0  0  0  0  0  0  0  0  0  0
   10.0533    9.6634   23.5113 C   0  0  0  0  0  0  0  0  0  0  0  0
   10.0155   10.5604   22.2925 C   0  0  0  0  0  0  0  0  0  0  0  0
    8.8864    9.8366   24.3543 N   0  0  0  0  0  0  0  0  0  0  0  0
    9.7050   11.9426   22.7295 N   0  0  2  0  0  0  0  0  0  0  0  0
    7.2298   11.1336   25.2504 O   0  0  0  0  0  0  0  0  0  0  0  0
   12.0946   11.9824   23.6845 O   0  0  0  0  0  0  0  0  0  0  0  0
   10.4269   13.7056   24.4573 O   0  0  0  0  0  0  0  0  0  0  0  0
   10.9711   12.8559   23.4195 S   0  0  0  0  0  0  0  0  0  0  0  0
   12.1686   15.8467   23.7806 Cl  0  0  0  0  0  0  0  0  0  0  0  0
   11.3735   13.7452   18.6488 H   0  0  0  0  0  0  0  0  0  0  0  0
   12.2873   16.0320   18.9480 H   0  0  0  0  0  0  0  0  0  0  0  0
   10.8038   12.3689   20.6174 H   0  0  0  0  0  0  0  0  0  0  0  0
   12.6323   16.9448   21.2122 H   0  0  0  0  0  0  0  0  0  0  0  0
    7.5931   11.9371   22.6087 H   0  0  0  0  0  0  0  0  0  0  0  0
    8.2875   13.0128   23.8531 H   0  0  0  0  0  0  0  0  0  0  0  0
   10.1060    8.6081   23.2216 H   0  0  0  0  0  0  0  0  0  0  0  0
   10.9274    9.8887   24.1349 H   0  0  0  0  0  0  0  0  0  0  0  0
   10.9977   10.5346   21.7943 H   0  0  0  0  0  0  0  0  0  0  0  0
    9.2635   10.2141   21.5639 H   0  0  0  0  0  0  0  0  0  0  0  0
    8.6068    9.0523   24.9400 H   0  0  0  0  0  0  0  0  0  0  0  0
  1  2  2  0  0  0  0
  1  3  1  0  0  0  0
  2  4  1  0  0  0  0
  3  5  2  0  0  0  0
  4  6  2  0  0  0  0
  5  6  1  0  0  0  0
  5 16  1  0  0  0  0
  6 17  1  0  0  0  0
  7  8  1  0  0  0  0
  7 11  1  0  0  0  0
  7 13  2  0  0  0  0
  8 12  1  0  0  0  0
  9 10  1  0  0  0  0
  9 11  1  0  0  0  0
 10 12  1  0  0  0  0
 12 16  1  0  0  0  0
 14 16  2  0  0  0  0
 15 16  2  0  0  0  0
  1 18  1  0  0  0  0
  2 19  1  0  0  0  0
  3 20  1  0  0  0  0
  4 21  1  0  0  0  0
  8 22  1  0  0  0  0
  8 23  1  0  0  0  0
  9 24  1  0  0  0  0
  9 25  1  0  0  0  0
 10 26  1  0  0  0  0
 10 27  1  0  0  0  0
 11 28  1  0  0  0  0
M  END
> <Catalog ID>
Z45462965

> <PlateID>
1337959-R-13

> <Well>
G02

> <MW (desalted)>
274.724

> <CLogP>
1.360

> <HBD>
1

> <TPSA>
66.480

> <RotBonds>
1

> <ROCS_ShapeQuery>
A71EV2A-x0451_0A_A71EV2A-x0310_0A_A71EV2A-x0416_0A_peptide

> <ROCS_TanimotoCombo>
0.409 

> <ROCS_ShapeTanimoto>
0.283 

> <ROCS_ColorTanimoto>
0.126 

> <ROCS_RefTversky>
0.254 

> <ROCS_RefColorTversky>
0.139 

> <ROCS_RefTverskyCombo>
0.393 

> <ROCS_FitTversky>
1.670 

> <ROCS_FitColorTversky>
0.579 

> <ROCS_FitTverskyCombo>
2.249 

> <ROCS_ColorScore>
-4.222

> <ROCS_Overlap>
1760.602

> <ROCS_Rank>
353                 

$$$$
untitled-dbase-754_68
  -OEChem-11112309163D

 37 39  0     1  0  0  0  0  0999 V2000
   12.1391   13.5214   21.8203 C   0  0  0  0  0  0  0  0  0  0  0  0
   12.3334   13.9722   20.4993 C   0  0  0  0  0  0  0  0  0  0  0  0
   10.8059   13.6357   22.1820 C   0  0  0  0  0  0  0  0  0  0  0  0
   11.1706   14.4010   19.9208 C   0  0  0  0  0  0  0  0  0  0  0  0
   10.1648   13.2849   23.4572 C   0  0  0  0  0  0  0  0  0  0  0  0
   13.4775   14.1012   19.5650 C   0  0  0  0  0  0  0  0  0  0  0  0
   11.3307   14.8826   18.5296 C   0  0  0  0  0  0  0  0  0  0  0  0
   12.8838   15.0066   18.4392 C   0  0  0  0  0  0  0  0  0  0  0  0
    9.0940   11.2145   22.4739 C   0  0  0  0  0  0  0  0  0  0  0  0
    8.2804   10.8576   25.1923 C   0  0  0  0  0  0  0  0  0  0  0  0
    8.1101   12.2054   24.4845 C   0  0  1  0  0  0  0  0  0  0  0  0
    9.2060    9.8713   23.2032 C   0  0  1  0  0  0  0  0  0  0  0  0
    8.0018   13.3403   25.4985 C   0  0  0  0  0  0  0  0  0  0  0  0
   10.6154    9.5834   23.7155 C   0  0  0  0  0  0  0  0  0  0  0  0
    9.1481   12.3220   23.4394 N   0  0  0  0  0  0  0  0  0  0  0  0
   10.5898   13.8934   24.4367 O   0  0  0  0  0  0  0  0  0  0  0  0
    8.2376    9.7783   24.2550 O   0  0  0  0  0  0  0  0  0  0  0  0
    9.8274   14.2842   20.9097 S   0  0  0  0  0  0  0  0  0  0  0  0
   12.9120   13.1371   22.4734 H   0  0  0  0  0  0  0  0  0  0  0  0
   14.3527   14.5663   20.0268 H   0  0  0  0  0  0  0  0  0  0  0  0
   13.7554   13.1220   19.1616 H   0  0  0  0  0  0  0  0  0  0  0  0
   10.9629   14.1391   17.8150 H   0  0  0  0  0  0  0  0  0  0  0  0
   10.8452   15.8445   18.3440 H   0  0  0  0  0  0  0  0  0  0  0  0
   13.1698   16.0490   18.6335 H   0  0  0  0  0  0  0  0  0  0  0  0
   13.2654   14.7411   17.4480 H   0  0  0  0  0  0  0  0  0  0  0  0
    9.9404   11.3553   21.7996 H   0  0  0  0  0  0  0  0  0  0  0  0
    8.1805   11.2401   21.8842 H   0  0  0  0  0  0  0  0  0  0  0  0
    9.2452   10.8127   25.7068 H   0  0  0  0  0  0  0  0  0  0  0  0
    7.5020   10.7109   25.9498 H   0  0  0  0  0  0  0  0  0  0  0  0
    7.1117   12.1378   23.9661 H   0  0  0  0  0  0  0  0  0  0  0  0
    8.9560    9.0501   22.4547 H   0  0  0  0  0  0  0  0  0  0  0  0
    8.9451   13.4471   26.0284 H   0  0  0  0  0  0  0  0  0  0  0  0
    7.2114   13.1181   26.2113 H   0  0  0  0  0  0  0  0  0  0  0  0
    7.7712   14.2693   24.9827 H   0  0  0  0  0  0  0  0  0  0  0  0
   10.9117   10.3419   24.4406 H   0  0  0  0  0  0  0  0  0  0  0  0
   11.3234    9.5922   22.8863 H   0  0  0  0  0  0  0  0  0  0  0  0
   10.6459    8.6049   24.1956 H   0  0  0  0  0  0  0  0  0  0  0  0
  1  2  1  0  0  0  0
  1  3  2  0  0  0  0
  2  4  2  0  0  0  0
  2  6  1  0  0  0  0
  3  5  1  0  0  0  0
  3 18  1  0  0  0  0
  4  7  1  0  0  0  0
  4 18  1  0  0  0  0
  5 15  1  0  0  0  0
  5 16  2  0  0  0  0
  6  8  1  0  0  0  0
  7  8  1  0  0  0  0
  9 12  1  0  0  0  0
  9 15  1  0  0  0  0
 10 11  1  0  0  0  0
 10 17  1  0  0  0  0
 11 13  1  0  0  0  0
 11 15  1  0  0  0  0
 12 14  1  0  0  0  0
 12 17  1  0  0  0  0
  1 19  1  0  0  0  0
  6 20  1  0  0  0  0
  6 21  1  0  0  0  0
  7 22  1  0  0  0  0
  7 23  1  0  0  0  0
  8 24  1  0  0  0  0
  8 25  1  0  0  0  0
  9 26  1  0  0  0  0
  9 27  1  0  0  0  0
 10 28  1  0  0  0  0
 10 29  1  0  0  0  0
 11 30  1  0  0  0  0
 12 31  1  0  0  0  0
 13 32  1  0  0  0  0
 13 33  1  0  0  0  0
 13 34  1  0  0  0  0
 14 35  1  0  0  0  0
 14 36  1  0  0  0  0
 14 37  1  0  0  0  0
M  END
> <Catalog ID>
Z351909132

> <PlateID>
1337959-R-10

> <Well>
D07

> <MW (desalted)>
265.371

> <CLogP>
2.599

> <HBD>
0

> <TPSA>
29.540

> <RotBonds>
1

> <ROCS_ShapeQuery>
A71EV2A-x0451_0A_A71EV2A-x0310_0A_A71EV2A-x0416_0A_peptide

> <ROCS_TanimotoCombo>
0.409 

> <ROCS_ShapeTanimoto>
0.274 

> <ROCS_ColorTanimoto>
0.134 

> <ROCS_RefTversky>
0.250 

> <ROCS_RefColorTversky>
0.143 

> <ROCS_RefTverskyCombo>
0.393 

> <ROCS_FitTversky>
1.558 

> <ROCS_FitColorTversky>
0.683 

> <ROCS_FitTverskyCombo>
2.242 

> <ROCS_ColorScore>
-4.352

> <ROCS_Overlap>
1732.909

> <ROCS_Rank>
354                 

$$$$
untitled-dbase-403_0
  -OEChem-11112309163D

 29 31  0     1  0  0  0  0  0999 V2000
    8.0439   10.0966   23.2523 C   0  0  0  0  0  0  0  0  0  0  0  0
    9.4596    9.8281   23.7797 C   0  0  0  0  0  0  0  0  0  0  0  0
    8.3997   11.3432   25.2516 C   0  0  0  0  0  0  0  0  0  0  0  0
    8.4561   12.5721   23.2086 C   0  0  0  0  0  0  0  0  0  0  0  0
   11.6219   14.4700   22.7885 C   0  0  0  0  0  0  0  0  0  0  0  0
   10.9428   12.1856   22.5642 C   0  0  0  0  0  0  0  0  0  0  0  0
   10.5847   14.6540   23.8837 C   0  0  0  0  0  0  0  0  0  0  0  0
    7.6787   11.4388   23.9099 C   0  0  1  0  0  0  0  0  0  0  0  0
    9.7659   11.0933   24.5979 C   0  0  2  0  0  0  0  0  0  0  0  0
    9.9154   12.3545   23.6948 C   0  0  2  0  0  0  0  0  0  0  0  0
   11.1706   13.4450   21.8506 N   0  0  0  0  0  0  0  0  0  0  0  0
   10.3372   13.4236   24.5640 O   0  0  0  0  0  0  0  0  0  0  0  0
    8.0132   10.1433   22.1592 H   0  0  0  0  0  0  0  0  0  0  0  0
    7.3637    9.3021   23.5791 H   0  0  0  0  0  0  0  0  0  0  0  0
    9.4495    8.9473   24.4334 H   0  0  0  0  0  0  0  0  0  0  0  0
   10.1763    9.6279   22.9801 H   0  0  0  0  0  0  0  0  0  0  0  0
    8.3532   12.2670   25.8373 H   0  0  0  0  0  0  0  0  0  0  0  0
    8.0560   10.5055   25.8680 H   0  0  0  0  0  0  0  0  0  0  0  0
    8.3508   12.5016   22.1210 H   0  0  0  0  0  0  0  0  0  0  0  0
    8.0544   13.5375   23.5340 H   0  0  0  0  0  0  0  0  0  0  0  0
   11.7808   15.4128   22.2553 H   0  0  0  0  0  0  0  0  0  0  0  0
   12.5850   14.1717   23.2191 H   0  0  0  0  0  0  0  0  0  0  0  0
   11.8981   11.8307   22.9708 H   0  0  0  0  0  0  0  0  0  0  0  0
   10.6113   11.4436   21.8311 H   0  0  0  0  0  0  0  0  0  0  0  0
   10.9558   15.3679   24.6262 H   0  0  0  0  0  0  0  0  0  0  0  0
    9.6492   15.0623   23.4865 H   0  0  0  0  0  0  0  0  0  0  0  0
    6.6033   11.6192   23.9632 H   0  0  0  0  0  0  0  0  0  0  0  0
   10.5782   10.9684   25.3187 H   0  0  0  0  0  0  0  0  0  0  0  0
   10.2983   13.7482   21.4175 H   0  0  0  0  0  0  0  0  0  0  0  0
  1  2  1  0  0  0  0
  1  8  1  0  0  0  0
  2  9  1  0  0  0  0
  3  8  1  0  0  0  0
  3  9  1  0  0  0  0
  4  8  1  0  0  0  0
  4 10  1  0  0  0  0
  5  7  1  0  0  0  0
  5 11  1  0  0  0  0
  6 10  1  0  0  0  0
  6 11  1  0  0  0  0
  7 12  1  0  0  0  0
  9 10  1  0  0  0  0
 10 12  1  0  0  0  0
  1 13  1  0  0  0  0
  1 14  1  0  0  0  0
  2 15  1  0  0  0  0
  2 16  1  0  0  0  0
  3 17  1  0  0  0  0
  3 18  1  0  0  0  0
  4 19  1  0  0  0  0
  4 20  1  0  0  0  0
  5 21  1  0  0  0  0
  5 22  1  0  0  0  0
  6 23  1  0  0  0  0
  6 24  1  0  0  0  0
  7 25  1  0  0  0  0
  7 26  1  0  0  0  0
  8 27  1  0  0  0  0
  9 28  1  0  0  0  0
 11 29  1  0  0  0  0
M  END
> <Catalog ID>
Z1460827472

> <PlateID>
1337959-R-06

> <Well>
A05

> <MW (desalted)>
167.248

> <CLogP>
1.338

> <HBD>
1

> <TPSA>
21.260

> <RotBonds>
0

> <ROCS_ShapeQuery>
A71EV2A-x0451_0A_A71EV2A-x0310_0A_A71EV2A-x0416_0A_peptide

> <ROCS_TanimotoCombo>
0.409 

> <ROCS_ShapeTanimoto>
0.233 

> <ROCS_ColorTanimoto>
0.176 

> <ROCS_RefTversky>
0.213 

> <ROCS_RefColorTversky>
0.205 

> <ROCS_RefTverskyCombo>
0.418 

> <ROCS_FitTversky>
1.682 

> <ROCS_FitColorTversky>
0.552 

> <ROCS_FitTverskyCombo>
2.234 

> <ROCS_ColorScore>
-6.272

> <ROCS_Overlap>
1474.720

> <ROCS_Rank>
355                 

$$$$
untitled-dbase-978_65
  -OEChem-11112309163D

 27 28  0     1  0  0  0  0  0999 V2000
   11.7362   13.7583   21.4981 C   0  0  0  0  0  0  0  0  0  0  0  0
    7.3255   11.4236   24.4322 C   0  0  0  0  0  0  0  0  0  0  0  0
    7.6024   10.0728   24.2220 C   0  0  0  0  0  0  0  0  0  0  0  0
    8.3230   12.3787   24.2364 C   0  0  0  0  0  0  0  0  0  0  0  0
    8.8768    9.6770   23.8160 C   0  0  0  0  0  0  0  0  0  0  0  0
   15.2838   12.2436   24.1523 C   0  0  0  0  0  0  0  0  0  0  0  0
    9.5974   11.9830   23.8304 C   0  0  0  0  0  0  0  0  0  0  0  0
    9.8744   10.6322   23.6202 C   0  0  0  0  0  0  0  0  0  0  0  0
   14.8346   13.5197   24.4203 C   0  0  0  0  0  0  0  0  0  0  0  0
   13.1088   12.7960   23.2768 C   0  0  0  0  0  0  0  0  0  0  0  0
   10.6345   12.9823   23.6273 C   0  0  0  0  0  0  0  0  0  0  0  0
   15.5671   14.5488   25.1845 C   0  0  0  0  0  0  0  0  0  0  0  0
   11.7590   12.7593   22.5865 C   0  0  1  0  0  0  0  0  0  0  0  0
   11.7176   14.5394   20.6398 N   0  0  0  0  0  0  0  0  0  0  0  0
   13.5878   13.8384   23.9187 N   0  0  0  0  0  0  0  0  0  0  0  0
   10.6211   14.0318   24.3035 O   0  0  0  0  0  0  0  0  0  0  0  0
   11.0957   10.2397   23.2301 F   0  0  0  0  0  0  0  0  0  0  0  0
   14.1045   11.3989   23.2373 S   0  0  0  0  0  0  0  0  0  0  0  0
    6.3333   11.7316   24.7485 H   0  0  0  0  0  0  0  0  0  0  0  0
    6.8257    9.3290   24.3744 H   0  0  0  0  0  0  0  0  0  0  0  0
    8.0953   13.4284   24.4031 H   0  0  0  0  0  0  0  0  0  0  0  0
    9.0926    8.6254   23.6522 H   0  0  0  0  0  0  0  0  0  0  0  0
   16.2164   11.7788   24.4397 H   0  0  0  0  0  0  0  0  0  0  0  0
   16.1991   15.1612   24.5208 H   0  0  0  0  0  0  0  0  0  0  0  0
   14.8844   15.2302   25.7202 H   0  0  0  0  0  0  0  0  0  0  0  0
   16.2209   14.1048   25.9545 H   0  0  0  0  0  0  0  0  0  0  0  0
   11.5773   11.7840   22.1194 H   0  0  0  0  0  0  0  0  0  0  0  0
  1 13  1  0  0  0  0
  1 14  3  0  0  0  0
  2  3  2  0  0  0  0
  2  4  1  0  0  0  0
  3  5  1  0  0  0  0
  4  7  2  0  0  0  0
  5  8  2  0  0  0  0
  6  9  2  0  0  0  0
  6 18  1  0  0  0  0
  7  8  1  0  0  0  0
  7 11  1  0  0  0  0
  8 17  1  0  0  0  0
  9 12  1  0  0  0  0
  9 15  1  0  0  0  0
 10 13  1  0  0  0  0
 10 15  2  0  0  0  0
 10 18  1  0  0  0  0
 11 13  1  0  0  0  0
 11 16  2  0  0  0  0
  2 19  1  0  0  0  0
  3 20  1  0  0  0  0
  4 21  1  0  0  0  0
  5 22  1  0  0  0  0
  6 23  1  0  0  0  0
 12 24  1  0  0  0  0
 12 25  1  0  0  0  0
 12 26  1  0  0  0  0
 13 27  1  0  0  0  0
M  END
> <Catalog ID>
Z384804374

> <PlateID>
1337959-R-13

> <Well>
C03

> <MW (desalted)>
260.287

> <CLogP>
1.114

> <HBD>
0

> <TPSA>
53.750

> <RotBonds>
3

> <ROCS_ShapeQuery>
A71EV2A-x0451_0A_A71EV2A-x0310_0A_A71EV2A-x0416_0A_peptide

> <ROCS_TanimotoCombo>
0.409 

> <ROCS_ShapeTanimoto>
0.273 

> <ROCS_ColorTanimoto>
0.136 

> <ROCS_RefTversky>
0.249 

> <ROCS_RefColorTversky>
0.145 

> <ROCS_RefTverskyCombo>
0.393 

> <ROCS_FitTversky>
1.546 

> <ROCS_FitColorTversky>
0.693 

> <ROCS_FitTverskyCombo>
2.239 

> <ROCS_ColorScore>
-4.393

> <ROCS_Overlap>
1725.412

> <ROCS_Rank>
356                 

$$$$
untitled-dbase-1014_246
  -OEChem-11112309163D

 30 31  0     1  0  0  0  0  0999 V2000
    7.6849   11.9557   24.4645 C   0  0  0  0  0  0  0  0  0  0  0  0
    7.6921   10.6439   24.9387 C   0  0  0  0  0  0  0  0  0  0  0  0
    8.6355   12.3644   23.5290 C   0  0  0  0  0  0  0  0  0  0  0  0
    8.6498    9.7408   24.4774 C   0  0  0  0  0  0  0  0  0  0  0  0
    9.5932   11.4613   23.0678 C   0  0  0  0  0  0  0  0  0  0  0  0
    9.6004   10.1495   23.5419 C   0  0  0  0  0  0  0  0  0  0  0  0
   10.5047   13.4835   19.3363 C   0  0  0  0  0  0  0  0  0  0  0  0
   10.5399   14.9021   19.8211 C   0  0  0  0  0  0  0  0  0  0  0  0
   11.2041   13.8184   20.6252 C   0  0  0  0  0  0  0  0  0  0  0  0
   12.8900   14.1082   23.3027 C   0  0  0  0  0  0  0  0  0  0  0  0
   10.6146   11.9049   22.0607 C   0  0  0  0  0  0  0  0  0  0  0  0
   10.6700   13.3831   21.9399 N   0  0  1  0  0  0  0  0  0  0  0  0
   10.8204   15.6898   23.1100 O   0  0  0  0  0  0  0  0  0  0  0  0
   10.6323   13.6151   24.5202 O   0  0  0  0  0  0  0  0  0  0  0  0
   10.5166    9.2745   23.1044 F   0  0  0  0  0  0  0  0  0  0  0  0
   11.1190   14.2872   23.3301 S   0  0  0  0  0  0  0  0  0  0  0  0
    6.9394   12.6593   24.8241 H   0  0  0  0  0  0  0  0  0  0  0  0
    6.9524   10.3259   25.6675 H   0  0  0  0  0  0  0  0  0  0  0  0
    8.6226   13.3886   23.1658 H   0  0  0  0  0  0  0  0  0  0  0  0
    8.6554    8.7192   24.8461 H   0  0  0  0  0  0  0  0  0  0  0  0
    9.5589   12.9581   19.3850 H   0  0  0  0  0  0  0  0  0  0  0  0
   11.1185   13.2260   18.4820 H   0  0  0  0  0  0  0  0  0  0  0  0
   11.1780   15.6007   19.2942 H   0  0  0  0  0  0  0  0  0  0  0  0
    9.6179   15.3293   20.1960 H   0  0  0  0  0  0  0  0  0  0  0  0
   12.2880   13.7940   20.6186 H   0  0  0  0  0  0  0  0  0  0  0  0
   13.3041   14.6497   24.1547 H   0  0  0  0  0  0  0  0  0  0  0  0
   13.1299   13.0461   23.3714 H   0  0  0  0  0  0  0  0  0  0  0  0
   13.2637   14.5251   22.3663 H   0  0  0  0  0  0  0  0  0  0  0  0
   11.6128   11.5518   22.3420 H   0  0  0  0  0  0  0  0  0  0  0  0
   10.3925   11.4961   21.0694 H   0  0  0  0  0  0  0  0  0  0  0  0
  1  2  2  0  0  0  0
  1  3  1  0  0  0  0
  2  4  1  0  0  0  0
  3  5  2  0  0  0  0
  4  6  2  0  0  0  0
  5  6  1  0  0  0  0
  5 11  1  0  0  0  0
  6 15  1  0  0  0  0
  7  8  1  0  0  0  0
  7  9  1  0  0  0  0
  8  9  1  0  0  0  0
  9 12  1  0  0  0  0
 10 16  1  0  0  0  0
 11 12  1  0  0  0  0
 12 16  1  0  0  0  0
 13 16  2  0  0  0  0
 14 16  2  0  0  0  0
  1 17  1  0  0  0  0
  2 18  1  0  0  0  0
  3 19  1  0  0  0  0
  4 20  1  0  0  0  0
  7 21  1  0  0  0  0
  7 22  1  0  0  0  0
  8 23  1  0  0  0  0
  8 24  1  0  0  0  0
  9 25  1  0  0  0  0
 10 26  1  0  0  0  0
 10 27  1  0  0  0  0
 10 28  1  0  0  0  0
 11 29  1  0  0  0  0
 11 30  1  0  0  0  0
M  END
> <Catalog ID>
Z133805700

> <PlateID>
1337959-R-13

> <Well>
F09

> <MW (desalted)>
243.298

> <CLogP>
1.603

> <HBD>
0

> <TPSA>
37.380

> <RotBonds>
3

> <ROCS_ShapeQuery>
A71EV2A-x0451_0A_A71EV2A-x0310_0A_A71EV2A-x0416_0A_peptide

> <ROCS_TanimotoCombo>
0.408 

> <ROCS_ShapeTanimoto>
0.273 

> <ROCS_ColorTanimoto>
0.136 

> <ROCS_RefTversky>
0.245 

> <ROCS_RefColorTversky>
0.137 

> <ROCS_RefTverskyCombo>
0.382 

> <ROCS_FitTversky>
1.695 

> <ROCS_FitColorTversky>
0.934 

> <ROCS_FitTverskyCombo>
2.628 

> <ROCS_ColorScore>
-4.146

> <ROCS_Overlap>
1699.929

> <ROCS_Rank>
357                 

$$$$
untitled-dbase-620_6
  -OEChem-11112309163D

 32 33  0     1  0  0  0  0  0999 V2000
    6.6005   14.1806   26.0044 C   0  0  0  0  0  0  0  0  0  0  0  0
   11.1143   10.8230   22.8094 C   0  0  0  0  0  0  0  0  0  0  0  0
   11.1467   12.1386   23.2508 C   0  0  0  0  0  0  0  0  0  0  0  0
    8.9410   10.5408   23.8562 C   0  0  0  0  0  0  0  0  0  0  0  0
   10.0171   10.0251   23.1129 C   0  0  0  0  0  0  0  0  0  0  0  0
    8.9615   11.8735   24.3355 C   0  0  0  0  0  0  0  0  0  0  0  0
   10.0854   12.6547   24.0014 C   0  0  0  0  0  0  0  0  0  0  0  0
    7.7843    9.6223   24.1684 C   0  0  0  0  0  0  0  0  0  0  0  0
    6.5362   10.4135   24.5327 C   0  0  0  0  0  0  0  0  0  0  0  0
    6.8790   11.4573   25.5849 C   0  0  0  0  0  0  0  0  0  0  0  0
   10.0323    8.6090   22.6306 C   0  0  0  0  0  0  0  0  0  0  0  0
   11.4271   14.6180   23.9718 C   0  0  0  0  0  0  0  0  0  0  0  0
    7.9420   13.7187   25.6530 C   0  0  0  0  0  0  0  0  0  0  0  0
    5.5370   14.5503   26.2850 N   0  0  0  0  0  0  0  0  0  0  0  0
    7.8970   12.3795   25.0837 N   0  0  3  0  0  0  0  0  0  0  0  0
   10.2353   13.9573   24.3861 O   0  0  0  0  0  0  0  0  0  0  0  0
   11.9471   10.4293   22.2331 H   0  0  0  0  0  0  0  0  0  0  0  0
   12.0051   12.7613   23.0113 H   0  0  0  0  0  0  0  0  0  0  0  0
    7.5424    8.9882   23.3079 H   0  0  0  0  0  0  0  0  0  0  0  0
    8.0700    8.9701   25.0028 H   0  0  0  0  0  0  0  0  0  0  0  0
    6.1212   10.9054   23.6434 H   0  0  0  0  0  0  0  0  0  0  0  0
    5.7646    9.7338   24.9117 H   0  0  0  0  0  0  0  0  0  0  0  0
    5.9597   11.9944   25.8469 H   0  0  0  0  0  0  0  0  0  0  0  0
    7.2431   10.9758   26.5011 H   0  0  0  0  0  0  0  0  0  0  0  0
   10.4910    7.9589   23.3833 H   0  0  0  0  0  0  0  0  0  0  0  0
    9.0162    8.2509   22.4287 H   0  0  0  0  0  0  0  0  0  0  0  0
   10.5970    8.5176   21.6955 H   0  0  0  0  0  0  0  0  0  0  0  0
   11.4225   15.6459   24.3425 H   0  0  0  0  0  0  0  0  0  0  0  0
   11.4869   14.6132   22.8805 H   0  0  0  0  0  0  0  0  0  0  0  0
   12.2890   14.0882   24.3842 H   0  0  0  0  0  0  0  0  0  0  0  0
    8.4044   14.3775   24.9124 H   0  0  0  0  0  0  0  0  0  0  0  0
    8.5894   13.6819   26.5337 H   0  0  0  0  0  0  0  0  0  0  0  0
  1 13  1  0  0  0  0
  1 14  3  0  0  0  0
  2  3  1  0  0  0  0
  2  5  2  0  0  0  0
  3  7  2  0  0  0  0
  4  5  1  0  0  0  0
  4  6  2  0  0  0  0
  4  8  1  0  0  0  0
  5 11  1  0  0  0  0
  6  7  1  0  0  0  0
  6 15  1  0  0  0  0
  7 16  1  0  0  0  0
  8  9  1  0  0  0  0
  9 10  1  0  0  0  0
 10 15  1  0  0  0  0
 12 16  1  0  0  0  0
 13 15  1  0  0  0  0
  2 17  1  0  0  0  0
  3 18  1  0  0  0  0
  8 19  1  0  0  0  0
  8 20  1  0  0  0  0
  9 21  1  0  0  0  0
  9 22  1  0  0  0  0
 10 23  1  0  0  0  0
 10 24  1  0  0  0  0
 11 25  1  0  0  0  0
 11 26  1  0  0  0  0
 11 27  1  0  0  0  0
 12 28  1  0  0  0  0
 12 29  1  0  0  0  0
 12 30  1  0  0  0  0
 13 31  1  0  0  0  0
 13 32  1  0  0  0  0
M  END
> <Catalog ID>
Z1084264978

> <PlateID>
1337959-R-08

> <Well>
G03

> <MW (desalted)>
216.279

> <CLogP>
2.640

> <HBD>
0

> <TPSA>
36.260

> <RotBonds>
2

> <ROCS_ShapeQuery>
A71EV2A-x0451_0A_A71EV2A-x0310_0A_A71EV2A-x0416_0A_peptide

> <ROCS_TanimotoCombo>
0.408 

> <ROCS_ShapeTanimoto>
0.282 

> <ROCS_ColorTanimoto>
0.126 

> <ROCS_RefTversky>
0.253 

> <ROCS_RefColorTversky>
0.132 

> <ROCS_RefTverskyCombo>
0.385 

> <ROCS_FitTversky>
1.691 

> <ROCS_FitColorTversky>
0.742 

> <ROCS_FitTverskyCombo>
2.433 

> <ROCS_ColorScore>
-3.998

> <ROCS_Overlap>
1754.322

> <ROCS_Rank>
358                 

$$$$
untitled-dbase-115_85
  -OEChem-11112309163D

 26 27  0     0  0  0  0  0  0999 V2000
    9.5486    9.6506   23.5136 C   0  0  0  0  0  0  0  0  0  0  0  0
   10.0791   10.7947   22.9175 C   0  0  0  0  0  0  0  0  0  0  0  0
    8.4079    9.7447   24.3109 C   0  0  0  0  0  0  0  0  0  0  0  0
    8.3282   12.1268   23.9160 C   0  0  0  0  0  0  0  0  0  0  0  0
    9.4689   12.0327   23.1186 C   0  0  0  0  0  0  0  0  0  0  0  0
    7.7978   10.9828   24.5121 C   0  0  0  0  0  0  0  0  0  0  0  0
   10.4607   14.3244   23.4060 C   0  0  0  0  0  0  0  0  0  0  0  0
    9.4714   13.6800   21.1364 C   0  0  0  0  0  0  0  0  0  0  0  0
   10.8381   13.0796   21.2024 C   0  0  0  0  0  0  0  0  0  0  0  0
   10.0364   13.2549   22.4824 C   0  0  0  0  0  0  0  0  0  0  0  0
    6.1127   12.3713   25.4547 C   0  0  0  0  0  0  0  0  0  0  0  0
   10.4508   15.5189   23.1485 O   0  0  0  0  0  0  0  0  0  0  0  0
   10.8694   13.8019   24.5881 O   0  0  0  0  0  0  0  0  0  0  0  0
    6.6856   11.0748   25.2914 O   0  0  0  0  0  0  0  0  0  0  0  0
   10.0228    8.6862   23.3573 H   0  0  0  0  0  0  0  0  0  0  0  0
   10.9682   10.7110   22.2981 H   0  0  0  0  0  0  0  0  0  0  0  0
    7.9999    8.8495   24.7724 H   0  0  0  0  0  0  0  0  0  0  0  0
    7.8509   13.0907   24.0756 H   0  0  0  0  0  0  0  0  0  0  0  0
    9.3974   14.7394   20.9186 H   0  0  0  0  0  0  0  0  0  0  0  0
    8.6821   13.0860   20.6897 H   0  0  0  0  0  0  0  0  0  0  0  0
   10.9688   12.0817   20.7997 H   0  0  0  0  0  0  0  0  0  0  0  0
   11.6843   13.7349   21.0294 H   0  0  0  0  0  0  0  0  0  0  0  0
    5.2324   12.3030   26.0984 H   0  0  0  0  0  0  0  0  0  0  0  0
    5.8325   12.7725   24.4775 H   0  0  0  0  0  0  0  0  0  0  0  0
    6.8505   13.0300   25.9189 H   0  0  0  0  0  0  0  0  0  0  0  0
   11.1578   14.4980   25.2162 H   0  0  0  0  0  0  0  0  0  0  0  0
  1  2  2  0  0  0  0
  1  3  1  0  0  0  0
  2  5  1  0  0  0  0
  3  6  2  0  0  0  0
  4  5  2  0  0  0  0
  4  6  1  0  0  0  0
  5 10  1  0  0  0  0
  6 14  1  0  0  0  0
  7 10  1  0  0  0  0
  7 12  2  0  0  0  0
  7 13  1  0  0  0  0
  8  9  1  0  0  0  0
  8 10  1  0  0  0  0
  9 10  1  0  0  0  0
 11 14  1  0  0  0  0
  1 15  1  0  0  0  0
  2 16  1  0  0  0  0
  3 17  1  0  0  0  0
  4 18  1  0  0  0  0
  8 19  1  0  0  0  0
  8 20  1  0  0  0  0
  9 21  1  0  0  0  0
  9 22  1  0  0  0  0
 11 23  1  0  0  0  0
 11 24  1  0  0  0  0
 11 25  1  0  0  0  0
 13 26  1  0  0  0  0
M  END
> <Catalog ID>
Z801751982

> <PlateID>
1337959-R-02

> <Well>
D06

> <MW (desalted)>
192.211

> <CLogP>
1.677

> <HBD>
1

> <TPSA>
46.530

> <RotBonds>
3

> <ROCS_ShapeQuery>
A71EV2A-x0451_0A_A71EV2A-x0310_0A_A71EV2A-x0416_0A_peptide

> <ROCS_TanimotoCombo>
0.408 

> <ROCS_ShapeTanimoto>
0.260 

> <ROCS_ColorTanimoto>
0.148 

> <ROCS_RefTversky>
0.235 

> <ROCS_RefColorTversky>
0.156 

> <ROCS_RefTverskyCombo>
0.391 

> <ROCS_FitTversky>
1.710 

> <ROCS_FitColorTversky>
0.748 

> <ROCS_FitTverskyCombo>
2.457 

> <ROCS_ColorScore>
-4.746

> <ROCS_Overlap>
1624.809

> <ROCS_Rank>
359                 

$$$$
untitled-dbase-822_16
  -OEChem-11112309163D

 33 34  0     1  0  0  0  0  0999 V2000
    9.6932   13.4295   20.9861 C   0  0  0  0  0  0  0  0  0  0  0  0
   11.8244   14.1706   21.8497 C   0  0  0  0  0  0  0  0  0  0  0  0
   11.3793   14.2771   19.4775 C   0  0  0  0  0  0  0  0  0  0  0  0
   10.5520   13.6410   22.0647 C   0  0  0  0  0  0  0  0  0  0  0  0
   10.1069   13.7475   19.6925 C   0  0  0  0  0  0  0  0  0  0  0  0
   12.2380   14.4887   20.5561 C   0  0  0  0  0  0  0  0  0  0  0  0
   10.1165   13.3062   23.4267 C   0  0  0  0  0  0  0  0  0  0  0  0
    8.2113   12.1445   24.6601 C   0  0  0  0  0  0  0  0  0  0  0  0
    9.1511   11.1857   22.5972 C   0  0  0  0  0  0  0  0  0  0  0  0
    8.2623   10.7439   25.2752 C   0  0  1  0  0  0  0  0  0  0  0  0
    9.1767    9.8245   23.2912 C   0  0  2  0  0  0  0  0  0  0  0  0
    7.1383   10.5461   26.2817 C   0  0  0  0  0  0  0  0  0  0  0  0
    8.9796    8.6945   22.2913 C   0  0  0  0  0  0  0  0  0  0  0  0
    9.2062   12.2603   23.5870 N   0  0  0  0  0  0  0  0  0  0  0  0
   10.5996   13.9810   24.3346 O   0  0  0  0  0  0  0  0  0  0  0  0
    8.1132    9.7525   24.2504 O   0  0  0  0  0  0  0  0  0  0  0  0
    9.2823   13.5443   18.6566 F   0  0  0  0  0  0  0  0  0  0  0  0
   13.4599   14.9972   20.3496 F   0  0  0  0  0  0  0  0  0  0  0  0
    8.6996   13.0174   21.1417 H   0  0  0  0  0  0  0  0  0  0  0  0
   12.5019   14.3397   22.6826 H   0  0  0  0  0  0  0  0  0  0  0  0
   11.7013   14.5247   18.4704 H   0  0  0  0  0  0  0  0  0  0  0  0
    7.2361   12.3239   24.1908 H   0  0  0  0  0  0  0  0  0  0  0  0
    8.3571   12.9049   25.4316 H   0  0  0  0  0  0  0  0  0  0  0  0
    9.9762   11.2740   21.8828 H   0  0  0  0  0  0  0  0  0  0  0  0
    8.2124   11.3233   22.0465 H   0  0  0  0  0  0  0  0  0  0  0  0
    9.2223   10.5862   25.7862 H   0  0  0  0  0  0  0  0  0  0  0  0
   10.1350    9.6740   23.8085 H   0  0  0  0  0  0  0  0  0  0  0  0
    6.1725   10.6974   25.7986 H   0  0  0  0  0  0  0  0  0  0  0  0
    7.2389   11.2600   27.0999 H   0  0  0  0  0  0  0  0  0  0  0  0
    7.1745    9.5352   26.6891 H   0  0  0  0  0  0  0  0  0  0  0  0
    8.0334    8.8221   21.7644 H   0  0  0  0  0  0  0  0  0  0  0  0
    8.9684    7.7348   22.8088 H   0  0  0  0  0  0  0  0  0  0  0  0
    9.7915    8.6934   21.5632 H   0  0  0  0  0  0  0  0  0  0  0  0
  1  4  2  0  0  0  0
  1  5  1  0  0  0  0
  2  4  1  0  0  0  0
  2  6  2  0  0  0  0
  3  5  2  0  0  0  0
  3  6  1  0  0  0  0
  4  7  1  0  0  0  0
  5 17  1  0  0  0  0
  6 18  1  0  0  0  0
  7 14  1  0  0  0  0
  7 15  2  0  0  0  0
  8 10  1  0  0  0  0
  8 14  1  0  0  0  0
  9 11  1  0  0  0  0
  9 14  1  0  0  0  0
 10 12  1  0  0  0  0
 10 16  1  0  0  0  0
 11 13  1  0  0  0  0
 11 16  1  0  0  0  0
  1 19  1  0  0  0  0
  2 20  1  0  0  0  0
  3 21  1  0  0  0  0
  8 22  1  0  0  0  0
  8 23  1  0  0  0  0
  9 24  1  0  0  0  0
  9 25  1  0  0  0  0
 10 26  1  0  0  0  0
 11 27  1  0  0  0  0
 12 28  1  0  0  0  0
 12 29  1  0  0  0  0
 12 30  1  0  0  0  0
 13 31  1  0  0  0  0
 13 32  1  0  0  0  0
 13 33  1  0  0  0  0
M  END
> <Catalog ID>
Z31453043

> <PlateID>
1337959-R-11

> <Well>
C05

> <MW (desalted)>
255.261

> <CLogP>
2.198

> <HBD>
0

> <TPSA>
29.540

> <RotBonds>
1

> <ROCS_ShapeQuery>
A71EV2A-x0451_0A_A71EV2A-x0310_0A_A71EV2A-x0416_0A_peptide

> <ROCS_TanimotoCombo>
0.408 

> <ROCS_ShapeTanimoto>
0.268 

> <ROCS_ColorTanimoto>
0.140 

> <ROCS_RefTversky>
0.246 

> <ROCS_RefColorTversky>
0.144 

> <ROCS_RefTverskyCombo>
0.390 

> <ROCS_FitTversky>
1.521 

> <ROCS_FitColorTversky>
0.813 

> <ROCS_FitTverskyCombo>
2.334 

> <ROCS_ColorScore>
-4.381

> <ROCS_Overlap>
1704.996

> <ROCS_Rank>
360                 

$$$$
untitled-dbase-53_0
  -OEChem-11112309163D

 23 25  0     1  0  0  0  0  0999 V2000
    9.4273   13.8231   24.1966 C   0  0  0  0  0  0  0  0  0  0  0  0
    9.0740   12.5265   23.9715 C   0  0  0  0  0  0  0  0  0  0  0  0
   10.1019   11.6138   23.7637 C   0  0  0  0  0  0  0  0  0  0  0  0
   11.6388   13.2134   23.9879 C   0  0  0  0  0  0  0  0  0  0  0  0
    7.7216   10.8808   25.1917 C   0  0  0  0  0  0  0  0  0  0  0  0
    8.8651    9.8488   24.9617 C   0  0  0  0  0  0  0  0  0  0  0  0
    8.1672   10.7231   22.8642 C   0  0  0  0  0  0  0  0  0  0  0  0
    7.7799   11.7695   23.9311 C   0  0  2  0  0  0  0  0  0  0  0  0
    9.4438   10.2554   23.5909 C   0  0  1  0  0  0  0  0  0  0  0  0
   10.7256   14.2005   24.2044 N   0  0  0  0  0  0  0  0  0  0  0  0
   11.4048   11.9012   23.7664 N   0  0  0  0  0  0  0  0  0  0  0  0
   12.9947   13.6108   24.0000 N   0  0  0  0  0  0  0  0  0  0  0  0
    8.7010   14.6039   24.3817 H   0  0  0  0  0  0  0  0  0  0  0  0
    6.7598   10.3597   25.2575 H   0  0  0  0  0  0  0  0  0  0  0  0
    7.8732   11.4469   26.1173 H   0  0  0  0  0  0  0  0  0  0  0  0
    9.6095    9.8905   25.7644 H   0  0  0  0  0  0  0  0  0  0  0  0
    8.4488    8.8358   24.9256 H   0  0  0  0  0  0  0  0  0  0  0  0
    7.4213    9.9280   22.7526 H   0  0  0  0  0  0  0  0  0  0  0  0
    8.3698   11.1663   21.8802 H   0  0  0  0  0  0  0  0  0  0  0  0
    6.8925   12.3645   23.7138 H   0  0  0  0  0  0  0  0  0  0  0  0
   10.0508    9.5095   23.0772 H   0  0  0  0  0  0  0  0  0  0  0  0
   13.7048   12.9167   23.8933 H   0  0  0  0  0  0  0  0  0  0  0  0
   13.2198   14.5611   24.2088 H   0  0  0  0  0  0  0  0  0  0  0  0
  1  2  2  0  0  0  0
  1 10  1  0  0  0  0
  2  3  1  0  0  0  0
  2  8  1  0  0  0  0
  3  9  1  0  0  0  0
  3 11  2  0  0  0  0
  4 10  2  0  0  0  0
  4 11  1  0  0  0  0
  4 12  1  0  0  0  0
  5  6  1  0  0  0  0
  5  8  1  0  0  0  0
  6  9  1  0  0  0  0
  7  8  1  0  0  0  0
  7  9  1  0  0  0  0
  1 13  1  0  0  0  0
  5 14  1  0  0  0  0
  5 15  1  0  0  0  0
  6 16  1  0  0  0  0
  6 17  1  0  0  0  0
  7 18  1  0  0  0  0
  7 19  1  0  0  0  0
  8 20  1  0  0  0  0
  9 21  1  0  0  0  0
 12 22  1  0  0  0  0
 12 23  1  0  0  0  0
M  END
> <Catalog ID>
Z1460826513

> <PlateID>
1337959-R-01

> <Well>
F04

> <MW (desalted)>
161.204

> <CLogP>
1.003

> <HBD>
1

> <TPSA>
51.800

> <RotBonds>
0

> <ROCS_ShapeQuery>
A71EV2A-x0451_0A_A71EV2A-x0310_0A_A71EV2A-x0416_0A_peptide

> <ROCS_TanimotoCombo>
0.408 

> <ROCS_ShapeTanimoto>
0.223 

> <ROCS_ColorTanimoto>
0.186 

> <ROCS_RefTversky>
0.206 

> <ROCS_RefColorTversky>
0.220 

> <ROCS_RefTverskyCombo>
0.426 

> <ROCS_FitTversky>
1.584 

> <ROCS_FitColorTversky>
0.543 

> <ROCS_FitTverskyCombo>
2.126 

> <ROCS_ColorScore>
-6.756

> <ROCS_Overlap>
1424.048

> <ROCS_Rank>
361                 

$$$$
untitled-dbase-297_1
  -OEChem-11112309163D

 30 32  0     0  0  0  0  0  0999 V2000
    6.5028   11.2500   25.8352 C   0  0  0  0  0  0  0  0  0  0  0  0
    7.2399   12.3849   25.4134 C   0  0  0  0  0  0  0  0  0  0  0  0
    7.0587   10.1473   25.2258 C   0  0  0  0  0  0  0  0  0  0  0  0
    8.2301   11.9518   24.5479 C   0  0  0  0  0  0  0  0  0  0  0  0
   10.3829   13.2211   24.8120 C   0  0  0  0  0  0  0  0  0  0  0  0
    8.7390   13.9200   23.0636 C   0  0  0  0  0  0  0  0  0  0  0  0
    8.9527    9.7548   23.6312 C   0  0  0  0  0  0  0  0  0  0  0  0
   10.2513   10.4703   23.2746 C   0  0  0  0  0  0  0  0  0  0  0  0
   11.3906   14.1551   24.1446 C   0  0  0  0  0  0  0  0  0  0  0  0
    9.8309   14.8205   22.4873 C   0  0  0  0  0  0  0  0  0  0  0  0
    9.3265   12.6923   23.8090 C   0  0  0  0  0  0  0  0  0  0  0  0
    8.1009   10.5852   24.4596 N   0  0  0  0  0  0  0  0  0  0  0  0
    9.9791   11.8268   22.7896 N   0  0  0  0  0  0  0  0  0  0  0  0
   10.7256   15.2478   23.5129 O   0  0  0  0  0  0  0  0  0  0  0  0
    5.6593   11.2379   26.5110 H   0  0  0  0  0  0  0  0  0  0  0  0
    7.0699   13.4096   25.7134 H   0  0  0  0  0  0  0  0  0  0  0  0
    6.7974    9.0990   25.2775 H   0  0  0  0  0  0  0  0  0  0  0  0
   10.9106   12.4044   25.3179 H   0  0  0  0  0  0  0  0  0  0  0  0
    9.8705   13.7885   25.6017 H   0  0  0  0  0  0  0  0  0  0  0  0
    8.1456   14.5228   23.7641 H   0  0  0  0  0  0  0  0  0  0  0  0
    8.0547   13.6041   22.2655 H   0  0  0  0  0  0  0  0  0  0  0  0
    8.3752    9.5160   22.7307 H   0  0  0  0  0  0  0  0  0  0  0  0
    9.1606    8.8281   24.1763 H   0  0  0  0  0  0  0  0  0  0  0  0
   10.9290   10.4939   24.1355 H   0  0  0  0  0  0  0  0  0  0  0  0
   10.7641    9.9054   22.4882 H   0  0  0  0  0  0  0  0  0  0  0  0
   12.0519   14.5767   24.9092 H   0  0  0  0  0  0  0  0  0  0  0  0
   12.0329   13.6429   23.4209 H   0  0  0  0  0  0  0  0  0  0  0  0
   10.3953   14.3317   21.6857 H   0  0  0  0  0  0  0  0  0  0  0  0
    9.3736   15.7174   22.0569 H   0  0  0  0  0  0  0  0  0  0  0  0
   10.8410   12.2459   22.4497 H   0  0  0  0  0  0  0  0  0  0  0  0
  1  2  1  0  0  0  0
  1  3  2  0  0  0  0
  2  4  2  0  0  0  0
  3 12  1  0  0  0  0
  4 11  1  0  0  0  0
  4 12  1  0  0  0  0
  5  9  1  0  0  0  0
  5 11  1  0  0  0  0
  6 10  1  0  0  0  0
  6 11  1  0  0  0  0
  7  8  1  0  0  0  0
  7 12  1  0  0  0  0
  8 13  1  0  0  0  0
  9 14  1  0  0  0  0
 10 14  1  0  0  0  0
 11 13  1  0  0  0  0
  1 15  1  0  0  0  0
  2 16  1  0  0  0  0
  3 17  1  0  0  0  0
  5 18  1  0  0  0  0
  5 19  1  0  0  0  0
  6 20  1  0  0  0  0
  6 21  1  0  0  0  0
  7 22  1  0  0  0  0
  7 23  1  0  0  0  0
  8 24  1  0  0  0  0
  8 25  1  0  0  0  0
  9 26  1  0  0  0  0
  9 27  1  0  0  0  0
 10 28  1  0  0  0  0
 10 29  1  0  0  0  0
 13 30  1  0  0  0  0
M  END
> <Catalog ID>
Z1824427416

> <PlateID>
1337959-R-04

> <Well>
F09

> <MW (desalted)>
192.258

> <CLogP>
0.039

> <HBD>
1

> <TPSA>
26.190

> <RotBonds>
0

> <ROCS_ShapeQuery>
A71EV2A-x0451_0A_A71EV2A-x0310_0A_A71EV2A-x0416_0A_peptide

> <ROCS_TanimotoCombo>
0.408 

> <ROCS_ShapeTanimoto>
0.265 

> <ROCS_ColorTanimoto>
0.143 

> <ROCS_RefTversky>
0.239 

> <ROCS_RefColorTversky>
0.155 

> <ROCS_RefTverskyCombo>
0.394 

> <ROCS_FitTversky>
1.709 

> <ROCS_FitColorTversky>
0.645 

> <ROCS_FitTverskyCombo>
2.355 

> <ROCS_ColorScore>
-4.713

> <ROCS_Overlap>
1654.964

> <ROCS_Rank>
362                 

$$$$
untitled-dbase-937_56
  -OEChem-11112309163D

 32 33  0     1  0  0  0  0  0999 V2000
    8.7458    9.6530   23.6161 C   0  0  0  0  0  0  0  0  0  0  0  0
    9.6260   10.6943   23.3436 C   0  0  0  0  0  0  0  0  0  0  0  0
    7.6297    9.9326   24.3881 C   0  0  0  0  0  0  0  0  0  0  0  0
    9.3669   11.9653   23.8442 C   0  0  0  0  0  0  0  0  0  0  0  0
    8.2229   12.1414   24.6057 C   0  0  0  0  0  0  0  0  0  0  0  0
   10.2856   13.0614   23.5633 C   0  0  0  0  0  0  0  0  0  0  0  0
   12.3507   14.7012   21.1801 C   0  0  0  0  0  0  0  0  0  0  0  0
   11.8559   14.1541   19.8404 C   0  0  0  0  0  0  0  0  0  0  0  0
   12.3231   13.6226   22.2579 C   0  0  0  0  0  0  0  0  0  0  0  0
   10.5061   12.4203   21.0945 C   0  0  0  0  0  0  0  0  0  0  0  0
   10.4917   13.4552   19.9579 C   0  0  1  0  0  0  0  0  0  0  0  0
    9.3539   14.4636   20.1451 C   0  0  0  0  0  0  0  0  0  0  0  0
    7.3445   11.1544   24.8917 N   0  0  0  0  0  0  0  0  0  0  0  0
   10.9965   13.0104   22.3500 N   0  0  0  0  0  0  0  0  0  0  0  0
   10.4114   13.9853   24.3688 O   0  0  0  0  0  0  0  0  0  0  0  0
    7.9305   13.3789   25.1184 O   0  0  0  0  0  0  0  0  0  0  0  0
    8.9263    8.6542   23.2355 H   0  0  0  0  0  0  0  0  0  0  0  0
   10.5101   10.5042   22.7407 H   0  0  0  0  0  0  0  0  0  0  0  0
    6.9115    9.1557   24.6288 H   0  0  0  0  0  0  0  0  0  0  0  0
   13.3724   15.0812   21.0669 H   0  0  0  0  0  0  0  0  0  0  0  0
   11.7243   15.5453   21.4854 H   0  0  0  0  0  0  0  0  0  0  0  0
   11.7896   14.9838   19.1159 H   0  0  0  0  0  0  0  0  0  0  0  0
   12.6037   13.4530   19.4348 H   0  0  0  0  0  0  0  0  0  0  0  0
   13.0845   12.8630   22.0449 H   0  0  0  0  0  0  0  0  0  0  0  0
   12.5564   14.0523   23.2410 H   0  0  0  0  0  0  0  0  0  0  0  0
    9.4920   12.0417   21.2905 H   0  0  0  0  0  0  0  0  0  0  0  0
   11.1131   11.5558   20.7999 H   0  0  0  0  0  0  0  0  0  0  0  0
   10.2987   12.9130   19.0085 H   0  0  0  0  0  0  0  0  0  0  0  0
    9.5026   15.0209   21.0686 H   0  0  0  0  0  0  0  0  0  0  0  0
    8.4006   13.9398   20.1944 H   0  0  0  0  0  0  0  0  0  0  0  0
    9.3356   15.1595   19.3078 H   0  0  0  0  0  0  0  0  0  0  0  0
    8.6157   14.0100   24.8588 H   0  0  0  0  0  0  0  0  0  0  0  0
  1  2  1  0  0  0  0
  1  3  2  0  0  0  0
  2  4  2  0  0  0  0
  3 13  1  0  0  0  0
  4  5  1  0  0  0  0
  4  6  1  0  0  0  0
  5 13  2  0  0  0  0
  5 16  1  0  0  0  0
  6 14  1  0  0  0  0
  6 15  2  0  0  0  0
  7  8  1  0  0  0  0
  7  9  1  0  0  0  0
  8 11  1  0  0  0  0
  9 14  1  0  0  0  0
 10 11  1  0  0  0  0
 10 14  1  0  0  0  0
 11 12  1  0  0  0  0
  1 17  1  0  0  0  0
  2 18  1  0  0  0  0
  3 19  1  0  0  0  0
  7 20  1  0  0  0  0
  7 21  1  0  0  0  0
  8 22  1  0  0  0  0
  8 23  1  0  0  0  0
  9 24  1  0  0  0  0
  9 25  1  0  0  0  0
 10 26  1  0  0  0  0
 10 27  1  0  0  0  0
 11 28  1  0  0  0  0
 12 29  1  0  0  0  0
 12 30  1  0  0  0  0
 12 31  1  0  0  0  0
 16 32  1  0  0  0  0
M  END
> <Catalog ID>
Z183105892

> <PlateID>
1337959-R-12

> <Well>
F11

> <MW (desalted)>
220.268

> <CLogP>
1.587

> <HBD>
1

> <TPSA>
53.430

> <RotBonds>
1

> <ROCS_ShapeQuery>
A71EV2A-x0451_0A_A71EV2A-x0310_0A_A71EV2A-x0416_0A_peptide

> <ROCS_TanimotoCombo>
0.408 

> <ROCS_ShapeTanimoto>
0.275 

> <ROCS_ColorTanimoto>
0.133 

> <ROCS_RefTversky>
0.248 

> <ROCS_RefColorTversky>
0.146 

> <ROCS_RefTverskyCombo>
0.393 

> <ROCS_FitTversky>
1.660 

> <ROCS_FitColorTversky>
0.607 

> <ROCS_FitTverskyCombo>
2.267 

> <ROCS_ColorScore>
-4.430

> <ROCS_Overlap>
1717.087

> <ROCS_Rank>
363                 

$$$$
untitled-dbase-1177_19
  -OEChem-11112309163D

 22 23  0     0  0  0  0  0  0999 V2000
   11.2882   14.4341   22.8663 C   0  0  0  0  0  0  0  0  0  0  0  0
   10.1860   12.5937   23.4182 C   0  0  0  0  0  0  0  0  0  0  0  0
   12.0598   15.4575   22.1378 C   0  0  0  0  0  0  0  0  0  0  0  0
   10.8969   13.1543   22.2340 C   0  0  0  0  0  0  0  0  0  0  0  0
    7.9845   11.1711   23.1941 C   0  0  0  0  0  0  0  0  0  0  0  0
    9.2541   10.5478   24.7966 C   0  0  0  0  0  0  0  0  0  0  0  0
    9.5121   11.2139   23.4257 C   0  0  0  0  0  0  0  0  0  0  0  0
    7.7962   11.0487   24.7211 C   0  0  0  0  0  0  0  0  0  0  0  0
   10.9034   14.5742   24.0928 N   0  0  0  0  0  0  0  0  0  0  0  0
   10.1902   13.3846   24.4490 N   0  0  0  0  0  0  0  0  0  0  0  0
   12.4299   15.3413   20.9891 O   0  0  0  0  0  0  0  0  0  0  0  0
   12.2746   16.5110   22.9481 O   0  0  0  0  0  0  0  0  0  0  0  0
    6.8530   10.1703   25.1266 F   0  0  0  0  0  0  0  0  0  0  0  0
    7.5511   12.2119   25.3676 F   0  0  0  0  0  0  0  0  0  0  0  0
   10.2171   13.3062   21.3952 H   0  0  0  0  0  0  0  0  0  0  0  0
   11.7648   12.5504   21.9674 H   0  0  0  0  0  0  0  0  0  0  0  0
    7.5587   12.0901   22.7705 H   0  0  0  0  0  0  0  0  0  0  0  0
    7.6240   10.3170   22.6109 H   0  0  0  0  0  0  0  0  0  0  0  0
    9.3713    9.4590   24.8168 H   0  0  0  0  0  0  0  0  0  0  0  0
    9.8247   10.9778   25.6302 H   0  0  0  0  0  0  0  0  0  0  0  0
   10.0431   10.5375   22.7406 H   0  0  0  0  0  0  0  0  0  0  0  0
   11.8772   16.3719   23.8341 H   0  0  0  0  0  0  0  0  0  0  0  0
  1  3  1  0  0  0  0
  1  4  1  0  0  0  0
  1  9  2  0  0  0  0
  2  4  1  0  0  0  0
  2  7  1  0  0  0  0
  2 10  2  0  0  0  0
  3 11  2  0  0  0  0
  3 12  1  0  0  0  0
  5  7  1  0  0  0  0
  5  8  1  0  0  0  0
  6  7  1  0  0  0  0
  6  8  1  0  0  0  0
  8 13  1  0  0  0  0
  8 14  1  0  0  0  0
  9 10  1  0  0  0  0
  4 15  1  0  0  0  0
  4 16  1  0  0  0  0
  5 17  1  0  0  0  0
  5 18  1  0  0  0  0
  6 19  1  0  0  0  0
  6 20  1  0  0  0  0
  7 21  1  0  0  0  0
 12 22  1  0  0  0  0
M  END
> <Catalog ID>
Z3271471364

> <PlateID>
1337959-R-15

> <Well>
G03

> <MW (desalted)>
202.158

> <CLogP>
1.195

> <HBD>
2

> <TPSA>
65.980

> <RotBonds>
2

> <ROCS_ShapeQuery>
A71EV2A-x0451_0A_A71EV2A-x0310_0A_A71EV2A-x0416_0A_peptide

> <ROCS_TanimotoCombo>
0.408 

> <ROCS_ShapeTanimoto>
0.257 

> <ROCS_ColorTanimoto>
0.151 

> <ROCS_RefTversky>
0.233 

> <ROCS_RefColorTversky>
0.168 

> <ROCS_RefTverskyCombo>
0.400 

> <ROCS_FitTversky>
1.681 

> <ROCS_FitColorTversky>
0.601 

> <ROCS_FitTverskyCombo>
2.283 

> <ROCS_ColorScore>
-5.107

> <ROCS_Overlap>
1612.555

> <ROCS_Rank>
364                 

$$$$
untitled-dbase-615_32
  -OEChem-11112309163D

 43 44  0     1  0  0  0  0  0999 V2000
    9.3414   10.9215   23.8821 C   0  0  0  0  0  0  0  0  0  0  0  0
    8.5334   11.6940   24.7377 C   0  0  0  0  0  0  0  0  0  0  0  0
    8.5625    9.8367   23.5611 C   0  0  0  0  0  0  0  0  0  0  0  0
   12.7189   11.7620   24.7408 C   0  0  0  0  0  0  0  0  0  0  0  0
   11.8217   10.5999   24.3389 C   0  0  0  0  0  0  0  0  0  0  0  0
   12.4947   12.7827   23.6434 C   0  0  0  0  0  0  0  0  0  0  0  0
   10.7524   11.2164   23.4182 C   0  0  2  0  0  0  0  0  0  0  0  0
    8.8689   12.9744   25.3853 C   0  0  0  0  0  0  0  0  0  0  0  0
    8.8295    8.6649   22.7058 C   0  0  0  0  0  0  0  0  0  0  0  0
   10.1069   15.5448   21.1331 C   0  0  0  0  0  0  0  0  0  0  0  0
   12.4652   15.0701   21.8337 C   0  0  0  0  0  0  0  0  0  0  0  0
    6.2331    9.1420   24.1990 C   0  0  0  0  0  0  0  0  0  0  0  0
   10.6459   13.3241   22.1748 C   0  0  0  0  0  0  0  0  0  0  0  0
   10.9902   14.8207   22.1533 C   0  0  0  0  0  0  0  0  0  0  0  0
    7.3332   11.1466   24.9470 N   0  0  0  0  0  0  0  0  0  0  0  0
    7.3812   10.0185   24.2182 N   0  0  0  0  0  0  0  0  0  0  0  0
   11.0562   12.6613   23.4061 N   0  0  2  0  0  0  0  0  0  0  0  0
   10.7230   15.3824   23.4404 O   0  0  0  0  0  0  0  0  0  0  0  0
   12.3965   12.1642   25.7093 H   0  0  0  0  0  0  0  0  0  0  0  0
   13.7678   11.4639   24.8288 H   0  0  0  0  0  0  0  0  0  0  0  0
   12.4107    9.8674   23.7731 H   0  0  0  0  0  0  0  0  0  0  0  0
   11.4160   10.0933   25.2215 H   0  0  0  0  0  0  0  0  0  0  0  0
   12.7754   13.7900   23.9662 H   0  0  0  0  0  0  0  0  0  0  0  0
   13.0805   12.5171   22.7542 H   0  0  0  0  0  0  0  0  0  0  0  0
   10.8826   10.7652   22.3999 H   0  0  0  0  0  0  0  0  0  0  0  0
    8.5864   13.8303   24.7491 H   0  0  0  0  0  0  0  0  0  0  0  0
    8.3561   13.0972   26.3556 H   0  0  0  0  0  0  0  0  0  0  0  0
    9.9487   13.0616   25.6007 H   0  0  0  0  0  0  0  0  0  0  0  0
    9.2744    7.8405   23.2874 H   0  0  0  0  0  0  0  0  0  0  0  0
    7.9106    8.2806   22.2301 H   0  0  0  0  0  0  0  0  0  0  0  0
    9.5221    8.9034   21.8800 H   0  0  0  0  0  0  0  0  0  0  0  0
    9.0453   15.3767   21.3473 H   0  0  0  0  0  0  0  0  0  0  0  0
   10.2948   16.6235   21.1305 H   0  0  0  0  0  0  0  0  0  0  0  0
   10.2818   15.1604   20.1216 H   0  0  0  0  0  0  0  0  0  0  0  0
   13.1205   14.5622   22.5499 H   0  0  0  0  0  0  0  0  0  0  0  0
   12.7036   16.1374   21.9105 H   0  0  0  0  0  0  0  0  0  0  0  0
   12.7214   14.7312   20.8246 H   0  0  0  0  0  0  0  0  0  0  0  0
    6.3431    8.4243   25.0162 H   0  0  0  0  0  0  0  0  0  0  0  0
    5.3219    9.7326   24.3289 H   0  0  0  0  0  0  0  0  0  0  0  0
    6.1899    8.6240   23.2369 H   0  0  0  0  0  0  0  0  0  0  0  0
    9.5637   13.1730   22.0960 H   0  0  0  0  0  0  0  0  0  0  0  0
   11.1307   12.7972   21.3460 H   0  0  0  0  0  0  0  0  0  0  0  0
    9.7813   15.2344   23.6115 H   0  0  0  0  0  0  0  0  0  0  0  0
  1  2  1  0  0  0  0
  1  3  2  0  0  0  0
  1  7  1  0  0  0  0
  2  8  1  0  0  0  0
  2 15  2  0  0  0  0
  3  9  1  0  0  0  0
  3 16  1  0  0  0  0
  4  5  1  0  0  0  0
  4  6  1  0  0  0  0
  5  7  1  0  0  0  0
  6 17  1  0  0  0  0
  7 17  1  0  0  0  0
 10 14  1  0  0  0  0
 11 14  1  0  0  0  0
 12 16  1  0  0  0  0
 13 14  1  0  0  0  0
 13 17  1  0  0  0  0
 14 18  1  0  0  0  0
 15 16  1  0  0  0  0
  4 19  1  0  0  0  0
  4 20  1  0  0  0  0
  5 21  1  0  0  0  0
  5 22  1  0  0  0  0
  6 23  1  0  0  0  0
  6 24  1  0  0  0  0
  7 25  1  0  0  0  0
  8 26  1  0  0  0  0
  8 27  1  0  0  0  0
  8 28  1  0  0  0  0
  9 29  1  0  0  0  0
  9 30  1  0  0  0  0
  9 31  1  0  0  0  0
 10 32  1  0  0  0  0
 10 33  1  0  0  0  0
 10 34  1  0  0  0  0
 11 35  1  0  0  0  0
 11 36  1  0  0  0  0
 11 37  1  0  0  0  0
 12 38  1  0  0  0  0
 12 39  1  0  0  0  0
 12 40  1  0  0  0  0
 13 41  1  0  0  0  0
 13 42  1  0  0  0  0
 18 43  1  0  0  0  0
M  END
> <Catalog ID>
Z1139544324

> <PlateID>
1337959-R-08

> <Well>
F08

> <MW (desalted)>
251.368

> <CLogP>
1.236

> <HBD>
1

> <TPSA>
41.290

> <RotBonds>
3

> <ROCS_ShapeQuery>
A71EV2A-x0451_0A_A71EV2A-x0310_0A_A71EV2A-x0416_0A_peptide

> <ROCS_TanimotoCombo>
0.408 

> <ROCS_ShapeTanimoto>
0.309 

> <ROCS_ColorTanimoto>
0.099 

> <ROCS_RefTversky>
0.274 

> <ROCS_RefColorTversky>
0.114 

> <ROCS_RefTverskyCombo>
0.388 

> <ROCS_FitTversky>
1.707 

> <ROCS_FitColorTversky>
0.423 

> <ROCS_FitTverskyCombo>
2.130 

> <ROCS_ColorScore>
-3.482

> <ROCS_Overlap>
1899.249

> <ROCS_Rank>
365                 

$$$$
untitled-dbase-851_16
  -OEChem-11112309163D

 34 35  0     1  0  0  0  0  0999 V2000
   12.1156   15.4887   19.8808 C   0  0  0  0  0  0  0  0  0  0  0  0
   10.8551   15.6280   20.4616 C   0  0  0  0  0  0  0  0  0  0  0  0
   12.6560   13.7515   21.4706 C   0  0  0  0  0  0  0  0  0  0  0  0
   13.0161   14.5504   20.3853 C   0  0  0  0  0  0  0  0  0  0  0  0
   10.4950   14.8291   21.5468 C   0  0  0  0  0  0  0  0  0  0  0  0
   11.3955   13.8909   22.0514 C   0  0  0  0  0  0  0  0  0  0  0  0
    8.1319   10.9865   24.4200 C   0  0  0  0  0  0  0  0  0  0  0  0
    8.3789   12.0378   23.3708 C   0  0  0  0  0  0  0  0  0  0  0  0
   10.0572    9.6688   23.5068 C   0  0  0  0  0  0  0  0  0  0  0  0
   10.0178   10.5688   22.2902 C   0  0  0  0  0  0  0  0  0  0  0  0
   14.3632   14.4009   19.7631 C   0  0  0  0  0  0  0  0  0  0  0  0
    9.1376   15.0036   22.1456 C   0  0  0  0  0  0  0  0  0  0  0  0
    8.8906    9.8387   24.3509 N   0  0  0  0  0  0  0  0  0  0  0  0
    9.7062   11.9495   22.7308 N   0  0  2  0  0  0  0  0  0  0  0  0
    7.2333   11.1317   25.2512 O   0  0  0  0  0  0  0  0  0  0  0  0
   12.0962   11.9895   23.6845 O   0  0  0  0  0  0  0  0  0  0  0  0
   10.4272   13.7090   24.4625 O   0  0  0  0  0  0  0  0  0  0  0  0
   10.9717   12.8624   23.4223 S   0  0  0  0  0  0  0  0  0  0  0  0
   12.3869   16.1147   19.0349 H   0  0  0  0  0  0  0  0  0  0  0  0
   10.1604   16.3605   20.0590 H   0  0  0  0  0  0  0  0  0  0  0  0
   13.3603   13.0208   21.8613 H   0  0  0  0  0  0  0  0  0  0  0  0
    7.5942   11.9422   22.6113 H   0  0  0  0  0  0  0  0  0  0  0  0
    8.2882   13.0155   23.8579 H   0  0  0  0  0  0  0  0  0  0  0  0
   10.1108    8.6143   23.2145 H   0  0  0  0  0  0  0  0  0  0  0  0
   10.9315    9.8934   24.1305 H   0  0  0  0  0  0  0  0  0  0  0  0
   10.9998   10.5452   21.7914 H   0  0  0  0  0  0  0  0  0  0  0  0
    9.2658   10.2235   21.5612 H   0  0  0  0  0  0  0  0  0  0  0  0
   15.0843   15.0700   20.2481 H   0  0  0  0  0  0  0  0  0  0  0  0
   14.7308   13.3703   19.8515 H   0  0  0  0  0  0  0  0  0  0  0  0
   14.3354   14.6372   18.6913 H   0  0  0  0  0  0  0  0  0  0  0  0
    8.4173   14.3408   21.6526 H   0  0  0  0  0  0  0  0  0  0  0  0
    9.1456   14.7755   23.2184 H   0  0  0  0  0  0  0  0  0  0  0  0
    8.7890   16.0385   22.0416 H   0  0  0  0  0  0  0  0  0  0  0  0
    8.6123    9.0527   24.9349 H   0  0  0  0  0  0  0  0  0  0  0  0
  1  2  1  0  0  0  0
  1  4  2  0  0  0  0
  2  5  2  0  0  0  0
  3  4  1  0  0  0  0
  3  6  2  0  0  0  0
  4 11  1  0  0  0  0
  5  6  1  0  0  0  0
  5 12  1  0  0  0  0
  6 18  1  0  0  0  0
  7  8  1  0  0  0  0
  7 13  1  0  0  0  0
  7 15  2  0  0  0  0
  8 14  1  0  0  0  0
  9 10  1  0  0  0  0
  9 13  1  0  0  0  0
 10 14  1  0  0  0  0
 14 18  1  0  0  0  0
 16 18  2  0  0  0  0
 17 18  2  0  0  0  0
  1 19  1  0  0  0  0
  2 20  1  0  0  0  0
  3 21  1  0  0  0  0
  8 22  1  0  0  0  0
  8 23  1  0  0  0  0
  9 24  1  0  0  0  0
  9 25  1  0  0  0  0
 10 26  1  0  0  0  0
 10 27  1  0  0  0  0
 11 28  1  0  0  0  0
 11 29  1  0  0  0  0
 11 30  1  0  0  0  0
 12 31  1  0  0  0  0
 12 32  1  0  0  0  0
 12 33  1  0  0  0  0
 13 34  1  0  0  0  0
M  END
> <Catalog ID>
Z45462933

> <PlateID>
1337959-R-11

> <Well>
F05

> <MW (desalted)>
268.332

> <CLogP>
1.945

> <HBD>
1

> <TPSA>
66.480

> <RotBonds>
1

> <ROCS_ShapeQuery>
A71EV2A-x0451_0A_A71EV2A-x0310_0A_A71EV2A-x0416_0A_peptide

> <ROCS_TanimotoCombo>
0.407 

> <ROCS_ShapeTanimoto>
0.281 

> <ROCS_ColorTanimoto>
0.126 

> <ROCS_RefTversky>
0.254 

> <ROCS_RefColorTversky>
0.139 

> <ROCS_RefTverskyCombo>
0.393 

> <ROCS_FitTversky>
1.602 

> <ROCS_FitColorTversky>
0.579 

> <ROCS_FitTverskyCombo>
2.182 

> <ROCS_ColorScore>
-4.223

> <ROCS_Overlap>
1764.083

> <ROCS_Rank>
366                 

$$$$
untitled-dbase-935_93
  -OEChem-11112309163D

 29 30  0     1  0  0  0  0  0999 V2000
    7.3963   11.6831   24.4460 C   0  0  0  0  0  0  0  0  0  0  0  0
    7.3310   10.2902   24.4789 C   0  0  0  0  0  0  0  0  0  0  0  0
    8.5755   12.3170   24.0545 C   0  0  0  0  0  0  0  0  0  0  0  0
    8.4450    9.5311   24.1203 C   0  0  0  0  0  0  0  0  0  0  0  0
    9.6895   11.5580   23.6960 C   0  0  0  0  0  0  0  0  0  0  0  0
    9.6243   10.1650   23.7288 C   0  0  0  0  0  0  0  0  0  0  0  0
   10.9098   12.2775   23.2901 C   0  0  0  0  0  0  0  0  0  0  0  0
   11.5977   15.2490   22.9661 C   0  0  0  0  0  0  0  0  0  0  0  0
   10.7540   13.5500   19.8906 C   0  0  0  0  0  0  0  0  0  0  0  0
   11.5310   14.6865   20.5419 C   0  0  0  0  0  0  0  0  0  0  0  0
    9.9420   12.9829   21.0429 C   0  0  0  0  0  0  0  0  0  0  0  0
   11.8219   14.1719   21.9513 C   0  0  2  0  0  0  0  0  0  0  0  0
   10.8272   13.1311   22.1954 N   0  0  0  0  0  0  0  0  0  0  0  0
   11.9253   12.0820   23.9560 O   0  0  0  0  0  0  0  0  0  0  0  0
   12.2476   16.2804   23.0501 O   0  0  0  0  0  0  0  0  0  0  0  0
   10.5706   14.9249   23.7891 O   0  0  0  0  0  0  0  0  0  0  0  0
   11.1111    9.0857   23.2545 Br  0  0  0  0  0  0  0  0  0  0  0  0
    6.5290   12.2739   24.7252 H   0  0  0  0  0  0  0  0  0  0  0  0
    6.4127    9.7968   24.7837 H   0  0  0  0  0  0  0  0  0  0  0  0
    8.6126   13.4031   24.0334 H   0  0  0  0  0  0  0  0  0  0  0  0
    8.3747    8.4466   24.1523 H   0  0  0  0  0  0  0  0  0  0  0  0
   10.0887   13.9386   19.1106 H   0  0  0  0  0  0  0  0  0  0  0  0
   11.4130   12.8033   19.4378 H   0  0  0  0  0  0  0  0  0  0  0  0
   12.4745   14.8492   20.0035 H   0  0  0  0  0  0  0  0  0  0  0  0
   10.9620   15.6236   20.5301 H   0  0  0  0  0  0  0  0  0  0  0  0
    9.0035   13.5137   21.2009 H   0  0  0  0  0  0  0  0  0  0  0  0
    9.7429   11.9182   20.9048 H   0  0  0  0  0  0  0  0  0  0  0  0
   12.8365   13.7852   22.0673 H   0  0  0  0  0  0  0  0  0  0  0  0
   10.4088   15.6186   24.4637 H   0  0  0  0  0  0  0  0  0  0  0  0
  1  2  2  0  0  0  0
  1  3  1  0  0  0  0
  2  4  1  0  0  0  0
  3  5  2  0  0  0  0
  4  6  2  0  0  0  0
  5  6  1  0  0  0  0
  5  7  1  0  0  0  0
  6 17  1  0  0  0  0
  7 13  1  0  0  0  0
  7 14  2  0  0  0  0
  8 12  1  1  0  0  0
  8 15  2  0  0  0  0
  8 16  1  0  0  0  0
  9 10  1  0  0  0  0
  9 11  1  0  0  0  0
 10 12  1  0  0  0  0
 11 13  1  0  0  0  0
 12 13  1  0  0  0  0
  1 18  1  0  0  0  0
  2 19  1  0  0  0  0
  3 20  1  0  0  0  0
  4 21  1  0  0  0  0
  9 22  1  0  0  0  0
  9 23  1  0  0  0  0
 10 24  1  0  0  0  0
 10 25  1  0  0  0  0
 11 26  1  0  0  0  0
 11 27  1  0  0  0  0
 12 28  1  0  0  0  0
 16 29  1  0  0  0  0
M  END
> <Catalog ID>
Z98656087

> <PlateID>
1337959-R-12

> <Well>
F09

> <MW (desalted)>
298.133

> <CLogP>
2.102

> <HBD>
1

> <TPSA>
57.610

> <RotBonds>
2

> <ROCS_ShapeQuery>
A71EV2A-x0451_0A_A71EV2A-x0310_0A_A71EV2A-x0416_0A_peptide

> <ROCS_TanimotoCombo>
0.407 

> <ROCS_ShapeTanimoto>
0.291 

> <ROCS_ColorTanimoto>
0.116 

> <ROCS_RefTversky>
0.261 

> <ROCS_RefColorTversky>
0.132 

> <ROCS_RefTverskyCombo>
0.393 

> <ROCS_FitTversky>
1.675 

> <ROCS_FitColorTversky>
0.488 

> <ROCS_FitTverskyCombo>
2.163 

> <ROCS_ColorScore>
-4.022

> <ROCS_Overlap>
1807.891

> <ROCS_Rank>
367                 

$$$$
untitled-dbase-896_7
  -OEChem-11112309163D

 32 33  0     0  0  0  0  0  0999 V2000
    6.7259   10.5857   25.6517 C   0  0  0  0  0  0  0  0  0  0  0  0
    7.9825   13.0625   25.0391 C   0  0  0  0  0  0  0  0  0  0  0  0
    9.2893   10.2244   23.2713 C   0  0  0  0  0  0  0  0  0  0  0  0
    6.3177   11.7757   26.2672 C   0  0  0  0  0  0  0  0  0  0  0  0
    6.9363   12.9910   25.9648 C   0  0  0  0  0  0  0  0  0  0  0  0
    7.7754   10.6390   24.7189 C   0  0  0  0  0  0  0  0  0  0  0  0
    8.3722   11.8649   24.4385 C   0  0  0  0  0  0  0  0  0  0  0  0
    5.2011   11.7169   27.2601 C   0  0  0  0  0  0  0  0  0  0  0  0
    6.4914   14.2546   26.6302 C   0  0  0  0  0  0  0  0  0  0  0  0
   11.3331   13.5893   25.1881 C   0  0  0  0  0  0  0  0  0  0  0  0
   11.3353   15.1659   23.2977 C   0  0  0  0  0  0  0  0  0  0  0  0
    8.3583    9.6317   23.9847 N   0  0  0  0  0  0  0  0  0  0  0  0
    9.3369   11.5698   23.5096 N   0  0  0  0  0  0  0  0  0  0  0  0
   10.7162   13.9526   23.8876 N   0  0  0  0  0  0  0  0  0  0  0  0
   11.6437   11.9119   22.5595 O   0  0  0  0  0  0  0  0  0  0  0  0
    9.6943   13.1902   21.6158 O   0  0  0  0  0  0  0  0  0  0  0  0
   10.3851   12.6365   22.7898 S   0  0  0  0  0  0  0  0  0  0  0  0
    6.2453    9.6405   25.8859 H   0  0  0  0  0  0  0  0  0  0  0  0
    8.4672   14.0031   24.8004 H   0  0  0  0  0  0  0  0  0  0  0  0
    9.9532    9.7335   22.5727 H   0  0  0  0  0  0  0  0  0  0  0  0
    5.5987   11.5445   28.2662 H   0  0  0  0  0  0  0  0  0  0  0  0
    4.6274   12.6510   27.2644 H   0  0  0  0  0  0  0  0  0  0  0  0
    4.4992   10.9105   27.0169 H   0  0  0  0  0  0  0  0  0  0  0  0
    5.6998   14.7323   26.0427 H   0  0  0  0  0  0  0  0  0  0  0  0
    6.1097   14.0559   27.6383 H   0  0  0  0  0  0  0  0  0  0  0  0
    7.3248   14.9590   26.7355 H   0  0  0  0  0  0  0  0  0  0  0  0
   10.8450   12.6878   25.5870 H   0  0  0  0  0  0  0  0  0  0  0  0
   12.4054   13.3915   25.0426 H   0  0  0  0  0  0  0  0  0  0  0  0
   11.2065   14.4195   25.8985 H   0  0  0  0  0  0  0  0  0  0  0  0
   10.8488   15.3971   22.3386 H   0  0  0  0  0  0  0  0  0  0  0  0
   11.2087   16.0140   23.9868 H   0  0  0  0  0  0  0  0  0  0  0  0
   12.4076   14.9860   23.1308 H   0  0  0  0  0  0  0  0  0  0  0  0
  1  4  1  0  0  0  0
  1  6  2  0  0  0  0
  2  5  1  0  0  0  0
  2  7  2  0  0  0  0
  3 12  2  0  0  0  0
  3 13  1  0  0  0  0
  4  5  2  0  0  0  0
  4  8  1  0  0  0  0
  5  9  1  0  0  0  0
  6  7  1  0  0  0  0
  6 12  1  0  0  0  0
  7 13  1  0  0  0  0
 10 14  1  0  0  0  0
 11 14  1  0  0  0  0
 13 17  1  0  0  0  0
 14 17  1  0  0  0  0
 15 17  2  0  0  0  0
 16 17  2  0  0  0  0
  1 18  1  0  0  0  0
  2 19  1  0  0  0  0
  3 20  1  0  0  0  0
  8 21  1  0  0  0  0
  8 22  1  0  0  0  0
  8 23  1  0  0  0  0
  9 24  1  0  0  0  0
  9 25  1  0  0  0  0
  9 26  1  0  0  0  0
 10 27  1  0  0  0  0
 10 28  1  0  0  0  0
 10 29  1  0  0  0  0
 11 30  1  0  0  0  0
 11 31  1  0  0  0  0
 11 32  1  0  0  0  0
M  END
> <Catalog ID>
Z274555680

> <PlateID>
1337959-R-12

> <Well>
B10

> <MW (desalted)>
253.321

> <CLogP>
1.666

> <HBD>
0

> <TPSA>
55.200

> <RotBonds>
0

> <ROCS_ShapeQuery>
A71EV2A-x0451_0A_A71EV2A-x0310_0A_A71EV2A-x0416_0A_peptide

> <ROCS_TanimotoCombo>
0.407 

> <ROCS_ShapeTanimoto>
0.305 

> <ROCS_ColorTanimoto>
0.102 

> <ROCS_RefTversky>
0.270 

> <ROCS_RefColorTversky>
0.109 

> <ROCS_RefTverskyCombo>
0.379 

> <ROCS_FitTversky>
1.744 

> <ROCS_FitColorTversky>
0.613 

> <ROCS_FitTverskyCombo>
2.358 

> <ROCS_ColorScore>
-3.316

> <ROCS_Overlap>
1869.734

> <ROCS_Rank>
368                 

$$$$
untitled-dbase-441_3
  -OEChem-11112309163D

 33 35  0     1  0  0  0  0  0999 V2000
    6.5863   12.1049   26.2654 C   0  0  0  0  0  0  0  0  0  0  0  0
    6.2196   10.7668   26.0711 C   0  0  0  0  0  0  0  0  0  0  0  0
    7.6305   12.6650   25.5304 C   0  0  0  0  0  0  0  0  0  0  0  0
    6.8935    9.9707   25.1405 C   0  0  0  0  0  0  0  0  0  0  0  0
    8.2963   11.8646   24.6122 C   0  0  0  0  0  0  0  0  0  0  0  0
    7.9387   10.5231   24.4137 C   0  0  0  0  0  0  0  0  0  0  0  0
   10.5786   12.9780   24.3719 C   0  0  0  0  0  0  0  0  0  0  0  0
    8.9018   13.0637   22.4798 C   0  0  0  0  0  0  0  0  0  0  0  0
   11.7148   13.3022   23.3928 C   0  0  0  0  0  0  0  0  0  0  0  0
    9.9030   14.1230   22.0004 C   0  0  0  0  0  0  0  0  0  0  0  0
    9.8735   10.8018   23.2255 C   0  0  0  0  0  0  0  0  0  0  0  0
    9.4276   12.2331   23.6795 C   0  0  0  0  0  0  0  0  0  0  0  0
    8.8085    8.4929   23.2469 C   0  0  0  0  0  0  0  0  0  0  0  0
   11.2666   13.6137   22.0335 N   0  0  0  0  0  0  0  0  0  0  0  0
    8.7308    9.9179   23.4487 N   0  0  1  0  0  0  0  0  0  0  0  0
    6.0560   12.7074   26.9977 H   0  0  0  0  0  0  0  0  0  0  0  0
    5.4049   10.3431   26.6526 H   0  0  0  0  0  0  0  0  0  0  0  0
    7.9123   13.7004   25.6852 H   0  0  0  0  0  0  0  0  0  0  0  0
    6.5901    8.9382   25.0014 H   0  0  0  0  0  0  0  0  0  0  0  0
   10.9801   12.3950   25.2071 H   0  0  0  0  0  0  0  0  0  0  0  0
   10.2122   13.9189   24.7993 H   0  0  0  0  0  0  0  0  0  0  0  0
    7.9642   13.5712   22.7580 H   0  0  0  0  0  0  0  0  0  0  0  0
    8.6369   12.4021   21.6406 H   0  0  0  0  0  0  0  0  0  0  0  0
   12.2843   14.1671   23.7795 H   0  0  0  0  0  0  0  0  0  0  0  0
   12.4463   12.4732   23.3580 H   0  0  0  0  0  0  0  0  0  0  0  0
    9.6488   14.4662   20.9900 H   0  0  0  0  0  0  0  0  0  0  0  0
    9.8347   15.0016   22.6526 H   0  0  0  0  0  0  0  0  0  0  0  0
   10.1188   10.7931   22.1557 H   0  0  0  0  0  0  0  0  0  0  0  0
   10.7518   10.4393   23.7672 H   0  0  0  0  0  0  0  0  0  0  0  0
    9.5048    8.2760   22.4234 H   0  0  0  0  0  0  0  0  0  0  0  0
    9.1688    8.0113   24.1679 H   0  0  0  0  0  0  0  0  0  0  0  0
    7.8109    8.1034   22.9955 H   0  0  0  0  0  0  0  0  0  0  0  0
   11.8951   14.3174   21.6347 H   0  0  0  0  0  0  0  0  0  0  0  0
  1  2  2  0  0  0  0
  1  3  1  0  0  0  0
  2  4  1  0  0  0  0
  3  5  2  0  0  0  0
  4  6  2  0  0  0  0
  5  6  1  0  0  0  0
  5 12  1  0  0  0  0
  6 15  1  0  0  0  0
  7  9  1  0  0  0  0
  7 12  1  0  0  0  0
  8 10  1  0  0  0  0
  8 12  1  0  0  0  0
  9 14  1  0  0  0  0
 10 14  1  0  0  0  0
 11 12  1  0  0  0  0
 11 15  1  0  0  0  0
 13 15  1  0  0  0  0
  1 16  1  0  0  0  0
  2 17  1  0  0  0  0
  3 18  1  0  0  0  0
  4 19  1  0  0  0  0
  7 20  1  0  0  0  0
  7 21  1  0  0  0  0
  8 22  1  0  0  0  0
  8 23  1  0  0  0  0
  9 24  1  0  0  0  0
  9 25  1  0  0  0  0
 10 26  1  0  0  0  0
 10 27  1  0  0  0  0
 11 28  1  0  0  0  0
 11 29  1  0  0  0  0
 13 30  1  0  0  0  0
 13 31  1  0  0  0  0
 13 32  1  0  0  0  0
 14 33  1  0  0  0  0
M  END
> <Catalog ID>
Z1509148590

> <PlateID>
1337959-R-06

> <Well>
E03

> <MW (desalted)>
202.295

> <CLogP>
2.134

> <HBD>
1

> <TPSA>
15.270

> <RotBonds>
0

> <ROCS_ShapeQuery>
A71EV2A-x0451_0A_A71EV2A-x0310_0A_A71EV2A-x0416_0A_peptide

> <ROCS_TanimotoCombo>
0.407 

> <ROCS_ShapeTanimoto>
0.300 

> <ROCS_ColorTanimoto>
0.107 

> <ROCS_RefTversky>
0.264 

> <ROCS_RefColorTversky>
0.117 

> <ROCS_RefTverskyCombo>
0.381 

> <ROCS_FitTversky>
1.823 

> <ROCS_FitColorTversky>
0.557 

> <ROCS_FitTverskyCombo>
2.380 

> <ROCS_ColorScore>
-3.541

> <ROCS_Overlap>
1832.616

> <ROCS_Rank>
369                 

$$$$
untitled-dbase-355_28
  -OEChem-11112309163D

 28 29  0     0  0  0  0  0  0999 V2000
    7.3612   10.2310   25.1092 C   0  0  0  0  0  0  0  0  0  0  0  0
    7.5231   11.6163   25.0962 C   0  0  0  0  0  0  0  0  0  0  0  0
    8.1863    9.4249   24.3249 C   0  0  0  0  0  0  0  0  0  0  0  0
    8.5100   12.1957   24.2987 C   0  0  0  0  0  0  0  0  0  0  0  0
    9.1732   10.0043   23.5274 C   0  0  0  0  0  0  0  0  0  0  0  0
    9.3351   11.3897   23.5143 C   0  0  0  0  0  0  0  0  0  0  0  0
   10.4185   13.5833   22.7803 C   0  0  0  0  0  0  0  0  0  0  0  0
   10.3021   15.5663   22.0947 C   0  0  0  0  0  0  0  0  0  0  0  0
   10.2633   11.7251   21.1125 C   0  0  0  0  0  0  0  0  0  0  0  0
   11.7897   11.3926   23.0316 C   0  0  0  0  0  0  0  0  0  0  0  0
   10.3904   12.0085   22.6612 C   0  0  0  0  0  0  0  0  0  0  0  0
   10.6201   14.3402   23.8335 N   0  0  0  0  0  0  0  0  0  0  0  0
   10.5434   15.6447   23.3825 N   0  0  0  0  0  0  0  0  0  0  0  0
   10.1334   16.5477   21.1822 N   0  0  0  0  0  0  0  0  0  0  0  0
   10.2084   14.2885   21.6352 O   0  0  0  0  0  0  0  0  0  0  0  0
    6.5935    9.7799   25.7313 H   0  0  0  0  0  0  0  0  0  0  0  0
    6.8815   12.2440   25.7077 H   0  0  0  0  0  0  0  0  0  0  0  0
    8.0612    8.3463   24.3356 H   0  0  0  0  0  0  0  0  0  0  0  0
    8.6288   13.2760   24.2948 H   0  0  0  0  0  0  0  0  0  0  0  0
    9.8113    9.3684   22.9194 H   0  0  0  0  0  0  0  0  0  0  0  0
   11.0752   12.2145   20.5613 H   0  0  0  0  0  0  0  0  0  0  0  0
   10.3183   10.6509   20.9006 H   0  0  0  0  0  0  0  0  0  0  0  0
    9.3194   12.0868   20.6852 H   0  0  0  0  0  0  0  0  0  0  0  0
   12.5693   11.8453   22.4061 H   0  0  0  0  0  0  0  0  0  0  0  0
   12.0825   11.5506   24.0764 H   0  0  0  0  0  0  0  0  0  0  0  0
   11.8136   10.3136   22.8396 H   0  0  0  0  0  0  0  0  0  0  0  0
   10.1359   17.5445   21.4432 H   0  0  0  0  0  0  0  0  0  0  0  0
    9.9004   16.3465   20.1988 H   0  0  0  0  0  0  0  0  0  0  0  0
  1  2  2  0  0  0  0
  1  3  1  0  0  0  0
  2  4  1  0  0  0  0
  3  5  2  0  0  0  0
  4  6  2  0  0  0  0
  5  6  1  0  0  0  0
  6 11  1  0  0  0  0
  7 11  1  0  0  0  0
  7 12  2  0  0  0  0
  7 15  1  0  0  0  0
  8 13  2  0  0  0  0
  8 14  1  0  0  0  0
  8 15  1  0  0  0  0
  9 11  1  0  0  0  0
 10 11  1  0  0  0  0
 12 13  1  0  0  0  0
  1 16  1  0  0  0  0
  2 17  1  0  0  0  0
  3 18  1  0  0  0  0
  4 19  1  0  0  0  0
  5 20  1  0  0  0  0
  9 21  1  0  0  0  0
  9 22  1  0  0  0  0
  9 23  1  0  0  0  0
 10 24  1  0  0  0  0
 10 25  1  0  0  0  0
 10 26  1  0  0  0  0
 14 27  1  0  0  0  0
 14 28  1  0  0  0  0
M  END
> <Catalog ID>
Z285233970

> <PlateID>
1337959-R-05

> <Well>
D07

> <MW (desalted)>
203.240

> <CLogP>
1.582

> <HBD>
1

> <TPSA>
64.940

> <RotBonds>
2

> <ROCS_ShapeQuery>
A71EV2A-x0451_0A_A71EV2A-x0310_0A_A71EV2A-x0416_0A_peptide

> <ROCS_TanimotoCombo>
0.407 

> <ROCS_ShapeTanimoto>
0.266 

> <ROCS_ColorTanimoto>
0.141 

> <ROCS_RefTversky>
0.241 

> <ROCS_RefColorTversky>
0.158 

> <ROCS_RefTverskyCombo>
0.399 

> <ROCS_FitTversky>
1.660 

> <ROCS_FitColorTversky>
0.564 

> <ROCS_FitTverskyCombo>
2.225 

> <ROCS_ColorScore>
-4.811

> <ROCS_Overlap>
1668.794

> <ROCS_Rank>
370                 

$$$$
untitled-dbase-1173_42
  -OEChem-11112309163D

 32 33  0     0  0  0  0  0  0999 V2000
    8.1941   11.3101   24.5825 C   0  0  0  0  0  0  0  0  0  0  0  0
    9.8207   12.8232   24.1012 C   0  0  0  0  0  0  0  0  0  0  0  0
    8.4741   10.2035   22.3286 C   0  0  0  0  0  0  0  0  0  0  0  0
    9.8108    9.3704   24.3375 C   0  0  0  0  0  0  0  0  0  0  0  0
    7.5312    9.0012   22.4824 C   0  0  0  0  0  0  0  0  0  0  0  0
    9.3855    8.0353   23.7183 C   0  0  0  0  0  0  0  0  0  0  0  0
    9.1660   10.5789   23.6402 C   0  0  0  0  0  0  0  0  0  0  0  0
    5.8376   14.8860   26.0040 C   0  0  0  0  0  0  0  0  0  0  0  0
    6.5492   13.8488   25.1469 C   0  0  0  0  0  0  0  0  0  0  0  0
    7.9701   13.5677   25.6208 C   0  0  0  0  0  0  0  0  0  0  0  0
   10.1305   11.6416   23.4300 N   0  0  0  0  0  0  0  0  0  0  0  0
    7.9510    8.0118   23.4753 N   0  0  0  0  0  0  0  0  0  0  0  0
    8.6478   12.5948   24.7872 N   0  0  0  0  0  0  0  0  0  0  0  0
    7.1855   10.8063   25.0619 O   0  0  0  0  0  0  0  0  0  0  0  0
   10.4828   13.8524   24.0694 O   0  0  0  0  0  0  0  0  0  0  0  0
    9.2318    9.9478   21.5751 H   0  0  0  0  0  0  0  0  0  0  0  0
    7.9008   11.0503   21.9303 H   0  0  0  0  0  0  0  0  0  0  0  0
    9.5628    9.3604   25.4063 H   0  0  0  0  0  0  0  0  0  0  0  0
   10.9039    9.4512   24.2635 H   0  0  0  0  0  0  0  0  0  0  0  0
    6.5012    9.3489   22.7102 H   0  0  0  0  0  0  0  0  0  0  0  0
    7.4465    8.4953   21.4993 H   0  0  0  0  0  0  0  0  0  0  0  0
    9.9096    7.9065   22.7675 H   0  0  0  0  0  0  0  0  0  0  0  0
    9.6801    7.2013   24.3604 H   0  0  0  0  0  0  0  0  0  0  0  0
    5.7789   14.5593   27.0472 H   0  0  0  0  0  0  0  0  0  0  0  0
    6.3827   15.8350   25.9770 H   0  0  0  0  0  0  0  0  0  0  0  0
    4.8214   15.0725   25.6433 H   0  0  0  0  0  0  0  0  0  0  0  0
    6.5863   14.2139   24.1140 H   0  0  0  0  0  0  0  0  0  0  0  0
    5.9635   12.9219   25.1427 H   0  0  0  0  0  0  0  0  0  0  0  0
    8.5644   14.4863   25.5880 H   0  0  0  0  0  0  0  0  0  0  0  0
    7.9792   13.1926   26.6491 H   0  0  0  0  0  0  0  0  0  0  0  0
   10.9567   11.5394   22.8481 H   0  0  0  0  0  0  0  0  0  0  0  0
    7.4562    8.1940   24.3557 H   0  0  0  0  0  0  0  0  0  0  0  0
  1  7  1  0  0  0  0
  1 13  1  0  0  0  0
  1 14  2  0  0  0  0
  2 11  1  0  0  0  0
  2 13  1  0  0  0  0
  2 15  2  0  0  0  0
  3  5  1  0  0  0  0
  3  7  1  0  0  0  0
  4  6  1  0  0  0  0
  4  7  1  0  0  0  0
  5 12  1  0  0  0  0
  6 12  1  0  0  0  0
  7 11  1  0  0  0  0
  8  9  1  0  0  0  0
  9 10  1  0  0  0  0
 10 13  1  0  0  0  0
  3 16  1  0  0  0  0
  3 17  1  0  0  0  0
  4 18  1  0  0  0  0
  4 19  1  0  0  0  0
  5 20  1  0  0  0  0
  5 21  1  0  0  0  0
  6 22  1  0  0  0  0
  6 23  1  0  0  0  0
  8 24  1  0  0  0  0
  8 25  1  0  0  0  0
  8 26  1  0  0  0  0
  9 27  1  0  0  0  0
  9 28  1  0  0  0  0
 10 29  1  0  0  0  0
 10 30  1  0  0  0  0
 11 31  1  0  0  0  0
 12 32  1  0  0  0  0
M  END
> <Catalog ID>
Z4515406665

> <PlateID>
1337959-R-15

> <Well>
F09

> <MW (desalted)>
211.261

> <CLogP>
-0.435

> <HBD>
2

> <TPSA>
61.440

> <RotBonds>
2

> <ROCS_ShapeQuery>
A71EV2A-x0451_0A_A71EV2A-x0310_0A_A71EV2A-x0416_0A_peptide

> <ROCS_TanimotoCombo>
0.407 

> <ROCS_ShapeTanimoto>
0.251 

> <ROCS_ColorTanimoto>
0.156 

> <ROCS_RefTversky>
0.229 

> <ROCS_RefColorTversky>
0.176 

> <ROCS_RefTverskyCombo>
0.405 

> <ROCS_FitTversky>
1.600 

> <ROCS_FitColorTversky>
0.584 

> <ROCS_FitTverskyCombo>
2.184 

> <ROCS_ColorScore>
-5.368

> <ROCS_Overlap>
1586.842

> <ROCS_Rank>
371                 

$$$$
untitled-dbase-1096_22
  -OEChem-11112309163D

 29 30  0     1  0  0  0  0  0999 V2000
   13.5598   11.6079   22.2530 C   0  0  0  0  0  0  0  0  0  0  0  0
   14.0161   12.1485   21.0509 C   0  0  0  0  0  0  0  0  0  0  0  0
    8.9465    9.7185   23.7037 C   0  0  0  0  0  0  0  0  0  0  0  0
    9.3585   10.8703   23.0426 C   0  0  0  0  0  0  0  0  0  0  0  0
   12.5093   12.2185   22.9381 C   0  0  0  0  0  0  0  0  0  0  0  0
   13.4220   13.2998   20.5340 C   0  0  0  0  0  0  0  0  0  0  0  0
    7.9577    9.8418   24.6664 C   0  0  0  0  0  0  0  0  0  0  0  0
    7.7959   12.1099   24.3380 C   0  0  0  0  0  0  0  0  0  0  0  0
    8.7773   12.0929   23.3600 C   0  0  0  0  0  0  0  0  0  0  0  0
   11.9152   13.3698   22.4212 C   0  0  0  0  0  0  0  0  0  0  0  0
   12.3716   13.9105   21.2191 C   0  0  0  0  0  0  0  0  0  0  0  0
    8.9971   13.3396   21.2123 C   0  0  0  0  0  0  0  0  0  0  0  0
    7.3697   11.0120   25.0018 N   0  0  0  0  0  0  0  0  0  0  0  0
    9.1840   13.3108   22.6870 N   0  0  2  0  0  0  0  0  0  0  0  0
   10.7558   13.7089   24.7217 O   0  0  0  0  0  0  0  0  0  0  0  0
   10.5589   15.5113   22.9932 O   0  0  0  0  0  0  0  0  0  0  0  0
   10.5986   14.0923   23.3241 S   0  0  0  0  0  0  0  0  0  0  0  0
   11.6712   15.3336   20.5362 Cl  0  0  0  0  0  0  0  0  0  0  0  0
   14.0218   10.7110   22.6550 H   0  0  0  0  0  0  0  0  0  0  0  0
   14.8336   11.6727   20.5173 H   0  0  0  0  0  0  0  0  0  0  0  0
    9.3851    8.7547   23.4725 H   0  0  0  0  0  0  0  0  0  0  0  0
   10.1310   10.8043   22.2815 H   0  0  0  0  0  0  0  0  0  0  0  0
   12.1635   11.7862   23.8734 H   0  0  0  0  0  0  0  0  0  0  0  0
   13.7901   13.7076   19.5958 H   0  0  0  0  0  0  0  0  0  0  0  0
    7.6008    8.9734   25.2102 H   0  0  0  0  0  0  0  0  0  0  0  0
    7.3044   13.0342   24.6269 H   0  0  0  0  0  0  0  0  0  0  0  0
    9.3392   14.3077   20.8176 H   0  0  0  0  0  0  0  0  0  0  0  0
    9.5819   12.5291   20.7529 H   0  0  0  0  0  0  0  0  0  0  0  0
    7.9317   13.2029   20.9751 H   0  0  0  0  0  0  0  0  0  0  0  0
  1  2  2  0  0  0  0
  1  5  1  0  0  0  0
  2  6  1  0  0  0  0
  3  4  1  0  0  0  0
  3  7  2  0  0  0  0
  4  9  2  0  0  0  0
  5 10  2  0  0  0  0
  6 11  2  0  0  0  0
  7 13  1  0  0  0  0
  8  9  1  0  0  0  0
  8 13  2  0  0  0  0
  9 14  1  0  0  0  0
 10 11  1  0  0  0  0
 10 17  1  0  0  0  0
 11 18  1  0  0  0  0
 12 14  1  0  0  0  0
 14 17  1  0  0  0  0
 15 17  2  0  0  0  0
 16 17  2  0  0  0  0
  1 19  1  0  0  0  0
  2 20  1  0  0  0  0
  3 21  1  0  0  0  0
  4 22  1  0  0  0  0
  5 23  1  0  0  0  0
  6 24  1  0  0  0  0
  7 25  1  0  0  0  0
  8 26  1  0  0  0  0
 12 27  1  0  0  0  0
 12 28  1  0  0  0  0
 12 29  1  0  0  0  0
M  END
> <Catalog ID>
Z1190187691

> <PlateID>
1337959-R-14

> <Well>
G02

> <MW (desalted)>
282.746

> <CLogP>
2.261

> <HBD>
0

> <TPSA>
50.270

> <RotBonds>
2

> <ROCS_ShapeQuery>
A71EV2A-x0451_0A_A71EV2A-x0310_0A_A71EV2A-x0416_0A_peptide

> <ROCS_TanimotoCombo>
0.407 

> <ROCS_ShapeTanimoto>
0.257 

> <ROCS_ColorTanimoto>
0.149 

> <ROCS_RefTversky>
0.237 

> <ROCS_RefColorTversky>
0.161 

> <ROCS_RefTverskyCombo>
0.398 

> <ROCS_FitTversky>
1.497 

> <ROCS_FitColorTversky>
0.672 

> <ROCS_FitTverskyCombo>
2.168 

> <ROCS_ColorScore>
-4.896

> <ROCS_Overlap>
1644.966

> <ROCS_Rank>
372                 

$$$$
untitled-dbase-817_69
  -OEChem-11112309163D

 38 39  0     1  0  0  0  0  0999 V2000
   10.3094   13.7907   21.9165 C   0  0  0  0  0  0  0  0  0  0  0  0
   12.4237   14.3461   22.7064 C   0  0  0  0  0  0  0  0  0  0  0  0
   11.2812   14.8169   22.0976 C   0  0  0  0  0  0  0  0  0  0  0  0
   10.7464   12.5745   22.3937 C   0  0  0  0  0  0  0  0  0  0  0  0
   11.1248   16.1927   21.7046 C   0  0  0  0  0  0  0  0  0  0  0  0
    9.5060   11.8159   24.6838 C   0  0  0  0  0  0  0  0  0  0  0  0
    7.4328   10.0944   23.8111 C   0  0  0  0  0  0  0  0  0  0  0  0
    8.0340   12.2328   24.5982 C   0  0  2  0  0  0  0  0  0  0  0  0
    8.8932    9.5913   23.8510 C   0  0  0  0  0  0  0  0  0  0  0  0
    7.6939   13.2587   25.6714 C   0  0  0  0  0  0  0  0  0  0  0  0
    9.0882    8.5456   22.7310 C   0  0  0  0  0  0  0  0  0  0  0  0
    9.1496    8.8555   25.1893 C   0  0  0  0  0  0  0  0  0  0  0  0
   10.0262   11.2571   22.3932 C   0  0  0  0  0  0  0  0  0  0  0  0
    9.8496   10.7283   23.7478 N   0  0  1  0  0  0  0  0  0  0  0  0
    9.9265   16.5748   21.0923 N   0  0  0  0  0  0  0  0  0  0  0  0
   12.0293   17.0396   21.8802 O   0  0  0  0  0  0  0  0  0  0  0  0
    7.1971   11.0925   24.8050 O   0  0  0  0  0  0  0  0  0  0  0  0
   12.3220   12.6730   23.0570 S   0  0  0  0  0  0  0  0  0  0  0  0
    9.3384   13.9363   21.4591 H   0  0  0  0  0  0  0  0  0  0  0  0
   13.3170   14.8986   22.9643 H   0  0  0  0  0  0  0  0  0  0  0  0
   10.1300   12.7011   24.4649 H   0  0  0  0  0  0  0  0  0  0  0  0
    9.7533   11.5160   25.7185 H   0  0  0  0  0  0  0  0  0  0  0  0
    7.1695   10.5030   22.8259 H   0  0  0  0  0  0  0  0  0  0  0  0
    6.7343    9.2724   24.0084 H   0  0  0  0  0  0  0  0  0  0  0  0
    7.8128   12.6669   23.6164 H   0  0  0  0  0  0  0  0  0  0  0  0
    7.9056   12.8499   26.6597 H   0  0  0  0  0  0  0  0  0  0  0  0
    6.6368   13.5201   25.6167 H   0  0  0  0  0  0  0  0  0  0  0  0
    8.2888   14.1611   25.5276 H   0  0  0  0  0  0  0  0  0  0  0  0
   10.1111    8.1898   22.7550 H   0  0  0  0  0  0  0  0  0  0  0  0
    8.8812    9.0104   21.7747 H   0  0  0  0  0  0  0  0  0  0  0  0
    8.4060    7.7205   22.8963 H   0  0  0  0  0  0  0  0  0  0  0  0
   10.1747    8.5070   25.2078 H   0  0  0  0  0  0  0  0  0  0  0  0
    8.4712    8.0148   25.2635 H   0  0  0  0  0  0  0  0  0  0  0  0
    8.9775    9.5439   26.0073 H   0  0  0  0  0  0  0  0  0  0  0  0
    9.0346   11.3593   21.9390 H   0  0  0  0  0  0  0  0  0  0  0  0
   10.5751   10.5094   21.8109 H   0  0  0  0  0  0  0  0  0  0  0  0
    9.8045   17.5415   20.8108 H   0  0  0  0  0  0  0  0  0  0  0  0
    9.1755   15.9139   20.9211 H   0  0  0  0  0  0  0  0  0  0  0  0
  1  3  1  0  0  0  0
  1  4  2  0  0  0  0
  2  3  2  0  0  0  0
  2 18  1  0  0  0  0
  3  5  1  0  0  0  0
  4 13  1  0  0  0  0
  4 18  1  0  0  0  0
  5 15  1  0  0  0  0
  5 16  2  0  0  0  0
  6  8  1  0  0  0  0
  6 14  1  0  0  0  0
  7  9  1  0  0  0  0
  7 17  1  0  0  0  0
  8 10  1  0  0  0  0
  8 17  1  0  0  0  0
  9 11  1  0  0  0  0
  9 12  1  0  0  0  0
  9 14  1  0  0  0  0
 13 14  1  0  0  0  0
  1 19  1  0  0  0  0
  2 20  1  0  0  0  0
  6 21  1  0  0  0  0
  6 22  1  0  0  0  0
  7 23  1  0  0  0  0
  7 24  1  0  0  0  0
  8 25  1  0  0  0  0
 10 26  1  0  0  0  0
 10 27  1  0  0  0  0
 10 28  1  0  0  0  0
 11 29  1  0  0  0  0
 11 30  1  0  0  0  0
 11 31  1  0  0  0  0
 12 32  1  0  0  0  0
 12 33  1  0  0  0  0
 12 34  1  0  0  0  0
 13 35  1  0  0  0  0
 13 36  1  0  0  0  0
 15 37  1  0  0  0  0
 15 38  1  0  0  0  0
M  END
> <Catalog ID>
Z1682034875

> <PlateID>
1337959-R-11

> <Well>
B10

> <MW (desalted)>
268.375

> <CLogP>
1.773

> <HBD>
1

> <TPSA>
55.560

> <RotBonds>
3

> <ROCS_ShapeQuery>
A71EV2A-x0451_0A_A71EV2A-x0310_0A_A71EV2A-x0416_0A_peptide

> <ROCS_TanimotoCombo>
0.407 

> <ROCS_ShapeTanimoto>
0.303 

> <ROCS_ColorTanimoto>
0.103 

> <ROCS_RefTversky>
0.269 

> <ROCS_RefColorTversky>
0.119 

> <ROCS_RefTverskyCombo>
0.388 

> <ROCS_FitTversky>
1.708 

> <ROCS_FitColorTversky>
0.440 

> <ROCS_FitTverskyCombo>
2.148 

> <ROCS_ColorScore>
-3.624

> <ROCS_Overlap>
1868.464

> <ROCS_Rank>
373                 

$$$$
untitled-dbase-255_0
  -OEChem-11112309163D

 20 20  0     0  0  0  0  0  0999 V2000
    9.2337   10.8839   23.2467 C   0  0  0  0  0  0  0  0  0  0  0  0
    9.0206   12.1403   23.7591 C   0  0  0  0  0  0  0  0  0  0  0  0
    7.9991   11.9634   24.7114 C   0  0  0  0  0  0  0  0  0  0  0  0
    8.2110    8.6412   23.6987 C   0  0  0  0  0  0  0  0  0  0  0  0
    7.3739   12.9859   25.5695 C   0  0  0  0  0  0  0  0  0  0  0  0
    7.5913   10.6946   24.8005 N   0  0  0  0  0  0  0  0  0  0  0  0
    8.3605   10.0629   23.8976 N   0  0  0  0  0  0  0  0  0  0  0  0
   10.9247   13.0380   22.1240 N   0  0  0  0  0  0  0  0  0  0  0  0
    8.8816   14.5066   22.6846 O   0  0  0  0  0  0  0  0  0  0  0  0
   10.6154   14.0763   24.4613 O   0  0  0  0  0  0  0  0  0  0  0  0
    7.8721   14.2532   25.3927 F   0  0  0  0  0  0  0  0  0  0  0  0
    6.0202   13.1243   25.3874 F   0  0  0  0  0  0  0  0  0  0  0  0
    7.5234   12.7347   26.9097 F   0  0  0  0  0  0  0  0  0  0  0  0
    9.8221   13.5749   23.3274 S   0  0  0  0  0  0  0  0  0  0  0  0
    9.9155   10.5126   22.4936 H   0  0  0  0  0  0  0  0  0  0  0  0
    8.8906    8.1311   24.3863 H   0  0  0  0  0  0  0  0  0  0  0  0
    7.1757    8.3523   23.8998 H   0  0  0  0  0  0  0  0  0  0  0  0
    8.4570    8.3935   22.6623 H   0  0  0  0  0  0  0  0  0  0  0  0
   11.7370   12.4818   22.4176 H   0  0  0  0  0  0  0  0  0  0  0  0
   10.5541   12.7769   21.2021 H   0  0  0  0  0  0  0  0  0  0  0  0
  1  2  2  0  0  0  0
  1  7  1  0  0  0  0
  2  3  1  0  0  0  0
  2 14  1  0  0  0  0
  3  5  1  0  0  0  0
  3  6  2  0  0  0  0
  4  7  1  0  0  0  0
  5 11  1  0  0  0  0
  5 12  1  0  0  0  0
  5 13  1  0  0  0  0
  6  7  1  0  0  0  0
  8 14  1  0  0  0  0
  9 14  2  0  0  0  0
 10 14  2  0  0  0  0
  1 15  1  0  0  0  0
  4 16  1  0  0  0  0
  4 17  1  0  0  0  0
  4 18  1  0  0  0  0
  8 19  1  0  0  0  0
  8 20  1  0  0  0  0
M  END
> <Catalog ID>
Z1269132264

> <PlateID>
1337959-R-04

> <Well>
B07

> <MW (desalted)>
229.180

> <CLogP>
-0.567

> <HBD>
1

> <TPSA>
77.980

> <RotBonds>
2

> <ROCS_ShapeQuery>
A71EV2A-x0451_0A_A71EV2A-x0310_0A_A71EV2A-x0416_0A_peptide

> <ROCS_TanimotoCombo>
0.407 

> <ROCS_ShapeTanimoto>
0.246 

> <ROCS_ColorTanimoto>
0.160 

> <ROCS_RefTversky>
0.225 

> <ROCS_RefColorTversky>
0.167 

> <ROCS_RefTverskyCombo>
0.392 

> <ROCS_FitTversky>
1.646 

> <ROCS_FitColorTversky>
0.800 

> <ROCS_FitTverskyCombo>
2.446 

> <ROCS_ColorScore>
-5.069

> <ROCS_Overlap>
1556.157

> <ROCS_Rank>
374                 

$$$$
untitled-dbase-488_162
  -OEChem-11112309163D

 24 25  0     0  0  0  0  0  0999 V2000
    7.5354   10.3535   24.9315 C   0  0  0  0  0  0  0  0  0  0  0  0
    8.3518    9.5711   24.1149 C   0  0  0  0  0  0  0  0  0  0  0  0
    7.6437   11.7438   24.8992 C   0  0  0  0  0  0  0  0  0  0  0  0
    9.2768   10.1790   23.2661 C   0  0  0  0  0  0  0  0  0  0  0  0
    8.5687   12.3517   24.0503 C   0  0  0  0  0  0  0  0  0  0  0  0
    9.3852   11.5693   23.2337 C   0  0  0  0  0  0  0  0  0  0  0  0
   10.8650   14.2028   23.6002 C   0  0  0  0  0  0  0  0  0  0  0  0
   12.6378   13.1919   22.0521 C   0  0  0  0  0  0  0  0  0  0  0  0
   12.6845   12.4199   23.3332 C   0  0  0  0  0  0  0  0  0  0  0  0
   11.3761   13.0297   22.8743 C   0  0  0  0  0  0  0  0  0  0  0  0
   10.2981   12.1698   22.3958 N   0  0  0  0  0  0  0  0  0  0  0  0
   10.5235   15.2552   23.0814 O   0  0  0  0  0  0  0  0  0  0  0  0
   10.8250   13.9607   24.9333 O   0  0  0  0  0  0  0  0  0  0  0  0
    6.8153    9.8800   25.5927 H   0  0  0  0  0  0  0  0  0  0  0  0
    8.2674    8.4889   24.1403 H   0  0  0  0  0  0  0  0  0  0  0  0
    7.0078   12.3529   25.5352 H   0  0  0  0  0  0  0  0  0  0  0  0
    9.9084    9.5604   22.6338 H   0  0  0  0  0  0  0  0  0  0  0  0
    8.6441   13.4360   24.0335 H   0  0  0  0  0  0  0  0  0  0  0  0
   13.1220   14.1612   22.0310 H   0  0  0  0  0  0  0  0  0  0  0  0
   12.7221   12.6352   21.1262 H   0  0  0  0  0  0  0  0  0  0  0  0
   12.8000   11.3444   23.2685 H   0  0  0  0  0  0  0  0  0  0  0  0
   13.1990   12.8702   24.1739 H   0  0  0  0  0  0  0  0  0  0  0  0
   10.2331   12.0205   21.4025 H   0  0  0  0  0  0  0  0  0  0  0  0
   11.1402   13.0577   25.1513 H   0  0  0  0  0  0  0  0  0  0  0  0
  1  2  2  0  0  0  0
  1  3  1  0  0  0  0
  2  4  1  0  0  0  0
  3  5  2  0  0  0  0
  4  6  2  0  0  0  0
  5  6  1  0  0  0  0
  6 11  1  0  0  0  0
  7 10  1  0  0  0  0
  7 12  2  0  0  0  0
  7 13  1  0  0  0  0
  8  9  1  0  0  0  0
  8 10  1  0  0  0  0
  9 10  1  0  0  0  0
 10 11  1  0  0  0  0
  1 14  1  0  0  0  0
  2 15  1  0  0  0  0
  3 16  1  0  0  0  0
  4 17  1  0  0  0  0
  5 18  1  0  0  0  0
  8 19  1  0  0  0  0
  8 20  1  0  0  0  0
  9 21  1  0  0  0  0
  9 22  1  0  0  0  0
 11 23  1  0  0  0  0
 13 24  1  0  0  0  0
M  END
> <Catalog ID>
Z1262549981

> <PlateID>
1337959-R-07

> <Well>
A10

> <MW (desalted)>
177.200

> <CLogP>
1.360

> <HBD>
2

> <TPSA>
49.330

> <RotBonds>
3

> <ROCS_ShapeQuery>
A71EV2A-x0451_0A_A71EV2A-x0310_0A_A71EV2A-x0416_0A_peptide

> <ROCS_TanimotoCombo>
0.407 

> <ROCS_ShapeTanimoto>
0.257 

> <ROCS_ColorTanimoto>
0.149 

> <ROCS_RefTversky>
0.232 

> <ROCS_RefColorTversky>
0.157 

> <ROCS_RefTverskyCombo>
0.389 

> <ROCS_FitTversky>
1.761 

> <ROCS_FitColorTversky>
0.752 

> <ROCS_FitTverskyCombo>
2.513 

> <ROCS_ColorScore>
-4.770

> <ROCS_Overlap>
1603.281

> <ROCS_Rank>
375                 

$$$$
untitled-dbase-637_31
  -OEChem-11112309163D

 32 33  0     0  0  0  0  0  0999 V2000
    7.9811    9.8980   23.7982 C   0  0  0  0  0  0  0  0  0  0  0  0
    7.4714   10.9703   24.5301 C   0  0  0  0  0  0  0  0  0  0  0  0
    9.1619   10.0483   23.0710 C   0  0  0  0  0  0  0  0  0  0  0  0
    9.3232   12.3436   23.8077 C   0  0  0  0  0  0  0  0  0  0  0  0
    8.1424   12.1932   24.5349 C   0  0  0  0  0  0  0  0  0  0  0  0
    9.8330   11.2712   23.0758 C   0  0  0  0  0  0  0  0  0  0  0  0
   10.0114   13.6414   23.8287 C   0  0  0  0  0  0  0  0  0  0  0  0
    9.8991   15.1645   20.4697 C   0  0  0  0  0  0  0  0  0  0  0  0
   10.3755   16.8363   22.1363 C   0  0  0  0  0  0  0  0  0  0  0  0
    9.1942   14.2870   21.5033 C   0  0  0  0  0  0  0  0  0  0  0  0
    9.6706   16.0085   23.2066 C   0  0  0  0  0  0  0  0  0  0  0  0
    6.4141   12.9768   25.9683 C   0  0  0  0  0  0  0  0  0  0  0  0
    9.7997   16.5840   20.8139 N   0  0  0  0  0  0  0  0  0  0  0  0
    9.6646   14.5877   22.8612 N   0  0  0  0  0  0  0  0  0  0  0  0
   10.8489   13.7986   24.7159 O   0  0  0  0  0  0  0  0  0  0  0  0
    7.6248   13.2265   25.2579 O   0  0  0  0  0  0  0  0  0  0  0  0
   11.2916   11.4118   22.1609 Cl  0  0  0  0  0  0  0  0  0  0  0  0
    7.4585    8.9458   23.7945 H   0  0  0  0  0  0  0  0  0  0  0  0
    6.5510   10.8460   25.0944 H   0  0  0  0  0  0  0  0  0  0  0  0
    9.5455    9.2025   22.5060 H   0  0  0  0  0  0  0  0  0  0  0  0
   10.9521   14.8711   20.3785 H   0  0  0  0  0  0  0  0  0  0  0  0
    9.4361   15.0059   19.4898 H   0  0  0  0  0  0  0  0  0  0  0  0
   10.2633   17.8998   22.3735 H   0  0  0  0  0  0  0  0  0  0  0  0
   11.4508   16.6192   22.1315 H   0  0  0  0  0  0  0  0  0  0  0  0
    8.1134   14.4746   21.4917 H   0  0  0  0  0  0  0  0  0  0  0  0
    9.3449   13.2340   21.2513 H   0  0  0  0  0  0  0  0  0  0  0  0
   10.1526   16.1646   24.1773 H   0  0  0  0  0  0  0  0  0  0  0  0
    8.6235   16.3202   23.3066 H   0  0  0  0  0  0  0  0  0  0  0  0
    6.1107   13.8809   26.5018 H   0  0  0  0  0  0  0  0  0  0  0  0
    6.5679   12.1578   26.6755 H   0  0  0  0  0  0  0  0  0  0  0  0
    5.6345   12.6983   25.2553 H   0  0  0  0  0  0  0  0  0  0  0  0
   10.3002   17.1349   20.1171 H   0  0  0  0  0  0  0  0  0  0  0  0
  1  2  1  0  0  0  0
  1  3  2  0  0  0  0
  2  5  2  0  0  0  0
  3  6  1  0  0  0  0
  4  5  1  0  0  0  0
  4  6  2  0  0  0  0
  4  7  1  0  0  0  0
  5 16  1  0  0  0  0
  6 17  1  0  0  0  0
  7 14  1  0  0  0  0
  7 15  2  0  0  0  0
  8 10  1  0  0  0  0
  8 13  1  0  0  0  0
  9 11  1  0  0  0  0
  9 13  1  0  0  0  0
 10 14  1  0  0  0  0
 11 14  1  0  0  0  0
 12 16  1  0  0  0  0
  1 18  1  0  0  0  0
  2 19  1  0  0  0  0
  3 20  1  0  0  0  0
  8 21  1  0  0  0  0
  8 22  1  0  0  0  0
  9 23  1  0  0  0  0
  9 24  1  0  0  0  0
 10 25  1  0  0  0  0
 10 26  1  0  0  0  0
 11 27  1  0  0  0  0
 11 28  1  0  0  0  0
 12 29  1  0  0  0  0
 12 30  1  0  0  0  0
 12 31  1  0  0  0  0
 13 32  1  0  0  0  0
M  END
> <Catalog ID>
Z1455769211

> <PlateID>
1337959-R-08

> <Well>
H10

> <MW (desalted)>
254.713

> <CLogP>
1.733

> <HBD>
1

> <TPSA>
41.570

> <RotBonds>
2

> <ROCS_ShapeQuery>
A71EV2A-x0451_0A_A71EV2A-x0310_0A_A71EV2A-x0416_0A_peptide

> <ROCS_TanimotoCombo>
0.407 

> <ROCS_ShapeTanimoto>
0.254 

> <ROCS_ColorTanimoto>
0.152 

> <ROCS_RefTversky>
0.234 

> <ROCS_RefColorTversky>
0.164 

> <ROCS_RefTverskyCombo>
0.398 

> <ROCS_FitTversky>
1.515 

> <ROCS_FitColorTversky>
0.684 

> <ROCS_FitTverskyCombo>
2.199 

> <ROCS_ColorScore>
-4.985

> <ROCS_Overlap>
1622.261

> <ROCS_Rank>
376                 

$$$$
untitled-dbase-1039_1302
  -OEChem-11112309163D

 35 36  0     1  0  0  0  0  0999 V2000
    4.9174   11.4743   29.1591 C   0  0  0  0  0  0  0  0  0  0  0  0
    5.8515   11.5595   28.0865 C   0  0  0  0  0  0  0  0  0  0  0  0
    3.8651   12.3487   28.9995 C   0  0  0  0  0  0  0  0  0  0  0  0
    5.4773   12.4958   27.1478 C   0  0  0  0  0  0  0  0  0  0  0  0
   10.8396   13.0352   23.4196 C   0  0  0  0  0  0  0  0  0  0  0  0
    6.4106   11.6748   25.0002 C   0  0  0  0  0  0  0  0  0  0  0  0
    8.8337    9.7919   23.1485 C   0  0  0  0  0  0  0  0  0  0  0  0
   10.0278   10.7421   23.0578 C   0  0  0  0  0  0  0  0  0  0  0  0
    8.1051    9.9474   24.4809 C   0  0  0  0  0  0  0  0  0  0  0  0
    8.8562   12.2937   24.6660 C   0  0  0  0  0  0  0  0  0  0  0  0
    9.5918   12.1786   23.3346 C   0  0  1  0  0  0  0  0  0  0  0  0
    5.4462   13.9558   25.0835 C   0  0  0  0  0  0  0  0  0  0  0  0
    6.1875   12.8841   25.8729 C   0  0  1  0  0  0  0  0  0  0  0  0
    7.7354   11.3452   24.7161 N   0  0  0  0  0  0  0  0  0  0  0  0
   11.8830   12.8166   22.8223 O   0  0  0  0  0  0  0  0  0  0  0  0
    5.4356   11.0450   24.5823 O   0  0  0  0  0  0  0  0  0  0  0  0
   10.6441   14.0841   24.2557 O   0  0  0  0  0  0  0  0  0  0  0  0
    4.0055   13.2673   27.5612 S   0  0  0  0  0  0  0  0  0  0  0  0
    5.0114   10.8054   30.0045 H   0  0  0  0  0  0  0  0  0  0  0  0
    6.7504   10.9608   28.0112 H   0  0  0  0  0  0  0  0  0  0  0  0
    3.0207   12.4923   29.6588 H   0  0  0  0  0  0  0  0  0  0  0  0
    8.1410    9.9941   22.3242 H   0  0  0  0  0  0  0  0  0  0  0  0
    9.1705    8.7549   23.0329 H   0  0  0  0  0  0  0  0  0  0  0  0
   10.7994   10.4256   23.7553 H   0  0  0  0  0  0  0  0  0  0  0  0
   10.4397   10.6873   22.0514 H   0  0  0  0  0  0  0  0  0  0  0  0
    7.1803    9.3578   24.4852 H   0  0  0  0  0  0  0  0  0  0  0  0
    8.7364    9.5686   25.2913 H   0  0  0  0  0  0  0  0  0  0  0  0
    9.5456   12.1478   25.4896 H   0  0  0  0  0  0  0  0  0  0  0  0
    8.4225   13.2889   24.7627 H   0  0  0  0  0  0  0  0  0  0  0  0
    9.0030   12.5550   22.5402 H   0  0  0  0  0  0  0  0  0  0  0  0
    4.4370   13.6176   24.8230 H   0  0  0  0  0  0  0  0  0  0  0  0
    5.3368   14.8875   25.6499 H   0  0  0  0  0  0  0  0  0  0  0  0
    5.9767   14.1884   24.1536 H   0  0  0  0  0  0  0  0  0  0  0  0
    7.1870   13.2635   26.1108 H   0  0  0  0  0  0  0  0  0  0  0  0
   11.4421   14.6504   24.3258 H   0  0  0  0  0  0  0  0  0  0  0  0
  1  2  1  0  0  0  0
  1  3  2  0  0  0  0
  2  4  2  0  0  0  0
  3 18  1  0  0  0  0
  4 13  1  0  0  0  0
  4 18  1  0  0  0  0
  5 11  1  0  0  0  0
  5 15  2  0  0  0  0
  5 17  1  0  0  0  0
  6 13  1  0  0  0  0
  6 14  1  0  0  0  0
  6 16  2  0  0  0  0
  7  8  1  0  0  0  0
  7  9  1  0  0  0  0
  8 11  1  0  0  0  0
  9 14  1  0  0  0  0
 10 11  1  0  0  0  0
 10 14  1  0  0  0  0
 12 13  1  0  0  0  0
  1 19  1  0  0  0  0
  2 20  1  0  0  0  0
  3 21  1  0  0  0  0
  7 22  1  0  0  0  0
  7 23  1  0  0  0  0
  8 24  1  0  0  0  0
  8 25  1  0  0  0  0
  9 26  1  0  0  0  0
  9 27  1  0  0  0  0
 10 28  1  0  0  0  0
 10 29  1  0  0  0  0
 11 30  1  0  0  0  0
 12 31  1  0  0  0  0
 12 32  1  0  0  0  0
 12 33  1  0  0  0  0
 13 34  1  0  0  0  0
 17 35  1  0  0  0  0
M  END
> <Catalog ID>
Z1443622030

> <PlateID>
1337959-R-14

> <Well>
A04

> <MW (desalted)>
267.344

> <CLogP>
1.600

> <HBD>
1

> <TPSA>
57.610

> <RotBonds>
3

> <ROCS_ShapeQuery>
A71EV2A-x0451_0A_A71EV2A-x0310_0A_A71EV2A-x0416_0A_peptide

> <ROCS_TanimotoCombo>
0.406 

> <ROCS_ShapeTanimoto>
0.279 

> <ROCS_ColorTanimoto>
0.127 

> <ROCS_RefTversky>
0.253 

> <ROCS_RefColorTversky>
0.144 

> <ROCS_RefTverskyCombo>
0.396 

> <ROCS_FitTversky>
1.596 

> <ROCS_FitColorTversky>
0.531 

> <ROCS_FitTverskyCombo>
2.127 

> <ROCS_ColorScore>
-4.376

> <ROCS_Overlap>
1752.602

> <ROCS_Rank>
377                 

$$$$
untitled-dbase-980_21
  -OEChem-11112309163D

 28 29  0     0  0  0  0  0  0999 V2000
    8.8745    9.7025   23.4922 C   0  0  0  0  0  0  0  0  0  0  0  0
    9.6040   10.8214   23.0904 C   0  0  0  0  0  0  0  0  0  0  0  0
    7.5440   11.0941   24.9518 C   0  0  0  0  0  0  0  0  0  0  0  0
    7.8444    9.8389   24.4229 C   0  0  0  0  0  0  0  0  0  0  0  0
    8.2736   12.2130   24.5500 C   0  0  0  0  0  0  0  0  0  0  0  0
    9.3036   12.0766   23.6193 C   0  0  0  0  0  0  0  0  0  0  0  0
   12.4152   12.0477   23.8826 C   0  0  0  0  0  0  0  0  0  0  0  0
   12.7002   13.5325   21.9415 C   0  0  0  0  0  0  0  0  0  0  0  0
   13.2243   13.0436   24.7002 C   0  0  0  0  0  0  0  0  0  0  0  0
   13.4980   14.4683   22.8376 C   0  0  0  0  0  0  0  0  0  0  0  0
   11.7311   12.7543   22.7633 N   0  0  0  0  0  0  0  0  0  0  0  0
    9.6477   13.9739   21.8714 O   0  0  0  0  0  0  0  0  0  0  0  0
   10.3821   14.3621   24.2500 O   0  0  0  0  0  0  0  0  0  0  0  0
   14.1620   13.7262   23.8638 O   0  0  0  0  0  0  0  0  0  0  0  0
    7.1437    8.7647   24.8092 F   0  0  0  0  0  0  0  0  0  0  0  0
    7.9753   13.4140   25.0650 F   0  0  0  0  0  0  0  0  0  0  0  0
   10.2289   13.4896   23.1053 S   0  0  0  0  0  0  0  0  0  0  0  0
    9.1082    8.7250   23.0807 H   0  0  0  0  0  0  0  0  0  0  0  0
   10.4031   10.7037   22.3633 H   0  0  0  0  0  0  0  0  0  0  0  0
    6.7413   11.1997   25.6753 H   0  0  0  0  0  0  0  0  0  0  0  0
   13.0743   11.2720   23.4641 H   0  0  0  0  0  0  0  0  0  0  0  0
   11.6694   11.5624   24.5276 H   0  0  0  0  0  0  0  0  0  0  0  0
   12.1601   14.1192   21.1853 H   0  0  0  0  0  0  0  0  0  0  0  0
   13.3735   12.8312   21.4258 H   0  0  0  0  0  0  0  0  0  0  0  0
   12.5781   13.7786   25.1947 H   0  0  0  0  0  0  0  0  0  0  0  0
   13.7896   12.5193   25.4769 H   0  0  0  0  0  0  0  0  0  0  0  0
   14.2636   14.9859   22.2515 H   0  0  0  0  0  0  0  0  0  0  0  0
   12.8571   15.2295   23.2983 H   0  0  0  0  0  0  0  0  0  0  0  0
  1  2  1  0  0  0  0
  1  4  2  0  0  0  0
  2  6  2  0  0  0  0
  3  4  1  0  0  0  0
  3  5  2  0  0  0  0
  4 15  1  0  0  0  0
  5  6  1  0  0  0  0
  5 16  1  0  0  0  0
  6 17  1  0  0  0  0
  7  9  1  0  0  0  0
  7 11  1  0  0  0  0
  8 10  1  0  0  0  0
  8 11  1  0  0  0  0
  9 14  1  0  0  0  0
 10 14  1  0  0  0  0
 11 17  1  0  0  0  0
 12 17  2  0  0  0  0
 13 17  2  0  0  0  0
  1 18  1  0  0  0  0
  2 19  1  0  0  0  0
  3 20  1  0  0  0  0
  7 21  1  0  0  0  0
  7 22  1  0  0  0  0
  8 23  1  0  0  0  0
  8 24  1  0  0  0  0
  9 25  1  0  0  0  0
  9 26  1  0  0  0  0
 10 27  1  0  0  0  0
 10 28  1  0  0  0  0
M  END
> <Catalog ID>
Z45515797

> <PlateID>
1337959-R-13

> <Well>
C05

> <MW (desalted)>
263.261

> <CLogP>
1.569

> <HBD>
0

> <TPSA>
46.610

> <RotBonds>
1

> <ROCS_ShapeQuery>
A71EV2A-x0451_0A_A71EV2A-x0310_0A_A71EV2A-x0416_0A_peptide

> <ROCS_TanimotoCombo>
0.406 

> <ROCS_ShapeTanimoto>
0.287 

> <ROCS_ColorTanimoto>
0.119 

> <ROCS_RefTversky>
0.257 

> <ROCS_RefColorTversky>
0.129 

> <ROCS_RefTverskyCombo>
0.386 

> <ROCS_FitTversky>
1.676 

> <ROCS_FitColorTversky>
0.617 

> <ROCS_FitTverskyCombo>
2.293 

> <ROCS_ColorScore>
-3.911

> <ROCS_Overlap>
1784.143

> <ROCS_Rank>
378                 

$$$$
untitled-dbase-328_15
  -OEChem-11112309163D

 39 39  0     0  0  0  0  0  0999 V2000
    8.7947    9.6184   23.7997 C   0  0  0  0  0  0  0  0  0  0  0  0
    8.3829   12.3377   24.2676 C   0  0  0  0  0  0  0  0  0  0  0  0
    7.5761   10.0609   24.3143 C   0  0  0  0  0  0  0  0  0  0  0  0
    7.3702   11.4205   24.5483 C   0  0  0  0  0  0  0  0  0  0  0  0
    9.8075   10.5356   23.5191 C   0  0  0  0  0  0  0  0  0  0  0  0
    9.6016   11.8952   23.7530 C   0  0  0  0  0  0  0  0  0  0  0  0
    6.5066    9.0601   24.6060 C   0  0  0  0  0  0  0  0  0  0  0  0
    5.3496   12.8675   24.1273 C   0  0  0  0  0  0  0  0  0  0  0  0
    6.2416   12.5987   26.4698 C   0  0  0  0  0  0  0  0  0  0  0  0
    9.6301   14.6523   21.5227 C   0  0  0  0  0  0  0  0  0  0  0  0
   11.6825   13.4940   20.8108 C   0  0  0  0  0  0  0  0  0  0  0  0
   11.1095    8.6756   22.8113 C   0  0  0  0  0  0  0  0  0  0  0  0
    6.0742   11.9180   25.0990 C   0  0  0  0  0  0  0  0  0  0  0  0
   10.5484   13.5116   21.7695 N   0  0  0  0  0  0  0  0  0  0  0  0
   10.6389   14.2256   24.2651 O   0  0  0  0  0  0  0  0  0  0  0  0
   12.1428   12.3801   23.4799 O   0  0  0  0  0  0  0  0  0  0  0  0
   10.9902   10.0817   23.0176 O   0  0  0  0  0  0  0  0  0  0  0  0
   10.8728   13.0787   23.4070 S   0  0  0  0  0  0  0  0  0  0  0  0
    8.9582    8.5591   23.6161 H   0  0  0  0  0  0  0  0  0  0  0  0
    8.2203   13.3973   24.4507 H   0  0  0  0  0  0  0  0  0  0  0  0
    6.5981    8.6954   25.6357 H   0  0  0  0  0  0  0  0  0  0  0  0
    5.5088    9.4973   24.4773 H   0  0  0  0  0  0  0  0  0  0  0  0
    6.5697    8.2026   23.9245 H   0  0  0  0  0  0  0  0  0  0  0  0
    5.9553   13.7514   23.8997 H   0  0  0  0  0  0  0  0  0  0  0  0
    4.3979   13.2150   24.5438 H   0  0  0  0  0  0  0  0  0  0  0  0
    5.1353   12.3572   23.1816 H   0  0  0  0  0  0  0  0  0  0  0  0
    6.9147   13.4598   26.3903 H   0  0  0  0  0  0  0  0  0  0  0  0
    6.6649   11.9096   27.2087 H   0  0  0  0  0  0  0  0  0  0  0  0
    5.2839   12.9584   26.8616 H   0  0  0  0  0  0  0  0  0  0  0  0
    8.8079   14.6263   22.2530 H   0  0  0  0  0  0  0  0  0  0  0  0
   10.1833   15.5973   21.6270 H   0  0  0  0  0  0  0  0  0  0  0  0
    9.2190   14.5784   20.5051 H   0  0  0  0  0  0  0  0  0  0  0  0
   12.3349   12.6358   21.0295 H   0  0  0  0  0  0  0  0  0  0  0  0
   11.2942   13.4072   19.7853 H   0  0  0  0  0  0  0  0  0  0  0  0
   12.2584   14.4262   20.9072 H   0  0  0  0  0  0  0  0  0  0  0  0
   12.0997    8.4483   22.4089 H   0  0  0  0  0  0  0  0  0  0  0  0
   10.3361    8.3417   22.1150 H   0  0  0  0  0  0  0  0  0  0  0  0
   10.9812    8.1638   23.7680 H   0  0  0  0  0  0  0  0  0  0  0  0
    5.3872   11.0669   25.2631 H   0  0  0  0  0  0  0  0  0  0  0  0
  1  3  1  0  0  0  0
  1  5  2  0  0  0  0
  2  4  1  0  0  0  0
  2  6  2  0  0  0  0
  3  4  2  0  0  0  0
  3  7  1  0  0  0  0
  4 13  1  0  0  0  0
  5  6  1  0  0  0  0
  5 17  1  0  0  0  0
  6 18  1  0  0  0  0
  8 13  1  0  0  0  0
  9 13  1  0  0  0  0
 10 14  1  0  0  0  0
 11 14  1  0  0  0  0
 12 17  1  0  0  0  0
 14 18  1  0  0  0  0
 15 18  2  0  0  0  0
 16 18  2  0  0  0  0
  1 19  1  0  0  0  0
  2 20  1  0  0  0  0
  7 21  1  0  0  0  0
  7 22  1  0  0  0  0
  7 23  1  0  0  0  0
  8 24  1  0  0  0  0
  8 25  1  0  0  0  0
  8 26  1  0  0  0  0
  9 27  1  0  0  0  0
  9 28  1  0  0  0  0
  9 29  1  0  0  0  0
 10 30  1  0  0  0  0
 10 31  1  0  0  0  0
 10 32  1  0  0  0  0
 11 33  1  0  0  0  0
 11 34  1  0  0  0  0
 11 35  1  0  0  0  0
 12 36  1  0  0  0  0
 12 37  1  0  0  0  0
 12 38  1  0  0  0  0
 13 39  1  0  0  0  0
M  END
> <Catalog ID>
Z285128260

> <PlateID>
1337959-R-05

> <Well>
A10

> <MW (desalted)>
271.376

> <CLogP>
2.902

> <HBD>
0

> <TPSA>
46.610

> <RotBonds>
3

> <ROCS_ShapeQuery>
A71EV2A-x0451_0A_A71EV2A-x0310_0A_A71EV2A-x0416_0A_peptide

> <ROCS_TanimotoCombo>
0.406 

> <ROCS_ShapeTanimoto>
0.305 

> <ROCS_ColorTanimoto>
0.101 

> <ROCS_RefTversky>
0.270 

> <ROCS_RefColorTversky>
0.111 

> <ROCS_RefTverskyCombo>
0.381 

> <ROCS_FitTversky>
1.742 

> <ROCS_FitColorTversky>
0.531 

> <ROCS_FitTverskyCombo>
2.273 

> <ROCS_ColorScore>
-3.365

> <ROCS_Overlap>
1873.726

> <ROCS_Rank>
379                 

$$$$
untitled-dbase-412_129
  -OEChem-11112309163D

 27 28  0     1  0  0  0  0  0999 V2000
    8.1522   13.1752   25.0092 C   0  0  0  0  0  0  0  0  0  0  0  0
    9.5422   11.3654   24.2496 C   0  0  0  0  0  0  0  0  0  0  0  0
    7.1328   12.2514   25.1745 C   0  0  0  0  0  0  0  0  0  0  0  0
    9.3768   12.7156   24.5375 C   0  0  0  0  0  0  0  0  0  0  0  0
    8.4607   10.5226   24.4491 C   0  0  0  0  0  0  0  0  0  0  0  0
   10.8382   15.3716   21.8928 C   0  0  0  0  0  0  0  0  0  0  0  0
   11.9183   14.6170   21.1772 C   0  0  0  0  0  0  0  0  0  0  0  0
   10.9213   13.8721   22.0288 C   0  0  0  0  0  0  0  0  0  0  0  0
   12.7368   13.7174   23.7700 C   0  0  0  0  0  0  0  0  0  0  0  0
   11.3449   13.2594   23.3184 C   0  0  1  0  0  0  0  0  0  0  0  0
    7.2559   10.9323   24.9056 N   0  0  0  0  0  0  0  0  0  0  0  0
    8.6446    9.1495   24.1510 N   0  0  0  0  0  0  0  0  0  0  0  0
   10.4117   13.5865   24.3585 O   0  0  0  0  0  0  0  0  0  0  0  0
    7.9936   14.2228   25.2413 H   0  0  0  0  0  0  0  0  0  0  0  0
   10.4933   10.9924   23.8817 H   0  0  0  0  0  0  0  0  0  0  0  0
    6.1580   12.5585   25.5390 H   0  0  0  0  0  0  0  0  0  0  0  0
   11.1282   15.9856   22.7365 H   0  0  0  0  0  0  0  0  0  0  0  0
   10.0291   15.7793   21.2991 H   0  0  0  0  0  0  0  0  0  0  0  0
   11.8360   14.5150   20.1021 H   0  0  0  0  0  0  0  0  0  0  0  0
   12.9327   14.7222   21.5414 H   0  0  0  0  0  0  0  0  0  0  0  0
   10.1702   13.2789   21.5220 H   0  0  0  0  0  0  0  0  0  0  0  0
   12.7783   14.8077   23.8525 H   0  0  0  0  0  0  0  0  0  0  0  0
   13.5132   13.3895   23.0705 H   0  0  0  0  0  0  0  0  0  0  0  0
   12.9872   13.2826   24.7440 H   0  0  0  0  0  0  0  0  0  0  0  0
   11.3530   12.1556   23.2501 H   0  0  0  0  0  0  0  0  0  0  0  0
    9.5162    8.8525   23.7694 H   0  0  0  0  0  0  0  0  0  0  0  0
    7.8691    8.5298   24.2406 H   0  0  0  0  0  0  0  0  0  0  0  0
  1  3  1  0  0  0  0
  1  4  2  0  0  0  0
  2  4  1  0  0  0  0
  2  5  2  0  0  0  0
  3 11  2  0  0  0  0
  4 13  1  0  0  0  0
  5 11  1  0  0  0  0
  5 12  1  0  0  0  0
  6  7  1  0  0  0  0
  6  8  1  0  0  0  0
  7  8  1  0  0  0  0
  8 10  1  0  0  0  0
  9 10  1  0  0  0  0
 10 13  1  0  0  0  0
  1 14  1  0  0  0  0
  2 15  1  0  0  0  0
  3 16  1  0  0  0  0
  6 17  1  0  0  0  0
  6 18  1  0  0  0  0
  7 19  1  0  0  0  0
  7 20  1  0  0  0  0
  8 21  1  0  0  0  0
  9 22  1  0  0  0  0
  9 23  1  0  0  0  0
  9 24  1  0  0  0  0
 10 25  1  0  0  0  0
 12 26  1  0  0  0  0
 12 27  1  0  0  0  0
M  END
> <Catalog ID>
Z2856051949

> <PlateID>
1337959-R-06

> <Well>
B04

> <MW (desalted)>
178.231

> <CLogP>
2.044

> <HBD>
1

> <TPSA>
48.140

> <RotBonds>
3

> <ROCS_ShapeQuery>
A71EV2A-x0451_0A_A71EV2A-x0310_0A_A71EV2A-x0416_0A_peptide

> <ROCS_TanimotoCombo>
0.406 

> <ROCS_ShapeTanimoto>
0.252 

> <ROCS_ColorTanimoto>
0.154 

> <ROCS_RefTversky>
0.228 

> <ROCS_RefColorTversky>
0.161 

> <ROCS_RefTverskyCombo>
0.389 

> <ROCS_FitTversky>
1.752 

> <ROCS_FitColorTversky>
0.773 

> <ROCS_FitTverskyCombo>
2.524 

> <ROCS_ColorScore>
-4.901

> <ROCS_Overlap>
1576.031

> <ROCS_Rank>
380                 

$$$$
untitled-dbase-540_0
  -OEChem-11112309163D

 32 33  0     1  0  0  0  0  0999 V2000
    8.4691   12.4385   24.9818 C   0  0  0  0  0  0  0  0  0  0  0  0
    7.7956   11.2840   24.8657 C   0  0  0  0  0  0  0  0  0  0  0  0
    9.7745   12.5518   24.2666 C   0  0  0  0  0  0  0  0  0  0  0  0
    8.0835   10.4848   22.5530 C   0  0  0  0  0  0  0  0  0  0  0  0
    9.3071   11.3328   22.1491 C   0  0  0  0  0  0  0  0  0  0  0  0
    8.3170   10.1287   24.0360 C   0  0  1  0  0  0  0  0  0  0  0  0
   10.2269   11.3488   23.4001 C   0  0  2  0  0  0  0  0  0  0  0  0
    9.8654   10.0182   24.1278 C   0  0  0  0  0  0  0  0  0  0  0  0
   11.6988   11.4978   23.0204 C   0  0  0  0  0  0  0  0  0  0  0  0
   10.3705    8.7557   23.3842 C   0  0  0  0  0  0  0  0  0  0  0  0
   10.4043    9.9034   25.5688 C   0  0  0  0  0  0  0  0  0  0  0  0
    6.7137   10.5832   26.7934 C   0  0  0  0  0  0  0  0  0  0  0  0
   10.4209   13.5931   24.3616 O   0  0  0  0  0  0  0  0  0  0  0  0
    6.5810   11.1122   25.4961 O   0  0  0  0  0  0  0  0  0  0  0  0
    8.1134   13.2765   25.5672 H   0  0  0  0  0  0  0  0  0  0  0  0
    7.1458   11.0263   22.3819 H   0  0  0  0  0  0  0  0  0  0  0  0
    8.0401    9.5768   21.9404 H   0  0  0  0  0  0  0  0  0  0  0  0
    9.8017   10.8760   21.2840 H   0  0  0  0  0  0  0  0  0  0  0  0
    8.9974   12.3409   21.8495 H   0  0  0  0  0  0  0  0  0  0  0  0
    7.8263    9.1891   24.3112 H   0  0  0  0  0  0  0  0  0  0  0  0
   12.0106   10.6503   22.4122 H   0  0  0  0  0  0  0  0  0  0  0  0
   12.3101   11.5349   23.9205 H   0  0  0  0  0  0  0  0  0  0  0  0
   11.8424   12.4161   22.4533 H   0  0  0  0  0  0  0  0  0  0  0  0
   11.4476    8.7114   23.4686 H   0  0  0  0  0  0  0  0  0  0  0  0
   10.0794    8.8258   22.3452 H   0  0  0  0  0  0  0  0  0  0  0  0
    9.9234    7.8829   23.8400 H   0  0  0  0  0  0  0  0  0  0  0  0
   11.4851    9.8314   25.5375 H   0  0  0  0  0  0  0  0  0  0  0  0
    9.9891    9.0161   26.0319 H   0  0  0  0  0  0  0  0  0  0  0  0
   10.1094   10.7836   26.1278 H   0  0  0  0  0  0  0  0  0  0  0  0
    5.7247   10.4686   27.2438 H   0  0  0  0  0  0  0  0  0  0  0  0
    7.3268   11.2541   27.4004 H   0  0  0  0  0  0  0  0  0  0  0  0
    7.1986    9.6062   26.7309 H   0  0  0  0  0  0  0  0  0  0  0  0
  1  2  2  0  0  0  0
  1  3  1  0  0  0  0
  2  6  1  0  0  0  0
  2 14  1  0  0  0  0
  3  7  1  0  0  0  0
  3 13  2  0  0  0  0
  4  5  1  0  0  0  0
  4  6  1  0  0  0  0
  5  7  1  0  0  0  0
  6  8  1  0  0  0  0
  7  8  1  0  0  0  0
  7  9  1  0  0  0  0
  8 10  1  0  0  0  0
  8 11  1  0  0  0  0
 12 14  1  0  0  0  0
  1 15  1  0  0  0  0
  4 16  1  0  0  0  0
  4 17  1  0  0  0  0
  5 18  1  0  0  0  0
  5 19  1  0  0  0  0
  6 20  1  0  0  0  0
  9 21  1  0  0  0  0
  9 22  1  0  0  0  0
  9 23  1  0  0  0  0
 10 24  1  0  0  0  0
 10 25  1  0  0  0  0
 10 26  1  0  0  0  0
 11 27  1  0  0  0  0
 11 28  1  0  0  0  0
 11 29  1  0  0  0  0
 12 30  1  0  0  0  0
 12 31  1  0  0  0  0
 12 32  1  0  0  0  0
M  END
> <Catalog ID>
Z2681236858

> <PlateID>
1337959-R-07

> <Well>
G02

> <MW (desalted)>
194.270

> <CLogP>
2.462

> <HBD>
0

> <TPSA>
26.300

> <RotBonds>
1

> <ROCS_ShapeQuery>
A71EV2A-x0451_0A_A71EV2A-x0310_0A_A71EV2A-x0416_0A_peptide

> <ROCS_TanimotoCombo>
0.406 

> <ROCS_ShapeTanimoto>
0.241 

> <ROCS_ColorTanimoto>
0.165 

> <ROCS_RefTversky>
0.221 

> <ROCS_RefColorTversky>
0.187 

> <ROCS_RefTverskyCombo>
0.409 

> <ROCS_FitTversky>
1.615 

> <ROCS_FitColorTversky>
0.578 

> <ROCS_FitTverskyCombo>
2.193 

> <ROCS_ColorScore>
-5.727

> <ROCS_Overlap>
1531.515

> <ROCS_Rank>
381                 

$$$$
untitled-dbase-554_110
  -OEChem-11112309163D

 33 34  0     1  0  0  0  0  0999 V2000
    7.2498   11.4732   24.5264 C   0  0  0  0  0  0  0  0  0  0  0  0
    8.4020   12.2530   24.6264 C   0  0  0  0  0  0  0  0  0  0  0  0
    7.3187   10.1948   23.9726 C   0  0  0  0  0  0  0  0  0  0  0  0
    9.6920   10.4760   23.6186 C   0  0  0  0  0  0  0  0  0  0  0  0
    9.6231   11.7544   24.1724 C   0  0  0  0  0  0  0  0  0  0  0  0
    8.5397    9.6962   23.5187 C   0  0  0  0  0  0  0  0  0  0  0  0
   10.3741   14.8488   23.2471 C   0  0  0  0  0  0  0  0  0  0  0  0
   13.3014   12.6155   23.8655 C   0  0  0  0  0  0  0  0  0  0  0  0
   10.6561   14.1627   21.9336 C   0  0  0  0  0  0  0  0  0  0  0  0
   11.9018   13.2922   21.9959 C   0  0  0  0  0  0  0  0  0  0  0  0
   10.8803   12.6067   24.2807 C   0  0  1  0  0  0  0  0  0  0  0  0
   11.9502   12.3568   23.2059 C   0  0  2  0  0  0  0  0  0  0  0  0
   10.3147   14.6104   25.6993 C   0  0  0  0  0  0  0  0  0  0  0  0
   10.5280   14.0412   24.3728 N   0  0  0  0  0  0  0  0  0  0  0  0
   13.8654   11.4967   24.4316 N   0  0  0  0  0  0  0  0  0  0  0  0
   10.0071   16.0243   23.2657 O   0  0  0  0  0  0  0  0  0  0  0  0
   13.8265   13.7262   23.8642 O   0  0  0  0  0  0  0  0  0  0  0  0
    8.6238    8.1194   22.8344 Cl  0  0  0  0  0  0  0  0  0  0  0  0
    6.2992   11.8619   24.8799 H   0  0  0  0  0  0  0  0  0  0  0  0
    8.3390   13.2480   25.0592 H   0  0  0  0  0  0  0  0  0  0  0  0
    6.4125    9.5984   23.9008 H   0  0  0  0  0  0  0  0  0  0  0  0
   10.6465   10.0916   23.2665 H   0  0  0  0  0  0  0  0  0  0  0  0
    9.8073   13.5476   21.6733 H   0  0  0  0  0  0  0  0  0  0  0  0
   10.7819   14.9343   21.1874 H   0  0  0  0  0  0  0  0  0  0  0  0
   11.9554   12.6836   21.0757 H   0  0  0  0  0  0  0  0  0  0  0  0
   12.7965   13.9393   21.9755 H   0  0  0  0  0  0  0  0  0  0  0  0
   11.3354   12.3671   25.2872 H   0  0  0  0  0  0  0  0  0  0  0  0
   11.9871   11.3379   22.8855 H   0  0  0  0  0  0  0  0  0  0  0  0
    9.2585   14.4935   25.9836 H   0  0  0  0  0  0  0  0  0  0  0  0
   10.9507   14.0878   26.4290 H   0  0  0  0  0  0  0  0  0  0  0  0
   10.5745   15.6792   25.6857 H   0  0  0  0  0  0  0  0  0  0  0  0
   14.7657   11.5847   24.8912 H   0  0  0  0  0  0  0  0  0  0  0  0
   13.4174   10.5864   24.4082 H   0  0  0  0  0  0  0  0  0  0  0  0
  1  2  1  0  0  0  0
  1  3  2  0  0  0  0
  2  5  2  0  0  0  0
  3  6  1  0  0  0  0
  4  5  1  0  0  0  0
  4  6  2  0  0  0  0
  5 11  1  0  0  0  0
  6 18  1  0  0  0  0
  7  9  1  0  0  0  0
  7 14  1  0  0  0  0
  7 16  2  0  0  0  0
  8 12  1  0  0  0  0
  8 15  1  0  0  0  0
  8 17  2  0  0  0  0
  9 10  1  0  0  0  0
 10 12  1  0  0  0  0
 11 12  1  0  0  0  0
 11 14  1  0  0  0  0
 13 14  1  0  0  0  0
  1 19  1  0  0  0  0
  2 20  1  0  0  0  0
  3 21  1  0  0  0  0
  4 22  1  0  0  0  0
  9 23  1  0  0  0  0
  9 24  1  0  0  0  0
 10 25  1  0  0  0  0
 10 26  1  0  0  0  0
 11 27  1  0  0  0  0
 12 28  1  0  0  0  0
 13 29  1  0  0  0  0
 13 30  1  0  0  0  0
 13 31  1  0  0  0  0
 15 32  1  0  0  0  0
 15 33  1  0  0  0  0
M  END
> <Catalog ID>
Z1245782959

> <PlateID>
1337959-R-07

> <Well>
H06

> <MW (desalted)>
266.723

> <CLogP>
1.111

> <HBD>
1

> <TPSA>
63.400

> <RotBonds>
2

> <ROCS_ShapeQuery>
A71EV2A-x0451_0A_A71EV2A-x0310_0A_A71EV2A-x0416_0A_peptide

> <ROCS_TanimotoCombo>
0.406 

> <ROCS_ShapeTanimoto>
0.287 

> <ROCS_ColorTanimoto>
0.119 

> <ROCS_RefTversky>
0.259 

> <ROCS_RefColorTversky>
0.129 

> <ROCS_RefTverskyCombo>
0.388 

> <ROCS_FitTversky>
1.613 

> <ROCS_FitColorTversky>
0.618 

> <ROCS_FitTverskyCombo>
2.230 

> <ROCS_ColorScore>
-3.913

> <ROCS_Overlap>
1794.548

> <ROCS_Rank>
382                 

$$$$
untitled-dbase-570_21
  -OEChem-11112309163D

 35 36  0     1  0  0  0  0  0999 V2000
   10.7825   13.5068   22.0979 C   0  0  0  0  0  0  0  0  0  0  0  0
   11.9104   12.9836   21.5011 C   0  0  0  0  0  0  0  0  0  0  0  0
   11.2497   14.2906   19.8685 C   0  0  0  0  0  0  0  0  0  0  0  0
   10.2048   13.2597   23.4253 C   0  0  0  0  0  0  0  0  0  0  0  0
    8.1714   12.1826   24.5235 C   0  0  0  0  0  0  0  0  0  0  0  0
    9.3120   11.0933   22.6338 C   0  0  0  0  0  0  0  0  0  0  0  0
    8.1458   10.8235   25.2269 C   0  0  1  0  0  0  0  0  0  0  0  0
    9.2532    9.7785   23.4105 C   0  0  2  0  0  0  0  0  0  0  0  0
   12.8385   12.0034   22.1014 C   0  0  0  0  0  0  0  0  0  0  0  0
   11.2023   14.9826   18.5623 C   0  0  0  0  0  0  0  0  0  0  0  0
    6.9216   10.6924   26.1212 C   0  0  0  0  0  0  0  0  0  0  0  0
    9.1510    8.5882   22.4681 C   0  0  0  0  0  0  0  0  0  0  0  0
   12.1797   13.4316   20.2225 N   0  0  0  0  0  0  0  0  0  0  0  0
    9.2735   12.2281   23.5548 N   0  0  0  0  0  0  0  0  0  0  0  0
   10.5969   13.9893   24.3346 O   0  0  0  0  0  0  0  0  0  0  0  0
    8.0951    9.7698   24.2562 O   0  0  0  0  0  0  0  0  0  0  0  0
   10.0214   14.6069   21.0245 S   0  0  0  0  0  0  0  0  0  0  0  0
    7.2514   12.3336   23.9453 H   0  0  0  0  0  0  0  0  0  0  0  0
    8.2412   12.9885   25.2586 H   0  0  0  0  0  0  0  0  0  0  0  0
   10.2062   11.1303   22.0036 H   0  0  0  0  0  0  0  0  0  0  0  0
    8.4361   11.1980   21.9817 H   0  0  0  0  0  0  0  0  0  0  0  0
    9.0464   10.6958   25.8439 H   0  0  0  0  0  0  0  0  0  0  0  0
   10.1509    9.6587   24.0330 H   0  0  0  0  0  0  0  0  0  0  0  0
   12.5255   10.9715   21.8748 H   0  0  0  0  0  0  0  0  0  0  0  0
   13.8695   12.1310   21.7310 H   0  0  0  0  0  0  0  0  0  0  0  0
   12.8929   12.1052   23.1984 H   0  0  0  0  0  0  0  0  0  0  0  0
   10.6268   14.3984   17.8272 H   0  0  0  0  0  0  0  0  0  0  0  0
   10.7363   15.9784   18.6414 H   0  0  0  0  0  0  0  0  0  0  0  0
   12.2105   15.1474   18.1479 H   0  0  0  0  0  0  0  0  0  0  0  0
    6.0127   10.8154   25.5314 H   0  0  0  0  0  0  0  0  0  0  0  0
    6.9432   11.4560   26.8992 H   0  0  0  0  0  0  0  0  0  0  0  0
    6.9061    9.7090   26.5922 H   0  0  0  0  0  0  0  0  0  0  0  0
    8.2658    8.6844   21.8384 H   0  0  0  0  0  0  0  0  0  0  0  0
    9.0776    7.6630   23.0406 H   0  0  0  0  0  0  0  0  0  0  0  0
   10.0340    8.5392   21.8301 H   0  0  0  0  0  0  0  0  0  0  0  0
  1  2  2  0  0  0  0
  1  4  1  0  0  0  0
  1 17  1  0  0  0  0
  2  9  1  0  0  0  0
  2 13  1  0  0  0  0
  3 10  1  0  0  0  0
  3 13  2  0  0  0  0
  3 17  1  0  0  0  0
  4 14  1  0  0  0  0
  4 15  2  0  0  0  0
  5  7  1  0  0  0  0
  5 14  1  0  0  0  0
  6  8  1  0  0  0  0
  6 14  1  0  0  0  0
  7 11  1  0  0  0  0
  7 16  1  0  0  0  0
  8 12  1  0  0  0  0
  8 16  1  0  0  0  0
  5 18  1  0  0  0  0
  5 19  1  0  0  0  0
  6 20  1  0  0  0  0
  6 21  1  0  0  0  0
  7 22  1  0  0  0  0
  8 23  1  0  0  0  0
  9 24  1  0  0  0  0
  9 25  1  0  0  0  0
  9 26  1  0  0  0  0
 10 27  1  0  0  0  0
 10 28  1  0  0  0  0
 10 29  1  0  0  0  0
 11 30  1  0  0  0  0
 11 31  1  0  0  0  0
 11 32  1  0  0  0  0
 12 33  1  0  0  0  0
 12 34  1  0  0  0  0
 12 35  1  0  0  0  0
M  END
> <Catalog ID>
Z54677232

> <PlateID>
1337959-R-08

> <Well>
B02

> <MW (desalted)>
254.349

> <CLogP>
1.536

> <HBD>
0

> <TPSA>
42.430

> <RotBonds>
1

> <ROCS_ShapeQuery>
A71EV2A-x0451_0A_A71EV2A-x0310_0A_A71EV2A-x0416_0A_peptide

> <ROCS_TanimotoCombo>
0.406 

> <ROCS_ShapeTanimoto>
0.271 

> <ROCS_ColorTanimoto>
0.135 

> <ROCS_RefTversky>
0.246 

> <ROCS_RefColorTversky>
0.144 

> <ROCS_RefTverskyCombo>
0.390 

> <ROCS_FitTversky>
1.612 

> <ROCS_FitColorTversky>
0.690 

> <ROCS_FitTverskyCombo>
2.302 

> <ROCS_ColorScore>
-4.372

> <ROCS_Overlap>
1702.860

> <ROCS_Rank>
383                 

$$$$
untitled-dbase-638_80
  -OEChem-11112309163D

 33 34  0     1  0  0  0  0  0999 V2000
    8.2350   12.2544   24.7443 C   0  0  0  0  0  0  0  0  0  0  0  0
    6.9891   12.2116   25.3698 C   0  0  0  0  0  0  0  0  0  0  0  0
    6.9132    9.8174   25.0552 C   0  0  0  0  0  0  0  0  0  0  0  0
    8.8201   11.0787   24.2741 C   0  0  0  0  0  0  0  0  0  0  0  0
    6.3282   10.9931   25.5253 C   0  0  0  0  0  0  0  0  0  0  0  0
    8.1592    9.8602   24.4295 C   0  0  0  0  0  0  0  0  0  0  0  0
   11.7020   15.2412   22.9856 C   0  0  0  0  0  0  0  0  0  0  0  0
    9.7944   13.7993   20.9346 C   0  0  0  0  0  0  0  0  0  0  0  0
   11.2545   14.2122   20.7680 C   0  0  0  0  0  0  0  0  0  0  0  0
    9.6710   12.4403   21.6218 C   0  0  0  0  0  0  0  0  0  0  0  0
   11.7825   12.7476   22.7757 C   0  0  0  0  0  0  0  0  0  0  0  0
   12.0320   14.0903   22.0783 C   0  0  2  0  0  0  0  0  0  0  0  0
   10.1621   11.1679   23.6069 C   0  0  0  0  0  0  0  0  0  0  0  0
   10.3497   12.4476   22.9235 N   0  0  2  0  0  0  0  0  0  0  0  0
   12.2667   16.3250   22.9782 O   0  0  0  0  0  0  0  0  0  0  0  0
   10.6876   14.9148   23.8232 O   0  0  0  0  0  0  0  0  0  0  0  0
    5.1320   10.9525   26.1266 F   0  0  0  0  0  0  0  0  0  0  0  0
    8.8530    8.3851   23.8620 Cl  0  0  0  0  0  0  0  0  0  0  0  0
    8.7409   13.2094   24.6286 H   0  0  0  0  0  0  0  0  0  0  0  0
    6.5344   13.1270   25.7368 H   0  0  0  0  0  0  0  0  0  0  0  0
    6.3844    8.8764   25.1844 H   0  0  0  0  0  0  0  0  0  0  0  0
    9.2609   14.5597   21.5173 H   0  0  0  0  0  0  0  0  0  0  0  0
    9.3129   13.7587   19.9485 H   0  0  0  0  0  0  0  0  0  0  0  0
   11.7285   13.5972   19.9852 H   0  0  0  0  0  0  0  0  0  0  0  0
   11.2988   15.2509   20.3969 H   0  0  0  0  0  0  0  0  0  0  0  0
    8.6109   12.1791   21.7345 H   0  0  0  0  0  0  0  0  0  0  0  0
   10.1261   11.6856   20.9696 H   0  0  0  0  0  0  0  0  0  0  0  0
   12.2657   11.9530   22.1809 H   0  0  0  0  0  0  0  0  0  0  0  0
   12.2848   12.7318   23.7605 H   0  0  0  0  0  0  0  0  0  0  0  0
   13.1216   14.1758   21.8485 H   0  0  0  0  0  0  0  0  0  0  0  0
   10.9668   11.0569   24.3419 H   0  0  0  0  0  0  0  0  0  0  0  0
   10.2864   10.3712   22.8659 H   0  0  0  0  0  0  0  0  0  0  0  0
   10.3686   13.9994   23.6731 H   0  0  0  0  0  0  0  0  0  0  0  0
  1  2  1  0  0  0  0
  1  4  2  0  0  0  0
  2  5  2  0  0  0  0
  3  5  1  0  0  0  0
  3  6  2  0  0  0  0
  4  6  1  0  0  0  0
  4 13  1  0  0  0  0
  5 17  1  0  0  0  0
  6 18  1  0  0  0  0
  7 12  1  0  0  0  0
  7 15  2  0  0  0  0
  7 16  1  0  0  0  0
  8  9  1  0  0  0  0
  8 10  1  0  0  0  0
  9 12  1  0  0  0  0
 10 14  1  0  0  0  0
 11 12  1  0  0  0  0
 11 14  1  0  0  0  0
 13 14  1  0  0  0  0
  1 19  1  0  0  0  0
  2 20  1  0  0  0  0
  3 21  1  0  0  0  0
  8 22  1  0  0  0  0
  8 23  1  0  0  0  0
  9 24  1  0  0  0  0
  9 25  1  0  0  0  0
 10 26  1  0  0  0  0
 10 27  1  0  0  0  0
 11 28  1  0  0  0  0
 11 29  1  0  0  0  0
 12 30  1  0  0  0  0
 13 31  1  0  0  0  0
 13 32  1  0  0  0  0
 16 33  1  0  0  0  0
M  END
> <Catalog ID>
Z424758068

> <PlateID>
1337959-R-08

> <Well>
H11

> <MW (desalted)>
271.715

> <CLogP>
0.939

> <HBD>
1

> <TPSA>
40.540

> <RotBonds>
3

> <ROCS_ShapeQuery>
A71EV2A-x0451_0A_A71EV2A-x0310_0A_A71EV2A-x0416_0A_peptide

> <ROCS_TanimotoCombo>
0.406 

> <ROCS_ShapeTanimoto>
0.305 

> <ROCS_ColorTanimoto>
0.101 

> <ROCS_RefTversky>
0.271 

> <ROCS_RefColorTversky>
0.114 

> <ROCS_RefTverskyCombo>
0.385 

> <ROCS_FitTversky>
1.702 

> <ROCS_FitColorTversky>
0.475 

> <ROCS_FitTverskyCombo>
2.177 

> <ROCS_ColorScore>
-3.462

> <ROCS_Overlap>
1878.564

> <ROCS_Rank>
384                 

$$$$
untitled-dbase-528_420
  -OEChem-11112309163D

 26 26  0     1  0  0  0  0  0999 V2000
    7.5781   10.0228   24.2915 C   0  0  0  0  0  0  0  0  0  0  0  0
    8.8226    9.6101   23.8157 C   0  0  0  0  0  0  0  0  0  0  0  0
    7.3295   11.3778   24.5104 C   0  0  0  0  0  0  0  0  0  0  0  0
    9.8186   10.5523   23.5589 C   0  0  0  0  0  0  0  0  0  0  0  0
    9.5700   11.9073   23.7779 C   0  0  0  0  0  0  0  0  0  0  0  0
    8.3255   12.3200   24.2536 C   0  0  0  0  0  0  0  0  0  0  0  0
    9.2853   14.0730   21.4251 C   0  0  0  0  0  0  0  0  0  0  0  0
   11.7127   14.0607   21.0148 C   0  0  0  0  0  0  0  0  0  0  0  0
   12.6210   14.8516   21.9329 C   0  0  0  0  0  0  0  0  0  0  0  0
   10.5906   13.4606   21.7806 N   0  0  1  0  0  0  0  0  0  0  0  0
   10.6340   14.2319   24.2604 O   0  0  0  0  0  0  0  0  0  0  0  0
   12.1248   12.3441   23.5547 O   0  0  0  0  0  0  0  0  0  0  0  0
   11.0100   10.1415   23.1021 F   0  0  0  0  0  0  0  0  0  0  0  0
   11.8782   15.5762   22.8065 F   0  0  0  0  0  0  0  0  0  0  0  0
   13.3289   15.7451   21.1956 F   0  0  0  0  0  0  0  0  0  0  0  0
   10.8688   13.0614   23.4350 S   0  0  0  0  0  0  0  0  0  0  0  0
    7.9658   13.9847   24.5415 Cl  0  0  0  0  0  0  0  0  0  0  0  0
    6.8024    9.2891   24.4904 H   0  0  0  0  0  0  0  0  0  0  0  0
    9.0164    8.5551   23.6458 H   0  0  0  0  0  0  0  0  0  0  0  0
    6.3541   11.6813   24.8825 H   0  0  0  0  0  0  0  0  0  0  0  0
    8.4854   13.6001   22.0139 H   0  0  0  0  0  0  0  0  0  0  0  0
    9.3140   15.1505   21.6447 H   0  0  0  0  0  0  0  0  0  0  0  0
    9.0895   13.9223   20.3532 H   0  0  0  0  0  0  0  0  0  0  0  0
   11.3071   14.7218   20.2421 H   0  0  0  0  0  0  0  0  0  0  0  0
   12.2845   13.2764   20.5083 H   0  0  0  0  0  0  0  0  0  0  0  0
   13.3227   14.2256   22.4920 H   0  0  0  0  0  0  0  0  0  0  0  0
  1  2  2  0  0  0  0
  1  3  1  0  0  0  0
  2  4  1  0  0  0  0
  3  6  2  0  0  0  0
  4  5  2  0  0  0  0
  4 13  1  0  0  0  0
  5  6  1  0  0  0  0
  5 16  1  0  0  0  0
  6 17  1  0  0  0  0
  7 10  1  0  0  0  0
  8  9  1  0  0  0  0
  8 10  1  0  0  0  0
  9 14  1  0  0  0  0
  9 15  1  0  0  0  0
 10 16  1  0  0  0  0
 11 16  2  0  0  0  0
 12 16  2  0  0  0  0
  1 18  1  0  0  0  0
  2 19  1  0  0  0  0
  3 20  1  0  0  0  0
  7 21  1  0  0  0  0
  7 22  1  0  0  0  0
  7 23  1  0  0  0  0
  8 24  1  0  0  0  0
  8 25  1  0  0  0  0
  9 26  1  0  0  0  0
M  END
> <Catalog ID>
Z1697235531

> <PlateID>
1337959-R-07

> <Well>
E10

> <MW (desalted)>
287.686

> <CLogP>
2.468

> <HBD>
0

> <TPSA>
37.380

> <RotBonds>
3

> <ROCS_ShapeQuery>
A71EV2A-x0451_0A_A71EV2A-x0310_0A_A71EV2A-x0416_0A_peptide

> <ROCS_TanimotoCombo>
0.406 

> <ROCS_ShapeTanimoto>
0.299 

> <ROCS_ColorTanimoto>
0.107 

> <ROCS_RefTversky>
0.265 

> <ROCS_RefColorTversky>
0.111 

> <ROCS_RefTverskyCombo>
0.376 

> <ROCS_FitTversky>
1.760 

> <ROCS_FitColorTversky>
0.756 

> <ROCS_FitTverskyCombo>
2.516 

> <ROCS_ColorScore>
-3.358

> <ROCS_Overlap>
1835.249

> <ROCS_Rank>
385                 

$$$$
untitled-dbase-679_44
  -OEChem-11112309163D

 32 32  0     0  0  0  0  0  0999 V2000
    7.3383   11.4460   24.1803 C   0  0  0  0  0  0  0  0  0  0  0  0
    8.3836   12.3623   24.0652 C   0  0  0  0  0  0  0  0  0  0  0  0
    9.9500   10.5419   23.8005 C   0  0  0  0  0  0  0  0  0  0  0  0
    7.5987   10.0777   24.1055 C   0  0  0  0  0  0  0  0  0  0  0  0
    8.9046    9.6257   23.9156 C   0  0  0  0  0  0  0  0  0  0  0  0
    9.6895   11.9102   23.8753 C   0  0  0  0  0  0  0  0  0  0  0  0
    6.4631    9.1164   24.2349 C   0  0  0  0  0  0  0  0  0  0  0  0
    9.2075    8.1655   23.8343 C   0  0  0  0  0  0  0  0  0  0  0  0
   12.2646   15.5891   20.4669 C   0  0  0  0  0  0  0  0  0  0  0  0
   11.0124   15.6991   21.3252 C   0  0  0  0  0  0  0  0  0  0  0  0
   10.2514   14.3827   21.4282 C   0  0  0  0  0  0  0  0  0  0  0  0
   11.0384   13.3412   22.0283 N   0  0  0  0  0  0  0  0  0  0  0  0
   10.6056   14.2999   24.3854 O   0  0  0  0  0  0  0  0  0  0  0  0
   12.2235   12.3899   24.1438 O   0  0  0  0  0  0  0  0  0  0  0  0
   11.0131   13.0726   23.7285 S   0  0  0  0  0  0  0  0  0  0  0  0
    6.3244   11.8075   24.3310 H   0  0  0  0  0  0  0  0  0  0  0  0
    8.1697   13.4260   24.1247 H   0  0  0  0  0  0  0  0  0  0  0  0
   10.9681   10.1890   23.6536 H   0  0  0  0  0  0  0  0  0  0  0  0
    6.0338    8.9008   23.2496 H   0  0  0  0  0  0  0  0  0  0  0  0
    6.7921    8.1727   24.6870 H   0  0  0  0  0  0  0  0  0  0  0  0
    5.6729    9.5209   24.8796 H   0  0  0  0  0  0  0  0  0  0  0  0
    9.4215    7.7658   24.8324 H   0  0  0  0  0  0  0  0  0  0  0  0
    8.3637    7.6087   23.4083 H   0  0  0  0  0  0  0  0  0  0  0  0
   10.0738    7.9758   23.1885 H   0  0  0  0  0  0  0  0  0  0  0  0
   12.9532   14.8407   20.8720 H   0  0  0  0  0  0  0  0  0  0  0  0
   11.9981   15.2875   19.4488 H   0  0  0  0  0  0  0  0  0  0  0  0
   12.7920   16.5460   20.4060 H   0  0  0  0  0  0  0  0  0  0  0  0
   10.3523   16.4562   20.8862 H   0  0  0  0  0  0  0  0  0  0  0  0
   11.2910   16.0521   22.3252 H   0  0  0  0  0  0  0  0  0  0  0  0
    9.3622   14.5122   22.0532 H   0  0  0  0  0  0  0  0  0  0  0  0
    9.9275   14.0328   20.4430 H   0  0  0  0  0  0  0  0  0  0  0  0
   11.2929   12.5237   21.4339 H   0  0  0  0  0  0  0  0  0  0  0  0
  1  2  1  0  0  0  0
  1  4  2  0  0  0  0
  2  6  2  0  0  0  0
  3  5  2  0  0  0  0
  3  6  1  0  0  0  0
  4  5  1  0  0  0  0
  4  7  1  0  0  0  0
  5  8  1  0  0  0  0
  6 15  1  0  0  0  0
  9 10  1  0  0  0  0
 10 11  1  0  0  0  0
 11 12  1  0  0  0  0
 12 15  1  0  0  0  0
 13 15  2  0  0  0  0
 14 15  2  0  0  0  0
  1 16  1  0  0  0  0
  2 17  1  0  0  0  0
  3 18  1  0  0  0  0
  7 19  1  0  0  0  0
  7 20  1  0  0  0  0
  7 21  1  0  0  0  0
  8 22  1  0  0  0  0
  8 23  1  0  0  0  0
  8 24  1  0  0  0  0
  9 25  1  0  0  0  0
  9 26  1  0  0  0  0
  9 27  1  0  0  0  0
 10 28  1  0  0  0  0
 10 29  1  0  0  0  0
 11 30  1  0  0  0  0
 11 31  1  0  0  0  0
 12 32  1  0  0  0  0
M  END
> <Catalog ID>
Z45545198

> <PlateID>
1337959-R-09

> <Well>
E02

> <MW (desalted)>
227.323

> <CLogP>
2.927

> <HBD>
1

> <TPSA>
46.170

> <RotBonds>
3

> <ROCS_ShapeQuery>
A71EV2A-x0451_0A_A71EV2A-x0310_0A_A71EV2A-x0416_0A_peptide

> <ROCS_TanimotoCombo>
0.406 

> <ROCS_ShapeTanimoto>
0.272 

> <ROCS_ColorTanimoto>
0.134 

> <ROCS_RefTversky>
0.243 

> <ROCS_RefColorTversky>
0.142 

> <ROCS_RefTverskyCombo>
0.386 

> <ROCS_FitTversky>
1.785 

> <ROCS_FitColorTversky>
0.682 

> <ROCS_FitTverskyCombo>
2.467 

> <ROCS_ColorScore>
-4.325

> <ROCS_Overlap>
1685.208

> <ROCS_Rank>
386                 

$$$$
untitled-dbase-970_12
  -OEChem-11112309163D

 27 28  0     0  0  0  0  0  0999 V2000
   13.9490   15.7083   20.5561 C   0  0  0  0  0  0  0  0  0  0  0  0
   14.6031   14.8060   21.3948 C   0  0  0  0  0  0  0  0  0  0  0  0
   12.5650   15.8610   20.6396 C   0  0  0  0  0  0  0  0  0  0  0  0
   13.8732   14.0562   22.3172 C   0  0  0  0  0  0  0  0  0  0  0  0
    8.4200   12.4440   23.6381 C   0  0  0  0  0  0  0  0  0  0  0  0
    9.5338   10.3293   23.9065 C   0  0  0  0  0  0  0  0  0  0  0  0
    7.3851   11.9354   24.4063 C   0  0  0  0  0  0  0  0  0  0  0  0
    8.4491    9.9154   24.6629 C   0  0  0  0  0  0  0  0  0  0  0  0
    9.5111   11.6193   23.3880 C   0  0  0  0  0  0  0  0  0  0  0  0
   11.8351   15.1112   21.5620 C   0  0  0  0  0  0  0  0  0  0  0  0
   12.4891   14.2088   22.4008 C   0  0  0  0  0  0  0  0  0  0  0  0
   10.6571   12.1180   22.5630 C   0  0  0  0  0  0  0  0  0  0  0  0
    7.3715   10.6878   24.9270 N   0  0  0  0  0  0  0  0  0  0  0  0
   12.5277   12.5061   24.3588 O   0  0  0  0  0  0  0  0  0  0  0  0
   10.6113   14.1348   24.2136 O   0  0  0  0  0  0  0  0  0  0  0  0
   10.5056   15.2660   21.6327 F   0  0  0  0  0  0  0  0  0  0  0  0
   11.5804   13.2678   23.5574 S   0  0  0  0  0  0  0  0  0  0  0  0
   14.5173   16.2922   19.8380 H   0  0  0  0  0  0  0  0  0  0  0  0
   15.6807   14.6878   21.3302 H   0  0  0  0  0  0  0  0  0  0  0  0
   12.0555   16.5634   19.9867 H   0  0  0  0  0  0  0  0  0  0  0  0
   14.3931   13.3562   22.9658 H   0  0  0  0  0  0  0  0  0  0  0  0
    8.3715   13.4548   23.2473 H   0  0  0  0  0  0  0  0  0  0  0  0
   10.3706    9.6626   23.7291 H   0  0  0  0  0  0  0  0  0  0  0  0
    6.5107   12.5381   24.6291 H   0  0  0  0  0  0  0  0  0  0  0  0
    8.4184    8.9184   25.0897 H   0  0  0  0  0  0  0  0  0  0  0  0
   10.3181   12.6405   21.6640 H   0  0  0  0  0  0  0  0  0  0  0  0
   11.3299   11.3090   22.2644 H   0  0  0  0  0  0  0  0  0  0  0  0
  1  2  2  0  0  0  0
  1  3  1  0  0  0  0
  2  4  1  0  0  0  0
  3 10  2  0  0  0  0
  4 11  2  0  0  0  0
  5  7  1  0  0  0  0
  5  9  2  0  0  0  0
  6  8  2  0  0  0  0
  6  9  1  0  0  0  0
  7 13  2  0  0  0  0
  8 13  1  0  0  0  0
  9 12  1  0  0  0  0
 10 11  1  0  0  0  0
 10 16  1  0  0  0  0
 11 17  1  0  0  0  0
 12 17  1  0  0  0  0
 14 17  2  0  0  0  0
 15 17  2  0  0  0  0
  1 18  1  0  0  0  0
  2 19  1  0  0  0  0
  3 20  1  0  0  0  0
  4 21  1  0  0  0  0
  5 22  1  0  0  0  0
  6 23  1  0  0  0  0
  7 24  1  0  0  0  0
  8 25  1  0  0  0  0
 12 26  1  0  0  0  0
 12 27  1  0  0  0  0
M  END
> <Catalog ID>
Z931213482

> <PlateID>
1337959-R-13

> <Well>
B05

> <MW (desalted)>
251.277

> <CLogP>
0.841

> <HBD>
0

> <TPSA>
47.030

> <RotBonds>
3

> <ROCS_ShapeQuery>
A71EV2A-x0451_0A_A71EV2A-x0310_0A_A71EV2A-x0416_0A_peptide

> <ROCS_TanimotoCombo>
0.405 

> <ROCS_ShapeTanimoto>
0.272 

> <ROCS_ColorTanimoto>
0.134 

> <ROCS_RefTversky>
0.247 

> <ROCS_RefColorTversky>
0.143 

> <ROCS_RefTverskyCombo>
0.389 

> <ROCS_FitTversky>
1.600 

> <ROCS_FitColorTversky>
0.684 

> <ROCS_FitTverskyCombo>
2.283 

> <ROCS_ColorScore>
-4.333

> <ROCS_Overlap>
1709.442

> <ROCS_Rank>
387                 

$$$$
untitled-dbase-97_5
  -OEChem-11112309163D

 35 36  0     0  0  0  0  0  0999 V2000
    7.6052   10.1452   23.8090 C   0  0  0  0  0  0  0  0  0  0  0  0
    7.3739   11.4100   24.3496 C   0  0  0  0  0  0  0  0  0  0  0  0
    9.8516   10.8087   23.2172 C   0  0  0  0  0  0  0  0  0  0  0  0
    8.8440    9.8445   23.2428 C   0  0  0  0  0  0  0  0  0  0  0  0
    8.3815   12.3743   24.3240 C   0  0  0  0  0  0  0  0  0  0  0  0
    9.6204   12.0736   23.7578 C   0  0  0  0  0  0  0  0  0  0  0  0
    9.5931   15.1783   20.4054 C   0  0  0  0  0  0  0  0  0  0  0  0
    9.5076   16.7527   22.2268 C   0  0  0  0  0  0  0  0  0  0  0  0
   10.4868   14.2449   21.2169 C   0  0  0  0  0  0  0  0  0  0  0  0
   10.3992   15.8561   23.0811 C   0  0  0  0  0  0  0  0  0  0  0  0
    9.0911    8.4914   22.6662 C   0  0  0  0  0  0  0  0  0  0  0  0
    8.1013   13.7188   24.9113 C   0  0  0  0  0  0  0  0  0  0  0  0
    9.7870   16.5741   20.8010 N   0  0  0  0  0  0  0  0  0  0  0  0
   10.2134   14.4341   22.6710 N   0  0  0  0  0  0  0  0  0  0  0  0
   11.0467   13.8358   25.0359 O   0  0  0  0  0  0  0  0  0  0  0  0
   12.0530   12.6693   23.0423 O   0  0  0  0  0  0  0  0  0  0  0  0
   10.9181   13.2695   23.7104 S   0  0  0  0  0  0  0  0  0  0  0  0
    6.8145    9.3999   23.8344 H   0  0  0  0  0  0  0  0  0  0  0  0
    6.4058   11.6328   24.7904 H   0  0  0  0  0  0  0  0  0  0  0  0
   10.8164   10.5710   22.7752 H   0  0  0  0  0  0  0  0  0  0  0  0
    9.8236   15.0735   19.3398 H   0  0  0  0  0  0  0  0  0  0  0  0
    8.5384   14.9039   20.5307 H   0  0  0  0  0  0  0  0  0  0  0  0
    8.4496   16.5400   22.4233 H   0  0  0  0  0  0  0  0  0  0  0  0
    9.6755   17.8012   22.4952 H   0  0  0  0  0  0  0  0  0  0  0  0
   10.2669   13.2084   20.9389 H   0  0  0  0  0  0  0  0  0  0  0  0
   11.5458   14.4420   21.0118 H   0  0  0  0  0  0  0  0  0  0  0  0
   11.4536   16.1368   22.9726 H   0  0  0  0  0  0  0  0  0  0  0  0
   10.1167   15.9696   24.1333 H   0  0  0  0  0  0  0  0  0  0  0  0
    8.8162    8.4727   21.6045 H   0  0  0  0  0  0  0  0  0  0  0  0
   10.1472    8.2063   22.7572 H   0  0  0  0  0  0  0  0  0  0  0  0
    8.5083    7.7226   23.1902 H   0  0  0  0  0  0  0  0  0  0  0  0
    8.3680   13.7318   25.9743 H   0  0  0  0  0  0  0  0  0  0  0  0
    8.6723   14.5021   24.3978 H   0  0  0  0  0  0  0  0  0  0  0  0
    7.0405   13.9805   24.8134 H   0  0  0  0  0  0  0  0  0  0  0  0
   10.7558   16.8373   20.6190 H   0  0  0  0  0  0  0  0  0  0  0  0
  1  2  1  0  0  0  0
  1  4  2  0  0  0  0
  2  5  2  0  0  0  0
  3  4  1  0  0  0  0
  3  6  2  0  0  0  0
  4 11  1  0  0  0  0
  5  6  1  0  0  0  0
  5 12  1  0  0  0  0
  6 17  1  0  0  0  0
  7  9  1  0  0  0  0
  7 13  1  0  0  0  0
  8 10  1  0  0  0  0
  8 13  1  0  0  0  0
  9 14  1  0  0  0  0
 10 14  1  0  0  0  0
 14 17  1  0  0  0  0
 15 17  2  0  0  0  0
 16 17  2  0  0  0  0
  1 18  1  0  0  0  0
  2 19  1  0  0  0  0
  3 20  1  0  0  0  0
  7 21  1  0  0  0  0
  7 22  1  0  0  0  0
  8 23  1  0  0  0  0
  8 24  1  0  0  0  0
  9 25  1  0  0  0  0
  9 26  1  0  0  0  0
 10 27  1  0  0  0  0
 10 28  1  0  0  0  0
 11 29  1  0  0  0  0
 11 30  1  0  0  0  0
 11 31  1  0  0  0  0
 12 32  1  0  0  0  0
 12 33  1  0  0  0  0
 12 34  1  0  0  0  0
 13 35  1  0  0  0  0
M  END
> <Catalog ID>
Z56886590

> <PlateID>
1337959-R-02

> <Well>
B08

> <MW (desalted)>
254.349

> <CLogP>
2.267

> <HBD>
1

> <TPSA>
49.410

> <RotBonds>
1

> <ROCS_ShapeQuery>
A71EV2A-x0451_0A_A71EV2A-x0310_0A_A71EV2A-x0416_0A_peptide

> <ROCS_TanimotoCombo>
0.405 

> <ROCS_ShapeTanimoto>
0.271 

> <ROCS_ColorTanimoto>
0.134 

> <ROCS_RefTversky>
0.246 

> <ROCS_RefColorTversky>
0.147 

> <ROCS_RefTverskyCombo>
0.392 

> <ROCS_FitTversky>
1.624 

> <ROCS_FitColorTversky>
0.612 

> <ROCS_FitTverskyCombo>
2.235 

> <ROCS_ColorScore>
-4.459

> <ROCS_Overlap>
1703.507

> <ROCS_Rank>
388                 

$$$$
untitled-dbase-1130_0
  -OEChem-11112309163D

 29 31  0     1  0  0  0  0  0999 V2000
   10.7013   13.3213   24.0224 C   0  0  0  0  0  0  0  0  0  0  0  0
   12.6713   13.9527   24.0376 C   0  0  0  0  0  0  0  0  0  0  0  0
    7.0891   10.7889   23.2747 C   0  0  0  0  0  0  0  0  0  0  0  0
    7.0610   10.8407   24.8042 C   0  0  0  0  0  0  0  0  0  0  0  0
    9.4953   11.5125   22.7831 C   0  0  0  0  0  0  0  0  0  0  0  0
    9.4482   11.5981   25.3344 C   0  0  0  0  0  0  0  0  0  0  0  0
    9.5195   12.4247   24.0305 C   0  0  0  0  0  0  0  0  0  0  0  0
    8.5083   10.3396   22.9301 C   0  0  1  0  0  0  0  0  0  0  0  0
    8.4659   10.4169   25.2302 C   0  0  2  0  0  0  0  0  0  0  0  0
   14.1281   14.1418   24.0545 C   0  0  0  0  0  0  0  0  0  0  0  0
   11.9784   12.8423   24.0621 N   0  0  0  0  0  0  0  0  0  0  0  0
   10.5809   14.6513   23.9750 N   0  0  0  0  0  0  0  0  0  0  0  0
    8.8709    9.5509   24.1150 N   0  0  0  0  0  0  0  0  0  0  0  0
   11.9143   15.0799   23.9853 O   0  0  0  0  0  0  0  0  0  0  0  0
    6.3560   10.0519   22.9244 H   0  0  0  0  0  0  0  0  0  0  0  0
    6.8290   11.7536   22.8273 H   0  0  0  0  0  0  0  0  0  0  0  0
    6.7864   11.8334   25.1754 H   0  0  0  0  0  0  0  0  0  0  0  0
    6.3145   10.1284   25.1765 H   0  0  0  0  0  0  0  0  0  0  0  0
    9.2354   12.1087   21.8990 H   0  0  0  0  0  0  0  0  0  0  0  0
   10.4997   11.1071   22.5973 H   0  0  0  0  0  0  0  0  0  0  0  0
   10.4446   11.2073   25.5839 H   0  0  0  0  0  0  0  0  0  0  0  0
    9.1568   12.2521   26.1664 H   0  0  0  0  0  0  0  0  0  0  0  0
    8.6346   13.0731   23.9924 H   0  0  0  0  0  0  0  0  0  0  0  0
    8.5272    9.7265   22.0233 H   0  0  0  0  0  0  0  0  0  0  0  0
    8.4503    9.8659   26.1763 H   0  0  0  0  0  0  0  0  0  0  0  0
   14.5451   14.1610   23.0315 H   0  0  0  0  0  0  0  0  0  0  0  0
   14.4241   15.0860   24.5485 H   0  0  0  0  0  0  0  0  0  0  0  0
   14.6501   13.3388   24.6079 H   0  0  0  0  0  0  0  0  0  0  0  0
    8.3051    8.7013   24.1332 H   0  0  0  0  0  0  0  0  0  0  0  0
  1  7  1  0  0  0  0
  1 11  1  0  0  0  0
  1 12  2  0  0  0  0
  2 10  1  0  0  0  0
  2 11  2  0  0  0  0
  2 14  1  0  0  0  0
  3  4  1  0  0  0  0
  3  8  1  0  0  0  0
  4  9  1  0  0  0  0
  5  7  1  0  0  0  0
  5  8  1  0  0  0  0
  6  7  1  0  0  0  0
  6  9  1  0  0  0  0
  8 13  1  0  0  0  0
  9 13  1  0  0  0  0
 12 14  1  0  0  0  0
  3 15  1  0  0  0  0
  3 16  1  0  0  0  0
  4 17  1  0  0  0  0
  4 18  1  0  0  0  0
  5 19  1  0  0  0  0
  5 20  1  0  0  0  0
  6 21  1  0  0  0  0
  6 22  1  0  0  0  0
  7 23  1  0  0  0  0
  8 24  1  0  0  0  0
  9 25  1  0  0  0  0
 10 26  1  0  0  0  0
 10 27  1  0  0  0  0
 10 28  1  0  0  0  0
 13 29  1  0  0  0  0
M  END
> <Catalog ID>
Z2313092136

> <PlateID>
1337959-R-15

> <Well>
B06

> <MW (desalted)>
193.246

> <CLogP>
0.048

> <HBD>
1

> <TPSA>
50.950

> <RotBonds>
1

> <ROCS_ShapeQuery>
A71EV2A-x0451_0A_A71EV2A-x0310_0A_A71EV2A-x0416_0A_peptide

> <ROCS_TanimotoCombo>
0.405 

> <ROCS_ShapeTanimoto>
0.225 

> <ROCS_ColorTanimoto>
0.181 

> <ROCS_RefTversky>
0.209 

> <ROCS_RefColorTversky>
0.212 

> <ROCS_RefTverskyCombo>
0.421 

> <ROCS_FitTversky>
1.495 

> <ROCS_FitColorTversky>
0.548 

> <ROCS_FitTverskyCombo>
2.043 

> <ROCS_ColorScore>
-6.506

> <ROCS_Overlap>
1449.666

> <ROCS_Rank>
389                 

$$$$
untitled-dbase-261_10
  -OEChem-11112309163D

 29 30  0     1  0  0  0  0  0999 V2000
   10.9667   13.7044   23.1250 C   0  0  0  0  0  0  0  0  0  0  0  0
   11.3322   15.5019   21.3308 C   0  0  0  0  0  0  0  0  0  0  0  0
   12.4019   15.6893   22.3642 C   0  0  0  0  0  0  0  0  0  0  0  0
    9.5322   10.2188   23.0785 C   0  0  0  0  0  0  0  0  0  0  0  0
    8.3606    9.5686   23.8059 C   0  0  0  0  0  0  0  0  0  0  0  0
    8.3451   12.2416   23.7818 C   0  0  0  0  0  0  0  0  0  0  0  0
   11.8490   14.3295   22.0958 C   0  0  0  0  0  0  0  0  0  0  0  0
    9.7490   11.6159   23.6941 C   0  0  1  0  0  0  0  0  0  0  0  0
   10.3997   11.5280   25.0817 C   0  0  0  0  0  0  0  0  0  0  0  0
   10.6005   12.4095   22.8298 N   0  0  0  0  0  0  0  0  0  0  0  0
   10.6431   14.3493   24.1154 O   0  0  0  0  0  0  0  0  0  0  0  0
    6.9066   10.9044   25.5484 O   0  0  0  0  0  0  0  0  0  0  0  0
    6.1848   10.8841   23.1176 O   0  0  0  0  0  0  0  0  0  0  0  0
    7.2166   10.8982   24.1338 S   0  0  0  0  0  0  0  0  0  0  0  0
   10.3451   15.8895   21.5516 H   0  0  0  0  0  0  0  0  0  0  0  0
   11.6188   15.5745   20.2887 H   0  0  0  0  0  0  0  0  0  0  0  0
   13.4087   15.8886   22.0178 H   0  0  0  0  0  0  0  0  0  0  0  0
   12.1330   16.2050   23.2781 H   0  0  0  0  0  0  0  0  0  0  0  0
   10.4329    9.6044   23.2275 H   0  0  0  0  0  0  0  0  0  0  0  0
    9.3548   10.2614   21.9953 H   0  0  0  0  0  0  0  0  0  0  0  0
    7.8549    8.8344   23.1722 H   0  0  0  0  0  0  0  0  0  0  0  0
    8.6619    9.1015   24.7460 H   0  0  0  0  0  0  0  0  0  0  0  0
    8.2737   12.9486   24.6175 H   0  0  0  0  0  0  0  0  0  0  0  0
    8.0380   12.7488   22.8609 H   0  0  0  0  0  0  0  0  0  0  0  0
   12.4711   13.6200   21.5818 H   0  0  0  0  0  0  0  0  0  0  0  0
   10.5384   12.5285   25.4871 H   0  0  0  0  0  0  0  0  0  0  0  0
   11.3676   11.0365   25.0037 H   0  0  0  0  0  0  0  0  0  0  0  0
    9.7610   10.9559   25.7521 H   0  0  0  0  0  0  0  0  0  0  0  0
   10.9408   11.9939   21.9720 H   0  0  0  0  0  0  0  0  0  0  0  0
  1  7  1  0  0  0  0
  1 10  1  0  0  0  0
  1 11  2  0  0  0  0
  2  3  1  0  0  0  0
  2  7  1  0  0  0  0
  3  7  1  0  0  0  0
  4  5  1  0  0  0  0
  4  8  1  0  0  0  0
  5 14  1  0  0  0  0
  6  8  1  0  0  0  0
  6 14  1  0  0  0  0
  8  9  1  0  0  0  0
  8 10  1  0  0  0  0
 12 14  2  0  0  0  0
 13 14  2  0  0  0  0
  2 15  1  0  0  0  0
  2 16  1  0  0  0  0
  3 17  1  0  0  0  0
  3 18  1  0  0  0  0
  4 19  1  0  0  0  0
  4 20  1  0  0  0  0
  5 21  1  0  0  0  0
  5 22  1  0  0  0  0
  6 23  1  0  0  0  0
  6 24  1  0  0  0  0
  7 25  1  0  0  0  0
  9 26  1  0  0  0  0
  9 27  1  0  0  0  0
  9 28  1  0  0  0  0
 10 29  1  0  0  0  0
M  END
> <Catalog ID>
Z54615640

> <PlateID>
1337959-R-04

> <Well>
C03

> <MW (desalted)>
217.285

> <CLogP>
-0.939

> <HBD>
1

> <TPSA>
63.240

> <RotBonds>
2

> <ROCS_ShapeQuery>
A71EV2A-x0451_0A_A71EV2A-x0310_0A_A71EV2A-x0416_0A_peptide

> <ROCS_TanimotoCombo>
0.405 

> <ROCS_ShapeTanimoto>
0.256 

> <ROCS_ColorTanimoto>
0.150 

> <ROCS_RefTversky>
0.231 

> <ROCS_RefColorTversky>
0.157 

> <ROCS_RefTverskyCombo>
0.388 

> <ROCS_FitTversky>
1.741 

> <ROCS_FitColorTversky>
0.753 

> <ROCS_FitTverskyCombo>
2.495 

> <ROCS_ColorScore>
-4.775

> <ROCS_Overlap>
1597.590

> <ROCS_Rank>
390                 

$$$$
untitled-dbase-959_45
  -OEChem-11112309163D

 38 39  0     1  0  0  0  0  0999 V2000
    9.4686   12.8425   20.5039 C   0  0  0  0  0  0  0  0  0  0  0  0
   10.1135   14.0689   20.6640 C   0  0  0  0  0  0  0  0  0  0  0  0
    9.2335   12.0282   21.6118 C   0  0  0  0  0  0  0  0  0  0  0  0
   10.5236   14.4810   21.9319 C   0  0  0  0  0  0  0  0  0  0  0  0
    9.6435   12.4403   22.8797 C   0  0  0  0  0  0  0  0  0  0  0  0
   10.2886   13.6667   23.0398 C   0  0  0  0  0  0  0  0  0  0  0  0
    9.3491    9.2712   23.0217 C   0  0  0  0  0  0  0  0  0  0  0  0
    7.0647   11.6511   24.7376 C   0  0  0  0  0  0  0  0  0  0  0  0
    8.4462   12.1802   25.1082 C   0  0  0  0  0  0  0  0  0  0  0  0
    7.3500   10.2406   24.2453 C   0  0  0  0  0  0  0  0  0  0  0  0
    9.3794   11.5401   24.0748 C   0  0  1  0  0  0  0  0  0  0  0  0
    9.2020    7.7308   21.0790 C   0  0  0  0  0  0  0  0  0  0  0  0
   11.3475   15.3504   24.3435 C   0  0  0  0  0  0  0  0  0  0  0  0
    8.4557    8.3388   22.2434 C   0  0  1  0  0  0  0  0  0  0  0  0
    8.7018   10.2976   23.6935 N   0  0  0  0  0  0  0  0  0  0  0  0
    8.0440    7.3597   23.2038 N   0  0  0  0  0  0  0  0  0  0  0  0
   10.5699    9.1035   23.0267 O   0  0  0  0  0  0  0  0  0  0  0  0
   10.6962   14.0837   24.2712 O   0  0  0  0  0  0  0  0  0  0  0  0
    9.1495   12.5209   19.5166 H   0  0  0  0  0  0  0  0  0  0  0  0
   10.2971   14.7021   19.8010 H   0  0  0  0  0  0  0  0  0  0  0  0
    8.7316   11.0738   21.4763 H   0  0  0  0  0  0  0  0  0  0  0  0
   11.0256   15.4373   22.0503 H   0  0  0  0  0  0  0  0  0  0  0  0
    6.3735   11.6660   25.5850 H   0  0  0  0  0  0  0  0  0  0  0  0
    6.6338   12.2539   23.9298 H   0  0  0  0  0  0  0  0  0  0  0  0
    8.4754   13.2745   25.1208 H   0  0  0  0  0  0  0  0  0  0  0  0
    8.7097   11.8200   26.1107 H   0  0  0  0  0  0  0  0  0  0  0  0
    7.3576    9.5248   25.0748 H   0  0  0  0  0  0  0  0  0  0  0  0
    6.6329    9.9041   23.4919 H   0  0  0  0  0  0  0  0  0  0  0  0
   10.3673   11.2906   24.5240 H   0  0  0  0  0  0  0  0  0  0  0  0
   10.0850    7.1709   21.4081 H   0  0  0  0  0  0  0  0  0  0  0  0
    8.5543    7.0364   20.5333 H   0  0  0  0  0  0  0  0  0  0  0  0
    9.5419    8.5043   20.3825 H   0  0  0  0  0  0  0  0  0  0  0  0
   11.6203   15.5620   25.3803 H   0  0  0  0  0  0  0  0  0  0  0  0
   10.6781   16.1274   23.9658 H   0  0  0  0  0  0  0  0  0  0  0  0
   12.2512   15.3209   23.7302 H   0  0  0  0  0  0  0  0  0  0  0  0
    7.5784    8.8950   21.9168 H   0  0  0  0  0  0  0  0  0  0  0  0
    7.6182    7.8130   23.9891 H   0  0  0  0  0  0  0  0  0  0  0  0
    7.3823    6.7337   22.7867 H   0  0  0  0  0  0  0  0  0  0  0  0
  1  2  2  0  0  0  0
  1  3  1  0  0  0  0
  2  4  1  0  0  0  0
  3  5  2  0  0  0  0
  4  6  2  0  0  0  0
  5  6  1  0  0  0  0
  5 11  1  0  0  0  0
  6 18  1  0  0  0  0
  7 14  1  0  0  0  0
  7 15  1  0  0  0  0
  7 17  2  0  0  0  0
  8  9  1  0  0  0  0
  8 10  1  0  0  0  0
  9 11  1  0  0  0  0
 10 15  1  0  0  0  0
 11 15  1  0  0  0  0
 12 14  1  0  0  0  0
 13 18  1  0  0  0  0
 14 16  1  0  0  0  0
  1 19  1  0  0  0  0
  2 20  1  0  0  0  0
  3 21  1  0  0  0  0
  4 22  1  0  0  0  0
  8 23  1  0  0  0  0
  8 24  1  0  0  0  0
  9 25  1  0  0  0  0
  9 26  1  0  0  0  0
 10 27  1  0  0  0  0
 10 28  1  0  0  0  0
 11 29  1  0  0  0  0
 12 30  1  0  0  0  0
 12 31  1  0  0  0  0
 12 32  1  0  0  0  0
 13 33  1  0  0  0  0
 13 34  1  0  0  0  0
 13 35  1  0  0  0  0
 14 36  1  0  0  0  0
 16 37  1  0  0  0  0
 16 38  1  0  0  0  0
M  END
> <Catalog ID>
Z2242887451

> <PlateID>
1337959-R-13

> <Well>
A03

> <MW (desalted)>
248.321

> <CLogP>
0.966

> <HBD>
1

> <TPSA>
55.560

> <RotBonds>
3

> <ROCS_ShapeQuery>
A71EV2A-x0451_0A_A71EV2A-x0310_0A_A71EV2A-x0416_0A_peptide

> <ROCS_TanimotoCombo>
0.405 

> <ROCS_ShapeTanimoto>
0.274 

> <ROCS_ColorTanimoto>
0.131 

> <ROCS_RefTversky>
0.250 

> <ROCS_RefColorTversky>
0.144 

> <ROCS_RefTverskyCombo>
0.394 

> <ROCS_FitTversky>
1.549 

> <ROCS_FitColorTversky>
0.601 

> <ROCS_FitTverskyCombo>
2.150 

> <ROCS_ColorScore>
-4.378

> <ROCS_Overlap>
1731.979

> <ROCS_Rank>
391                 

$$$$
untitled-dbase-571_161
  -OEChem-11112309163D

 39 41  0     1  0  0  0  0  0999 V2000
   10.4676   12.8464   23.5354 C   0  0  0  0  0  0  0  0  0  0  0  0
    6.6573   12.0201   25.5120 C   0  0  0  0  0  0  0  0  0  0  0  0
    6.6465   10.5240   25.1861 C   0  0  0  0  0  0  0  0  0  0  0  0
    7.9024   12.5895   24.8373 C   0  0  0  0  0  0  0  0  0  0  0  0
    7.8865   10.2693   24.3332 C   0  0  0  0  0  0  0  0  0  0  0  0
   11.8056    9.9824   23.0806 C   0  0  0  0  0  0  0  0  0  0  0  0
   10.8009    9.1677   23.8393 C   0  0  0  0  0  0  0  0  0  0  0  0
   10.8971   14.5725   21.7887 C   0  0  0  0  0  0  0  0  0  0  0  0
   12.0252   15.2996   22.5133 C   0  0  0  0  0  0  0  0  0  0  0  0
   12.4774   12.7066   22.0512 C   0  0  0  0  0  0  0  0  0  0  0  0
   11.0030   13.0904   22.1553 C   0  0  1  0  0  0  0  0  0  0  0  0
    8.8370   11.3901   24.7365 C   0  0  0  0  0  0  0  0  0  0  0  0
   10.3571   10.3883   23.0805 C   0  0  0  0  0  0  0  0  0  0  0  0
    9.9075   11.5913   23.7764 N   0  0  0  0  0  0  0  0  0  0  0  0
   10.5437   13.7445   24.3781 O   0  0  0  0  0  0  0  0  0  0  0  0
   13.9039   14.0231   23.8433 O   0  0  0  0  0  0  0  0  0  0  0  0
   14.2718   14.5194   21.3835 O   0  0  0  0  0  0  0  0  0  0  0  0
   13.4063   14.1713   22.4915 S   0  0  0  0  0  0  0  0  0  0  0  0
    5.7496   12.5206   25.1599 H   0  0  0  0  0  0  0  0  0  0  0  0
    6.7123   12.1631   26.5974 H   0  0  0  0  0  0  0  0  0  0  0  0
    6.6950    9.9416   26.1135 H   0  0  0  0  0  0  0  0  0  0  0  0
    5.7332   10.2282   24.6601 H   0  0  0  0  0  0  0  0  0  0  0  0
    7.6389   12.9663   23.8408 H   0  0  0  0  0  0  0  0  0  0  0  0
    8.3375   13.4153   25.4085 H   0  0  0  0  0  0  0  0  0  0  0  0
    8.3085    9.2748   24.5081 H   0  0  0  0  0  0  0  0  0  0  0  0
    7.6196   10.3437   23.2714 H   0  0  0  0  0  0  0  0  0  0  0  0
   12.5082   10.5753   23.6534 H   0  0  0  0  0  0  0  0  0  0  0  0
   12.2114    9.5622   22.1686 H   0  0  0  0  0  0  0  0  0  0  0  0
   10.5301    8.1988   23.4383 H   0  0  0  0  0  0  0  0  0  0  0  0
   10.8294    9.2140   24.9211 H   0  0  0  0  0  0  0  0  0  0  0  0
    9.9253   15.0031   22.0519 H   0  0  0  0  0  0  0  0  0  0  0  0
   11.0300   14.6849   20.7055 H   0  0  0  0  0  0  0  0  0  0  0  0
   12.3035   16.2338   22.0211 H   0  0  0  0  0  0  0  0  0  0  0  0
   11.7649   15.4940   23.5577 H   0  0  0  0  0  0  0  0  0  0  0  0
   12.7645   11.8883   22.7162 H   0  0  0  0  0  0  0  0  0  0  0  0
   12.7389   12.4563   21.0185 H   0  0  0  0  0  0  0  0  0  0  0  0
   10.3981   12.4803   21.4755 H   0  0  0  0  0  0  0  0  0  0  0  0
    9.2925   11.1734   25.7071 H   0  0  0  0  0  0  0  0  0  0  0  0
    9.8039   10.2164   22.1635 H   0  0  0  0  0  0  0  0  0  0  0  0
  1 11  1  0  0  0  0
  1 14  1  0  0  0  0
  1 15  2  0  0  0  0
  2  3  1  0  0  0  0
  2  4  1  0  0  0  0
  3  5  1  0  0  0  0
  4 12  1  0  0  0  0
  5 12  1  0  0  0  0
  6  7  1  0  0  0  0
  6 13  1  0  0  0  0
  7 13  1  0  0  0  0
  8  9  1  0  0  0  0
  8 11  1  0  0  0  0
  9 18  1  0  0  0  0
 10 11  1  0  0  0  0
 10 18  1  0  0  0  0
 12 14  1  0  0  0  0
 13 14  1  0  0  0  0
 16 18  2  0  0  0  0
 17 18  2  0  0  0  0
  2 19  1  0  0  0  0
  2 20  1  0  0  0  0
  3 21  1  0  0  0  0
  3 22  1  0  0  0  0
  4 23  1  0  0  0  0
  4 24  1  0  0  0  0
  5 25  1  0  0  0  0
  5 26  1  0  0  0  0
  6 27  1  0  0  0  0
  6 28  1  0  0  0  0
  7 29  1  0  0  0  0
  7 30  1  0  0  0  0
  8 31  1  0  0  0  0
  8 32  1  0  0  0  0
  9 33  1  0  0  0  0
  9 34  1  0  0  0  0
 10 35  1  0  0  0  0
 10 36  1  0  0  0  0
 11 37  1  0  0  0  0
 12 38  1  0  0  0  0
 13 39  1  0  0  0  0
M  END
> <Catalog ID>
Z324721008

> <PlateID>
1337959-R-08

> <Well>
B03

> <MW (desalted)>
271.376

> <CLogP>
0.401

> <HBD>
0

> <TPSA>
54.450

> <RotBonds>
3

> <ROCS_ShapeQuery>
A71EV2A-x0451_0A_A71EV2A-x0310_0A_A71EV2A-x0416_0A_peptide

> <ROCS_TanimotoCombo>
0.405 

> <ROCS_ShapeTanimoto>
0.292 

> <ROCS_ColorTanimoto>
0.113 

> <ROCS_RefTversky>
0.262 

> <ROCS_RefColorTversky>
0.123 

> <ROCS_RefTverskyCombo>
0.385 

> <ROCS_FitTversky>
1.661 

> <ROCS_FitColorTversky>
0.590 

> <ROCS_FitTverskyCombo>
2.250 

> <ROCS_ColorScore>
-3.737

> <ROCS_Overlap>
1813.468

> <ROCS_Rank>
392                 

$$$$
untitled-dbase-1176_0
  -OEChem-11112309163D

 26 28  0     1  0  0  0  0  0999 V2000
    6.6904   12.8846   26.0756 C   0  0  0  0  0  0  0  0  0  0  0  0
    5.9890   11.6853   26.0393 C   0  0  0  0  0  0  0  0  0  0  0  0
    7.9046   13.0098   25.3927 C   0  0  0  0  0  0  0  0  0  0  0  0
    6.5065   10.6081   25.3294 C   0  0  0  0  0  0  0  0  0  0  0  0
    8.4567   11.9440   24.6561 C   0  0  0  0  0  0  0  0  0  0  0  0
    7.7303   10.7328   24.6615 C   0  0  0  0  0  0  0  0  0  0  0  0
    9.9777   10.8478   22.9542 C   0  0  0  0  0  0  0  0  0  0  0  0
   10.9862   12.6270   24.5480 C   0  0  0  0  0  0  0  0  0  0  0  0
    9.5500    9.5896   23.6941 C   0  0  0  0  0  0  0  0  0  0  0  0
   10.3263   13.3878   23.4308 C   0  0  2  0  0  0  0  0  0  0  0  0
    9.7644   12.0407   23.8663 C   0  0  2  0  0  0  0  0  0  0  0  0
   11.0243   13.5456   22.1481 N   0  0  0  0  0  0  0  0  0  0  0  0
    8.1492    9.6082   23.9858 O   0  0  0  0  0  0  0  0  0  0  0  0
    6.2939   13.7290   26.6321 H   0  0  0  0  0  0  0  0  0  0  0  0
    5.0437   11.5895   26.5646 H   0  0  0  0  0  0  0  0  0  0  0  0
    8.4179   13.9665   25.4479 H   0  0  0  0  0  0  0  0  0  0  0  0
    5.9588    9.6697   25.3040 H   0  0  0  0  0  0  0  0  0  0  0  0
   11.0246   10.7538   22.6446 H   0  0  0  0  0  0  0  0  0  0  0  0
    9.3666   10.9771   22.0523 H   0  0  0  0  0  0  0  0  0  0  0  0
   11.9517   12.1690   24.3633 H   0  0  0  0  0  0  0  0  0  0  0  0
   10.8900   13.0256   25.5517 H   0  0  0  0  0  0  0  0  0  0  0  0
    9.7361    8.7126   23.0653 H   0  0  0  0  0  0  0  0  0  0  0  0
   10.1120    9.4508   24.6265 H   0  0  0  0  0  0  0  0  0  0  0  0
    9.7854   14.2839   23.7139 H   0  0  0  0  0  0  0  0  0  0  0  0
   10.3445   13.7450   21.4567 H   0  0  0  0  0  0  0  0  0  0  0  0
   11.6659   14.2933   22.2438 H   0  0  0  0  0  0  0  0  0  0  0  0
  1  2  2  0  0  0  0
  1  3  1  0  0  0  0
  2  4  1  0  0  0  0
  3  5  2  0  0  0  0
  4  6  2  0  0  0  0
  5  6  1  0  0  0  0
  5 11  1  0  0  0  0
  6 13  1  0  0  0  0
  7  9  1  0  0  0  0
  7 11  1  0  0  0  0
  8 10  1  0  0  0  0
  8 11  1  1  0  0  0
  9 13  1  0  0  0  0
 10 11  1  0  0  0  0
 10 12  1  6  0  0  0
  1 14  1  0  0  0  0
  2 15  1  0  0  0  0
  3 16  1  0  0  0  0
  4 17  1  0  0  0  0
  7 18  1  0  0  0  0
  7 19  1  0  0  0  0
  8 20  1  0  0  0  0
  8 21  1  0  0  0  0
  9 22  1  0  0  0  0
  9 23  1  0  0  0  0
 10 24  1  0  0  0  0
 12 25  1  0  0  0  0
 12 26  1  0  0  0  0
M  END
> <Catalog ID>
Z3522296777

> <PlateID>
1337959-R-15

> <Well>
G02

> <MW (desalted)>
175.227

> <CLogP>
1.312

> <HBD>
1

> <TPSA>
35.250

> <RotBonds>
0

> <ROCS_ShapeQuery>
A71EV2A-x0451_0A_A71EV2A-x0310_0A_A71EV2A-x0416_0A_peptide

> <ROCS_TanimotoCombo>
0.405 

> <ROCS_ShapeTanimoto>
0.273 

> <ROCS_ColorTanimoto>
0.132 

> <ROCS_RefTversky>
0.243 

> <ROCS_RefColorTversky>
0.141 

> <ROCS_RefTverskyCombo>
0.384 

> <ROCS_FitTversky>
1.836 

> <ROCS_FitColorTversky>
0.674 

> <ROCS_FitTverskyCombo>
2.510 

> <ROCS_ColorScore>
-4.273

> <ROCS_Overlap>
1683.988

> <ROCS_Rank>
393                 

$$$$
untitled-dbase-893_180
  -OEChem-11112309163D

 35 36  0     0  0  0  0  0  0999 V2000
    8.1484   10.1327   24.3073 C   0  0  0  0  0  0  0  0  0  0  0  0
    7.8311   11.4822   24.5525 C   0  0  0  0  0  0  0  0  0  0  0  0
    9.3263   10.1796   23.6024 C   0  0  0  0  0  0  0  0  0  0  0  0
   10.9580   13.5152   23.1973 C   0  0  0  0  0  0  0  0  0  0  0  0
   11.7426   15.8100   19.7565 C   0  0  0  0  0  0  0  0  0  0  0  0
   10.7075   16.1827   20.8167 C   0  0  0  0  0  0  0  0  0  0  0  0
   12.1115   14.3301   19.8499 C   0  0  0  0  0  0  0  0  0  0  0  0
   11.1740   15.7743   22.2113 C   0  0  0  0  0  0  0  0  0  0  0  0
   12.5510   13.9555   21.2636 C   0  0  0  0  0  0  0  0  0  0  0  0
    6.6613   12.0123   25.2731 C   0  0  0  0  0  0  0  0  0  0  0  0
   10.1693    9.1023   23.0525 C   0  0  0  0  0  0  0  0  0  0  0  0
   10.7859   12.0696   22.8045 C   0  0  0  0  0  0  0  0  0  0  0  0
    8.7346   12.3248   24.0448 N   0  0  0  0  0  0  0  0  0  0  0  0
    9.6312   11.5027   23.4736 N   0  0  0  0  0  0  0  0  0  0  0  0
   11.5372   14.3560   22.2475 N   0  0  0  0  0  0  0  0  0  0  0  0
   10.5863   13.8846   24.3142 O   0  0  0  0  0  0  0  0  0  0  0  0
    7.5998    9.2490   24.5998 H   0  0  0  0  0  0  0  0  0  0  0  0
   11.3504   16.0341   18.7582 H   0  0  0  0  0  0  0  0  0  0  0  0
   12.6431   16.4209   19.8935 H   0  0  0  0  0  0  0  0  0  0  0  0
   10.5261   17.2630   20.7894 H   0  0  0  0  0  0  0  0  0  0  0  0
    9.7538   15.6904   20.5901 H   0  0  0  0  0  0  0  0  0  0  0  0
   11.2499   13.7160   19.5595 H   0  0  0  0  0  0  0  0  0  0  0  0
   12.9175   14.1079   19.1417 H   0  0  0  0  0  0  0  0  0  0  0  0
   12.0634   16.3466   22.5008 H   0  0  0  0  0  0  0  0  0  0  0  0
   10.3904   15.9960   22.9426 H   0  0  0  0  0  0  0  0  0  0  0  0
   12.7624   12.8857   21.3048 H   0  0  0  0  0  0  0  0  0  0  0  0
   13.4784   14.4787   21.5256 H   0  0  0  0  0  0  0  0  0  0  0  0
    6.8699   12.1201   26.3514 H   0  0  0  0  0  0  0  0  0  0  0  0
    6.3513   13.0025   24.8940 H   0  0  0  0  0  0  0  0  0  0  0  0
    5.7763   11.3591   25.1695 H   0  0  0  0  0  0  0  0  0  0  0  0
    9.8687    8.8468   22.0225 H   0  0  0  0  0  0  0  0  0  0  0  0
   11.2372    9.3814   23.0288 H   0  0  0  0  0  0  0  0  0  0  0  0
   10.1104    8.1795   23.6560 H   0  0  0  0  0  0  0  0  0  0  0  0
   11.6787   11.5194   23.0925 H   0  0  0  0  0  0  0  0  0  0  0  0
   10.6454   12.0130   21.7274 H   0  0  0  0  0  0  0  0  0  0  0  0
  1  2  1  0  0  0  0
  1  3  2  0  0  0  0
  2 10  1  0  0  0  0
  2 13  2  0  0  0  0
  3 11  1  0  0  0  0
  3 14  1  0  0  0  0
  4 12  1  0  0  0  0
  4 15  1  0  0  0  0
  4 16  2  0  0  0  0
  5  6  1  0  0  0  0
  5  7  1  0  0  0  0
  6  8  1  0  0  0  0
  7  9  1  0  0  0  0
  8 15  1  0  0  0  0
  9 15  1  0  0  0  0
 12 14  1  0  0  0  0
 13 14  1  0  0  0  0
  1 17  1  0  0  0  0
  5 18  1  0  0  0  0
  5 19  1  0  0  0  0
  6 20  1  0  0  0  0
  6 21  1  0  0  0  0
  7 22  1  0  0  0  0
  7 23  1  0  0  0  0
  8 24  1  0  0  0  0
  8 25  1  0  0  0  0
  9 26  1  0  0  0  0
  9 27  1  0  0  0  0
 10 28  1  0  0  0  0
 10 29  1  0  0  0  0
 10 30  1  0  0  0  0
 11 31  1  0  0  0  0
 11 32  1  0  0  0  0
 11 33  1  0  0  0  0
 12 34  1  0  0  0  0
 12 35  1  0  0  0  0
M  END
> <Catalog ID>
Z168233872

> <PlateID>
1337959-R-12

> <Well>
B07

> <MW (desalted)>
221.299

> <CLogP>
1.246

> <HBD>
0

> <TPSA>
38.130

> <RotBonds>
2

> <ROCS_ShapeQuery>
A71EV2A-x0451_0A_A71EV2A-x0310_0A_A71EV2A-x0416_0A_peptide

> <ROCS_TanimotoCombo>
0.405 

> <ROCS_ShapeTanimoto>
0.300 

> <ROCS_ColorTanimoto>
0.105 

> <ROCS_RefTversky>
0.265 

> <ROCS_RefColorTversky>
0.112 

> <ROCS_RefTverskyCombo>
0.377 

> <ROCS_FitTversky>
1.777 

> <ROCS_FitColorTversky>
0.631 

> <ROCS_FitTverskyCombo>
2.408 

> <ROCS_ColorScore>
-3.400

> <ROCS_Overlap>
1837.588

> <ROCS_Rank>
394                 

$$$$
untitled-dbase-918_17
  -OEChem-11112309163D

 31 32  0     0  0  0  0  0  0999 V2000
    9.1638    8.2262   23.8362 C   0  0  0  0  0  0  0  0  0  0  0  0
    7.3322   11.4495   24.1718 C   0  0  0  0  0  0  0  0  0  0  0  0
    7.5922   10.0810   24.0996 C   0  0  0  0  0  0  0  0  0  0  0  0
    8.3779   12.3652   24.0545 C   0  0  0  0  0  0  0  0  0  0  0  0
    9.9436   10.5439   23.7931 C   0  0  0  0  0  0  0  0  0  0  0  0
    8.8979    9.6282   23.9103 C   0  0  0  0  0  0  0  0  0  0  0  0
    9.6835   11.9125   23.8652 C   0  0  0  0  0  0  0  0  0  0  0  0
   11.9135   15.4898   20.0659 C   0  0  0  0  0  0  0  0  0  0  0  0
   11.1687   14.4618   19.2116 C   0  0  0  0  0  0  0  0  0  0  0  0
   11.0574   15.6977   21.3139 C   0  0  0  0  0  0  0  0  0  0  0  0
    9.9044   14.1049   19.9913 C   0  0  0  0  0  0  0  0  0  0  0  0
   10.2401   14.4151   21.4481 C   0  0  0  0  0  0  0  0  0  0  0  0
    9.3798    7.0875   23.7759 N   0  0  0  0  0  0  0  0  0  0  0  0
   11.0441   13.3456   22.0353 N   0  0  0  0  0  0  0  0  0  0  0  0
   10.6103   14.2948   24.3901 O   0  0  0  0  0  0  0  0  0  0  0  0
   12.2213   12.3841   24.1108 O   0  0  0  0  0  0  0  0  0  0  0  0
   11.0080   13.0736   23.7160 S   0  0  0  0  0  0  0  0  0  0  0  0
    6.3154   11.8020   24.3194 H   0  0  0  0  0  0  0  0  0  0  0  0
    6.7663    9.3795   24.1925 H   0  0  0  0  0  0  0  0  0  0  0  0
    8.1638   13.4288   24.1118 H   0  0  0  0  0  0  0  0  0  0  0  0
   10.9635   10.1948   23.6451 H   0  0  0  0  0  0  0  0  0  0  0  0
   12.9204   15.1498   20.3267 H   0  0  0  0  0  0  0  0  0  0  0  0
   12.0154   16.4305   19.5132 H   0  0  0  0  0  0  0  0  0  0  0  0
   10.9068   14.9031   18.2434 H   0  0  0  0  0  0  0  0  0  0  0  0
   11.7783   13.5746   19.0154 H   0  0  0  0  0  0  0  0  0  0  0  0
   11.7069   15.8476   22.1915 H   0  0  0  0  0  0  0  0  0  0  0  0
   10.4197   16.5898   21.2337 H   0  0  0  0  0  0  0  0  0  0  0  0
    9.0285   14.6679   19.6380 H   0  0  0  0  0  0  0  0  0  0  0  0
    9.6712   13.0361   19.8585 H   0  0  0  0  0  0  0  0  0  0  0  0
    9.3388   14.5812   22.0353 H   0  0  0  0  0  0  0  0  0  0  0  0
   11.2758   12.5656   21.4105 H   0  0  0  0  0  0  0  0  0  0  0  0
  1  6  1  0  0  0  0
  1 13  3  0  0  0  0
  2  3  2  0  0  0  0
  2  4  1  0  0  0  0
  3  6  1  0  0  0  0
  4  7  2  0  0  0  0
  5  6  2  0  0  0  0
  5  7  1  0  0  0  0
  7 17  1  0  0  0  0
  8  9  1  0  0  0  0
  8 10  1  0  0  0  0
  9 11  1  0  0  0  0
 10 12  1  0  0  0  0
 11 12  1  0  0  0  0
 12 14  1  0  0  0  0
 14 17  1  0  0  0  0
 15 17  2  0  0  0  0
 16 17  2  0  0  0  0
  2 18  1  0  0  0  0
  3 19  1  0  0  0  0
  4 20  1  0  0  0  0
  5 21  1  0  0  0  0
  8 22  1  0  0  0  0
  8 23  1  0  0  0  0
  9 24  1  0  0  0  0
  9 25  1  0  0  0  0
 10 26  1  0  0  0  0
 10 27  1  0  0  0  0
 11 28  1  0  0  0  0
 11 29  1  0  0  0  0
 12 30  1  0  0  0  0
 14 31  1  0  0  0  0
M  END
> <Catalog ID>
Z45537442

> <PlateID>
1337959-R-12

> <Well>
E02

> <MW (desalted)>
250.317

> <CLogP>
2.528

> <HBD>
1

> <TPSA>
69.960

> <RotBonds>
2

> <ROCS_ShapeQuery>
A71EV2A-x0451_0A_A71EV2A-x0310_0A_A71EV2A-x0416_0A_peptide

> <ROCS_TanimotoCombo>
0.405 

> <ROCS_ShapeTanimoto>
0.275 

> <ROCS_ColorTanimoto>
0.130 

> <ROCS_RefTversky>
0.249 

> <ROCS_RefColorTversky>
0.142 

> <ROCS_RefTverskyCombo>
0.391 

> <ROCS_FitTversky>
1.644 

> <ROCS_FitColorTversky>
0.594 

> <ROCS_FitTverskyCombo>
2.238 

> <ROCS_ColorScore>
-4.328

> <ROCS_Overlap>
1723.526

> <ROCS_Rank>
395                 

$$$$
untitled-dbase-1082_85
  -OEChem-11112309163D

 32 33  0     1  0  0  0  0  0999 V2000
   10.0408    9.9780   23.7160 C   0  0  0  0  0  0  0  0  0  0  0  0
   10.2679   10.9826   22.7754 C   0  0  0  0  0  0  0  0  0  0  0  0
    8.9388   10.0561   24.5676 C   0  0  0  0  0  0  0  0  0  0  0  0
    8.2911   12.1436   23.5381 C   0  0  0  0  0  0  0  0  0  0  0  0
    9.3931   12.0654   22.6864 C   0  0  0  0  0  0  0  0  0  0  0  0
    8.0640   11.1389   24.4787 C   0  0  0  0  0  0  0  0  0  0  0  0
   11.5161   14.7110   21.1804 C   0  0  0  0  0  0  0  0  0  0  0  0
   11.0437   14.2558   23.3911 C   0  0  0  0  0  0  0  0  0  0  0  0
   12.4550   15.5765   21.9723 C   0  0  0  0  0  0  0  0  0  0  0  0
   12.2662   15.1402   23.4238 C   0  0  2  0  0  0  0  0  0  0  0  0
   13.4611   14.3610   23.9554 C   0  0  0  0  0  0  0  0  0  0  0  0
    6.1349   12.3489   25.1645 C   0  0  0  0  0  0  0  0  0  0  0  0
    9.6380   13.1469   21.6742 C   0  0  0  0  0  0  0  0  0  0  0  0
   10.7206   14.0266   22.0710 N   0  0  0  0  0  0  0  0  0  0  0  0
   11.4815   14.6818   19.9581 O   0  0  0  0  0  0  0  0  0  0  0  0
   10.4865   13.8113   24.3857 O   0  0  0  0  0  0  0  0  0  0  0  0
    6.9884   11.2148   25.3094 O   0  0  0  0  0  0  0  0  0  0  0  0
   10.7216    9.1348   23.7848 H   0  0  0  0  0  0  0  0  0  0  0  0
   11.1293   10.9133   22.1164 H   0  0  0  0  0  0  0  0  0  0  0  0
    8.7675    9.2705   25.2981 H   0  0  0  0  0  0  0  0  0  0  0  0
    7.6076   12.9868   23.4712 H   0  0  0  0  0  0  0  0  0  0  0  0
   13.4809   15.4485   21.6153 H   0  0  0  0  0  0  0  0  0  0  0  0
   12.1556   16.6215   21.8387 H   0  0  0  0  0  0  0  0  0  0  0  0
   12.0693   16.0086   24.0609 H   0  0  0  0  0  0  0  0  0  0  0  0
   13.6564   13.4963   23.3204 H   0  0  0  0  0  0  0  0  0  0  0  0
   13.2608   14.0153   24.9700 H   0  0  0  0  0  0  0  0  0  0  0  0
   14.3469   14.9970   23.9678 H   0  0  0  0  0  0  0  0  0  0  0  0
    5.3173   12.2853   25.8867 H   0  0  0  0  0  0  0  0  0  0  0  0
    5.7355   12.3779   24.1476 H   0  0  0  0  0  0  0  0  0  0  0  0
    6.7142   13.2560   25.3523 H   0  0  0  0  0  0  0  0  0  0  0  0
    9.8945   12.7141   20.7011 H   0  0  0  0  0  0  0  0  0  0  0  0
    8.7428   13.7612   21.5311 H   0  0  0  0  0  0  0  0  0  0  0  0
  1  2  2  0  0  0  0
  1  3  1  0  0  0  0
  2  5  1  0  0  0  0
  3  6  2  0  0  0  0
  4  5  2  0  0  0  0
  4  6  1  0  0  0  0
  5 13  1  0  0  0  0
  6 17  1  0  0  0  0
  7  9  1  0  0  0  0
  7 14  1  0  0  0  0
  7 15  2  0  0  0  0
  8 10  1  0  0  0  0
  8 14  1  0  0  0  0
  8 16  2  0  0  0  0
  9 10  1  0  0  0  0
 10 11  1  0  0  0  0
 12 17  1  0  0  0  0
 13 14  1  0  0  0  0
  1 18  1  0  0  0  0
  2 19  1  0  0  0  0
  3 20  1  0  0  0  0
  4 21  1  0  0  0  0
  9 22  1  0  0  0  0
  9 23  1  0  0  0  0
 10 24  1  0  0  0  0
 11 25  1  0  0  0  0
 11 26  1  0  0  0  0
 11 27  1  0  0  0  0
 12 28  1  0  0  0  0
 12 29  1  0  0  0  0
 12 30  1  0  0  0  0
 13 31  1  0  0  0  0
 13 32  1  0  0  0  0
M  END
> <Catalog ID>
Z1615264855

> <PlateID>
1337959-R-14

> <Well>
E08

> <MW (desalted)>
233.263

> <CLogP>
1.410

> <HBD>
0

> <TPSA>
46.610

> <RotBonds>
3

> <ROCS_ShapeQuery>
A71EV2A-x0451_0A_A71EV2A-x0310_0A_A71EV2A-x0416_0A_peptide

> <ROCS_TanimotoCombo>
0.405 

> <ROCS_ShapeTanimoto>
0.286 

> <ROCS_ColorTanimoto>
0.120 

> <ROCS_RefTversky>
0.257 

> <ROCS_RefColorTversky>
0.129 

> <ROCS_RefTverskyCombo>
0.386 

> <ROCS_FitTversky>
1.642 

> <ROCS_FitColorTversky>
0.619 

> <ROCS_FitTverskyCombo>
2.260 

> <ROCS_ColorScore>
-3.919

> <ROCS_Overlap>
1781.069

> <ROCS_Rank>
396                 

$$$$
untitled-dbase-555_15
  -OEChem-11112309163D

 27 28  0     0  0  0  0  0  0999 V2000
    9.7526    9.0714   22.6583 C   0  0  0  0  0  0  0  0  0  0  0  0
   12.7542   15.3558   20.4029 C   0  0  0  0  0  0  0  0  0  0  0  0
   13.7735   15.5827   21.3276 C   0  0  0  0  0  0  0  0  0  0  0  0
   11.5730   14.7328   20.8058 C   0  0  0  0  0  0  0  0  0  0  0  0
   13.6118   15.1865   22.6552 C   0  0  0  0  0  0  0  0  0  0  0  0
    9.1240   10.1041   23.3998 C   0  0  0  0  0  0  0  0  0  0  0  0
   11.4112   14.3366   22.1334 C   0  0  0  0  0  0  0  0  0  0  0  0
   12.4306   14.5635   23.0581 C   0  0  0  0  0  0  0  0  0  0  0  0
    9.3850   11.4518   23.3879 C   0  0  0  0  0  0  0  0  0  0  0  0
    7.7945   11.0158   24.7505 C   0  0  0  0  0  0  0  0  0  0  0  0
    6.7627   11.3661   25.7388 C   0  0  0  0  0  0  0  0  0  0  0  0
   10.1315   13.6704   22.5243 C   0  0  0  0  0  0  0  0  0  0  0  0
   10.2669    8.2264   22.0515 N   0  0  0  0  0  0  0  0  0  0  0  0
    8.1041    9.8308   24.2750 N   0  0  0  0  0  0  0  0  0  0  0  0
   10.2888   12.2503   22.7009 N   0  0  0  0  0  0  0  0  0  0  0  0
    8.5283   12.0522   24.2604 O   0  0  0  0  0  0  0  0  0  0  0  0
   12.2665   14.0874   24.7090 Cl  0  0  0  0  0  0  0  0  0  0  0  0
   12.8800   15.6652   19.3693 H   0  0  0  0  0  0  0  0  0  0  0  0
   14.6926   16.0689   21.0137 H   0  0  0  0  0  0  0  0  0  0  0  0
   10.7848   14.5611   20.0773 H   0  0  0  0  0  0  0  0  0  0  0  0
   14.4152   15.3717   23.3636 H   0  0  0  0  0  0  0  0  0  0  0  0
    7.1639   11.3363   26.7670 H   0  0  0  0  0  0  0  0  0  0  0  0
    6.3510   12.3785   25.5735 H   0  0  0  0  0  0  0  0  0  0  0  0
    5.8968   10.6800   25.7013 H   0  0  0  0  0  0  0  0  0  0  0  0
    9.7463   14.0819   23.4664 H   0  0  0  0  0  0  0  0  0  0  0  0
    9.3530   13.8243   21.7662 H   0  0  0  0  0  0  0  0  0  0  0  0
   11.1076   11.8029   22.2993 H   0  0  0  0  0  0  0  0  0  0  0  0
  1  6  1  0  0  0  0
  1 13  3  0  0  0  0
  2  3  2  0  0  0  0
  2  4  1  0  0  0  0
  3  5  1  0  0  0  0
  4  7  2  0  0  0  0
  5  8  2  0  0  0  0
  6  9  2  0  0  0  0
  6 14  1  0  0  0  0
  7  8  1  0  0  0  0
  7 12  1  0  0  0  0
  8 17  1  0  0  0  0
  9 15  1  0  0  0  0
  9 16  1  0  0  0  0
 10 11  1  0  0  0  0
 10 14  2  0  0  0  0
 10 16  1  0  0  0  0
 12 15  1  0  0  0  0
  2 18  1  0  0  0  0
  3 19  1  0  0  0  0
  4 20  1  0  0  0  0
  5 21  1  0  0  0  0
 11 22  1  0  0  0  0
 11 23  1  0  0  0  0
 11 24  1  0  0  0  0
 12 25  1  0  0  0  0
 12 26  1  0  0  0  0
 15 27  1  0  0  0  0
M  END
> <Catalog ID>
Z1213736605

> <PlateID>
1337959-R-07

> <Well>
H07

> <MW (desalted)>
247.680

> <CLogP>
2.659

> <HBD>
1

> <TPSA>
61.850

> <RotBonds>
3

> <ROCS_ShapeQuery>
A71EV2A-x0451_0A_A71EV2A-x0310_0A_A71EV2A-x0416_0A_peptide

> <ROCS_TanimotoCombo>
0.405 

> <ROCS_ShapeTanimoto>
0.295 

> <ROCS_ColorTanimoto>
0.110 

> <ROCS_RefTversky>
0.264 

> <ROCS_RefColorTversky>
0.119 

> <ROCS_RefTverskyCombo>
0.383 

> <ROCS_FitTversky>
1.691 

> <ROCS_FitColorTversky>
0.572 

> <ROCS_FitTverskyCombo>
2.264 

> <ROCS_ColorScore>
-3.625

> <ROCS_Overlap>
1827.974

> <ROCS_Rank>
397                 

$$$$
untitled-dbase-15_61
  -OEChem-11112309163D

 26 26  0     1  0  0  0  0  0999 V2000
    8.5148    9.8197   23.3434 C   0  0  0  0  0  0  0  0  0  0  0  0
    9.6292   10.6108   23.0644 C   0  0  0  0  0  0  0  0  0  0  0  0
    7.5370   10.2785   24.2260 C   0  0  0  0  0  0  0  0  0  0  0  0
    8.7880   12.3197   24.5508 C   0  0  0  0  0  0  0  0  0  0  0  0
    9.7658   11.8608   23.6681 C   0  0  0  0  0  0  0  0  0  0  0  0
    7.6736   11.5285   24.8297 C   0  0  0  0  0  0  0  0  0  0  0  0
   10.9262   14.0543   24.1338 C   0  0  0  0  0  0  0  0  0  0  0  0
   12.3427   12.0912   23.7293 C   0  0  0  0  0  0  0  0  0  0  0  0
   10.9907   12.7308   23.3597 C   0  0  1  0  0  0  0  0  0  0  0  0
    6.6283   12.0188   25.7740 C   0  0  0  0  0  0  0  0  0  0  0  0
   11.0513   13.0363   21.9199 N   0  0  0  0  0  0  0  0  0  0  0  0
   10.3983   15.0757   23.7072 O   0  0  0  0  0  0  0  0  0  0  0  0
   11.4522   13.9865   25.3848 O   0  0  0  0  0  0  0  0  0  0  0  0
    5.5969   11.1412   25.9525 F   0  0  0  0  0  0  0  0  0  0  0  0
    7.1016   12.2720   27.0299 F   0  0  0  0  0  0  0  0  0  0  0  0
    6.0503   13.1834   25.3588 F   0  0  0  0  0  0  0  0  0  0  0  0
    8.4084    8.8463   22.8731 H   0  0  0  0  0  0  0  0  0  0  0  0
   10.3857   10.2452   22.3749 H   0  0  0  0  0  0  0  0  0  0  0  0
    6.6724    9.6551   24.4381 H   0  0  0  0  0  0  0  0  0  0  0  0
    8.8935   13.2946   25.0210 H   0  0  0  0  0  0  0  0  0  0  0  0
   13.1825   12.7553   23.4878 H   0  0  0  0  0  0  0  0  0  0  0  0
   12.5114   11.1483   23.1951 H   0  0  0  0  0  0  0  0  0  0  0  0
   12.4065   11.8879   24.8055 H   0  0  0  0  0  0  0  0  0  0  0  0
   11.1151   12.1769   21.4354 H   0  0  0  0  0  0  0  0  0  0  0  0
   10.2232   13.5220   21.6838 H   0  0  0  0  0  0  0  0  0  0  0  0
   11.3712   14.8153   25.9035 H   0  0  0  0  0  0  0  0  0  0  0  0
  1  2  1  0  0  0  0
  1  3  2  0  0  0  0
  2  5  2  0  0  0  0
  3  6  1  0  0  0  0
  4  5  1  0  0  0  0
  4  6  2  0  0  0  0
  5  9  1  0  0  0  0
  6 10  1  0  0  0  0
  7  9  1  0  0  0  0
  7 12  2  0  0  0  0
  7 13  1  0  0  0  0
  8  9  1  0  0  0  0
  9 11  1  0  0  0  0
 10 14  1  0  0  0  0
 10 15  1  0  0  0  0
 10 16  1  0  0  0  0
  1 17  1  0  0  0  0
  2 18  1  0  0  0  0
  3 19  1  0  0  0  0
  4 20  1  0  0  0  0
  8 21  1  0  0  0  0
  8 22  1  0  0  0  0
  8 23  1  0  0  0  0
 11 24  1  0  0  0  0
 11 25  1  0  0  0  0
 13 26  1  0  0  0  0
M  END
> <Catalog ID>
Z1222331411

> <PlateID>
1337959-R-01

> <Well>
B06

> <MW (desalted)>
233.187

> <CLogP>
-0.446

> <HBD>
2

> <TPSA>
63.320

> <RotBonds>
3

> <ROCS_ShapeQuery>
A71EV2A-x0451_0A_A71EV2A-x0310_0A_A71EV2A-x0416_0A_peptide

> <ROCS_TanimotoCombo>
0.405 

> <ROCS_ShapeTanimoto>
0.285 

> <ROCS_ColorTanimoto>
0.120 

> <ROCS_RefTversky>
0.255 

> <ROCS_RefColorTversky>
0.133 

> <ROCS_RefTverskyCombo>
0.388 

> <ROCS_FitTversky>
1.704 

> <ROCS_FitColorTversky>
0.555 

> <ROCS_FitTverskyCombo>
2.259 

> <ROCS_ColorScore>
-4.047

> <ROCS_Overlap>
1766.607

> <ROCS_Rank>
398                 

$$$$
untitled-dbase-1033_337
  -OEChem-11112309163D

 36 37  0     1  0  0  0  0  0999 V2000
   11.3663   16.3158   22.0020 C   0  0  0  0  0  0  0  0  0  0  0  0
   12.4502   15.6291   22.3864 C   0  0  0  0  0  0  0  0  0  0  0  0
   10.4279   13.2800   23.4634 C   0  0  0  0  0  0  0  0  0  0  0  0
    7.8350   12.1894   25.1923 C   0  0  0  0  0  0  0  0  0  0  0  0
   10.1147   15.6613   21.5035 C   0  0  0  0  0  0  0  0  0  0  0  0
   12.5220   14.1296   22.3895 C   0  0  0  0  0  0  0  0  0  0  0  0
   10.3016   14.1811   21.1529 C   0  0  0  0  0  0  0  0  0  0  0  0
    8.4363    9.4847   23.5988 C   0  0  0  0  0  0  0  0  0  0  0  0
    9.0547   10.0821   22.3418 C   0  0  0  0  0  0  0  0  0  0  0  0
    9.1078   10.0498   24.8479 C   0  0  0  0  0  0  0  0  0  0  0  0
    8.9857   11.6029   22.3721 C   0  0  0  0  0  0  0  0  0  0  0  0
   11.1715   13.4362   22.1674 C   0  0  2  0  0  0  0  0  0  0  0  0
    9.1669   11.5786   24.8667 C   0  0  1  0  0  0  0  0  0  0  0  0
    9.6001   12.1578   23.5844 N   0  0  0  0  0  0  0  0  0  0  0  0
   10.5693   14.1341   24.3427 O   0  0  0  0  0  0  0  0  0  0  0  0
    7.6225   13.3868   25.3122 O   0  0  0  0  0  0  0  0  0  0  0  0
    6.8908   11.2282   25.3397 O   0  0  0  0  0  0  0  0  0  0  0  0
   11.3822   17.4008   22.0483 H   0  0  0  0  0  0  0  0  0  0  0  0
   13.3297   16.1725   22.7201 H   0  0  0  0  0  0  0  0  0  0  0  0
    9.3385   15.7679   22.2706 H   0  0  0  0  0  0  0  0  0  0  0  0
    9.7570   16.1930   20.6142 H   0  0  0  0  0  0  0  0  0  0  0  0
   13.2098   13.8305   21.5889 H   0  0  0  0  0  0  0  0  0  0  0  0
   12.9739   13.7998   23.3324 H   0  0  0  0  0  0  0  0  0  0  0  0
    9.3185   13.7057   21.0544 H   0  0  0  0  0  0  0  0  0  0  0  0
   10.7820   14.1099   20.1681 H   0  0  0  0  0  0  0  0  0  0  0  0
    7.3620    9.7034   23.6230 H   0  0  0  0  0  0  0  0  0  0  0  0
    8.5401    8.3940   23.5836 H   0  0  0  0  0  0  0  0  0  0  0  0
   10.0995    9.7606   22.2507 H   0  0  0  0  0  0  0  0  0  0  0  0
    8.5255    9.7073   21.4586 H   0  0  0  0  0  0  0  0  0  0  0  0
    8.5858    9.6749   25.7366 H   0  0  0  0  0  0  0  0  0  0  0  0
   10.1330    9.6608   24.8987 H   0  0  0  0  0  0  0  0  0  0  0  0
    9.4699   12.0061   21.4767 H   0  0  0  0  0  0  0  0  0  0  0  0
    7.9425   11.9397   22.3506 H   0  0  0  0  0  0  0  0  0  0  0  0
   11.3497   12.4157   21.8088 H   0  0  0  0  0  0  0  0  0  0  0  0
    9.8421   11.8814   25.6747 H   0  0  0  0  0  0  0  0  0  0  0  0
    6.0121   11.6076   25.5550 H   0  0  0  0  0  0  0  0  0  0  0  0
  1  2  2  0  0  0  0
  1  5  1  0  0  0  0
  2  6  1  0  0  0  0
  3 12  1  0  0  0  0
  3 14  1  0  0  0  0
  3 15  2  0  0  0  0
  4 13  1  6  0  0  0
  4 16  2  0  0  0  0
  4 17  1  0  0  0  0
  5  7  1  0  0  0  0
  6 12  1  0  0  0  0
  7 12  1  0  0  0  0
  8  9  1  0  0  0  0
  8 10  1  0  0  0  0
  9 11  1  0  0  0  0
 10 13  1  0  0  0  0
 11 14  1  0  0  0  0
 13 14  1  0  0  0  0
  1 18  1  0  0  0  0
  2 19  1  0  0  0  0
  5 20  1  0  0  0  0
  5 21  1  0  0  0  0
  6 22  1  0  0  0  0
  6 23  1  0  0  0  0
  7 24  1  0  0  0  0
  7 25  1  0  0  0  0
  8 26  1  0  0  0  0
  8 27  1  0  0  0  0
  9 28  1  0  0  0  0
  9 29  1  0  0  0  0
 10 30  1  0  0  0  0
 10 31  1  0  0  0  0
 11 32  1  0  0  0  0
 11 33  1  0  0  0  0
 12 34  1  0  0  0  0
 13 35  1  0  0  0  0
 17 36  1  0  0  0  0
M  END
> <Catalog ID>
Z1272729137

> <PlateID>
1337959-R-13

> <Well>
H08

> <MW (desalted)>
237.295

> <CLogP>
1.739

> <HBD>
1

> <TPSA>
57.610

> <RotBonds>
2

> <ROCS_ShapeQuery>
A71EV2A-x0451_0A_A71EV2A-x0310_0A_A71EV2A-x0416_0A_peptide

> <ROCS_TanimotoCombo>
0.405 

> <ROCS_ShapeTanimoto>
0.292 

> <ROCS_ColorTanimoto>
0.113 

> <ROCS_RefTversky>
0.261 

> <ROCS_RefColorTversky>
0.126 

> <ROCS_RefTverskyCombo>
0.387 

> <ROCS_FitTversky>
1.689 

> <ROCS_FitColorTversky>
0.527 

> <ROCS_FitTverskyCombo>
2.216 

> <ROCS_ColorScore>
-3.842

> <ROCS_Overlap>
1806.506

> <ROCS_Rank>
399                 

$$$$
untitled-dbase-1090_601
  -OEChem-11112309163D

 34 35  0     1  0  0  0  0  0999 V2000
    7.6036    9.7211   23.9995 C   0  0  0  0  0  0  0  0  0  0  0  0
    8.8450    9.8897   23.3863 C   0  0  0  0  0  0  0  0  0  0  0  0
    7.0738   10.7385   24.7933 C   0  0  0  0  0  0  0  0  0  0  0  0
    9.0271   12.0930   24.3607 C   0  0  0  0  0  0  0  0  0  0  0  0
    9.5568   11.0756   23.5670 C   0  0  0  0  0  0  0  0  0  0  0  0
    7.7856   11.9244   24.9739 C   0  0  0  0  0  0  0  0  0  0  0  0
   10.8644   11.2520   22.9214 C   0  0  0  0  0  0  0  0  0  0  0  0
   12.5883   14.2990   21.7498 C   0  0  0  0  0  0  0  0  0  0  0  0
   10.3261   13.6329   22.2006 C   0  0  0  0  0  0  0  0  0  0  0  0
   11.2095   14.8658   22.0821 C   0  0  1  0  0  0  0  0  0  0  0  0
   12.6336   12.9579   22.4908 C   0  0  1  0  0  0  0  0  0  0  0  0
   11.7707   16.8602   23.1915 C   0  0  0  0  0  0  0  0  0  0  0  0
   13.2772   13.0767   23.8716 C   0  0  0  0  0  0  0  0  0  0  0  0
   11.2323   12.5462   22.5778 N   0  0  0  0  0  0  0  0  0  0  0  0
   11.5401   10.2419   22.7397 O   0  0  0  0  0  0  0  0  0  0  0  0
   13.6888   11.7879   24.2871 O   0  0  0  0  0  0  0  0  0  0  0  0
   11.2328   15.5516   23.3266 O   0  0  0  0  0  0  0  0  0  0  0  0
    7.1312   13.1796   25.9531 Cl  0  0  0  0  0  0  0  0  0  0  0  0
    7.0494    8.7979   23.8585 H   0  0  0  0  0  0  0  0  0  0  0  0
    9.2474    9.0897   22.7702 H   0  0  0  0  0  0  0  0  0  0  0  0
    6.1053   10.5929   25.2647 H   0  0  0  0  0  0  0  0  0  0  0  0
    9.5844   13.0173   24.4994 H   0  0  0  0  0  0  0  0  0  0  0  0
   12.6544   14.1143   20.6706 H   0  0  0  0  0  0  0  0  0  0  0  0
   13.4026   14.9689   22.0431 H   0  0  0  0  0  0  0  0  0  0  0  0
    9.5323   13.7325   22.9470 H   0  0  0  0  0  0  0  0  0  0  0  0
    9.8883   13.3655   21.2326 H   0  0  0  0  0  0  0  0  0  0  0  0
   10.8545   15.5596   21.3149 H   0  0  0  0  0  0  0  0  0  0  0  0
   13.1897   12.2136   21.9102 H   0  0  0  0  0  0  0  0  0  0  0  0
   11.7731   17.3563   24.1651 H   0  0  0  0  0  0  0  0  0  0  0  0
   11.1678   17.4314   22.4811 H   0  0  0  0  0  0  0  0  0  0  0  0
   12.7956   16.7866   22.8201 H   0  0  0  0  0  0  0  0  0  0  0  0
   12.5545   13.4726   24.5839 H   0  0  0  0  0  0  0  0  0  0  0  0
   14.1442   13.7343   23.8207 H   0  0  0  0  0  0  0  0  0  0  0  0
   12.8930   11.2297   24.3187 H   0  0  0  0  0  0  0  0  0  0  0  0
  1  2  1  0  0  0  0
  1  3  2  0  0  0  0
  2  5  2  0  0  0  0
  3  6  1  0  0  0  0
  4  5  1  0  0  0  0
  4  6  2  0  0  0  0
  5  7  1  0  0  0  0
  6 18  1  0  0  0  0
  7 14  1  0  0  0  0
  7 15  2  0  0  0  0
  8 10  1  0  0  0  0
  8 11  1  0  0  0  0
  9 10  1  0  0  0  0
  9 14  1  0  0  0  0
 10 17  1  1  0  0  0
 11 13  1  1  0  0  0
 11 14  1  0  0  0  0
 12 17  1  0  0  0  0
 13 16  1  0  0  0  0
  1 19  1  0  0  0  0
  2 20  1  0  0  0  0
  3 21  1  0  0  0  0
  4 22  1  0  0  0  0
  8 23  1  0  0  0  0
  8 24  1  0  0  0  0
  9 25  1  0  0  0  0
  9 26  1  0  0  0  0
 10 27  1  0  0  0  0
 11 28  1  0  0  0  0
 12 29  1  0  0  0  0
 12 30  1  0  0  0  0
 12 31  1  0  0  0  0
 13 32  1  0  0  0  0
 13 33  1  0  0  0  0
 16 34  1  0  0  0  0
M  END
> <Catalog ID>
Z2055842473

> <PlateID>
1337959-R-14

> <Well>
F06

> <MW (desalted)>
269.724

> <CLogP>
1.284

> <HBD>
1

> <TPSA>
49.770

> <RotBonds>
3

> <ROCS_ShapeQuery>
A71EV2A-x0451_0A_A71EV2A-x0310_0A_A71EV2A-x0416_0A_peptide

> <ROCS_TanimotoCombo>
0.405 

> <ROCS_ShapeTanimoto>
0.305 

> <ROCS_ColorTanimoto>
0.100 

> <ROCS_RefTversky>
0.271 

> <ROCS_RefColorTversky>
0.112 

> <ROCS_RefTverskyCombo>
0.384 

> <ROCS_FitTversky>
1.694 

> <ROCS_FitColorTversky>
0.469 

> <ROCS_FitTverskyCombo>
2.163 

> <ROCS_ColorScore>
-3.420

> <ROCS_Overlap>
1880.407

> <ROCS_Rank>
400                 

$$$$
untitled-dbase-857_67
  -OEChem-11112309163D

 31 32  0     1  0  0  0  0  0999 V2000
    9.5590   13.6813   19.7241 C   0  0  0  0  0  0  0  0  0  0  0  0
   10.5892   14.2998   19.0157 C   0  0  0  0  0  0  0  0  0  0  0  0
    9.7264   13.3769   21.0751 C   0  0  0  0  0  0  0  0  0  0  0  0
   11.9542   14.3095   21.0092 C   0  0  0  0  0  0  0  0  0  0  0  0
   11.7867   14.6139   19.6583 C   0  0  0  0  0  0  0  0  0  0  0  0
   10.9240   13.6910   21.7176 C   0  0  0  0  0  0  0  0  0  0  0  0
    8.1221   10.8093   24.5446 C   0  0  0  0  0  0  0  0  0  0  0  0
    9.0124   12.0245   24.5036 C   0  0  0  0  0  0  0  0  0  0  0  0
    9.8549    9.5418   23.2689 C   0  0  0  0  0  0  0  0  0  0  0  0
   10.8434   10.6202   23.6578 C   0  0  0  0  0  0  0  0  0  0  0  0
   12.8877   15.2753   18.9001 C   0  0  0  0  0  0  0  0  0  0  0  0
    8.6297    9.6360   24.0344 N   0  0  0  0  0  0  0  0  0  0  0  0
   10.1361   11.9196   23.5468 N   0  0  2  0  0  0  0  0  0  0  0  0
    7.0121   10.8673   25.0781 O   0  0  0  0  0  0  0  0  0  0  0  0
   12.5146   12.9105   23.6239 O   0  0  0  0  0  0  0  0  0  0  0  0
   10.5489   14.3765   24.2023 O   0  0  0  0  0  0  0  0  0  0  0  0
   11.1356   13.3041   23.4271 S   0  0  0  0  0  0  0  0  0  0  0  0
    8.6262   13.4374   19.2241 H   0  0  0  0  0  0  0  0  0  0  0  0
   10.4494   14.5342   17.9637 H   0  0  0  0  0  0  0  0  0  0  0  0
    8.9173   12.8945   21.6169 H   0  0  0  0  0  0  0  0  0  0  0  0
   12.8881   14.5551   21.5089 H   0  0  0  0  0  0  0  0  0  0  0  0
    8.3878   12.8877   24.2463 H   0  0  0  0  0  0  0  0  0  0  0  0
    9.4220   12.1660   25.5102 H   0  0  0  0  0  0  0  0  0  0  0  0
    9.5970    9.6092   22.2078 H   0  0  0  0  0  0  0  0  0  0  0  0
   10.2698    8.5457   23.4589 H   0  0  0  0  0  0  0  0  0  0  0  0
   11.1704   10.4564   24.6899 H   0  0  0  0  0  0  0  0  0  0  0  0
   11.7250   10.6097   23.0070 H   0  0  0  0  0  0  0  0  0  0  0  0
   12.7914   16.3662   18.9606 H   0  0  0  0  0  0  0  0  0  0  0  0
   13.8712   14.9904   19.2959 H   0  0  0  0  0  0  0  0  0  0  0  0
   12.8744   14.9828   17.8420 H   0  0  0  0  0  0  0  0  0  0  0  0
    8.1107    8.7804   24.2061 H   0  0  0  0  0  0  0  0  0  0  0  0
  1  2  1  0  0  0  0
  1  3  2  0  0  0  0
  2  5  2  0  0  0  0
  3  6  1  0  0  0  0
  4  5  1  0  0  0  0
  4  6  2  0  0  0  0
  5 11  1  0  0  0  0
  6 17  1  0  0  0  0
  7  8  1  0  0  0  0
  7 12  1  0  0  0  0
  7 14  2  0  0  0  0
  8 13  1  0  0  0  0
  9 10  1  0  0  0  0
  9 12  1  0  0  0  0
 10 13  1  0  0  0  0
 13 17  1  0  0  0  0
 15 17  2  0  0  0  0
 16 17  2  0  0  0  0
  1 18  1  0  0  0  0
  2 19  1  0  0  0  0
  3 20  1  0  0  0  0
  4 21  1  0  0  0  0
  8 22  1  0  0  0  0
  8 23  1  0  0  0  0
  9 24  1  0  0  0  0
  9 25  1  0  0  0  0
 10 26  1  0  0  0  0
 10 27  1  0  0  0  0
 11 28  1  0  0  0  0
 11 29  1  0  0  0  0
 11 30  1  0  0  0  0
 12 31  1  0  0  0  0
M  END
> <Catalog ID>
Z45462925

> <PlateID>
1337959-R-11

> <Well>
F11

> <MW (desalted)>
254.305

> <CLogP>
1.446

> <HBD>
1

> <TPSA>
66.480

> <RotBonds>
1

> <ROCS_ShapeQuery>
A71EV2A-x0451_0A_A71EV2A-x0310_0A_A71EV2A-x0416_0A_peptide

> <ROCS_TanimotoCombo>
0.405 

> <ROCS_ShapeTanimoto>
0.272 

> <ROCS_ColorTanimoto>
0.133 

> <ROCS_RefTversky>
0.247 

> <ROCS_RefColorTversky>
0.145 

> <ROCS_RefTverskyCombo>
0.392 

> <ROCS_FitTversky>
1.616 

> <ROCS_FitColorTversky>
0.606 

> <ROCS_FitTverskyCombo>
2.221 

> <ROCS_ColorScore>
-4.416

> <ROCS_Overlap>
1709.154

> <ROCS_Rank>
401                 

$$$$
untitled-dbase-956_86
  -OEChem-11112309163D

 28 28  0     0  0  0  0  0  0999 V2000
    9.4521   10.1392   23.6551 C   0  0  0  0  0  0  0  0  0  0  0  0
    8.2671   10.0781   24.4085 C   0  0  0  0  0  0  0  0  0  0  0  0
    9.6499   11.4816   23.4675 C   0  0  0  0  0  0  0  0  0  0  0  0
   10.2841    9.0204   23.1807 C   0  0  0  0  0  0  0  0  0  0  0  0
    7.5682    8.8815   24.9065 C   0  0  0  0  0  0  0  0  0  0  0  0
   10.1218   15.6799   20.2236 C   0  0  0  0  0  0  0  0  0  0  0  0
   10.0931   14.7913   21.4560 C   0  0  0  0  0  0  0  0  0  0  0  0
   11.4917   14.5477   21.9984 C   0  0  0  0  0  0  0  0  0  0  0  0
    7.7680   11.2898   24.6682 N   0  0  0  0  0  0  0  0  0  0  0  0
   10.7414   12.0829   22.7484 N   0  0  0  0  0  0  0  0  0  0  0  0
   10.5101   14.0708   24.3599 O   0  0  0  0  0  0  0  0  0  0  0  0
   12.8270   13.2376   23.8282 O   0  0  0  0  0  0  0  0  0  0  0  0
    8.6514   12.1787   24.0675 O   0  0  0  0  0  0  0  0  0  0  0  0
   11.4572   13.4970   23.4156 S   0  0  0  0  0  0  0  0  0  0  0  0
    9.9606    8.6754   22.1837 H   0  0  0  0  0  0  0  0  0  0  0  0
   11.3512    9.2960   23.1070 H   0  0  0  0  0  0  0  0  0  0  0  0
   10.2431    8.1520   23.8624 H   0  0  0  0  0  0  0  0  0  0  0  0
    7.9277    8.5959   25.9100 H   0  0  0  0  0  0  0  0  0  0  0  0
    6.4763    9.0345   24.9759 H   0  0  0  0  0  0  0  0  0  0  0  0
    7.7089    8.0096   24.2426 H   0  0  0  0  0  0  0  0  0  0  0  0
   10.5934   16.6391   20.4588 H   0  0  0  0  0  0  0  0  0  0  0  0
   10.6912   15.2104   19.4150 H   0  0  0  0  0  0  0  0  0  0  0  0
    9.1086   15.8793   19.8600 H   0  0  0  0  0  0  0  0  0  0  0  0
    9.6183   13.8358   21.2040 H   0  0  0  0  0  0  0  0  0  0  0  0
    9.4696   15.2591   22.2270 H   0  0  0  0  0  0  0  0  0  0  0  0
   12.1275   14.0578   21.2550 H   0  0  0  0  0  0  0  0  0  0  0  0
   11.9675   15.4831   22.3077 H   0  0  0  0  0  0  0  0  0  0  0  0
   11.4059   11.4003   22.3594 H   0  0  0  0  0  0  0  0  0  0  0  0
  1  2  1  0  0  0  0
  1  3  2  0  0  0  0
  1  4  1  0  0  0  0
  2  5  1  0  0  0  0
  2  9  2  0  0  0  0
  3 10  1  0  0  0  0
  3 13  1  0  0  0  0
  6  7  1  0  0  0  0
  7  8  1  0  0  0  0
  8 14  1  0  0  0  0
  9 13  1  0  0  0  0
 10 14  1  0  0  0  0
 11 14  2  0  0  0  0
 12 14  2  0  0  0  0
  4 15  1  0  0  0  0
  4 16  1  0  0  0  0
  4 17  1  0  0  0  0
  5 18  1  0  0  0  0
  5 19  1  0  0  0  0
  5 20  1  0  0  0  0
  6 21  1  0  0  0  0
  6 22  1  0  0  0  0
  6 23  1  0  0  0  0
  7 24  1  0  0  0  0
  7 25  1  0  0  0  0
  8 26  1  0  0  0  0
  8 27  1  0  0  0  0
 10 28  1  0  0  0  0
M  END
> <Catalog ID>
Z1607060571

> <PlateID>
1337959-R-12

> <Well>
H10

> <MW (desalted)>
218.273

> <CLogP>
0.528

> <HBD>
1

> <TPSA>
72.200

> <RotBonds>
3

> <ROCS_ShapeQuery>
A71EV2A-x0451_0A_A71EV2A-x0310_0A_A71EV2A-x0416_0A_peptide

> <ROCS_TanimotoCombo>
0.405 

> <ROCS_ShapeTanimoto>
0.275 

> <ROCS_ColorTanimoto>
0.130 

> <ROCS_RefTversky>
0.244 

> <ROCS_RefColorTversky>
0.142 

> <ROCS_RefTverskyCombo>
0.386 

> <ROCS_FitTversky>
1.853 

> <ROCS_FitColorTversky>
0.594 

> <ROCS_FitTverskyCombo>
2.447 

> <ROCS_ColorScore>
-4.329

> <ROCS_Overlap>
1690.151

> <ROCS_Rank>
402                 

$$$$
untitled-dbase-1135_67
  -OEChem-11112309163D

 28 29  0     1  0  0  0  0  0999 V2000
    9.5652   13.6810   19.7238 C   0  0  0  0  0  0  0  0  0  0  0  0
   10.5958   14.3011   19.0176 C   0  0  0  0  0  0  0  0  0  0  0  0
    9.7312   13.3742   21.0744 C   0  0  0  0  0  0  0  0  0  0  0  0
   11.9588   14.3076   21.0124 C   0  0  0  0  0  0  0  0  0  0  0  0
   11.7926   14.6144   19.6619 C   0  0  0  0  0  0  0  0  0  0  0  0
   10.9280   13.6875   21.7187 C   0  0  0  0  0  0  0  0  0  0  0  0
    8.1205   10.8097   24.5440 C   0  0  0  0  0  0  0  0  0  0  0  0
    9.0118   12.0242   24.5033 C   0  0  0  0  0  0  0  0  0  0  0  0
    9.8539    9.5401   23.2711 C   0  0  0  0  0  0  0  0  0  0  0  0
   10.8428   10.6180   23.6606 C   0  0  0  0  0  0  0  0  0  0  0  0
    8.6278    9.6357   24.0351 N   0  0  0  0  0  0  0  0  0  0  0  0
   10.1366   11.9178   23.5479 N   0  0  2  0  0  0  0  0  0  0  0  0
    7.0099   10.8688   25.0761 O   0  0  0  0  0  0  0  0  0  0  0  0
   12.5157   12.9070   23.6274 O   0  0  0  0  0  0  0  0  0  0  0  0
   10.5504   14.3748   24.2025 O   0  0  0  0  0  0  0  0  0  0  0  0
   12.7823   15.2097   18.9833 F   0  0  0  0  0  0  0  0  0  0  0  0
   11.1373   13.3015   23.4287 S   0  0  0  0  0  0  0  0  0  0  0  0
    8.6336   13.4371   19.2216 H   0  0  0  0  0  0  0  0  0  0  0  0
   10.4667   14.5399   17.9660 H   0  0  0  0  0  0  0  0  0  0  0  0
    8.9213   12.8918   21.6152 H   0  0  0  0  0  0  0  0  0  0  0  0
   12.8958   14.5561   21.5037 H   0  0  0  0  0  0  0  0  0  0  0  0
    8.3882   12.8877   24.2448 H   0  0  0  0  0  0  0  0  0  0  0  0
    9.4203   12.1660   25.5103 H   0  0  0  0  0  0  0  0  0  0  0  0
    9.5973    9.6070   22.2097 H   0  0  0  0  0  0  0  0  0  0  0  0
   10.2678    8.5437   23.4622 H   0  0  0  0  0  0  0  0  0  0  0  0
   11.1684   10.4545   24.6932 H   0  0  0  0  0  0  0  0  0  0  0  0
   11.7251   10.6065   23.0109 H   0  0  0  0  0  0  0  0  0  0  0  0
    8.1080    8.7806   24.2067 H   0  0  0  0  0  0  0  0  0  0  0  0
  1  2  1  0  0  0  0
  1  3  2  0  0  0  0
  2  5  2  0  0  0  0
  3  6  1  0  0  0  0
  4  5  1  0  0  0  0
  4  6  2  0  0  0  0
  5 16  1  0  0  0  0
  6 17  1  0  0  0  0
  7  8  1  0  0  0  0
  7 11  1  0  0  0  0
  7 13  2  0  0  0  0
  8 12  1  0  0  0  0
  9 10  1  0  0  0  0
  9 11  1  0  0  0  0
 10 12  1  0  0  0  0
 12 17  1  0  0  0  0
 14 17  2  0  0  0  0
 15 17  2  0  0  0  0
  1 18  1  0  0  0  0
  2 19  1  0  0  0  0
  3 20  1  0  0  0  0
  4 21  1  0  0  0  0
  8 22  1  0  0  0  0
  8 23  1  0  0  0  0
  9 24  1  0  0  0  0
  9 25  1  0  0  0  0
 10 26  1  0  0  0  0
 10 27  1  0  0  0  0
 11 28  1  0  0  0  0
M  END
> <Catalog ID>
Z45462915

> <PlateID>
1337959-R-15

> <Well>
B11

> <MW (desalted)>
258.269

> <CLogP>
1.090

> <HBD>
1

> <TPSA>
66.480

> <RotBonds>
1

> <ROCS_ShapeQuery>
A71EV2A-x0451_0A_A71EV2A-x0310_0A_A71EV2A-x0416_0A_peptide

> <ROCS_TanimotoCombo>
0.405 

> <ROCS_ShapeTanimoto>
0.272 

> <ROCS_ColorTanimoto>
0.133 

> <ROCS_RefTversky>
0.247 

> <ROCS_RefColorTversky>
0.145 

> <ROCS_RefTverskyCombo>
0.392 

> <ROCS_FitTversky>
1.609 

> <ROCS_FitColorTversky>
0.606 

> <ROCS_FitTverskyCombo>
2.215 

> <ROCS_ColorScore>
-4.416

> <ROCS_Overlap>
1709.680

> <ROCS_Rank>
403                 

$$$$
untitled-dbase-924_42
  -OEChem-11112309163D

 34 35  0     1  0  0  0  0  0999 V2000
    6.8585   11.0887   25.6480 C   0  0  0  0  0  0  0  0  0  0  0  0
    7.2623   12.2582   25.0040 C   0  0  0  0  0  0  0  0  0  0  0  0
    7.4298    9.8658   25.2961 C   0  0  0  0  0  0  0  0  0  0  0  0
    8.2373   12.2049   24.0080 C   0  0  0  0  0  0  0  0  0  0  0  0
    8.4049    9.8125   24.3001 C   0  0  0  0  0  0  0  0  0  0  0  0
    8.8087   10.9820   23.6560 C   0  0  0  0  0  0  0  0  0  0  0  0
   11.0689   13.3879   23.5067 C   0  0  0  0  0  0  0  0  0  0  0  0
   11.0486    8.7877   22.3759 C   0  0  0  0  0  0  0  0  0  0  0  0
    9.9047    9.6074   21.7789 C   0  0  0  0  0  0  0  0  0  0  0  0
   11.7215    9.6980   23.3931 C   0  0  0  0  0  0  0  0  0  0  0  0
    9.8731   10.9231   22.5686 C   0  0  2  0  0  0  0  0  0  0  0  0
   10.6645   14.6264   21.3815 C   0  0  0  0  0  0  0  0  0  0  0  0
   11.5699   12.0530   23.9956 C   0  0  0  0  0  0  0  0  0  0  0  0
   11.2734   11.0308   23.0092 N   0  0  1  0  0  0  0  0  0  0  0  0
   11.0930   13.4612   22.1213 N   0  0  0  0  0  0  0  0  0  0  0  0
   10.6894   14.2833   24.2569 O   0  0  0  0  0  0  0  0  0  0  0  0
    6.1002   11.1306   26.4244 H   0  0  0  0  0  0  0  0  0  0  0  0
    6.8183   13.2107   25.2786 H   0  0  0  0  0  0  0  0  0  0  0  0
    7.1165    8.9552   25.7980 H   0  0  0  0  0  0  0  0  0  0  0  0
    8.5456   13.1212   23.5114 H   0  0  0  0  0  0  0  0  0  0  0  0
    8.8444    8.8553   24.0324 H   0  0  0  0  0  0  0  0  0  0  0  0
   10.6413    7.8920   22.8762 H   0  0  0  0  0  0  0  0  0  0  0  0
   11.7499    8.4359   21.6028 H   0  0  0  0  0  0  0  0  0  0  0  0
   10.1278    9.8167   20.7225 H   0  0  0  0  0  0  0  0  0  0  0  0
    8.9661    9.0366   21.8086 H   0  0  0  0  0  0  0  0  0  0  0  0
   11.4216    9.4385   24.4201 H   0  0  0  0  0  0  0  0  0  0  0  0
   12.8179    9.5942   23.3210 H   0  0  0  0  0  0  0  0  0  0  0  0
    9.6414   11.7426   21.8247 H   0  0  0  0  0  0  0  0  0  0  0  0
    9.5909   14.5443   21.1567 H   0  0  0  0  0  0  0  0  0  0  0  0
   10.8451   15.5294   21.9831 H   0  0  0  0  0  0  0  0  0  0  0  0
   11.2318   14.6926   20.4413 H   0  0  0  0  0  0  0  0  0  0  0  0
   12.6517   12.1000   24.1515 H   0  0  0  0  0  0  0  0  0  0  0  0
   11.0789   11.7953   24.9386 H   0  0  0  0  0  0  0  0  0  0  0  0
   11.4286   12.6556   21.6012 H   0  0  0  0  0  0  0  0  0  0  0  0
  1  2  2  0  0  0  0
  1  3  1  0  0  0  0
  2  4  1  0  0  0  0
  3  5  2  0  0  0  0
  4  6  2  0  0  0  0
  5  6  1  0  0  0  0
  6 11  1  0  0  0  0
  7 13  1  0  0  0  0
  7 15  1  0  0  0  0
  7 16  2  0  0  0  0
  8  9  1  0  0  0  0
  8 10  1  0  0  0  0
  9 11  1  0  0  0  0
 10 14  1  0  0  0  0
 11 14  1  0  0  0  0
 12 15  1  0  0  0  0
 13 14  1  0  0  0  0
  1 17  1  0  0  0  0
  2 18  1  0  0  0  0
  3 19  1  0  0  0  0
  4 20  1  0  0  0  0
  5 21  1  0  0  0  0
  8 22  1  0  0  0  0
  8 23  1  0  0  0  0
  9 24  1  0  0  0  0
  9 25  1  0  0  0  0
 10 26  1  0  0  0  0
 10 27  1  0  0  0  0
 11 28  1  0  0  0  0
 12 29  1  0  0  0  0
 12 30  1  0  0  0  0
 12 31  1  0  0  0  0
 13 32  1  0  0  0  0
 13 33  1  0  0  0  0
 15 34  1  0  0  0  0
M  END
> <Catalog ID>
Z231726790

> <PlateID>
1337959-R-12

> <Well>
E08

> <MW (desalted)>
218.295

> <CLogP>
1.650

> <HBD>
1

> <TPSA>
32.340

> <RotBonds>
3

> <ROCS_ShapeQuery>
A71EV2A-x0451_0A_A71EV2A-x0310_0A_A71EV2A-x0416_0A_peptide

> <ROCS_TanimotoCombo>
0.404 

> <ROCS_ShapeTanimoto>
0.284 

> <ROCS_ColorTanimoto>
0.121 

> <ROCS_RefTversky>
0.254 

> <ROCS_RefColorTversky>
0.130 

> <ROCS_RefTverskyCombo>
0.384 

> <ROCS_FitTversky>
1.713 

> <ROCS_FitColorTversky>
0.623 

> <ROCS_FitTverskyCombo>
2.336 

> <ROCS_ColorScore>
-3.950

> <ROCS_Overlap>
1758.618

> <ROCS_Rank>
404                 

$$$$
untitled-dbase-392_131
  -OEChem-11112309163D

 32 33  0     1  0  0  0  0  0999 V2000
    7.4148   11.7035   25.1912 C   0  0  0  0  0  0  0  0  0  0  0  0
    8.4900   12.4109   24.6651 C   0  0  0  0  0  0  0  0  0  0  0  0
    7.2767   10.3722   24.8329 C   0  0  0  0  0  0  0  0  0  0  0  0
    9.1557   10.4399   23.5127 C   0  0  0  0  0  0  0  0  0  0  0  0
    9.3817   11.7744   23.8089 C   0  0  0  0  0  0  0  0  0  0  0  0
   11.4672   14.7107   23.2498 C   0  0  0  0  0  0  0  0  0  0  0  0
   12.5548   13.7782   23.7239 C   0  0  0  0  0  0  0  0  0  0  0  0
   10.5611   12.5159   23.2209 C   0  0  2  0  0  0  0  0  0  0  0  0
   11.8028   12.5073   24.1279 C   0  0  1  0  0  0  0  0  0  0  0  0
    9.2510   14.2609   20.8401 C   0  0  0  0  0  0  0  0  0  0  0  0
   12.6529   11.2541   23.9680 C   0  0  0  0  0  0  0  0  0  0  0  0
    9.1519   14.4439   22.3164 C   0  0  0  0  0  0  0  0  0  0  0  0
    8.1225    9.7199   24.0042 N   0  0  0  0  0  0  0  0  0  0  0  0
   10.3359   13.9378   22.9876 N   0  0  0  0  0  0  0  0  0  0  0  0
   11.6137   15.9134   23.0859 O   0  0  0  0  0  0  0  0  0  0  0  0
   13.9760   11.5473   24.3818 O   0  0  0  0  0  0  0  0  0  0  0  0
    6.7073   12.1792   25.8608 H   0  0  0  0  0  0  0  0  0  0  0  0
    8.6252   13.4567   24.9277 H   0  0  0  0  0  0  0  0  0  0  0  0
    6.4544    9.7771   25.2162 H   0  0  0  0  0  0  0  0  0  0  0  0
    9.8178    9.8905   22.8506 H   0  0  0  0  0  0  0  0  0  0  0  0
   13.2487   13.6056   22.8946 H   0  0  0  0  0  0  0  0  0  0  0  0
   13.0919   14.2139   24.5709 H   0  0  0  0  0  0  0  0  0  0  0  0
   10.7904   12.0680   22.2273 H   0  0  0  0  0  0  0  0  0  0  0  0
   11.5050   12.6001   25.1814 H   0  0  0  0  0  0  0  0  0  0  0  0
    9.3596   13.1909   20.6092 H   0  0  0  0  0  0  0  0  0  0  0  0
    8.3400   14.6487   20.3607 H   0  0  0  0  0  0  0  0  0  0  0  0
   10.1264   14.8085   20.4608 H   0  0  0  0  0  0  0  0  0  0  0  0
   12.6657   10.9403   22.9231 H   0  0  0  0  0  0  0  0  0  0  0  0
   12.2543   10.4486   24.5866 H   0  0  0  0  0  0  0  0  0  0  0  0
    9.0436   15.5158   22.5388 H   0  0  0  0  0  0  0  0  0  0  0  0
    8.2696   13.9016   22.6870 H   0  0  0  0  0  0  0  0  0  0  0  0
   14.3002   12.2644   23.8110 H   0  0  0  0  0  0  0  0  0  0  0  0
  1  2  1  0  0  0  0
  1  3  2  0  0  0  0
  2  5  2  0  0  0  0
  3 13  1  0  0  0  0
  4  5  1  0  0  0  0
  4 13  2  0  0  0  0
  5  8  1  6  0  0  0
  6  7  1  0  0  0  0
  6 14  1  0  0  0  0
  6 15  2  0  0  0  0
  7  9  1  0  0  0  0
  8  9  1  0  0  0  0
  8 14  1  0  0  0  0
  9 11  1  1  0  0  0
 10 12  1  0  0  0  0
 11 16  1  0  0  0  0
 12 14  1  0  0  0  0
  1 17  1  0  0  0  0
  2 18  1  0  0  0  0
  3 19  1  0  0  0  0
  4 20  1  0  0  0  0
  7 21  1  0  0  0  0
  7 22  1  0  0  0  0
  8 23  1  0  0  0  0
  9 24  1  0  0  0  0
 10 25  1  0  0  0  0
 10 26  1  0  0  0  0
 10 27  1  0  0  0  0
 11 28  1  0  0  0  0
 11 29  1  0  0  0  0
 12 30  1  0  0  0  0
 12 31  1  0  0  0  0
 16 32  1  0  0  0  0
M  END
> <Catalog ID>
Z2236049677

> <PlateID>
1337959-R-05

> <Well>
H04

> <MW (desalted)>
220.268

> <CLogP>
-0.600

> <HBD>
1

> <TPSA>
53.430

> <RotBonds>
3

> <ROCS_ShapeQuery>
A71EV2A-x0451_0A_A71EV2A-x0310_0A_A71EV2A-x0416_0A_peptide

> <ROCS_TanimotoCombo>
0.404 

> <ROCS_ShapeTanimoto>
0.276 

> <ROCS_ColorTanimoto>
0.128 

> <ROCS_RefTversky>
0.249 

> <ROCS_RefColorTversky>
0.141 

> <ROCS_RefTverskyCombo>
0.389 

> <ROCS_FitTversky>
1.669 

> <ROCS_FitColorTversky>
0.588 

> <ROCS_FitTverskyCombo>
2.257 

> <ROCS_ColorScore>
-4.282

> <ROCS_Overlap>
1722.454

> <ROCS_Rank>
405                 

$$$$
untitled-dbase-1058_77
  -OEChem-11112309163D

 36 37  0     1  0  0  0  0  0999 V2000
    9.3796    9.7994   23.0231 C   0  0  0  0  0  0  0  0  0  0  0  0
   10.1581   10.9375   22.8442 C   0  0  0  0  0  0  0  0  0  0  0  0
    8.2669    9.8488   23.8554 C   0  0  0  0  0  0  0  0  0  0  0  0
    9.7843   12.0909   23.5148 C   0  0  0  0  0  0  0  0  0  0  0  0
    7.9779   11.0509   24.4809 C   0  0  0  0  0  0  0  0  0  0  0  0
   10.5680   13.3230   23.3605 C   0  0  0  0  0  0  0  0  0  0  0  0
   12.3417   14.6424   19.6887 C   0  0  0  0  0  0  0  0  0  0  0  0
   10.9232   14.0895   19.7415 C   0  0  0  0  0  0  0  0  0  0  0  0
   12.7421   15.1934   21.0531 C   0  0  0  0  0  0  0  0  0  0  0  0
   10.7696   13.0441   20.8409 C   0  0  0  0  0  0  0  0  0  0  0  0
   12.5722   14.1650   22.1790 C   0  0  2  0  0  0  0  0  0  0  0  0
   13.5282   12.1505   23.3086 C   0  0  0  0  0  0  0  0  0  0  0  0
   13.6711   13.0988   22.1655 C   0  0  0  0  0  0  0  0  0  0  0  0
    8.7104   12.1773   24.3314 N   0  0  0  0  0  0  0  0  0  0  0  0
   11.2369   13.5383   22.1473 N   0  0  0  0  0  0  0  0  0  0  0  0
    6.8410   11.0855   25.3259 N   0  0  0  0  0  0  0  0  0  0  0  0
   10.5833   14.0786   24.3313 O   0  0  0  0  0  0  0  0  0  0  0  0
    9.6398    8.8753   22.5158 H   0  0  0  0  0  0  0  0  0  0  0  0
   11.0280   10.9106   22.1964 H   0  0  0  0  0  0  0  0  0  0  0  0
    7.6532    8.9657   24.0003 H   0  0  0  0  0  0  0  0  0  0  0  0
   13.0387   13.8561   19.3769 H   0  0  0  0  0  0  0  0  0  0  0  0
   12.4010   15.4375   18.9370 H   0  0  0  0  0  0  0  0  0  0  0  0
   10.2138   14.9084   19.9144 H   0  0  0  0  0  0  0  0  0  0  0  0
   10.6667   13.6449   18.7733 H   0  0  0  0  0  0  0  0  0  0  0  0
   13.7783   15.5498   21.0165 H   0  0  0  0  0  0  0  0  0  0  0  0
   12.1201   16.0697   21.2780 H   0  0  0  0  0  0  0  0  0  0  0  0
    9.7237   12.7294   20.8882 H   0  0  0  0  0  0  0  0  0  0  0  0
   11.3602   12.1518   20.6033 H   0  0  0  0  0  0  0  0  0  0  0  0
   12.6734   14.7046   23.1285 H   0  0  0  0  0  0  0  0  0  0  0  0
   13.5800   12.7060   24.2524 H   0  0  0  0  0  0  0  0  0  0  0  0
   14.3344   11.4092   23.3063 H   0  0  0  0  0  0  0  0  0  0  0  0
   12.5633   11.6339   23.2709 H   0  0  0  0  0  0  0  0  0  0  0  0
   13.6203   12.5512   21.2223 H   0  0  0  0  0  0  0  0  0  0  0  0
   14.6433   13.5930   22.2146 H   0  0  0  0  0  0  0  0  0  0  0  0
    6.6375   11.9241   25.8249 H   0  0  0  0  0  0  0  0  0  0  0  0
    6.3266   10.2448   25.4749 H   0  0  0  0  0  0  0  0  0  0  0  0
  1  2  1  0  0  0  0
  1  3  2  0  0  0  0
  2  4  2  0  0  0  0
  3  5  1  0  0  0  0
  4  6  1  0  0  0  0
  4 14  1  0  0  0  0
  5 14  2  0  0  0  0
  5 16  1  0  0  0  0
  6 15  1  0  0  0  0
  6 17  2  0  0  0  0
  7  8  1  0  0  0  0
  7  9  1  0  0  0  0
  8 10  1  0  0  0  0
  9 11  1  0  0  0  0
 10 15  1  0  0  0  0
 11 13  1  0  0  0  0
 11 15  1  0  0  0  0
 12 13  1  0  0  0  0
  1 18  1  0  0  0  0
  2 19  1  0  0  0  0
  3 20  1  0  0  0  0
  7 21  1  0  0  0  0
  7 22  1  0  0  0  0
  8 23  1  0  0  0  0
  8 24  1  0  0  0  0
  9 25  1  0  0  0  0
  9 26  1  0  0  0  0
 10 27  1  0  0  0  0
 10 28  1  0  0  0  0
 11 29  1  0  0  0  0
 12 30  1  0  0  0  0
 12 31  1  0  0  0  0
 12 32  1  0  0  0  0
 13 33  1  0  0  0  0
 13 34  1  0  0  0  0
 16 35  1  0  0  0  0
 16 36  1  0  0  0  0
M  END
> <Catalog ID>
Z969101910

> <PlateID>
1337959-R-14

> <Well>
C04

> <MW (desalted)>
233.309

> <CLogP>
1.491

> <HBD>
1

> <TPSA>
59.220

> <RotBonds>
2

> <ROCS_ShapeQuery>
A71EV2A-x0451_0A_A71EV2A-x0310_0A_A71EV2A-x0416_0A_peptide

> <ROCS_TanimotoCombo>
0.404 

> <ROCS_ShapeTanimoto>
0.287 

> <ROCS_ColorTanimoto>
0.117 

> <ROCS_RefTversky>
0.258 

> <ROCS_RefColorTversky>
0.133 

> <ROCS_RefTverskyCombo>
0.391 

> <ROCS_FitTversky>
1.664 

> <ROCS_FitColorTversky>
0.491 

> <ROCS_FitTverskyCombo>
2.156 

> <ROCS_ColorScore>
-4.051

> <ROCS_Overlap>
1785.937

> <ROCS_Rank>
406                 

$$$$
untitled-dbase-1001_182
  -OEChem-11112309163D

 28 28  0     0  0  0  0  0  0999 V2000
    7.8073   10.4357   24.5254 C   0  0  0  0  0  0  0  0  0  0  0  0
    8.9063   12.4501   23.8049 C   0  0  0  0  0  0  0  0  0  0  0  0
    7.8211   11.8208   24.4047 C   0  0  0  0  0  0  0  0  0  0  0  0
    8.8945    9.7310   24.0342 C   0  0  0  0  0  0  0  0  0  0  0  0
    9.9444   11.6553   23.3462 C   0  0  0  0  0  0  0  0  0  0  0  0
    6.6770   12.6277   24.9168 C   0  0  0  0  0  0  0  0  0  0  0  0
    8.9138    8.2430   24.1464 C   0  0  0  0  0  0  0  0  0  0  0  0
   10.4712   14.8951   21.2743 C   0  0  0  0  0  0  0  0  0  0  0  0
   11.8199   14.7158   21.9345 C   0  0  0  0  0  0  0  0  0  0  0  0
    9.9665   10.3072   23.4456 N   0  0  0  0  0  0  0  0  0  0  0  0
   11.0792   12.2578   22.7234 N   0  0  0  0  0  0  0  0  0  0  0  0
   10.6720   14.3085   24.2332 O   0  0  0  0  0  0  0  0  0  0  0  0
   13.0417   13.5164   23.9135 O   0  0  0  0  0  0  0  0  0  0  0  0
   11.7008   13.7144   23.3999 S   0  0  0  0  0  0  0  0  0  0  0  0
    6.9712    9.9235   24.9908 H   0  0  0  0  0  0  0  0  0  0  0  0
    8.9375   13.5305   23.7032 H   0  0  0  0  0  0  0  0  0  0  0  0
    6.8461   12.9100   25.9634 H   0  0  0  0  0  0  0  0  0  0  0  0
    6.5396   13.5441   24.3277 H   0  0  0  0  0  0  0  0  0  0  0  0
    5.7346   12.0675   24.8559 H   0  0  0  0  0  0  0  0  0  0  0  0
    8.4565    7.7881   23.2597 H   0  0  0  0  0  0  0  0  0  0  0  0
    9.9394    7.8649   24.2427 H   0  0  0  0  0  0  0  0  0  0  0  0
    8.3650    7.9044   25.0345 H   0  0  0  0  0  0  0  0  0  0  0  0
   10.0593   13.9264   20.9762 H   0  0  0  0  0  0  0  0  0  0  0  0
    9.7613   15.3750   21.9560 H   0  0  0  0  0  0  0  0  0  0  0  0
   10.5516   15.5236   20.3814 H   0  0  0  0  0  0  0  0  0  0  0  0
   12.2394   15.6796   22.2359 H   0  0  0  0  0  0  0  0  0  0  0  0
   12.5227   14.2186   21.2604 H   0  0  0  0  0  0  0  0  0  0  0  0
   11.8005   11.5852   22.4146 H   0  0  0  0  0  0  0  0  0  0  0  0
  1  3  2  0  0  0  0
  1  4  1  0  0  0  0
  2  3  1  0  0  0  0
  2  5  2  0  0  0  0
  3  6  1  0  0  0  0
  4  7  1  0  0  0  0
  4 10  2  0  0  0  0
  5 10  1  0  0  0  0
  5 11  1  0  0  0  0
  8  9  1  0  0  0  0
  9 14  1  0  0  0  0
 11 14  1  0  0  0  0
 12 14  2  0  0  0  0
 13 14  2  0  0  0  0
  1 15  1  0  0  0  0
  2 16  1  0  0  0  0
  6 17  1  0  0  0  0
  6 18  1  0  0  0  0
  6 19  1  0  0  0  0
  7 20  1  0  0  0  0
  7 21  1  0  0  0  0
  7 22  1  0  0  0  0
  8 23  1  0  0  0  0
  8 24  1  0  0  0  0
  8 25  1  0  0  0  0
  9 26  1  0  0  0  0
  9 27  1  0  0  0  0
 11 28  1  0  0  0  0
M  END
> <Catalog ID>
Z1729687753

> <PlateID>
1337959-R-13

> <Well>
E06

> <MW (desalted)>
214.285

> <CLogP>
1.611

> <HBD>
1

> <TPSA>
59.060

> <RotBonds>
2

> <ROCS_ShapeQuery>
A71EV2A-x0451_0A_A71EV2A-x0310_0A_A71EV2A-x0416_0A_peptide

> <ROCS_TanimotoCombo>
0.404 

> <ROCS_ShapeTanimoto>
0.282 

> <ROCS_ColorTanimoto>
0.122 

> <ROCS_RefTversky>
0.249 

> <ROCS_RefColorTversky>
0.131 

> <ROCS_RefTverskyCombo>
0.380 

> <ROCS_FitTversky>
1.889 

> <ROCS_FitColorTversky>
0.627 

> <ROCS_FitTverskyCombo>
2.516 

> <ROCS_ColorScore>
-3.977

> <ROCS_Overlap>
1726.214

> <ROCS_Rank>
407                 

$$$$
untitled-dbase-299_6
  -OEChem-11112309163D

 28 29  0     1  0  0  0  0  0999 V2000
   10.4566   13.3168   23.4762 C   0  0  0  0  0  0  0  0  0  0  0  0
   10.7721   12.3221   21.4580 C   0  0  0  0  0  0  0  0  0  0  0  0
   10.1711   11.0912   24.6164 C   0  0  0  0  0  0  0  0  0  0  0  0
    8.1520   12.2983   23.7074 C   0  0  0  0  0  0  0  0  0  0  0  0
    9.3701    9.7946   24.6917 C   0  0  0  0  0  0  0  0  0  0  0  0
    9.6479   12.0176   23.5285 C   0  0  1  0  0  0  0  0  0  0  0  0
    7.3654   11.0838   24.2570 C   0  0  0  0  0  0  0  0  0  0  0  0
    6.0571   10.9213   23.4700 C   0  0  0  0  0  0  0  0  0  0  0  0
    7.0092   11.2593   25.7418 C   0  0  0  0  0  0  0  0  0  0  0  0
   11.0662   13.4086   22.2486 N   0  0  0  0  0  0  0  0  0  0  0  0
    9.9355   11.4940   22.2051 N   0  0  0  0  0  0  0  0  0  0  0  0
   10.5380   14.1287   24.3882 O   0  0  0  0  0  0  0  0  0  0  0  0
   11.1662   12.1167   20.3184 O   0  0  0  0  0  0  0  0  0  0  0  0
    8.0975    9.8694   24.0522 O   0  0  0  0  0  0  0  0  0  0  0  0
   10.1655   11.5776   25.5991 H   0  0  0  0  0  0  0  0  0  0  0  0
   11.2113   10.8236   24.3871 H   0  0  0  0  0  0  0  0  0  0  0  0
    7.9821   13.1703   24.3315 H   0  0  0  0  0  0  0  0  0  0  0  0
    7.7521   12.5186   22.7175 H   0  0  0  0  0  0  0  0  0  0  0  0
    9.9376    8.9925   24.1856 H   0  0  0  0  0  0  0  0  0  0  0  0
    9.2537    9.4494   25.7355 H   0  0  0  0  0  0  0  0  0  0  0  0
    5.5105   10.0693   23.8593 H   0  0  0  0  0  0  0  0  0  0  0  0
    6.2887   10.7607   22.4228 H   0  0  0  0  0  0  0  0  0  0  0  0
    5.4610   11.8207   23.5800 H   0  0  0  0  0  0  0  0  0  0  0  0
    6.4597   10.3883   26.0872 H   0  0  0  0  0  0  0  0  0  0  0  0
    6.3953   12.1471   25.8638 H   0  0  0  0  0  0  0  0  0  0  0  0
    7.9212   11.3664   26.3221 H   0  0  0  0  0  0  0  0  0  0  0  0
   11.6582   14.1787   21.9601 H   0  0  0  0  0  0  0  0  0  0  0  0
    9.5597   10.6265   21.8483 H   0  0  0  0  0  0  0  0  0  0  0  0
  1  6  1  0  0  0  0
  1 10  1  0  0  0  0
  1 12  2  0  0  0  0
  2 10  1  0  0  0  0
  2 11  1  0  0  0  0
  2 13  2  0  0  0  0
  3  5  1  0  0  0  0
  3  6  1  0  0  0  0
  4  6  1  0  0  0  0
  4  7  1  0  0  0  0
  5 14  1  0  0  0  0
  6 11  1  0  0  0  0
  7  8  1  0  0  0  0
  7  9  1  0  0  0  0
  7 14  1  0  0  0  0
  3 15  1  0  0  0  0
  3 16  1  0  0  0  0
  4 17  1  0  0  0  0
  4 18  1  0  0  0  0
  5 19  1  0  0  0  0
  5 20  1  0  0  0  0
  8 21  1  0  0  0  0
  8 22  1  0  0  0  0
  8 23  1  0  0  0  0
  9 24  1  0  0  0  0
  9 25  1  0  0  0  0
  9 26  1  0  0  0  0
 10 27  1  0  0  0  0
 11 28  1  0  0  0  0
M  END
> <Catalog ID>
Z1192350880

> <PlateID>
1337959-R-04

> <Well>
F11

> <MW (desalted)>
198.219

> <CLogP>
-1.061

> <HBD>
2

> <TPSA>
67.430

> <RotBonds>
0

> <ROCS_ShapeQuery>
A71EV2A-x0451_0A_A71EV2A-x0310_0A_A71EV2A-x0416_0A_peptide

> <ROCS_TanimotoCombo>
0.404 

> <ROCS_ShapeTanimoto>
0.234 

> <ROCS_ColorTanimoto>
0.170 

> <ROCS_RefTversky>
0.216 

> <ROCS_RefColorTversky>
0.189 

> <ROCS_RefTverskyCombo>
0.405 

> <ROCS_FitTversky>
1.556 

> <ROCS_FitColorTversky>
0.628 

> <ROCS_FitTverskyCombo>
2.184 

> <ROCS_ColorScore>
-5.779

> <ROCS_Overlap>
1493.912

> <ROCS_Rank>
408                 

$$$$
untitled-dbase-989_91
  -OEChem-11112309163D

 37 37  0     1  0  0  0  0  0999 V2000
   10.4218   13.2689   23.3235 C   0  0  0  0  0  0  0  0  0  0  0  0
   11.0669   10.3974   22.6194 C   0  0  0  0  0  0  0  0  0  0  0  0
    7.2636   11.3563   24.3366 C   0  0  0  0  0  0  0  0  0  0  0  0
    7.9427   10.0616   24.7712 C   0  0  0  0  0  0  0  0  0  0  0  0
    8.2662   12.5002   24.2171 C   0  0  0  0  0  0  0  0  0  0  0  0
    9.0884    9.6921   23.8335 C   0  0  0  0  0  0  0  0  0  0  0  0
    9.4295   12.1435   23.2865 C   0  0  2  0  0  0  0  0  0  0  0  0
   10.0959   10.8328   23.7050 C   0  0  2  0  0  0  0  0  0  0  0  0
   12.5988   14.4570   20.5022 C   0  0  0  0  0  0  0  0  0  0  0  0
   11.4357   15.8754   22.2121 C   0  0  0  0  0  0  0  0  0  0  0  0
   13.2347   14.2776   22.9185 C   0  0  0  0  0  0  0  0  0  0  0  0
   12.0756   14.5096   21.9422 C   0  0  0  0  0  0  0  0  0  0  0  0
   11.0812   13.4771   22.1272 N   0  0  0  0  0  0  0  0  0  0  0  0
   10.5773   13.9033   24.3603 O   0  0  0  0  0  0  0  0  0  0  0  0
   11.7044   11.1549   21.9031 O   0  0  0  0  0  0  0  0  0  0  0  0
   11.1308    9.0453   22.5484 O   0  0  0  0  0  0  0  0  0  0  0  0
    6.7669   11.2027   23.3721 H   0  0  0  0  0  0  0  0  0  0  0  0
    6.4812   11.6204   25.0577 H   0  0  0  0  0  0  0  0  0  0  0  0
    8.3247   10.1721   25.7914 H   0  0  0  0  0  0  0  0  0  0  0  0
    7.2052    9.2514   24.7927 H   0  0  0  0  0  0  0  0  0  0  0  0
    7.7510   13.3785   23.8228 H   0  0  0  0  0  0  0  0  0  0  0  0
    8.6352   12.7595   25.2109 H   0  0  0  0  0  0  0  0  0  0  0  0
    9.5954    8.8159   24.2345 H   0  0  0  0  0  0  0  0  0  0  0  0
    8.6839    9.4227   22.8603 H   0  0  0  0  0  0  0  0  0  0  0  0
    9.0607   12.0870   22.2819 H   0  0  0  0  0  0  0  0  0  0  0  0
   10.6500   10.9228   24.5932 H   0  0  0  0  0  0  0  0  0  0  0  0
   13.0622   13.4877   20.2842 H   0  0  0  0  0  0  0  0  0  0  0  0
   11.7914   14.6141   19.7785 H   0  0  0  0  0  0  0  0  0  0  0  0
   13.3608   15.2262   20.3305 H   0  0  0  0  0  0  0  0  0  0  0  0
   11.0533   15.9372   23.2376 H   0  0  0  0  0  0  0  0  0  0  0  0
   10.5888   16.0549   21.5396 H   0  0  0  0  0  0  0  0  0  0  0  0
   12.1564   16.6885   22.0713 H   0  0  0  0  0  0  0  0  0  0  0  0
   12.8881   14.3100   23.9579 H   0  0  0  0  0  0  0  0  0  0  0  0
   13.7086   13.3041   22.7509 H   0  0  0  0  0  0  0  0  0  0  0  0
   14.0048   15.0500   22.8096 H   0  0  0  0  0  0  0  0  0  0  0  0
   10.8564   12.8759   21.3402 H   0  0  0  0  0  0  0  0  0  0  0  0
   11.7517    8.7440   21.8513 H   0  0  0  0  0  0  0  0  0  0  0  0
  1  7  1  0  0  0  0
  1 13  1  0  0  0  0
  1 14  2  0  0  0  0
  2  8  1  0  0  0  0
  2 15  2  0  0  0  0
  2 16  1  0  0  0  0
  3  4  1  0  0  0  0
  3  5  1  0  0  0  0
  4  6  1  0  0  0  0
  5  7  1  0  0  0  0
  6  8  1  0  0  0  0
  7  8  1  0  0  0  0
  9 12  1  0  0  0  0
 10 12  1  0  0  0  0
 11 12  1  0  0  0  0
 12 13  1  0  0  0  0
  3 17  1  0  0  0  0
  3 18  1  0  0  0  0
  4 19  1  0  0  0  0
  4 20  1  0  0  0  0
  5 21  1  0  0  0  0
  5 22  1  0  0  0  0
  6 23  1  0  0  0  0
  6 24  1  0  0  0  0
  7 25  1  0  0  0  0
  8 26  1  0  0  0  0
  9 27  1  0  0  0  0
  9 28  1  0  0  0  0
  9 29  1  0  0  0  0
 10 30  1  0  0  0  0
 10 31  1  0  0  0  0
 10 32  1  0  0  0  0
 11 33  1  0  0  0  0
 11 34  1  0  0  0  0
 11 35  1  0  0  0  0
 13 36  1  0  0  0  0
 16 37  1  0  0  0  0
M  END
> <Catalog ID>
Z56968139

> <PlateID>
1337959-R-13

> <Well>
D04

> <MW (desalted)>
227.300

> <CLogP>
1.656

> <HBD>
2

> <TPSA>
66.400

> <RotBonds>
3

> <ROCS_ShapeQuery>
A71EV2A-x0451_0A_A71EV2A-x0310_0A_A71EV2A-x0416_0A_peptide

> <ROCS_TanimotoCombo>
0.404 

> <ROCS_ShapeTanimoto>
0.275 

> <ROCS_ColorTanimoto>
0.129 

> <ROCS_RefTversky>
0.247 

> <ROCS_RefColorTversky>
0.145 

> <ROCS_RefTverskyCombo>
0.392 

> <ROCS_FitTversky>
1.699 

> <ROCS_FitColorTversky>
0.537 

> <ROCS_FitTverskyCombo>
2.235 

> <ROCS_ColorScore>
-4.425

> <ROCS_Overlap>
1710.459

> <ROCS_Rank>
409                 

$$$$
untitled-dbase-1186_176
  -OEChem-11112309163D

 40 41  0     1  0  0  0  0  0999 V2000
    9.9904   13.1760   23.6578 C   0  0  0  0  0  0  0  0  0  0  0  0
    7.6794   10.3244   24.2637 C   0  0  0  0  0  0  0  0  0  0  0  0
    8.8570    9.7777   23.4778 C   0  0  0  0  0  0  0  0  0  0  0  0
   12.1925   15.5312   20.6072 C   0  0  0  0  0  0  0  0  0  0  0  0
   11.7291   14.3284   21.4236 C   0  0  0  0  0  0  0  0  0  0  0  0
    7.9241   11.8268   24.2414 C   0  0  0  0  0  0  0  0  0  0  0  0
   10.0432   10.6388   23.9087 C   0  0  0  0  0  0  0  0  0  0  0  0
   11.4443   16.7990   21.0154 C   0  0  0  0  0  0  0  0  0  0  0  0
    9.5290   15.5198   21.7552 C   0  0  0  0  0  0  0  0  0  0  0  0
   10.2072   14.2046   21.3678 C   0  0  2  0  0  0  0  0  0  0  0  0
    9.4452   11.9668   24.4146 C   0  0  0  0  0  0  0  0  0  0  0  0
    9.1724   13.3730   26.4437 C   0  0  0  0  0  0  0  0  0  0  0  0
    9.7787   12.1317   25.8759 C   0  0  0  0  0  0  0  0  0  0  0  0
    9.9948   16.6236   20.9139 N   0  0  0  0  0  0  0  0  0  0  0  0
    9.7654   13.1350   22.2950 N   0  0  0  0  0  0  0  0  0  0  0  0
   10.5645   14.0660   24.2742 O   0  0  0  0  0  0  0  0  0  0  0  0
    6.7232   10.0511   23.8251 H   0  0  0  0  0  0  0  0  0  0  0  0
    7.7137    9.9571   25.2900 H   0  0  0  0  0  0  0  0  0  0  0  0
    9.0303    8.7092   23.6770 H   0  0  0  0  0  0  0  0  0  0  0  0
    8.6793    9.8852   22.3950 H   0  0  0  0  0  0  0  0  0  0  0  0
   13.2702   15.6770   20.7420 H   0  0  0  0  0  0  0  0  0  0  0  0
   12.0273   15.3340   19.5404 H   0  0  0  0  0  0  0  0  0  0  0  0
   12.2040   13.4180   21.0393 H   0  0  0  0  0  0  0  0  0  0  0  0
   12.0587   14.4529   22.4633 H   0  0  0  0  0  0  0  0  0  0  0  0
    7.5873   12.2403   23.2897 H   0  0  0  0  0  0  0  0  0  0  0  0
    7.3593   12.3142   25.0354 H   0  0  0  0  0  0  0  0  0  0  0  0
   10.5866   10.1219   24.7177 H   0  0  0  0  0  0  0  0  0  0  0  0
   10.7565   10.7720   23.0798 H   0  0  0  0  0  0  0  0  0  0  0  0
   11.7181   17.0879   22.0376 H   0  0  0  0  0  0  0  0  0  0  0  0
   11.7480   17.6213   20.3584 H   0  0  0  0  0  0  0  0  0  0  0  0
    8.4441   15.4257   21.6289 H   0  0  0  0  0  0  0  0  0  0  0  0
    9.7114   15.7565   22.8113 H   0  0  0  0  0  0  0  0  0  0  0  0
    9.8908   13.8903   20.3863 H   0  0  0  0  0  0  0  0  0  0  0  0
    9.5383   14.2467   25.8917 H   0  0  0  0  0  0  0  0  0  0  0  0
    9.4483   13.4965   27.4963 H   0  0  0  0  0  0  0  0  0  0  0  0
    8.0809   13.3493   26.3574 H   0  0  0  0  0  0  0  0  0  0  0  0
    9.4140   11.2604   26.4262 H   0  0  0  0  0  0  0  0  0  0  0  0
   10.8650   12.1677   25.9926 H   0  0  0  0  0  0  0  0  0  0  0  0
    9.5311   17.4848   21.2021 H   0  0  0  0  0  0  0  0  0  0  0  0
    9.2740   12.3340   21.9100 H   0  0  0  0  0  0  0  0  0  0  0  0
  1 11  1  0  0  0  0
  1 15  1  0  0  0  0
  1 16  2  0  0  0  0
  2  3  1  0  0  0  0
  2  6  1  0  0  0  0
  3  7  1  0  0  0  0
  4  5  1  0  0  0  0
  4  8  1  0  0  0  0
  5 10  1  0  0  0  0
  6 11  1  0  0  0  0
  7 11  1  0  0  0  0
  8 14  1  0  0  0  0
  9 10  1  0  0  0  0
  9 14  1  0  0  0  0
 10 15  1  0  0  0  0
 11 13  1  0  0  0  0
 12 13  1  0  0  0  0
  2 17  1  0  0  0  0
  2 18  1  0  0  0  0
  3 19  1  0  0  0  0
  3 20  1  0  0  0  0
  4 21  1  0  0  0  0
  4 22  1  0  0  0  0
  5 23  1  0  0  0  0
  5 24  1  0  0  0  0
  6 25  1  0  0  0  0
  6 26  1  0  0  0  0
  7 27  1  0  0  0  0
  7 28  1  0  0  0  0
  8 29  1  0  0  0  0
  8 30  1  0  0  0  0
  9 31  1  0  0  0  0
  9 32  1  0  0  0  0
 10 33  1  0  0  0  0
 12 34  1  0  0  0  0
 12 35  1  0  0  0  0
 12 36  1  0  0  0  0
 13 37  1  0  0  0  0
 13 38  1  0  0  0  0
 14 39  1  0  0  0  0
 15 40  1  0  0  0  0
M  END
> <Catalog ID>
Z1392868716

> <PlateID>
1337959-R-15

> <Well>
H02

> <MW (desalted)>
224.342

> <CLogP>
2.084

> <HBD>
2

> <TPSA>
41.130

> <RotBonds>
3

> <ROCS_ShapeQuery>
A71EV2A-x0451_0A_A71EV2A-x0310_0A_A71EV2A-x0416_0A_peptide

> <ROCS_TanimotoCombo>
0.404 

> <ROCS_ShapeTanimoto>
0.232 

> <ROCS_ColorTanimoto>
0.171 

> <ROCS_RefTversky>
0.216 

> <ROCS_RefColorTversky>
0.186 

> <ROCS_RefTverskyCombo>
0.402 

> <ROCS_FitTversky>
1.480 

> <ROCS_FitColorTversky>
0.688 

> <ROCS_FitTverskyCombo>
2.168 

> <ROCS_ColorScore>
-5.666

> <ROCS_Overlap>
1496.452

> <ROCS_Rank>
410                 

$$$$
untitled-dbase-773_92
  -OEChem-11112309163D

 37 38  0     1  0  0  0  0  0999 V2000
    7.6494   10.2850   24.5305 C   0  0  0  0  0  0  0  0  0  0  0  0
    8.6038    9.6172   23.7633 C   0  0  0  0  0  0  0  0  0  0  0  0
    7.7962   11.6465   24.7962 C   0  0  0  0  0  0  0  0  0  0  0  0
    9.7052   10.3108   23.2618 C   0  0  0  0  0  0  0  0  0  0  0  0
    8.8975   12.3401   24.2946 C   0  0  0  0  0  0  0  0  0  0  0  0
    9.8521   11.6723   23.5274 C   0  0  0  0  0  0  0  0  0  0  0  0
   11.4074   13.5579   23.9112 C   0  0  0  0  0  0  0  0  0  0  0  0
   13.8603   12.8873   23.9015 C   0  0  0  0  0  0  0  0  0  0  0  0
   12.8612   14.0121   25.8607 C   0  0  0  0  0  0  0  0  0  0  0  0
   14.2706   11.6433   24.6768 C   0  0  0  0  0  0  0  0  0  0  0  0
   13.1780   12.8773   26.8238 C   0  0  0  0  0  0  0  0  0  0  0  0
   12.0492   13.7780   21.0756 C   0  0  0  0  0  0  0  0  0  0  0  0
   10.8491   12.9783   21.5656 C   0  0  0  0  0  0  0  0  0  0  0  0
   11.0460   12.4249   22.9842 C   0  0  2  0  0  0  0  0  0  0  0  0
   12.6714   13.5060   24.4999 N   0  0  0  0  0  0  0  0  0  0  0  0
   10.5900   14.4617   24.1046 O   0  0  0  0  0  0  0  0  0  0  0  0
   15.8268   13.0658   26.3576 O   0  0  0  0  0  0  0  0  0  0  0  0
   14.7368   12.0361   26.3946 S   0  0  0  0  0  0  0  0  0  0  0  0
    6.7912    9.7450   24.9199 H   0  0  0  0  0  0  0  0  0  0  0  0
    8.4891    8.5574   23.5555 H   0  0  0  0  0  0  0  0  0  0  0  0
    7.0527   12.1670   25.3925 H   0  0  0  0  0  0  0  0  0  0  0  0
   10.4440    9.7823   22.6651 H   0  0  0  0  0  0  0  0  0  0  0  0
    9.0037   13.4007   24.5068 H   0  0  0  0  0  0  0  0  0  0  0  0
   14.6598   13.6389   23.9070 H   0  0  0  0  0  0  0  0  0  0  0  0
   13.6876   12.6172   22.8577 H   0  0  0  0  0  0  0  0  0  0  0  0
   11.9606   14.5332   26.2022 H   0  0  0  0  0  0  0  0  0  0  0  0
   13.6727   14.7497   25.8322 H   0  0  0  0  0  0  0  0  0  0  0  0
   13.4639   10.8927   24.6869 H   0  0  0  0  0  0  0  0  0  0  0  0
   15.1472   11.1749   24.2044 H   0  0  0  0  0  0  0  0  0  0  0  0
   13.2939   13.2694   27.8455 H   0  0  0  0  0  0  0  0  0  0  0  0
   12.3657   12.1335   26.8477 H   0  0  0  0  0  0  0  0  0  0  0  0
   12.9454   13.1494   21.0781 H   0  0  0  0  0  0  0  0  0  0  0  0
   11.8908   14.1364   20.0534 H   0  0  0  0  0  0  0  0  0  0  0  0
   12.2458   14.6415   21.7182 H   0  0  0  0  0  0  0  0  0  0  0  0
    9.9692   13.6349   21.5513 H   0  0  0  0  0  0  0  0  0  0  0  0
   10.6366   12.1738   20.8511 H   0  0  0  0  0  0  0  0  0  0  0  0
   11.9225   11.7664   22.9821 H   0  0  0  0  0  0  0  0  0  0  0  0
  1  2  2  0  0  0  0
  1  3  1  0  0  0  0
  2  4  1  0  0  0  0
  3  5  2  0  0  0  0
  4  6  2  0  0  0  0
  5  6  1  0  0  0  0
  6 14  1  0  0  0  0
  7 14  1  0  0  0  0
  7 15  1  0  0  0  0
  7 16  2  0  0  0  0
  8 10  1  0  0  0  0
  8 15  1  0  0  0  0
  9 11  1  0  0  0  0
  9 15  1  0  0  0  0
 10 18  1  0  0  0  0
 11 18  1  0  0  0  0
 12 13  1  0  0  0  0
 13 14  1  0  0  0  0
 17 18  2  0  0  0  0
  1 19  1  0  0  0  0
  2 20  1  0  0  0  0
  3 21  1  0  0  0  0
  4 22  1  0  0  0  0
  5 23  1  0  0  0  0
  8 24  1  0  0  0  0
  8 25  1  0  0  0  0
  9 26  1  0  0  0  0
  9 27  1  0  0  0  0
 10 28  1  0  0  0  0
 10 29  1  0  0  0  0
 11 30  1  0  0  0  0
 11 31  1  0  0  0  0
 12 32  1  0  0  0  0
 12 33  1  0  0  0  0
 12 34  1  0  0  0  0
 13 35  1  0  0  0  0
 13 36  1  0  0  0  0
 14 37  1  0  0  0  0
M  END
> <Catalog ID>
Z1126977386

> <PlateID>
1337959-R-10

> <Well>
F06

> <MW (desalted)>
265.371

> <CLogP>
1.201

> <HBD>
0

> <TPSA>
37.380

> <RotBonds>
3

> <ROCS_ShapeQuery>
A71EV2A-x0451_0A_A71EV2A-x0310_0A_A71EV2A-x0416_0A_peptide

> <ROCS_TanimotoCombo>
0.403 

> <ROCS_ShapeTanimoto>
0.274 

> <ROCS_ColorTanimoto>
0.129 

> <ROCS_RefTversky>
0.249 

> <ROCS_RefColorTversky>
0.139 

> <ROCS_RefTverskyCombo>
0.387 

> <ROCS_FitTversky>
1.590 

> <ROCS_FitColorTversky>
0.664 

> <ROCS_FitTverskyCombo>
2.254 

> <ROCS_ColorScore>
-4.208

> <ROCS_Overlap>
1723.973

> <ROCS_Rank>
411                 

$$$$
untitled-dbase-949_60
  -OEChem-11112309163D

 39 41  0     1  0  0  0  0  0999 V2000
    6.2492   13.0115   25.7380 C   0  0  0  0  0  0  0  0  0  0  0  0
    6.9974   12.1209   26.7281 C   0  0  0  0  0  0  0  0  0  0  0  0
    7.2275   13.2652   24.5918 C   0  0  0  0  0  0  0  0  0  0  0  0
    8.3645   11.8441   26.1010 C   0  0  0  0  0  0  0  0  0  0  0  0
   12.0603   13.6998   24.0082 C   0  0  0  0  0  0  0  0  0  0  0  0
    9.9218   11.0464   23.1510 C   0  0  0  0  0  0  0  0  0  0  0  0
   11.9729   15.1635   24.3897 C   0  0  0  0  0  0  0  0  0  0  0  0
    9.5645    9.7441   23.8495 C   0  0  0  0  0  0  0  0  0  0  0  0
   11.4096   14.9576   22.1372 C   0  0  0  0  0  0  0  0  0  0  0  0
    7.4299   10.8205   23.9549 C   0  0  0  0  0  0  0  0  0  0  0  0
   11.1604   13.6090   22.7931 C   0  0  2  0  0  0  0  0  0  0  0  0
    8.1664   12.0354   24.5797 C   0  0  0  0  0  0  0  0  0  0  0  0
    9.6932   13.4293   23.1796 C   0  0  0  0  0  0  0  0  0  0  0  0
    9.4977   12.2049   23.9507 N   0  0  2  0  0  0  0  0  0  0  0  0
   11.6780   15.8939   23.1913 O   0  0  0  0  0  0  0  0  0  0  0  0
    8.1646    9.6021   24.0710 O   0  0  0  0  0  0  0  0  0  0  0  0
    5.3527   12.4997   25.3764 H   0  0  0  0  0  0  0  0  0  0  0  0
    5.9304   13.9501   26.1981 H   0  0  0  0  0  0  0  0  0  0  0  0
    7.0994   12.5983   27.7086 H   0  0  0  0  0  0  0  0  0  0  0  0
    6.4481   11.1839   26.8794 H   0  0  0  0  0  0  0  0  0  0  0  0
    6.6990   13.4265   23.6481 H   0  0  0  0  0  0  0  0  0  0  0  0
    7.7957   14.1781   24.8111 H   0  0  0  0  0  0  0  0  0  0  0  0
    9.0813   12.5789   26.4912 H   0  0  0  0  0  0  0  0  0  0  0  0
    8.7323   10.8474   26.3659 H   0  0  0  0  0  0  0  0  0  0  0  0
   13.0925   13.3758   23.8149 H   0  0  0  0  0  0  0  0  0  0  0  0
   11.6671   13.0770   24.8275 H   0  0  0  0  0  0  0  0  0  0  0  0
   10.9892   11.0853   22.9387 H   0  0  0  0  0  0  0  0  0  0  0  0
    9.4129   11.0875   22.1881 H   0  0  0  0  0  0  0  0  0  0  0  0
   11.1991   15.3560   25.1395 H   0  0  0  0  0  0  0  0  0  0  0  0
   12.9307   15.5299   24.7769 H   0  0  0  0  0  0  0  0  0  0  0  0
    9.8862    8.8890   23.2268 H   0  0  0  0  0  0  0  0  0  0  0  0
   10.0980    9.6308   24.8140 H   0  0  0  0  0  0  0  0  0  0  0  0
   12.2599   14.9349   21.4457 H   0  0  0  0  0  0  0  0  0  0  0  0
   10.5304   15.3188   21.5880 H   0  0  0  0  0  0  0  0  0  0  0  0
    6.4296   10.6780   24.4032 H   0  0  0  0  0  0  0  0  0  0  0  0
    7.2463   10.9722   22.8785 H   0  0  0  0  0  0  0  0  0  0  0  0
   11.4662   12.8092   22.1552 H   0  0  0  0  0  0  0  0  0  0  0  0
    9.3734   14.2900   23.7853 H   0  0  0  0  0  0  0  0  0  0  0  0
    9.0845   13.3784   22.2647 H   0  0  0  0  0  0  0  0  0  0  0  0
  1  2  1  0  0  0  0
  1  3  1  0  0  0  0
  2  4  1  0  0  0  0
  3 12  1  0  0  0  0
  4 12  1  0  0  0  0
  5  7  1  0  0  0  0
  5 11  1  0  0  0  0
  6  8  1  0  0  0  0
  6 14  1  0  0  0  0
  7 15  1  0  0  0  0
  8 16  1  0  0  0  0
  9 11  1  0  0  0  0
  9 15  1  0  0  0  0
 10 12  1  0  0  0  0
 10 16  1  0  0  0  0
 11 13  1  0  0  0  0
 12 14  1  0  0  0  0
 13 14  1  0  0  0  0
  1 17  1  0  0  0  0
  1 18  1  0  0  0  0
  2 19  1  0  0  0  0
  2 20  1  0  0  0  0
  3 21  1  0  0  0  0
  3 22  1  0  0  0  0
  4 23  1  0  0  0  0
  4 24  1  0  0  0  0
  5 25  1  0  0  0  0
  5 26  1  0  0  0  0
  6 27  1  0  0  0  0
  6 28  1  0  0  0  0
  7 29  1  0  0  0  0
  7 30  1  0  0  0  0
  8 31  1  0  0  0  0
  8 32  1  0  0  0  0
  9 33  1  0  0  0  0
  9 34  1  0  0  0  0
 10 35  1  0  0  0  0
 10 36  1  0  0  0  0
 11 37  1  0  0  0  0
 13 38  1  0  0  0  0
 13 39  1  0  0  0  0
M  END
> <Catalog ID>
Z1542779542

> <PlateID>
1337959-R-12

> <Well>
H03

> <MW (desalted)>
225.327

> <CLogP>
1.302

> <HBD>
0

> <TPSA>
21.700

> <RotBonds>
2

> <ROCS_ShapeQuery>
A71EV2A-x0451_0A_A71EV2A-x0310_0A_A71EV2A-x0416_0A_peptide

> <ROCS_TanimotoCombo>
0.403 

> <ROCS_ShapeTanimoto>
0.291 

> <ROCS_ColorTanimoto>
0.112 

> <ROCS_RefTversky>
0.259 

> <ROCS_RefColorTversky>
0.125 

> <ROCS_RefTverskyCombo>
0.384 

> <ROCS_FitTversky>
1.743 

> <ROCS_FitColorTversky>
0.523 

> <ROCS_FitTverskyCombo>
2.266 

> <ROCS_ColorScore>
-3.813

> <ROCS_Overlap>
1793.679

> <ROCS_Rank>
412                 

$$$$
untitled-dbase-654_34
  -OEChem-11112309163D

 33 34  0     1  0  0  0  0  0999 V2000
    5.3843   14.0561   25.1996 C   0  0  0  0  0  0  0  0  0  0  0  0
    6.1466   14.8139   27.1113 C   0  0  0  0  0  0  0  0  0  0  0  0
    6.7343   13.9141   24.9555 C   0  0  0  0  0  0  0  0  0  0  0  0
   10.4126   13.2932   23.3145 C   0  0  0  0  0  0  0  0  0  0  0  0
    9.4550    9.5583   23.7629 C   0  0  0  0  0  0  0  0  0  0  0  0
    8.2339    9.8191   24.6284 C   0  0  0  0  0  0  0  0  0  0  0  0
   10.2931   10.8266   23.6253 C   0  0  0  0  0  0  0  0  0  0  0  0
    7.4407   11.0178   24.1167 C   0  0  0  0  0  0  0  0  0  0  0  0
    9.4788   12.0723   23.1987 C   0  0  2  0  0  0  0  0  0  0  0  0
    9.0777   11.9451   21.7481 C   0  0  0  0  0  0  0  0  0  0  0  0
    7.4412   13.3937   23.7374 C   0  0  0  0  0  0  0  0  0  0  0  0
    5.0454   14.5715   26.4354 N   0  0  0  0  0  0  0  0  0  0  0  0
    8.2718   12.2277   24.0425 N   0  0  1  0  0  0  0  0  0  0  0  0
   11.1159   13.5645   22.1647 N   0  0  0  0  0  0  0  0  0  0  0  0
   10.4924   13.9587   24.3442 O   0  0  0  0  0  0  0  0  0  0  0  0
    7.6249   14.4462   26.3211 S   0  0  0  0  0  0  0  0  0  0  0  0
    4.5961   13.7967   24.5053 H   0  0  0  0  0  0  0  0  0  0  0  0
    6.1289   15.2234   28.1120 H   0  0  0  0  0  0  0  0  0  0  0  0
   10.0550    8.7532   24.2022 H   0  0  0  0  0  0  0  0  0  0  0  0
    9.1427    9.2110   22.7715 H   0  0  0  0  0  0  0  0  0  0  0  0
    7.5922    8.9287   24.6365 H   0  0  0  0  0  0  0  0  0  0  0  0
    8.5455    9.9959   25.6641 H   0  0  0  0  0  0  0  0  0  0  0  0
   10.8025   11.0120   24.5800 H   0  0  0  0  0  0  0  0  0  0  0  0
   11.0799   10.6350   22.8824 H   0  0  0  0  0  0  0  0  0  0  0  0
    7.0681   10.7623   23.1167 H   0  0  0  0  0  0  0  0  0  0  0  0
    6.5603   11.1820   24.7508 H   0  0  0  0  0  0  0  0  0  0  0  0
    8.4185   11.0919   21.6357 H   0  0  0  0  0  0  0  0  0  0  0  0
    9.9674   11.8043   21.1451 H   0  0  0  0  0  0  0  0  0  0  0  0
    8.5645   12.8494   21.4413 H   0  0  0  0  0  0  0  0  0  0  0  0
    6.7191   13.1012   22.9674 H   0  0  0  0  0  0  0  0  0  0  0  0
    8.0890   14.1613   23.3011 H   0  0  0  0  0  0  0  0  0  0  0  0
   11.7536   14.3538   22.1587 H   0  0  0  0  0  0  0  0  0  0  0  0
   11.0227   13.0072   21.3217 H   0  0  0  0  0  0  0  0  0  0  0  0
  1  3  2  0  0  0  0
  1 12  1  0  0  0  0
  2 12  2  0  0  0  0
  2 16  1  0  0  0  0
  3 11  1  0  0  0  0
  3 16  1  0  0  0  0
  4  9  1  0  0  0  0
  4 14  1  0  0  0  0
  4 15  2  0  0  0  0
  5  6  1  0  0  0  0
  5  7  1  0  0  0  0
  6  8  1  0  0  0  0
  7  9  1  0  0  0  0
  8 13  1  0  0  0  0
  9 10  1  0  0  0  0
  9 13  1  0  0  0  0
 11 13  1  0  0  0  0
  1 17  1  0  0  0  0
  2 18  1  0  0  0  0
  5 19  1  0  0  0  0
  5 20  1  0  0  0  0
  6 21  1  0  0  0  0
  6 22  1  0  0  0  0
  7 23  1  0  0  0  0
  7 24  1  0  0  0  0
  8 25  1  0  0  0  0
  8 26  1  0  0  0  0
 10 27  1  0  0  0  0
 10 28  1  0  0  0  0
 10 29  1  0  0  0  0
 11 30  1  0  0  0  0
 11 31  1  0  0  0  0
 14 32  1  0  0  0  0
 14 33  1  0  0  0  0
M  END
> <Catalog ID>
Z1672301140

> <PlateID>
1337959-R-09

> <Well>
B07

> <MW (desalted)>
239.337

> <CLogP>
0.865

> <HBD>
1

> <TPSA>
59.220

> <RotBonds>
3

> <ROCS_ShapeQuery>
A71EV2A-x0451_0A_A71EV2A-x0310_0A_A71EV2A-x0416_0A_peptide

> <ROCS_TanimotoCombo>
0.403 

> <ROCS_ShapeTanimoto>
0.240 

> <ROCS_ColorTanimoto>
0.163 

> <ROCS_RefTversky>
0.222 

> <ROCS_RefColorTversky>
0.174 

> <ROCS_RefTverskyCombo>
0.396 

> <ROCS_FitTversky>
1.516 

> <ROCS_FitColorTversky>
0.726 

> <ROCS_FitTverskyCombo>
2.243 

> <ROCS_ColorScore>
-5.293

> <ROCS_Overlap>
1538.016

> <ROCS_Rank>
413                 

$$$$
untitled-dbase-676_986
  -OEChem-11112309163D

 31 32  0     0  0  0  0  0  0999 V2000
    8.8619    9.7974   23.3866 C   0  0  0  0  0  0  0  0  0  0  0  0
    7.8028    9.9737   24.2769 C   0  0  0  0  0  0  0  0  0  0  0  0
    9.7238   10.8584   23.1090 C   0  0  0  0  0  0  0  0  0  0  0  0
    7.6055   11.2112   24.8897 C   0  0  0  0  0  0  0  0  0  0  0  0
    9.5265   12.0959   23.7218 C   0  0  0  0  0  0  0  0  0  0  0  0
    8.4673   12.2723   24.6121 C   0  0  0  0  0  0  0  0  0  0  0  0
   10.4450   13.1988   23.4156 C   0  0  0  0  0  0  0  0  0  0  0  0
   10.4459   12.6942   20.9174 C   0  0  0  0  0  0  0  0  0  0  0  0
   12.3328   13.8907   21.9778 C   0  0  0  0  0  0  0  0  0  0  0  0
   10.0943   13.8104   19.9412 C   0  0  0  0  0  0  0  0  0  0  0  0
   12.2042   15.1468   21.1243 C   0  0  0  0  0  0  0  0  0  0  0  0
    6.9197   13.8104   25.5588 C   0  0  0  0  0  0  0  0  0  0  0  0
   11.0388   13.2297   22.1503 N   0  0  0  0  0  0  0  0  0  0  0  0
   10.6157   14.0254   24.3103 O   0  0  0  0  0  0  0  0  0  0  0  0
    8.2593   13.4732   25.2223 O   0  0  0  0  0  0  0  0  0  0  0  0
    6.1076   13.2115   24.6499 F   0  0  0  0  0  0  0  0  0  0  0  0
    6.6138   13.2702   26.7640 F   0  0  0  0  0  0  0  0  0  0  0  0
   11.5723   14.7605   19.4600 S   0  0  0  0  0  0  0  0  0  0  0  0
    9.0153    8.8335   22.9095 H   0  0  0  0  0  0  0  0  0  0  0  0
    7.1318    9.1474   24.4922 H   0  0  0  0  0  0  0  0  0  0  0  0
   10.5461   10.7093   22.4138 H   0  0  0  0  0  0  0  0  0  0  0  0
    6.7786   11.3418   25.5824 H   0  0  0  0  0  0  0  0  0  0  0  0
    9.5435   12.1176   21.1381 H   0  0  0  0  0  0  0  0  0  0  0  0
   11.1649   11.9930   20.4758 H   0  0  0  0  0  0  0  0  0  0  0  0
   13.0275   13.1709   21.5282 H   0  0  0  0  0  0  0  0  0  0  0  0
   12.7452   14.1649   22.9549 H   0  0  0  0  0  0  0  0  0  0  0  0
    9.6565   13.3842   19.0332 H   0  0  0  0  0  0  0  0  0  0  0  0
    9.3550   14.4927   20.3745 H   0  0  0  0  0  0  0  0  0  0  0  0
   11.5390   15.8765   21.5985 H   0  0  0  0  0  0  0  0  0  0  0  0
   13.1847   15.6205   21.0125 H   0  0  0  0  0  0  0  0  0  0  0  0
    6.7245   14.8880   25.5452 H   0  0  0  0  0  0  0  0  0  0  0  0
  1  2  2  0  0  0  0
  1  3  1  0  0  0  0
  2  4  1  0  0  0  0
  3  5  2  0  0  0  0
  4  6  2  0  0  0  0
  5  6  1  0  0  0  0
  5  7  1  0  0  0  0
  6 15  1  0  0  0  0
  7 13  1  0  0  0  0
  7 14  2  0  0  0  0
  8 10  1  0  0  0  0
  8 13  1  0  0  0  0
  9 11  1  0  0  0  0
  9 13  1  0  0  0  0
 10 18  1  0  0  0  0
 11 18  1  0  0  0  0
 12 15  1  0  0  0  0
 12 16  1  0  0  0  0
 12 17  1  0  0  0  0
  1 19  1  0  0  0  0
  2 20  1  0  0  0  0
  3 21  1  0  0  0  0
  4 22  1  0  0  0  0
  8 23  1  0  0  0  0
  8 24  1  0  0  0  0
  9 25  1  0  0  0  0
  9 26  1  0  0  0  0
 10 27  1  0  0  0  0
 10 28  1  0  0  0  0
 11 29  1  0  0  0  0
 11 30  1  0  0  0  0
 12 31  1  0  0  0  0
M  END
> <Catalog ID>
Z437579698

> <PlateID>
1337959-R-09

> <Well>
D09

> <MW (desalted)>
273.299

> <CLogP>
2.173

> <HBD>
0

> <TPSA>
29.540

> <RotBonds>
3

> <ROCS_ShapeQuery>
A71EV2A-x0451_0A_A71EV2A-x0310_0A_A71EV2A-x0416_0A_peptide

> <ROCS_TanimotoCombo>
0.403 

> <ROCS_ShapeTanimoto>
0.298 

> <ROCS_ColorTanimoto>
0.105 

> <ROCS_RefTversky>
0.266 

> <ROCS_RefColorTversky>
0.112 

> <ROCS_RefTverskyCombo>
0.378 

> <ROCS_FitTversky>
1.667 

> <ROCS_FitColorTversky>
0.632 

> <ROCS_FitTverskyCombo>
2.299 

> <ROCS_ColorScore>
-3.402

> <ROCS_Overlap>
1846.241

> <ROCS_Rank>
414                 

$$$$
untitled-dbase-877_256
  -OEChem-11112309163D

 32 33  0     1  0  0  0  0  0999 V2000
    9.9656   13.3324   24.1808 C   0  0  0  0  0  0  0  0  0  0  0  0
    7.9098   12.1226   24.6673 C   0  0  0  0  0  0  0  0  0  0  0  0
    7.1419   10.9588   24.6309 C   0  0  0  0  0  0  0  0  0  0  0  0
    8.9495    9.8008   23.5223 C   0  0  0  0  0  0  0  0  0  0  0  0
    9.1976   12.1256   24.1311 C   0  0  0  0  0  0  0  0  0  0  0  0
    9.7174   10.9647   23.5586 C   0  0  0  0  0  0  0  0  0  0  0  0
    7.6617    9.7979   24.0584 C   0  0  0  0  0  0  0  0  0  0  0  0
   13.1039   13.4569   21.1951 C   0  0  0  0  0  0  0  0  0  0  0  0
   10.9168   12.4585   21.1043 C   0  0  0  0  0  0  0  0  0  0  0  0
   11.7085   13.6568   20.6266 C   0  0  1  0  0  0  0  0  0  0  0  0
   12.9483   12.3652   22.2643 C   0  0  1  0  0  0  0  0  0  0  0  0
   11.0987   10.9309   22.9714 C   0  0  0  0  0  0  0  0  0  0  0  0
   13.6468   12.7423   23.5654 C   0  0  0  0  0  0  0  0  0  0  0  0
   10.5884   14.3108   24.2212 N   0  0  0  0  0  0  0  0  0  0  0  0
   11.4941   12.2263   22.4321 N   0  0  2  0  0  0  0  0  0  0  0  0
   13.8602   11.5640   24.3219 O   0  0  0  0  0  0  0  0  0  0  0  0
    6.9235    8.6808   24.0242 F   0  0  0  0  0  0  0  0  0  0  0  0
   11.1700   14.7806   21.1768 F   0  0  0  0  0  0  0  0  0  0  0  0
    7.4887   13.0190   25.1169 H   0  0  0  0  0  0  0  0  0  0  0  0
    6.1393   10.9566   25.0480 H   0  0  0  0  0  0  0  0  0  0  0  0
    9.3448    8.8908   23.0788 H   0  0  0  0  0  0  0  0  0  0  0  0
   13.7842   13.1029   20.4121 H   0  0  0  0  0  0  0  0  0  0  0  0
   13.4958   14.3971   21.5973 H   0  0  0  0  0  0  0  0  0  0  0  0
    9.8467   12.6773   21.1678 H   0  0  0  0  0  0  0  0  0  0  0  0
   11.0807   11.6027   20.4378 H   0  0  0  0  0  0  0  0  0  0  0  0
   11.7006   13.7773   19.5401 H   0  0  0  0  0  0  0  0  0  0  0  0
   13.3871   11.4362   21.8752 H   0  0  0  0  0  0  0  0  0  0  0  0
   11.8341   10.6430   23.7306 H   0  0  0  0  0  0  0  0  0  0  0  0
   11.1634   10.1971   22.1611 H   0  0  0  0  0  0  0  0  0  0  0  0
   13.0232   13.4293   24.1385 H   0  0  0  0  0  0  0  0  0  0  0  0
   14.6079   13.2110   23.3514 H   0  0  0  0  0  0  0  0  0  0  0  0
   14.3055   11.8301   25.1443 H   0  0  0  0  0  0  0  0  0  0  0  0
  1  5  1  0  0  0  0
  1 14  3  0  0  0  0
  2  3  1  0  0  0  0
  2  5  2  0  0  0  0
  3  7  2  0  0  0  0
  4  6  2  0  0  0  0
  4  7  1  0  0  0  0
  5  6  1  0  0  0  0
  6 12  1  0  0  0  0
  7 17  1  0  0  0  0
  8 10  1  0  0  0  0
  8 11  1  0  0  0  0
  9 10  1  0  0  0  0
  9 15  1  0  0  0  0
 10 18  1  1  0  0  0
 11 13  1  1  0  0  0
 11 15  1  0  0  0  0
 12 15  1  0  0  0  0
 13 16  1  0  0  0  0
  2 19  1  0  0  0  0
  3 20  1  0  0  0  0
  4 21  1  0  0  0  0
  8 22  1  0  0  0  0
  8 23  1  0  0  0  0
  9 24  1  0  0  0  0
  9 25  1  0  0  0  0
 10 26  1  0  0  0  0
 11 27  1  0  0  0  0
 12 28  1  0  0  0  0
 12 29  1  0  0  0  0
 13 30  1  0  0  0  0
 13 31  1  0  0  0  0
 16 32  1  0  0  0  0
M  END
> <Catalog ID>
Z2057681069

> <PlateID>
1337959-R-11

> <Well>
H11

> <MW (desalted)>
252.260

> <CLogP>
1.684

> <HBD>
1

> <TPSA>
47.260

> <RotBonds>
3

> <ROCS_ShapeQuery>
A71EV2A-x0451_0A_A71EV2A-x0310_0A_A71EV2A-x0416_0A_peptide

> <ROCS_TanimotoCombo>
0.403 

> <ROCS_ShapeTanimoto>
0.277 

> <ROCS_ColorTanimoto>
0.126 

> <ROCS_RefTversky>
0.252 

> <ROCS_RefColorTversky>
0.139 

> <ROCS_RefTverskyCombo>
0.391 

> <ROCS_FitTversky>
1.562 

> <ROCS_FitColorTversky>
0.580 

> <ROCS_FitTverskyCombo>
2.142 

> <ROCS_ColorScore>
-4.225

> <ROCS_Overlap>
1747.341

> <ROCS_Rank>
415                 

$$$$
untitled-dbase-1117_44
  -OEChem-11112309163D

 29 30  0     1  0  0  0  0  0999 V2000
   10.4097   13.2193   23.2931 C   0  0  0  0  0  0  0  0  0  0  0  0
    7.5002   10.6868   23.9087 C   0  0  0  0  0  0  0  0  0  0  0  0
    8.2598   12.0210   25.2814 C   0  0  0  0  0  0  0  0  0  0  0  0
    9.9768   11.2315   21.8811 C   0  0  0  0  0  0  0  0  0  0  0  0
    9.9899   10.2981   24.3991 C   0  0  0  0  0  0  0  0  0  0  0  0
    9.3852   12.1970   22.9058 C   0  0  1  0  0  0  0  0  0  0  0  0
    8.9031   11.3225   24.0680 C   0  0  0  0  0  0  0  0  0  0  0  0
   11.7836   15.7724   22.0852 C   0  0  0  0  0  0  0  0  0  0  0  0
   12.2876   14.4002   22.4789 C   0  0  0  0  0  0  0  0  0  0  0  0
   10.4583   13.7592   24.3901 O   0  0  0  0  0  0  0  0  0  0  0  0
   12.1579   10.1631   22.9098 O   0  0  0  0  0  0  0  0  0  0  0  0
   10.2010    8.6504   22.3523 O   0  0  0  0  0  0  0  0  0  0  0  0
    7.1165   11.1322   25.2337 O   0  0  0  0  0  0  0  0  0  0  0  0
   11.2535   13.4390   22.2449 O   0  0  0  0  0  0  0  0  0  0  0  0
    8.3143   12.8229   22.3442 F   0  0  0  0  0  0  0  0  0  0  0  0
   10.7340    9.9130   22.8210 S   0  0  0  0  0  0  0  0  0  0  0  0
    6.8545   11.1271   23.1457 H   0  0  0  0  0  0  0  0  0  0  0  0
    7.4768    9.5987   23.8240 H   0  0  0  0  0  0  0  0  0  0  0  0
    8.7958   11.9373   26.2344 H   0  0  0  0  0  0  0  0  0  0  0  0
    7.9425   13.0627   25.1521 H   0  0  0  0  0  0  0  0  0  0  0  0
    9.2133   10.8018   21.2235 H   0  0  0  0  0  0  0  0  0  0  0  0
   10.7652   11.6988   21.2780 H   0  0  0  0  0  0  0  0  0  0  0  0
   10.7552   10.6659   25.0865 H   0  0  0  0  0  0  0  0  0  0  0  0
    9.5551    9.3721   24.7881 H   0  0  0  0  0  0  0  0  0  0  0  0
   11.5147   15.8001   21.0256 H   0  0  0  0  0  0  0  0  0  0  0  0
   10.9061   16.0466   22.6800 H   0  0  0  0  0  0  0  0  0  0  0  0
   12.5477   16.5333   22.2758 H   0  0  0  0  0  0  0  0  0  0  0  0
   12.5548   14.3793   23.5396 H   0  0  0  0  0  0  0  0  0  0  0  0
   13.1638   14.1275   21.8831 H   0  0  0  0  0  0  0  0  0  0  0  0
  1  6  1  0  0  0  0
  1 10  2  0  0  0  0
  1 14  1  0  0  0  0
  2  7  1  0  0  0  0
  2 13  1  0  0  0  0
  3  7  1  0  0  0  0
  3 13  1  0  0  0  0
  4  6  1  0  0  0  0
  4 16  1  0  0  0  0
  5  7  1  0  0  0  0
  5 16  1  0  0  0  0
  6  7  1  0  0  0  0
  6 15  1  0  0  0  0
  8  9  1  0  0  0  0
  9 14  1  0  0  0  0
 11 16  2  0  0  0  0
 12 16  2  0  0  0  0
  2 17  1  0  0  0  0
  2 18  1  0  0  0  0
  3 19  1  0  0  0  0
  3 20  1  0  0  0  0
  4 21  1  0  0  0  0
  4 22  1  0  0  0  0
  5 23  1  0  0  0  0
  5 24  1  0  0  0  0
  8 25  1  0  0  0  0
  8 26  1  0  0  0  0
  8 27  1  0  0  0  0
  9 28  1  0  0  0  0
  9 29  1  0  0  0  0
M  END
> <Catalog ID>
Z4480679392

> <PlateID>
1337959-R-15

> <Well>
A03

> <MW (desalted)>
252.260

> <CLogP>
0.317

> <HBD>
0

> <TPSA>
69.670

> <RotBonds>
3

> <ROCS_ShapeQuery>
A71EV2A-x0451_0A_A71EV2A-x0310_0A_A71EV2A-x0416_0A_peptide

> <ROCS_TanimotoCombo>
0.403 

> <ROCS_ShapeTanimoto>
0.269 

> <ROCS_ColorTanimoto>
0.134 

> <ROCS_RefTversky>
0.243 

> <ROCS_RefColorTversky>
0.147 

> <ROCS_RefTverskyCombo>
0.390 

> <ROCS_FitTversky>
1.651 

> <ROCS_FitColorTversky>
0.611 

> <ROCS_FitTverskyCombo>
2.262 

> <ROCS_ColorScore>
-4.461

> <ROCS_Overlap>
1685.812

> <ROCS_Rank>
416                 

$$$$
untitled-dbase-697_10
  -OEChem-11112309163D

 28 29  0     0  0  0  0  0  0999 V2000
    7.8755   10.0342   23.7303 C   0  0  0  0  0  0  0  0  0  0  0  0
    9.1940    9.9863   23.2776 C   0  0  0  0  0  0  0  0  0  0  0  0
    7.3407   11.2360   24.1944 C   0  0  0  0  0  0  0  0  0  0  0  0
    9.4429   12.3419   23.7534 C   0  0  0  0  0  0  0  0  0  0  0  0
    9.9777   11.1401   23.2892 C   0  0  0  0  0  0  0  0  0  0  0  0
    8.1244   12.3898   24.2059 C   0  0  0  0  0  0  0  0  0  0  0  0
   10.2682   13.5572   23.7653 C   0  0  0  0  0  0  0  0  0  0  0  0
   10.8799   16.6099   21.7849 C   0  0  0  0  0  0  0  0  0  0  0  0
    8.6594   15.7723   21.3759 C   0  0  0  0  0  0  0  0  0  0  0  0
   11.3697   15.2162   22.1759 C   0  0  0  0  0  0  0  0  0  0  0  0
    9.0969   14.3573   21.7418 C   0  0  0  0  0  0  0  0  0  0  0  0
    9.7769   16.5410   20.8246 N   0  0  0  0  0  0  0  0  0  0  0  0
   10.2573   14.3732   22.6315 N   0  0  0  0  0  0  0  0  0  0  0  0
   10.9103   13.7684   24.7932 O   0  0  0  0  0  0  0  0  0  0  0  0
   11.2438   11.0830   22.8520 F   0  0  0  0  0  0  0  0  0  0  0  0
    7.6005   13.5396   24.6541 F   0  0  0  0  0  0  0  0  0  0  0  0
    7.2653    9.1359   23.7209 H   0  0  0  0  0  0  0  0  0  0  0  0
    9.6106    9.0507   22.9164 H   0  0  0  0  0  0  0  0  0  0  0  0
    6.3142   11.2735   24.5470 H   0  0  0  0  0  0  0  0  0  0  0  0
   10.5690   17.1665   22.6775 H   0  0  0  0  0  0  0  0  0  0  0  0
   11.7076   17.1664   21.3321 H   0  0  0  0  0  0  0  0  0  0  0  0
    7.8630   15.7189   20.6256 H   0  0  0  0  0  0  0  0  0  0  0  0
    8.2419   16.2823   22.2528 H   0  0  0  0  0  0  0  0  0  0  0  0
   11.8186   14.7115   21.3115 H   0  0  0  0  0  0  0  0  0  0  0  0
   12.1454   15.3035   22.9412 H   0  0  0  0  0  0  0  0  0  0  0  0
    8.2654   13.8176   22.2068 H   0  0  0  0  0  0  0  0  0  0  0  0
    9.3877   13.7998   20.8428 H   0  0  0  0  0  0  0  0  0  0  0  0
    9.4617   17.4857   20.6062 H   0  0  0  0  0  0  0  0  0  0  0  0
  1  2  1  0  0  0  0
  1  3  2  0  0  0  0
  2  5  2  0  0  0  0
  3  6  1  0  0  0  0
  4  5  1  0  0  0  0
  4  6  2  0  0  0  0
  4  7  1  0  0  0  0
  5 15  1  0  0  0  0
  6 16  1  0  0  0  0
  7 13  1  0  0  0  0
  7 14  2  0  0  0  0
  8 10  1  0  0  0  0
  8 12  1  0  0  0  0
  9 11  1  0  0  0  0
  9 12  1  0  0  0  0
 10 13  1  0  0  0  0
 11 13  1  0  0  0  0
  1 17  1  0  0  0  0
  2 18  1  0  0  0  0
  3 19  1  0  0  0  0
  8 20  1  0  0  0  0
  8 21  1  0  0  0  0
  9 22  1  0  0  0  0
  9 23  1  0  0  0  0
 10 24  1  0  0  0  0
 10 25  1  0  0  0  0
 11 26  1  0  0  0  0
 11 27  1  0  0  0  0
 12 28  1  0  0  0  0
M  END
> <Catalog ID>
Z285189104

> <PlateID>
1337959-R-09

> <Well>
F10

> <MW (desalted)>
226.223

> <CLogP>
1.146

> <HBD>
1

> <TPSA>
32.340

> <RotBonds>
1

> <ROCS_ShapeQuery>
A71EV2A-x0451_0A_A71EV2A-x0310_0A_A71EV2A-x0416_0A_peptide

> <ROCS_TanimotoCombo>
0.403 

> <ROCS_ShapeTanimoto>
0.253 

> <ROCS_ColorTanimoto>
0.150 

> <ROCS_RefTversky>
0.232 

> <ROCS_RefColorTversky>
0.158 

> <ROCS_RefTverskyCombo>
0.390 

> <ROCS_FitTversky>
1.544 

> <ROCS_FitColorTversky>
0.756 

> <ROCS_FitTverskyCombo>
2.300 

> <ROCS_ColorScore>
-4.789

> <ROCS_Overlap>
1610.564

> <ROCS_Rank>
417                 

$$$$
untitled-dbase-957_13
  -OEChem-11112309163D

 32 33  0     0  0  0  0  0  0999 V2000
    8.6765    9.8124   23.2843 C   0  0  0  0  0  0  0  0  0  0  0  0
    9.6355   10.7827   22.9937 C   0  0  0  0  0  0  0  0  0  0  0  0
    7.6964   10.0658   24.2438 C   0  0  0  0  0  0  0  0  0  0  0  0
    8.6344   12.2598   24.6225 C   0  0  0  0  0  0  0  0  0  0  0  0
    9.6145   12.0064   23.6628 C   0  0  0  0  0  0  0  0  0  0  0  0
    7.6753   11.2895   24.9130 C   0  0  0  0  0  0  0  0  0  0  0  0
    8.9413   15.7317   21.8911 C   0  0  0  0  0  0  0  0  0  0  0  0
   11.2563   15.9240   21.2093 C   0  0  0  0  0  0  0  0  0  0  0  0
    8.9527   14.2362   21.5812 C   0  0  0  0  0  0  0  0  0  0  0  0
   11.3071   14.4316   20.8880 C   0  0  0  0  0  0  0  0  0  0  0  0
    9.8582   17.8853   21.3139 C   0  0  0  0  0  0  0  0  0  0  0  0
    9.8949   16.4507   21.0334 N   0  0  0  0  0  0  0  0  0  0  0  0
   10.3282   13.6867   21.7258 N   0  0  0  0  0  0  0  0  0  0  0  0
   10.6181   14.3477   24.1962 O   0  0  0  0  0  0  0  0  0  0  0  0
   12.1145   12.5783   23.2076 O   0  0  0  0  0  0  0  0  0  0  0  0
   10.8277   13.2349   23.2949 S   0  0  0  0  0  0  0  0  0  0  0  0
    6.4668   11.6012   26.0978 Cl  0  0  0  0  0  0  0  0  0  0  0  0
    8.6929    8.8597   22.7629 H   0  0  0  0  0  0  0  0  0  0  0  0
   10.3941   10.5743   22.2442 H   0  0  0  0  0  0  0  0  0  0  0  0
    6.9556    9.3004   24.4608 H   0  0  0  0  0  0  0  0  0  0  0  0
    8.6224   13.2147   25.1433 H   0  0  0  0  0  0  0  0  0  0  0  0
    7.9264   16.1294   21.7580 H   0  0  0  0  0  0  0  0  0  0  0  0
    9.2124   15.8671   22.9449 H   0  0  0  0  0  0  0  0  0  0  0  0
   11.5782   16.0642   22.2481 H   0  0  0  0  0  0  0  0  0  0  0  0
   11.9662   16.4638   20.5684 H   0  0  0  0  0  0  0  0  0  0  0  0
    8.2658   13.6952   22.2499 H   0  0  0  0  0  0  0  0  0  0  0  0
    8.6073   14.0835   20.5485 H   0  0  0  0  0  0  0  0  0  0  0  0
   11.0604   14.2870   19.8263 H   0  0  0  0  0  0  0  0  0  0  0  0
   12.3187   14.0318   21.0568 H   0  0  0  0  0  0  0  0  0  0  0  0
   10.5771   18.4051   20.6635 H   0  0  0  0  0  0  0  0  0  0  0  0
    8.8458   18.2704   21.1224 H   0  0  0  0  0  0  0  0  0  0  0  0
   10.1238   18.0598   22.3670 H   0  0  0  0  0  0  0  0  0  0  0  0
  1  2  1  0  0  0  0
  1  3  2  0  0  0  0
  2  5  2  0  0  0  0
  3  6  1  0  0  0  0
  4  5  1  0  0  0  0
  4  6  2  0  0  0  0
  5 16  1  0  0  0  0
  6 17  1  0  0  0  0
  7  9  1  0  0  0  0
  7 12  1  0  0  0  0
  8 10  1  0  0  0  0
  8 12  1  0  0  0  0
  9 13  1  0  0  0  0
 10 13  1  0  0  0  0
 11 12  1  0  0  0  0
 13 16  1  0  0  0  0
 14 16  2  0  0  0  0
 15 16  2  0  0  0  0
  1 18  1  0  0  0  0
  2 19  1  0  0  0  0
  3 20  1  0  0  0  0
  4 21  1  0  0  0  0
  7 22  1  0  0  0  0
  7 23  1  0  0  0  0
  8 24  1  0  0  0  0
  8 25  1  0  0  0  0
  9 26  1  0  0  0  0
  9 27  1  0  0  0  0
 10 28  1  0  0  0  0
 10 29  1  0  0  0  0
 11 30  1  0  0  0  0
 11 31  1  0  0  0  0
 11 32  1  0  0  0  0
M  END
> <Catalog ID>
Z45507452

> <PlateID>
1337959-R-12

> <Well>
H11

> <MW (desalted)>
274.767

> <CLogP>
2.557

> <HBD>
0

> <TPSA>
40.620

> <RotBonds>
1

> <ROCS_ShapeQuery>
A71EV2A-x0451_0A_A71EV2A-x0310_0A_A71EV2A-x0416_0A_peptide

> <ROCS_TanimotoCombo>
0.403 

> <ROCS_ShapeTanimoto>
0.271 

> <ROCS_ColorTanimoto>
0.132 

> <ROCS_RefTversky>
0.245 

> <ROCS_RefColorTversky>
0.141 

> <ROCS_RefTverskyCombo>
0.386 

> <ROCS_FitTversky>
1.629 

> <ROCS_FitColorTversky>
0.677 

> <ROCS_FitTverskyCombo>
2.306 

> <ROCS_ColorScore>
-4.294

> <ROCS_Overlap>
1698.465

> <ROCS_Rank>
418                 

$$$$
untitled-dbase-1004_22
  -OEChem-11112309163D

 29 30  0     0  0  0  0  0  0999 V2000
    6.4384   10.8376   25.8411 C   0  0  0  0  0  0  0  0  0  0  0  0
    9.0406    9.7180   23.4264 C   0  0  0  0  0  0  0  0  0  0  0  0
    7.9745    9.6881   24.3254 C   0  0  0  0  0  0  0  0  0  0  0  0
    9.6623   10.9289   23.1217 C   0  0  0  0  0  0  0  0  0  0  0  0
    8.1517   12.0801   24.6150 C   0  0  0  0  0  0  0  0  0  0  0  0
    7.5300   10.8691   24.9197 C   0  0  0  0  0  0  0  0  0  0  0  0
    9.2178   12.1100   23.7160 C   0  0  0  0  0  0  0  0  0  0  0  0
    9.8604   13.3622   23.3998 C   0  0  0  0  0  0  0  0  0  0  0  0
   10.6040   15.0646   22.2782 C   0  0  0  0  0  0  0  0  0  0  0  0
   10.4227   13.7848   18.6943 C   0  0  0  0  0  0  0  0  0  0  0  0
   10.4481   13.1716   19.8830 C   0  0  0  0  0  0  0  0  0  0  0  0
   10.8974   15.9585   21.1437 C   0  0  0  0  0  0  0  0  0  0  0  0
    9.3880   13.3344   20.9274 C   0  0  0  0  0  0  0  0  0  0  0  0
    5.5518   10.8119   26.5895 N   0  0  0  0  0  0  0  0  0  0  0  0
   10.4638   14.1619   24.2500 N   0  0  0  0  0  0  0  0  0  0  0  0
   10.9369   15.2450   23.5364 N   0  0  0  0  0  0  0  0  0  0  0  0
    9.9247   13.8916   22.1466 N   0  0  0  0  0  0  0  0  0  0  0  0
    9.3865    8.7984   22.9634 H   0  0  0  0  0  0  0  0  0  0  0  0
    7.5002    8.7364   24.5529 H   0  0  0  0  0  0  0  0  0  0  0  0
   10.4918   10.9357   22.4184 H   0  0  0  0  0  0  0  0  0  0  0  0
    7.8046   13.0020   25.0797 H   0  0  0  0  0  0  0  0  0  0  0  0
   11.2115   13.6400   17.9645 H   0  0  0  0  0  0  0  0  0  0  0  0
    9.6039   14.4470   18.4353 H   0  0  0  0  0  0  0  0  0  0  0  0
   11.2919   12.5273   20.1170 H   0  0  0  0  0  0  0  0  0  0  0  0
   11.8620   15.7035   20.6732 H   0  0  0  0  0  0  0  0  0  0  0  0
   10.1205   15.9057   20.3607 H   0  0  0  0  0  0  0  0  0  0  0  0
   10.9461   17.0182   21.4508 H   0  0  0  0  0  0  0  0  0  0  0  0
    8.9042   12.3842   21.1832 H   0  0  0  0  0  0  0  0  0  0  0  0
    8.6030   14.0081   20.5653 H   0  0  0  0  0  0  0  0  0  0  0  0
  1  6  1  0  0  0  0
  1 14  3  0  0  0  0
  2  3  2  0  0  0  0
  2  4  1  0  0  0  0
  3  6  1  0  0  0  0
  4  7  2  0  0  0  0
  5  6  2  0  0  0  0
  5  7  1  0  0  0  0
  7  8  1  0  0  0  0
  8 15  2  0  0  0  0
  8 17  1  0  0  0  0
  9 12  1  0  0  0  0
  9 16  2  0  0  0  0
  9 17  1  0  0  0  0
 10 11  2  0  0  0  0
 11 13  1  0  0  0  0
 13 17  1  0  0  0  0
 15 16  1  0  0  0  0
  2 18  1  0  0  0  0
  3 19  1  0  0  0  0
  4 20  1  0  0  0  0
  5 21  1  0  0  0  0
 10 22  1  0  0  0  0
 10 23  1  0  0  0  0
 11 24  1  0  0  0  0
 12 25  1  0  0  0  0
 12 26  1  0  0  0  0
 12 27  1  0  0  0  0
 13 28  1  0  0  0  0
 13 29  1  0  0  0  0
M  END
> <Catalog ID>
Z1245829523

> <PlateID>
1337959-R-13

> <Well>
E09

> <MW (desalted)>
224.261

> <CLogP>
1.502

> <HBD>
0

> <TPSA>
54.500

> <RotBonds>
3

> <ROCS_ShapeQuery>
A71EV2A-x0451_0A_A71EV2A-x0310_0A_A71EV2A-x0416_0A_peptide

> <ROCS_TanimotoCombo>
0.403 

> <ROCS_ShapeTanimoto>
0.270 

> <ROCS_ColorTanimoto>
0.133 

> <ROCS_RefTversky>
0.246 

> <ROCS_RefColorTversky>
0.146 

> <ROCS_RefTverskyCombo>
0.393 

> <ROCS_FitTversky>
1.565 

> <ROCS_FitColorTversky>
0.589 

> <ROCS_FitTverskyCombo>
2.154 

> <ROCS_ColorScore>
-4.457

> <ROCS_Overlap>
1706.926

> <ROCS_Rank>
419                 

$$$$
untitled-dbase-179_23
  -OEChem-11112309163D

 31 32  0     1  0  0  0  0  0999 V2000
    8.6604   11.6390   25.8475 C   0  0  0  0  0  0  0  0  0  0  0  0
    7.1050   12.3117   23.9914 C   0  0  0  0  0  0  0  0  0  0  0  0
   10.2762   11.0704   23.3092 C   0  0  0  0  0  0  0  0  0  0  0  0
    7.4717   10.9267   26.4862 C   0  0  0  0  0  0  0  0  0  0  0  0
    6.0236   11.5211   24.7161 C   0  0  0  0  0  0  0  0  0  0  0  0
    8.8761   10.4460   23.4830 C   0  0  2  0  0  0  0  0  0  0  0  0
    9.6435   12.4519   23.5681 C   0  0  1  0  0  0  0  0  0  0  0  0
    8.4803   11.7160   24.3209 C   0  0  0  0  0  0  0  0  0  0  0  0
   11.3834   14.2521   22.3306 C   0  0  0  0  0  0  0  0  0  0  0  0
   11.6617   13.6518   23.6921 C   0  0  0  0  0  0  0  0  0  0  0  0
    6.2450   11.5654   26.1272 O   0  0  0  0  0  0  0  0  0  0  0  0
    8.8438    9.1709   24.1456 O   0  0  0  0  0  0  0  0  0  0  0  0
   10.4310   13.3790   24.3360 O   0  0  0  0  0  0  0  0  0  0  0  0
    8.7845   12.6338   26.2907 H   0  0  0  0  0  0  0  0  0  0  0  0
    9.5696   11.0651   26.0714 H   0  0  0  0  0  0  0  0  0  0  0  0
    6.9356   12.2493   22.9089 H   0  0  0  0  0  0  0  0  0  0  0  0
    7.0483   13.3693   24.2734 H   0  0  0  0  0  0  0  0  0  0  0  0
   11.0081   10.7569   24.0620 H   0  0  0  0  0  0  0  0  0  0  0  0
   10.7193   10.9421   22.3175 H   0  0  0  0  0  0  0  0  0  0  0  0
    7.4245    9.8951   26.1215 H   0  0  0  0  0  0  0  0  0  0  0  0
    7.5477   10.8794   27.5772 H   0  0  0  0  0  0  0  0  0  0  0  0
    5.0195   11.8977   24.4896 H   0  0  0  0  0  0  0  0  0  0  0  0
    6.0623   10.4716   24.4080 H   0  0  0  0  0  0  0  0  0  0  0  0
    8.3473   10.3798   22.5232 H   0  0  0  0  0  0  0  0  0  0  0  0
    9.3153   12.9293   22.6359 H   0  0  0  0  0  0  0  0  0  0  0  0
   10.8101   13.5593   21.7084 H   0  0  0  0  0  0  0  0  0  0  0  0
   10.8218   15.1870   22.4284 H   0  0  0  0  0  0  0  0  0  0  0  0
   12.3197   14.4956   21.8176 H   0  0  0  0  0  0  0  0  0  0  0  0
   12.2353   14.3497   24.3093 H   0  0  0  0  0  0  0  0  0  0  0  0
   12.2221   12.7174   23.5925 H   0  0  0  0  0  0  0  0  0  0  0  0
    9.3777    8.5778   23.6010 H   0  0  0  0  0  0  0  0  0  0  0  0
  1  4  1  0  0  0  0
  1  8  1  0  0  0  0
  2  5  1  0  0  0  0
  2  8  1  0  0  0  0
  3  6  1  0  0  0  0
  3  7  1  0  0  0  0
  4 11  1  0  0  0  0
  5 11  1  0  0  0  0
  6  8  1  0  0  0  0
  6 12  1  0  0  0  0
  7  8  1  0  0  0  0
  7 13  1  0  0  0  0
  9 10  1  0  0  0  0
 10 13  1  0  0  0  0
  1 14  1  0  0  0  0
  1 15  1  0  0  0  0
  2 16  1  0  0  0  0
  2 17  1  0  0  0  0
  3 18  1  0  0  0  0
  3 19  1  0  0  0  0
  4 20  1  0  0  0  0
  4 21  1  0  0  0  0
  5 22  1  0  0  0  0
  5 23  1  0  0  0  0
  6 24  1  0  0  0  0
  7 25  1  0  0  0  0
  9 26  1  0  0  0  0
  9 27  1  0  0  0  0
  9 28  1  0  0  0  0
 10 29  1  0  0  0  0
 10 30  1  0  0  0  0
 12 31  1  0  0  0  0
M  END
> <Catalog ID>
Z1682055305

> <PlateID>
1337959-R-03

> <Well>
B11

> <MW (desalted)>
186.248

> <CLogP>
0.143

> <HBD>
1

> <TPSA>
38.690

> <RotBonds>
2

> <ROCS_ShapeQuery>
A71EV2A-x0451_0A_A71EV2A-x0310_0A_A71EV2A-x0416_0A_peptide

> <ROCS_TanimotoCombo>
0.403 

> <ROCS_ShapeTanimoto>
0.246 

> <ROCS_ColorTanimoto>
0.157 

> <ROCS_RefTversky>
0.223 

> <ROCS_RefColorTversky>
0.168 

> <ROCS_RefTverskyCombo>
0.391 

> <ROCS_FitTversky>
1.742 

> <ROCS_FitColorTversky>
0.701 

> <ROCS_FitTverskyCombo>
2.443 

> <ROCS_ColorScore>
-5.107

> <ROCS_Overlap>
1542.334

> <ROCS_Rank>
420                 

$$$$
untitled-dbase-511_1
  -OEChem-11112309163D

 24 25  0     1  0  0  0  0  0999 V2000
    7.7368   11.2380   24.8418 C   0  0  0  0  0  0  0  0  0  0  0  0
   10.1735   13.6050   23.4964 C   0  0  0  0  0  0  0  0  0  0  0  0
    9.1492   11.3775   25.3747 C   0  0  0  0  0  0  0  0  0  0  0  0
    8.4286    9.6396   23.1195 C   0  0  0  0  0  0  0  0  0  0  0  0
    9.8846    9.7805   23.5976 C   0  0  0  0  0  0  0  0  0  0  0  0
    8.3398   12.1173   22.6399 C   0  0  0  0  0  0  0  0  0  0  0  0
    7.6542   10.9437   23.3541 C   0  0  2  0  0  0  0  0  0  0  0  0
    9.8170   12.2113   23.0675 C   0  0  2  0  0  0  0  0  0  0  0  0
   10.1166   11.1868   24.1865 C   0  0  1  0  0  0  0  0  0  0  0  0
    6.7454   11.3529   25.5557 O   0  0  0  0  0  0  0  0  0  0  0  0
   10.6154   13.9100   24.5941 O   0  0  0  0  0  0  0  0  0  0  0  0
    9.9359   14.4890   22.4967 O   0  0  0  0  0  0  0  0  0  0  0  0
    9.2636   12.3683   25.8242 H   0  0  0  0  0  0  0  0  0  0  0  0
    9.3167   10.6107   26.1378 H   0  0  0  0  0  0  0  0  0  0  0  0
    8.4121    9.3758   22.0555 H   0  0  0  0  0  0  0  0  0  0  0  0
    7.9491    8.8137   23.6593 H   0  0  0  0  0  0  0  0  0  0  0  0
   10.1039    9.0130   24.3498 H   0  0  0  0  0  0  0  0  0  0  0  0
   10.5692    9.6012   22.7600 H   0  0  0  0  0  0  0  0  0  0  0  0
    8.2850   11.9682   21.5544 H   0  0  0  0  0  0  0  0  0  0  0  0
    7.8008   13.0480   22.8571 H   0  0  0  0  0  0  0  0  0  0  0  0
    6.6086   10.8470   23.0470 H   0  0  0  0  0  0  0  0  0  0  0  0
   10.4549   11.9983   22.2000 H   0  0  0  0  0  0  0  0  0  0  0  0
   11.1516   11.2810   24.5348 H   0  0  0  0  0  0  0  0  0  0  0  0
    9.5822   14.0487   21.6946 H   0  0  0  0  0  0  0  0  0  0  0  0
  1  3  1  0  0  0  0
  1  7  1  6  0  0  0
  1 10  2  0  0  0  0
  2  8  1  6  0  0  0
  2 11  2  0  0  0  0
  2 12  1  0  0  0  0
  3  9  1  1  0  0  0
  4  5  1  0  0  0  0
  4  7  1  0  0  0  0
  5  9  1  0  0  0  0
  6  7  1  0  0  0  0
  6  8  1  0  0  0  0
  8  9  1  0  0  0  0
  3 13  1  0  0  0  0
  3 14  1  0  0  0  0
  4 15  1  0  0  0  0
  4 16  1  0  0  0  0
  5 17  1  0  0  0  0
  5 18  1  0  0  0  0
  6 19  1  0  0  0  0
  6 20  1  0  0  0  0
  7 21  1  0  0  0  0
  8 22  1  0  0  0  0
  9 23  1  0  0  0  0
 12 24  1  0  0  0  0
M  END
> <Catalog ID>
Z4414515229

> <PlateID>
1337959-R-07

> <Well>
D03

> <MW (desalted)>
168.190

> <CLogP>
0.618

> <HBD>
1

> <TPSA>
54.370

> <RotBonds>
1

> <ROCS_ShapeQuery>
A71EV2A-x0451_0A_A71EV2A-x0310_0A_A71EV2A-x0416_0A_peptide

> <ROCS_TanimotoCombo>
0.403 

> <ROCS_ShapeTanimoto>
0.224 

> <ROCS_ColorTanimoto>
0.179 

> <ROCS_RefTversky>
0.205 

> <ROCS_RefColorTversky>
0.207 

> <ROCS_RefTverskyCombo>
0.413 

> <ROCS_FitTversky>
1.646 

> <ROCS_FitColorTversky>
0.571 

> <ROCS_FitTverskyCombo>
2.217 

> <ROCS_ColorScore>
-6.340

> <ROCS_Overlap>
1422.432

> <ROCS_Rank>
421                 

$$$$
untitled-dbase-532_88
  -OEChem-11112309163D

 25 26  0     1  0  0  0  0  0999 V2000
    7.5875   11.1368   24.3356 C   0  0  0  0  0  0  0  0  0  0  0  0
    9.6467   11.8563   23.8756 C   0  0  0  0  0  0  0  0  0  0  0  0
    8.3442   12.4132   24.3248 C   0  0  0  0  0  0  0  0  0  0  0  0
   11.3035   12.7598   22.2280 C   0  0  0  0  0  0  0  0  0  0  0  0
   11.7776   14.1853   22.0867 C   0  0  0  0  0  0  0  0  0  0  0  0
   10.8527   12.7111   23.6741 C   0  0  1  0  0  0  0  0  0  0  0  0
   10.8296   14.9472   22.9966 C   0  0  1  0  0  0  0  0  0  0  0  0
    9.5587   15.4005   22.2900 C   0  0  0  0  0  0  0  0  0  0  0  0
    8.2947   10.1154   23.9794 N   0  0  0  0  0  0  0  0  0  0  0  0
    9.6164   10.5736   23.6835 N   0  0  0  0  0  0  0  0  0  0  0  0
    9.8817   16.2675   21.2023 N   0  0  0  0  0  0  0  0  0  0  0  0
   10.4689   14.0387   24.0501 O   0  0  0  0  0  0  0  0  0  0  0  0
    6.5289   11.0951   24.6229 H   0  0  0  0  0  0  0  0  0  0  0  0
    7.9263   13.1142   23.6020 H   0  0  0  0  0  0  0  0  0  0  0  0
    8.4050   12.8459   25.3235 H   0  0  0  0  0  0  0  0  0  0  0  0
   10.5260   12.4941   21.5080 H   0  0  0  0  0  0  0  0  0  0  0  0
   12.1497   12.0792   22.0840 H   0  0  0  0  0  0  0  0  0  0  0  0
   12.8318   14.3210   22.3635 H   0  0  0  0  0  0  0  0  0  0  0  0
   11.6647   14.5105   21.0410 H   0  0  0  0  0  0  0  0  0  0  0  0
   11.6480   12.3570   24.3447 H   0  0  0  0  0  0  0  0  0  0  0  0
   11.3263   15.8023   23.4491 H   0  0  0  0  0  0  0  0  0  0  0  0
    9.0457   14.5096   21.9216 H   0  0  0  0  0  0  0  0  0  0  0  0
    8.9405   15.9270   23.0201 H   0  0  0  0  0  0  0  0  0  0  0  0
   10.4807   15.7936   20.5520 H   0  0  0  0  0  0  0  0  0  0  0  0
    9.0437   16.5489   20.7281 H   0  0  0  0  0  0  0  0  0  0  0  0
  1  3  1  0  0  0  0
  1  9  2  0  0  0  0
  2  3  1  0  0  0  0
  2  6  1  0  0  0  0
  2 10  2  0  0  0  0
  4  5  1  0  0  0  0
  4  6  1  0  0  0  0
  5  7  1  0  0  0  0
  6 12  1  0  0  0  0
  7  8  1  0  0  0  0
  7 12  1  0  0  0  0
  8 11  1  0  0  0  0
  9 10  1  0  0  0  0
  1 13  1  0  0  0  0
  3 14  1  0  0  0  0
  3 15  1  0  0  0  0
  4 16  1  0  0  0  0
  4 17  1  0  0  0  0
  5 18  1  0  0  0  0
  5 19  1  0  0  0  0
  6 20  1  0  0  0  0
  7 21  1  0  0  0  0
  8 22  1  0  0  0  0
  8 23  1  0  0  0  0
 11 24  1  0  0  0  0
 11 25  1  0  0  0  0
M  END
> <Catalog ID>
Z2350938897

> <PlateID>
1337959-R-07

> <Well>
F04

> <MW (desalted)>
167.208

> <CLogP>
-0.428

> <HBD>
2

> <TPSA>
63.930

> <RotBonds>
2

> <ROCS_ShapeQuery>
A71EV2A-x0451_0A_A71EV2A-x0310_0A_A71EV2A-x0416_0A_peptide

> <ROCS_TanimotoCombo>
0.403 

> <ROCS_ShapeTanimoto>
0.233 

> <ROCS_ColorTanimoto>
0.169 

> <ROCS_RefTversky>
0.213 

> <ROCS_RefColorTversky>
0.185 

> <ROCS_RefTverskyCombo>
0.398 

> <ROCS_FitTversky>
1.699 

> <ROCS_FitColorTversky>
0.665 

> <ROCS_FitTverskyCombo>
2.364 

> <ROCS_ColorScore>
-5.641

> <ROCS_Overlap>
1474.106

> <ROCS_Rank>
422                 

$$$$
untitled-dbase-1051_238
  -OEChem-11112309163D

 33 34  0     1  0  0  0  0  0999 V2000
   12.7365   14.0577   19.9685 C   0  0  0  0  0  0  0  0  0  0  0  0
   13.2921   13.2928   20.9940 C   0  0  0  0  0  0  0  0  0  0  0  0
   10.7077   14.3100   21.2559 C   0  0  0  0  0  0  0  0  0  0  0  0
   11.2633   13.5450   22.2814 C   0  0  0  0  0  0  0  0  0  0  0  0
   11.4442   14.5664   20.0994 C   0  0  0  0  0  0  0  0  0  0  0  0
   12.5556   13.0364   22.1504 C   0  0  0  0  0  0  0  0  0  0  0  0
   10.4836   13.2773   23.5003 C   0  0  0  0  0  0  0  0  0  0  0  0
   10.0551   10.9461   22.7700 C   0  0  0  0  0  0  0  0  0  0  0  0
    8.4725   11.9225   24.2970 C   0  0  0  0  0  0  0  0  0  0  0  0
    8.8350   10.0326   22.8762 C   0  0  2  0  0  0  0  0  0  0  0  0
    8.2573   10.4089   24.2513 C   0  0  2  0  0  0  0  0  0  0  0  0
    9.1900    8.5607   22.7412 C   0  0  0  0  0  0  0  0  0  0  0  0
    6.7997   10.0174   24.4333 C   0  0  0  0  0  0  0  0  0  0  0  0
    9.6894   12.1409   23.5171 N   0  0  0  0  0  0  0  0  0  0  0  0
   10.5799   14.0859   24.4214 O   0  0  0  0  0  0  0  0  0  0  0  0
    6.7387    8.6571   24.8273 O   0  0  0  0  0  0  0  0  0  0  0  0
   10.9107   15.3015   19.1150 F   0  0  0  0  0  0  0  0  0  0  0  0
   13.0998   12.3004   23.1298 F   0  0  0  0  0  0  0  0  0  0  0  0
   13.3094   14.2577   19.0678 H   0  0  0  0  0  0  0  0  0  0  0  0
   14.2987   12.8981   20.8923 H   0  0  0  0  0  0  0  0  0  0  0  0
    9.7018   14.7115   21.3466 H   0  0  0  0  0  0  0  0  0  0  0  0
   10.9423   10.5165   23.2491 H   0  0  0  0  0  0  0  0  0  0  0  0
   10.3072   11.2030   21.7363 H   0  0  0  0  0  0  0  0  0  0  0  0
    7.6615   12.4751   23.8091 H   0  0  0  0  0  0  0  0  0  0  0  0
    8.5938   12.2966   25.3182 H   0  0  0  0  0  0  0  0  0  0  0  0
    8.1199   10.3014   22.0869 H   0  0  0  0  0  0  0  0  0  0  0  0
    8.8553    9.9404   25.0455 H   0  0  0  0  0  0  0  0  0  0  0  0
    9.9008    8.2724   23.5174 H   0  0  0  0  0  0  0  0  0  0  0  0
    9.6396    8.3701   21.7654 H   0  0  0  0  0  0  0  0  0  0  0  0
    8.2934    7.9467   22.8407 H   0  0  0  0  0  0  0  0  0  0  0  0
    6.2556   10.1418   23.4949 H   0  0  0  0  0  0  0  0  0  0  0  0
    6.3368   10.6340   25.2064 H   0  0  0  0  0  0  0  0  0  0  0  0
    5.7987    8.4349   24.9360 H   0  0  0  0  0  0  0  0  0  0  0  0
  1  2  1  0  0  0  0
  1  5  2  0  0  0  0
  2  6  2  0  0  0  0
  3  4  2  0  0  0  0
  3  5  1  0  0  0  0
  4  6  1  0  0  0  0
  4  7  1  0  0  0  0
  5 17  1  0  0  0  0
  6 18  1  0  0  0  0
  7 14  1  0  0  0  0
  7 15  2  0  0  0  0
  8 10  1  0  0  0  0
  8 14  1  0  0  0  0
  9 11  1  0  0  0  0
  9 14  1  0  0  0  0
 10 11  1  0  0  0  0
 10 12  1  6  0  0  0
 11 13  1  1  0  0  0
 13 16  1  0  0  0  0
  1 19  1  0  0  0  0
  2 20  1  0  0  0  0
  3 21  1  0  0  0  0
  8 22  1  0  0  0  0
  8 23  1  0  0  0  0
  9 24  1  0  0  0  0
  9 25  1  0  0  0  0
 10 26  1  0  0  0  0
 11 27  1  0  0  0  0
 12 28  1  0  0  0  0
 12 29  1  0  0  0  0
 12 30  1  0  0  0  0
 13 31  1  0  0  0  0
 13 32  1  0  0  0  0
 16 33  1  0  0  0  0
M  END
> <Catalog ID>
Z1842738994

> <PlateID>
1337959-R-14

> <Well>
B07

> <MW (desalted)>
255.261

> <CLogP>
1.349

> <HBD>
1

> <TPSA>
40.540

> <RotBonds>
2

> <ROCS_ShapeQuery>
A71EV2A-x0451_0A_A71EV2A-x0310_0A_A71EV2A-x0416_0A_peptide

> <ROCS_TanimotoCombo>
0.403 

> <ROCS_ShapeTanimoto>
0.278 

> <ROCS_ColorTanimoto>
0.124 

> <ROCS_RefTversky>
0.253 

> <ROCS_RefColorTversky>
0.134 

> <ROCS_RefTverskyCombo>
0.386 

> <ROCS_FitTversky>
1.567 

> <ROCS_FitColorTversky>
0.640 

> <ROCS_FitTverskyCombo>
2.207 

> <ROCS_ColorScore>
-4.055

> <ROCS_Overlap>
1753.769

> <ROCS_Rank>
423                 

$$$$
untitled-dbase-34_206
  -OEChem-11112309163D

 22 22  0     0  0  0  0  0  0999 V2000
    9.2411    9.5494   22.9746 C   0  0  0  0  0  0  0  0  0  0  0  0
    9.9414   10.6548   22.4917 C   0  0  0  0  0  0  0  0  0  0  0  0
    8.2573    9.7182   23.9490 C   0  0  0  0  0  0  0  0  0  0  0  0
    9.6581   11.9291   22.9833 C   0  0  0  0  0  0  0  0  0  0  0  0
    7.9740   10.9925   24.4406 C   0  0  0  0  0  0  0  0  0  0  0  0
    8.6744   12.0979   23.9578 C   0  0  0  0  0  0  0  0  0  0  0  0
   10.5906   14.1512   23.5399 C   0  0  0  0  0  0  0  0  0  0  0  0
    6.3372    9.9816   25.8387 C   0  0  0  0  0  0  0  0  0  0  0  0
   10.4083   13.1093   22.4652 C   0  0  0  0  0  0  0  0  0  0  0  0
   10.6027   13.9017   24.7388 O   0  0  0  0  0  0  0  0  0  0  0  0
   10.7075   15.4071   23.0406 O   0  0  0  0  0  0  0  0  0  0  0  0
    7.0134   11.1555   25.3908 O   0  0  0  0  0  0  0  0  0  0  0  0
    8.3996   13.3220   24.4316 F   0  0  0  0  0  0  0  0  0  0  0  0
    9.4616    8.5572   22.5917 H   0  0  0  0  0  0  0  0  0  0  0  0
   10.7062   10.5136   21.7329 H   0  0  0  0  0  0  0  0  0  0  0  0
    7.7154    8.8532   24.3210 H   0  0  0  0  0  0  0  0  0  0  0  0
    5.5972   10.2529   26.5956 H   0  0  0  0  0  0  0  0  0  0  0  0
    7.0625    9.2797   26.2579 H   0  0  0  0  0  0  0  0  0  0  0  0
    5.8320    9.5164   24.9889 H   0  0  0  0  0  0  0  0  0  0  0  0
    9.9143   13.5587   21.5948 H   0  0  0  0  0  0  0  0  0  0  0  0
   11.4051   12.8193   22.1083 H   0  0  0  0  0  0  0  0  0  0  0  0
   10.6831   15.4737   22.0622 H   0  0  0  0  0  0  0  0  0  0  0  0
  1  2  2  0  0  0  0
  1  3  1  0  0  0  0
  2  4  1  0  0  0  0
  3  5  2  0  0  0  0
  4  6  2  0  0  0  0
  4  9  1  0  0  0  0
  5  6  1  0  0  0  0
  5 12  1  0  0  0  0
  6 13  1  0  0  0  0
  7  9  1  0  0  0  0
  7 10  2  0  0  0  0
  7 11  1  0  0  0  0
  8 12  1  0  0  0  0
  1 14  1  0  0  0  0
  2 15  1  0  0  0  0
  3 16  1  0  0  0  0
  8 17  1  0  0  0  0
  8 18  1  0  0  0  0
  8 19  1  0  0  0  0
  9 20  1  0  0  0  0
  9 21  1  0  0  0  0
 11 22  1  0  0  0  0
M  END
> <Catalog ID>
Z1255379726

> <PlateID>
1337959-R-01

> <Well>
D05

> <MW (desalted)>
184.164

> <CLogP>
1.416

> <HBD>
1

> <TPSA>
46.530

> <RotBonds>
3

> <ROCS_ShapeQuery>
A71EV2A-x0451_0A_A71EV2A-x0310_0A_A71EV2A-x0416_0A_peptide

> <ROCS_TanimotoCombo>
0.402 

> <ROCS_ShapeTanimoto>
0.260 

> <ROCS_ColorTanimoto>
0.142 

> <ROCS_RefTversky>
0.234 

> <ROCS_RefColorTversky>
0.150 

> <ROCS_RefTverskyCombo>
0.384 

> <ROCS_FitTversky>
1.791 

> <ROCS_FitColorTversky>
0.719 

> <ROCS_FitTverskyCombo>
2.509 

> <ROCS_ColorScore>
-4.561

> <ROCS_Overlap>
1617.526

> <ROCS_Rank>
424                 

$$$$
untitled-dbase-1041_275
  -OEChem-11112309163D

 35 36  0     1  0  0  0  0  0999 V2000
   10.2179   13.3825   23.3708 C   0  0  0  0  0  0  0  0  0  0  0  0
   12.1235   16.2347   20.7335 C   0  0  0  0  0  0  0  0  0  0  0  0
   11.1530   16.3390   21.8717 C   0  0  0  0  0  0  0  0  0  0  0  0
    8.7431   10.0259   23.0316 C   0  0  0  0  0  0  0  0  0  0  0  0
    8.2411    9.8992   24.4624 C   0  0  0  0  0  0  0  0  0  0  0  0
    9.1143   12.3719   23.4109 C   0  0  2  0  0  0  0  0  0  0  0  0
   12.3753   15.4661   22.0063 C   0  0  0  0  0  0  0  0  0  0  0  0
    8.5664   12.2090   24.8359 C   0  0  1  0  0  0  0  0  0  0  0  0
    7.8177   13.4543   25.3019 C   0  0  0  0  0  0  0  0  0  0  0  0
   10.1386   13.4030   20.8729 C   0  0  0  0  0  0  0  0  0  0  0  0
   12.2404   13.9815   22.0248 C   0  0  0  0  0  0  0  0  0  0  0  0
    9.7088   11.1201   22.9340 N   0  0  0  0  0  0  0  0  0  0  0  0
   10.8403   13.5810   22.1378 N   0  0  0  0  0  0  0  0  0  0  0  0
   10.5227   13.9823   24.4051 O   0  0  0  0  0  0  0  0  0  0  0  0
    7.6324   11.1211   24.8777 O   0  0  0  0  0  0  0  0  0  0  0  0
   11.8083   15.6895   19.8524 H   0  0  0  0  0  0  0  0  0  0  0  0
   12.7551   17.0905   20.5287 H   0  0  0  0  0  0  0  0  0  0  0  0
   11.1320   17.2642   22.4343 H   0  0  0  0  0  0  0  0  0  0  0  0
   10.1876   15.8623   21.7561 H   0  0  0  0  0  0  0  0  0  0  0  0
    9.2156    9.0915   22.7125 H   0  0  0  0  0  0  0  0  0  0  0  0
    7.9068   10.2217   22.3497 H   0  0  0  0  0  0  0  0  0  0  0  0
    7.4821    9.1127   24.5226 H   0  0  0  0  0  0  0  0  0  0  0  0
    9.0478    9.6351   25.1571 H   0  0  0  0  0  0  0  0  0  0  0  0
    8.3333   12.6883   22.7187 H   0  0  0  0  0  0  0  0  0  0  0  0
   13.1722   15.8120   22.6532 H   0  0  0  0  0  0  0  0  0  0  0  0
    9.3748   12.0058   25.5511 H   0  0  0  0  0  0  0  0  0  0  0  0
    7.0077   13.6807   24.6096 H   0  0  0  0  0  0  0  0  0  0  0  0
    8.4991   14.3033   25.3414 H   0  0  0  0  0  0  0  0  0  0  0  0
    7.4008   13.2865   26.2942 H   0  0  0  0  0  0  0  0  0  0  0  0
    9.6779   14.3553   20.5714 H   0  0  0  0  0  0  0  0  0  0  0  0
   10.8519   13.0801   20.1003 H   0  0  0  0  0  0  0  0  0  0  0  0
    9.3563   12.6389   20.9920 H   0  0  0  0  0  0  0  0  0  0  0  0
   12.6571   13.5715   21.0930 H   0  0  0  0  0  0  0  0  0  0  0  0
   12.7989   13.5809   22.8837 H   0  0  0  0  0  0  0  0  0  0  0  0
   10.5158   10.8892   23.5152 H   0  0  0  0  0  0  0  0  0  0  0  0
  1  6  1  6  0  0  0
  1 13  1  0  0  0  0
  1 14  2  0  0  0  0
  2  3  1  0  0  0  0
  2  7  1  0  0  0  0
  3  7  1  0  0  0  0
  4  5  1  0  0  0  0
  4 12  1  0  0  0  0
  5 15  1  0  0  0  0
  6  8  1  0  0  0  0
  6 12  1  0  0  0  0
  7 11  1  0  0  0  0
  8  9  1  1  0  0  0
  8 15  1  0  0  0  0
 10 13  1  0  0  0  0
 11 13  1  0  0  0  0
  2 16  1  0  0  0  0
  2 17  1  0  0  0  0
  3 18  1  0  0  0  0
  3 19  1  0  0  0  0
  4 20  1  0  0  0  0
  4 21  1  0  0  0  0
  5 22  1  0  0  0  0
  5 23  1  0  0  0  0
  6 24  1  0  0  0  0
  7 25  1  0  0  0  0
  8 26  1  0  0  0  0
  9 27  1  0  0  0  0
  9 28  1  0  0  0  0
  9 29  1  0  0  0  0
 10 30  1  0  0  0  0
 10 31  1  0  0  0  0
 10 32  1  0  0  0  0
 11 33  1  0  0  0  0
 11 34  1  0  0  0  0
 12 35  1  0  0  0  0
M  END
> <Catalog ID>
Z2053260577

> <PlateID>
1337959-R-14

> <Well>
A07

> <MW (desalted)>
212.289

> <CLogP>
0.850

> <HBD>
1

> <TPSA>
41.570

> <RotBonds>
3

> <ROCS_ShapeQuery>
A71EV2A-x0451_0A_A71EV2A-x0310_0A_A71EV2A-x0416_0A_peptide

> <ROCS_TanimotoCombo>
0.402 

> <ROCS_ShapeTanimoto>
0.264 

> <ROCS_ColorTanimoto>
0.138 

> <ROCS_RefTversky>
0.238 

> <ROCS_RefColorTversky>
0.147 

> <ROCS_RefTverskyCombo>
0.385 

> <ROCS_FitTversky>
1.697 

> <ROCS_FitColorTversky>
0.704 

> <ROCS_FitTverskyCombo>
2.402 

> <ROCS_ColorScore>
-4.461

> <ROCS_Overlap>
1649.047

> <ROCS_Rank>
425                 

$$$$
untitled-dbase-148_2
  -OEChem-11112309163D

 29 31  0     0  0  0  0  0  0999 V2000
    6.2428   12.0972   25.8424 C   0  0  0  0  0  0  0  0  0  0  0  0
    6.0388   10.7156   25.9511 C   0  0  0  0  0  0  0  0  0  0  0  0
    7.3408   12.6031   25.1410 C   0  0  0  0  0  0  0  0  0  0  0  0
    6.9260    9.8219   25.3519 C   0  0  0  0  0  0  0  0  0  0  0  0
    8.2195   11.7130   24.5421 C   0  0  0  0  0  0  0  0  0  0  0  0
    7.9950   10.3323   24.6319 C   0  0  0  0  0  0  0  0  0  0  0  0
   10.6651   12.3278   24.7323 C   0  0  0  0  0  0  0  0  0  0  0  0
    9.3979   12.9916   22.6407 C   0  0  0  0  0  0  0  0  0  0  0  0
    9.7358   10.5294   23.1796 C   0  0  0  0  0  0  0  0  0  0  0  0
   10.6831   13.8109   25.0845 C   0  0  0  0  0  0  0  0  0  0  0  0
    9.5550   14.4375   23.1024 C   0  0  0  0  0  0  0  0  0  0  0  0
    9.5075   11.9605   23.7794 C   0  0  0  0  0  0  0  0  0  0  0  0
    8.9978    9.5900   24.0100 N   0  0  0  0  0  0  0  0  0  0  0  0
   10.7232   14.6035   23.9008 O   0  0  0  0  0  0  0  0  0  0  0  0
    5.5333   12.7836   26.2986 H   0  0  0  0  0  0  0  0  0  0  0  0
    5.1804   10.3396   26.4996 H   0  0  0  0  0  0  0  0  0  0  0  0
    7.4870   13.6774   25.0624 H   0  0  0  0  0  0  0  0  0  0  0  0
    6.7788    8.7517   25.4544 H   0  0  0  0  0  0  0  0  0  0  0  0
   11.6371   12.0277   24.3082 H   0  0  0  0  0  0  0  0  0  0  0  0
   10.5549   11.7574   25.6698 H   0  0  0  0  0  0  0  0  0  0  0  0
    8.4017   12.8954   22.1676 H   0  0  0  0  0  0  0  0  0  0  0  0
   10.1273   12.7778   21.8368 H   0  0  0  0  0  0  0  0  0  0  0  0
    9.4109   10.4489   22.1372 H   0  0  0  0  0  0  0  0  0  0  0  0
   10.7986   10.2556   23.2119 H   0  0  0  0  0  0  0  0  0  0  0  0
    9.7691   14.0721   25.6279 H   0  0  0  0  0  0  0  0  0  0  0  0
   11.5322   14.0670   25.7288 H   0  0  0  0  0  0  0  0  0  0  0  0
    9.5913   15.1348   22.2562 H   0  0  0  0  0  0  0  0  0  0  0  0
    8.6918   14.7231   23.7150 H   0  0  0  0  0  0  0  0  0  0  0  0
    9.4170    8.7864   24.4458 H   0  0  0  0  0  0  0  0  0  0  0  0
  1  2  2  0  0  0  0
  1  3  1  0  0  0  0
  2  4  1  0  0  0  0
  3  5  2  0  0  0  0
  4  6  2  0  0  0  0
  5  6  1  0  0  0  0
  5 12  1  0  0  0  0
  6 13  1  0  0  0  0
  7 10  1  0  0  0  0
  7 12  1  0  0  0  0
  8 11  1  0  0  0  0
  8 12  1  0  0  0  0
  9 12  1  0  0  0  0
  9 13  1  0  0  0  0
 10 14  1  0  0  0  0
 11 14  1  0  0  0  0
  1 15  1  0  0  0  0
  2 16  1  0  0  0  0
  3 17  1  0  0  0  0
  4 18  1  0  0  0  0
  7 19  1  0  0  0  0
  7 20  1  0  0  0  0
  8 21  1  0  0  0  0
  8 22  1  0  0  0  0
  9 23  1  0  0  0  0
  9 24  1  0  0  0  0
 10 25  1  0  0  0  0
 10 26  1  0  0  0  0
 11 27  1  0  0  0  0
 11 28  1  0  0  0  0
 13 29  1  0  0  0  0
M  END
> <Catalog ID>
Z1255404894

> <PlateID>
1337959-R-02

> <Well>
G10

> <MW (desalted)>
189.254

> <CLogP>
1.368

> <HBD>
1

> <TPSA>
21.260

> <RotBonds>
0

> <ROCS_ShapeQuery>
A71EV2A-x0451_0A_A71EV2A-x0310_0A_A71EV2A-x0416_0A_peptide

> <ROCS_TanimotoCombo>
0.402 

> <ROCS_ShapeTanimoto>
0.259 

> <ROCS_ColorTanimoto>
0.143 

> <ROCS_RefTversky>
0.234 

> <ROCS_RefColorTversky>
0.151 

> <ROCS_RefTverskyCombo>
0.386 

> <ROCS_FitTversky>
1.679 

> <ROCS_FitColorTversky>
0.724 

> <ROCS_FitTverskyCombo>
2.403 

> <ROCS_ColorScore>
-4.600

> <ROCS_Overlap>
1623.634

> <ROCS_Rank>
426                 

$$$$
untitled-dbase-5_5
  -OEChem-11112309163D

 20 21  0     0  0  0  0  0  0999 V2000
    9.0732   11.7633   23.9473 C   0  0  0  0  0  0  0  0  0  0  0  0
   11.3570   12.3301   22.6463 C   0  0  0  0  0  0  0  0  0  0  0  0
    9.8067   13.6078   22.1254 C   0  0  0  0  0  0  0  0  0  0  0  0
   10.1301   12.8571   23.4559 C   0  0  0  0  0  0  0  0  0  0  0  0
    7.4210   13.2513   25.1444 C   0  0  0  0  0  0  0  0  0  0  0  0
    9.1621   10.4727   23.7219 N   0  0  0  0  0  0  0  0  0  0  0  0
    8.0532    9.9147   24.3169 N   0  0  0  0  0  0  0  0  0  0  0  0
    7.3028   10.8449   24.8945 N   0  0  0  0  0  0  0  0  0  0  0  0
    7.9424   11.9996   24.6620 N   0  0  0  0  0  0  0  0  0  0  0  0
   11.2250   13.4843   21.7359 N   0  0  0  0  0  0  0  0  0  0  0  0
   10.5020   13.7409   24.5468 O   0  0  0  0  0  0  0  0  0  0  0  0
   12.3044   12.2966   23.1938 H   0  0  0  0  0  0  0  0  0  0  0  0
   11.2158   11.3636   22.1471 H   0  0  0  0  0  0  0  0  0  0  0  0
    9.1211   13.0914   21.4426 H   0  0  0  0  0  0  0  0  0  0  0  0
    9.4624   14.6409   22.2385 H   0  0  0  0  0  0  0  0  0  0  0  0
    6.7647   13.6629   24.3732 H   0  0  0  0  0  0  0  0  0  0  0  0
    6.8637   13.0812   26.0698 H   0  0  0  0  0  0  0  0  0  0  0  0
    8.2507   13.9345   25.3464 H   0  0  0  0  0  0  0  0  0  0  0  0
   11.7874   14.2855   22.0244 H   0  0  0  0  0  0  0  0  0  0  0  0
   11.1352   14.3636   24.1700 H   0  0  0  0  0  0  0  0  0  0  0  0
  1  4  1  0  0  0  0
  1  6  2  0  0  0  0
  1  9  1  0  0  0  0
  2  4  1  0  0  0  0
  2 10  1  0  0  0  0
  3  4  1  0  0  0  0
  3 10  1  0  0  0  0
  4 11  1  0  0  0  0
  5  9  1  0  0  0  0
  6  7  1  0  0  0  0
  7  8  2  0  0  0  0
  8  9  1  0  0  0  0
  2 12  1  0  0  0  0
  2 13  1  0  0  0  0
  3 14  1  0  0  0  0
  3 15  1  0  0  0  0
  5 16  1  0  0  0  0
  5 17  1  0  0  0  0
  5 18  1  0  0  0  0
 10 19  1  0  0  0  0
 11 20  1  0  0  0  0
M  END
> <Catalog ID>
Z4428968839

> <PlateID>
1337959-R-01

> <Well>
A06

> <MW (desalted)>
155.158

> <CLogP>
-1.630

> <HBD>
2

> <TPSA>
75.860

> <RotBonds>
1

> <ROCS_ShapeQuery>
A71EV2A-x0451_0A_A71EV2A-x0310_0A_A71EV2A-x0416_0A_peptide

> <ROCS_TanimotoCombo>
0.402 

> <ROCS_ShapeTanimoto>
0.233 

> <ROCS_ColorTanimoto>
0.169 

> <ROCS_RefTversky>
0.211 

> <ROCS_RefColorTversky>
0.195 

> <ROCS_RefTverskyCombo>
0.407 

> <ROCS_FitTversky>
1.760 

> <ROCS_FitColorTversky>
0.556 

> <ROCS_FitTverskyCombo>
2.316 

> <ROCS_ColorScore>
-5.982

> <ROCS_Overlap>
1463.195

> <ROCS_Rank>
427                 

$$$$
untitled-dbase-1088_135
  -OEChem-11112309163D

 37 38  0     1  0  0  0  0  0999 V2000
    7.8136   10.6591   24.4344 C   0  0  0  0  0  0  0  0  0  0  0  0
    8.4404   10.0218   23.3863 C   0  0  0  0  0  0  0  0  0  0  0  0
    8.3260   11.9717   24.6461 C   0  0  0  0  0  0  0  0  0  0  0  0
    9.3252   12.2874   23.7518 C   0  0  0  0  0  0  0  0  0  0  0  0
   10.1069   13.5256   23.6301 C   0  0  0  0  0  0  0  0  0  0  0  0
    8.6483   15.6479   20.8975 C   0  0  0  0  0  0  0  0  0  0  0  0
    8.8809   14.2773   21.5378 C   0  0  0  0  0  0  0  0  0  0  0  0
   11.2686   14.8860   21.9546 C   0  0  0  0  0  0  0  0  0  0  0  0
   11.0852   15.8277   20.7591 C   0  0  1  0  0  0  0  0  0  0  0  0
   11.2733   15.1311   19.4092 C   0  0  0  0  0  0  0  0  0  0  0  0
    8.0615   12.3190   27.1286 C   0  0  0  0  0  0  0  0  0  0  0  0
    6.3424   13.2475   25.5357 C   0  0  0  0  0  0  0  0  0  0  0  0
    7.8316   12.8800   25.7090 C   0  0  0  0  0  0  0  0  0  0  0  0
    9.8104   16.5300   20.8629 N   0  0  0  0  0  0  0  0  0  0  0  0
   10.0436   14.2391   22.4261 N   0  0  0  0  0  0  0  0  0  0  0  0
   10.7787   13.8468   24.6099 O   0  0  0  0  0  0  0  0  0  0  0  0
    9.6416   11.0045   22.6626 S   0  0  0  0  0  0  0  0  0  0  0  0
    7.0253   10.2009   25.0182 H   0  0  0  0  0  0  0  0  0  0  0  0
    8.2505    9.0261   23.0110 H   0  0  0  0  0  0  0  0  0  0  0  0
    8.2844   15.5017   19.8557 H   0  0  0  0  0  0  0  0  0  0  0  0
    7.8042   16.1647   21.4117 H   0  0  0  0  0  0  0  0  0  0  0  0
    7.9721   13.9661   22.0782 H   0  0  0  0  0  0  0  0  0  0  0  0
    9.0515   13.5157   20.7571 H   0  0  0  0  0  0  0  0  0  0  0  0
   11.9752   14.0639   21.6992 H   0  0  0  0  0  0  0  0  0  0  0  0
   11.7645   15.4408   22.7799 H   0  0  0  0  0  0  0  0  0  0  0  0
   11.9028   16.6131   20.8317 H   0  0  0  0  0  0  0  0  0  0  0  0
   10.5131   14.3623   19.2817 H   0  0  0  0  0  0  0  0  0  0  0  0
   12.2583   14.6695   19.3666 H   0  0  0  0  0  0  0  0  0  0  0  0
   11.1845   15.8580   18.6036 H   0  0  0  0  0  0  0  0  0  0  0  0
    7.5545   11.3579   27.2669 H   0  0  0  0  0  0  0  0  0  0  0  0
    7.6922   13.0035   27.9001 H   0  0  0  0  0  0  0  0  0  0  0  0
    9.1313   12.1606   27.3053 H   0  0  0  0  0  0  0  0  0  0  0  0
    5.7235   12.3435   25.5562 H   0  0  0  0  0  0  0  0  0  0  0  0
    6.1586   13.7580   24.5840 H   0  0  0  0  0  0  0  0  0  0  0  0
    5.9962   13.9075   26.3387 H   0  0  0  0  0  0  0  0  0  0  0  0
    8.3814   13.8432   25.6768 H   0  0  0  0  0  0  0  0  0  0  0  0
    9.7134   17.1739   20.0602 H   0  0  0  0  0  0  0  0  0  0  0  0
  1  2  2  0  0  0  0
  1  3  1  0  0  0  0
  2 17  1  0  0  0  0
  3  4  2  0  0  0  0
  3 13  1  0  0  0  0
  4  5  1  0  0  0  0
  4 17  1  0  0  0  0
  5 15  1  0  0  0  0
  5 16  2  0  0  0  0
  6  7  1  0  0  0  0
  6 14  1  0  0  0  0
  7 15  1  0  0  0  0
  8  9  1  0  0  0  0
  8 15  1  0  0  0  0
  9 10  1  0  0  0  0
  9 14  1  0  0  0  0
 11 13  1  0  0  0  0
 12 13  1  0  0  0  0
  1 18  1  0  0  0  0
  2 19  1  0  0  0  0
  6 20  1  0  0  0  0
  6 21  1  0  0  0  0
  7 22  1  0  0  0  0
  7 23  1  0  0  0  0
  8 24  1  0  0  0  0
  8 25  1  0  0  0  0
  9 26  1  0  0  0  0
 10 27  1  0  0  0  0
 10 28  1  0  0  0  0
 10 29  1  0  0  0  0
 11 30  1  0  0  0  0
 11 31  1  0  0  0  0
 11 32  1  0  0  0  0
 12 33  1  0  0  0  0
 12 34  1  0  0  0  0
 12 35  1  0  0  0  0
 13 36  1  0  0  0  0
 14 37  1  0  0  0  0
M  END
> <Catalog ID>
Z2242913282

> <PlateID>
1337959-R-14

> <Well>
F04

> <MW (desalted)>
252.376

> <CLogP>
2.480

> <HBD>
1

> <TPSA>
32.340

> <RotBonds>
2

> <ROCS_ShapeQuery>
A71EV2A-x0451_0A_A71EV2A-x0310_0A_A71EV2A-x0416_0A_peptide

> <ROCS_TanimotoCombo>
0.402 

> <ROCS_ShapeTanimoto>
0.245 

> <ROCS_ColorTanimoto>
0.157 

> <ROCS_RefTversky>
0.226 

> <ROCS_RefColorTversky>
0.168 

> <ROCS_RefTverskyCombo>
0.394 

> <ROCS_FitTversky>
1.500 

> <ROCS_FitColorTversky>
0.701 

> <ROCS_FitTverskyCombo>
2.202 

> <ROCS_ColorScore>
-5.108

> <ROCS_Overlap>
1569.800

> <ROCS_Rank>
428                 

$$$$
untitled-dbase-199_5
  -OEChem-11112309163D

 31 32  0     1  0  0  0  0  0999 V2000
    8.0684   12.0476   24.6037 C   0  0  0  0  0  0  0  0  0  0  0  0
    7.4572   10.7819   24.6832 C   0  0  0  0  0  0  0  0  0  0  0  0
    9.2612   11.8132   23.9643 C   0  0  0  0  0  0  0  0  0  0  0  0
    9.6042   14.7651   22.5613 C   0  0  0  0  0  0  0  0  0  0  0  0
   10.3160   15.0776   23.8585 C   0  0  0  0  0  0  0  0  0  0  0  0
   10.3824   12.7547   23.5715 C   0  0  1  0  0  0  0  0  0  0  0  0
   10.1531   13.4011   22.2019 C   0  0  2  0  0  0  0  0  0  0  0  0
    9.7994    8.5646   22.2336 C   0  0  0  0  0  0  0  0  0  0  0  0
   11.4289    9.2882   24.0302 C   0  0  0  0  0  0  0  0  0  0  0  0
   10.3446    9.7385   23.0494 C   0  0  0  0  0  0  0  0  0  0  0  0
    8.2002    9.8153   24.1377 N   0  0  0  0  0  0  0  0  0  0  0  0
    9.2906   10.4737   23.7093 N   0  0  0  0  0  0  0  0  0  0  0  0
   11.3953   13.5287   21.4734 N   0  0  0  0  0  0  0  0  0  0  0  0
   10.5100   13.8255   24.5287 O   0  0  0  0  0  0  0  0  0  0  0  0
    7.6940   12.9957   24.9612 H   0  0  0  0  0  0  0  0  0  0  0  0
    6.5013   10.5239   25.1159 H   0  0  0  0  0  0  0  0  0  0  0  0
    8.5103   14.7886   22.6589 H   0  0  0  0  0  0  0  0  0  0  0  0
    9.8849   15.5111   21.8007 H   0  0  0  0  0  0  0  0  0  0  0  0
   11.2821   15.5660   23.7022 H   0  0  0  0  0  0  0  0  0  0  0  0
    9.7025   15.7142   24.5055 H   0  0  0  0  0  0  0  0  0  0  0  0
   11.3418   12.1864   23.5884 H   0  0  0  0  0  0  0  0  0  0  0  0
    9.4336   12.8521   21.6121 H   0  0  0  0  0  0  0  0  0  0  0  0
    9.3094    7.8185   22.8682 H   0  0  0  0  0  0  0  0  0  0  0  0
   10.6095    8.0623   21.6941 H   0  0  0  0  0  0  0  0  0  0  0  0
    9.0659    8.9090   21.4962 H   0  0  0  0  0  0  0  0  0  0  0  0
   11.0217    8.5879   24.7678 H   0  0  0  0  0  0  0  0  0  0  0  0
   11.8386   10.1476   24.5715 H   0  0  0  0  0  0  0  0  0  0  0  0
   12.2598    8.7892   23.5200 H   0  0  0  0  0  0  0  0  0  0  0  0
   10.8155   10.4336   22.3423 H   0  0  0  0  0  0  0  0  0  0  0  0
   11.7455   12.6179   21.2809 H   0  0  0  0  0  0  0  0  0  0  0  0
   11.2165   14.0167   20.6253 H   0  0  0  0  0  0  0  0  0  0  0  0
  1  2  1  0  0  0  0
  1  3  2  0  0  0  0
  2 11  2  0  0  0  0
  3  6  1  6  0  0  0
  3 12  1  0  0  0  0
  4  5  1  0  0  0  0
  4  7  1  0  0  0  0
  5 14  1  0  0  0  0
  6  7  1  0  0  0  0
  6 14  1  0  0  0  0
  7 13  1  1  0  0  0
  8 10  1  0  0  0  0
  9 10  1  0  0  0  0
 10 12  1  0  0  0  0
 11 12  1  0  0  0  0
  1 15  1  0  0  0  0
  2 16  1  0  0  0  0
  4 17  1  0  0  0  0
  4 18  1  0  0  0  0
  5 19  1  0  0  0  0
  5 20  1  0  0  0  0
  6 21  1  0  0  0  0
  7 22  1  0  0  0  0
  8 23  1  0  0  0  0
  8 24  1  0  0  0  0
  8 25  1  0  0  0  0
  9 26  1  0  0  0  0
  9 27  1  0  0  0  0
  9 28  1  0  0  0  0
 10 29  1  0  0  0  0
 13 30  1  0  0  0  0
 13 31  1  0  0  0  0
M  END
> <Catalog ID>
Z2311273895

> <PlateID>
1337959-R-03

> <Well>
D11

> <MW (desalted)>
195.261

> <CLogP>
-0.193

> <HBD>
1

> <TPSA>
53.070

> <RotBonds>
2

> <ROCS_ShapeQuery>
A71EV2A-x0451_0A_A71EV2A-x0310_0A_A71EV2A-x0416_0A_peptide

> <ROCS_TanimotoCombo>
0.402 

> <ROCS_ShapeTanimoto>
0.262 

> <ROCS_ColorTanimoto>
0.140 

> <ROCS_RefTversky>
0.236 

> <ROCS_RefColorTversky>
0.156 

> <ROCS_RefTverskyCombo>
0.392 

> <ROCS_FitTversky>
1.721 

> <ROCS_FitColorTversky>
0.575 

> <ROCS_FitTverskyCombo>
2.296 

> <ROCS_ColorScore>
-4.739

> <ROCS_Overlap>
1636.068

> <ROCS_Rank>
429                 

$$$$
untitled-dbase-916_137
  -OEChem-11112309163D

 34 35  0     1  0  0  0  0  0999 V2000
    7.4344   10.6425   24.8990 C   0  0  0  0  0  0  0  0  0  0  0  0
    7.9222   11.9481   24.8445 C   0  0  0  0  0  0  0  0  0  0  0  0
    8.0614    9.6327   24.1690 C   0  0  0  0  0  0  0  0  0  0  0  0
    9.0368   12.2441   24.0598 C   0  0  0  0  0  0  0  0  0  0  0  0
    9.1760    9.9286   23.3842 C   0  0  0  0  0  0  0  0  0  0  0  0
    9.6637   11.2343   23.3296 C   0  0  0  0  0  0  0  0  0  0  0  0
    9.5091   13.6232   24.0339 C   0  0  0  0  0  0  0  0  0  0  0  0
    6.6706   15.6871   22.7840 C   0  0  0  0  0  0  0  0  0  0  0  0
    7.8153   16.6893   22.8741 C   0  0  0  0  0  0  0  0  0  0  0  0
    7.1539   14.5414   23.6602 C   0  0  0  0  0  0  0  0  0  0  0  0
    9.0617   15.8005   22.8824 C   0  0  2  0  0  0  0  0  0  0  0  0
   11.2085   17.2492   21.2314 C   0  0  0  0  0  0  0  0  0  0  0  0
    9.5679   15.5135   21.4691 C   0  0  0  0  0  0  0  0  0  0  0  0
    8.6135   14.5773   23.5541 N   0  0  0  0  0  0  0  0  0  0  0  0
    9.8962   16.7363   20.8172 N   0  0  0  0  0  0  0  0  0  0  0  0
   10.6511   13.8877   24.4061 O   0  0  0  0  0  0  0  0  0  0  0  0
    9.7653    8.9456   22.6883 F   0  0  0  0  0  0  0  0  0  0  0  0
   11.0452   11.5664   22.3467 Cl  0  0  0  0  0  0  0  0  0  0  0  0
    6.5667   10.4121   25.5100 H   0  0  0  0  0  0  0  0  0  0  0  0
    7.4232   12.7256   25.4176 H   0  0  0  0  0  0  0  0  0  0  0  0
    7.6810    8.6162   24.2101 H   0  0  0  0  0  0  0  0  0  0  0  0
    5.7237   16.1075   23.1343 H   0  0  0  0  0  0  0  0  0  0  0  0
    6.5371   15.3489   21.7501 H   0  0  0  0  0  0  0  0  0  0  0  0
    7.7996   17.4087   22.0500 H   0  0  0  0  0  0  0  0  0  0  0  0
    7.7471   17.2457   23.8170 H   0  0  0  0  0  0  0  0  0  0  0  0
    6.8900   14.7021   24.7114 H   0  0  0  0  0  0  0  0  0  0  0  0
    6.7640   13.5713   23.3385 H   0  0  0  0  0  0  0  0  0  0  0  0
    9.8684   16.2593   23.4627 H   0  0  0  0  0  0  0  0  0  0  0  0
   11.2197   17.3912   22.3221 H   0  0  0  0  0  0  0  0  0  0  0  0
   11.9899   16.5289   20.9474 H   0  0  0  0  0  0  0  0  0  0  0  0
   11.3993   18.2119   20.7345 H   0  0  0  0  0  0  0  0  0  0  0  0
   10.4487   14.8808   21.5643 H   0  0  0  0  0  0  0  0  0  0  0  0
    8.7689   14.9983   20.9387 H   0  0  0  0  0  0  0  0  0  0  0  0
    9.9166   16.6140   19.7939 H   0  0  0  0  0  0  0  0  0  0  0  0
  1  2  1  0  0  0  0
  1  3  2  0  0  0  0
  2  4  2  0  0  0  0
  3  5  1  0  0  0  0
  4  6  1  0  0  0  0
  4  7  1  0  0  0  0
  5  6  2  0  0  0  0
  5 17  1  0  0  0  0
  6 18  1  0  0  0  0
  7 14  1  0  0  0  0
  7 16  2  0  0  0  0
  8  9  1  0  0  0  0
  8 10  1  0  0  0  0
  9 11  1  0  0  0  0
 10 14  1  0  0  0  0
 11 13  1  0  0  0  0
 11 14  1  0  0  0  0
 12 15  1  0  0  0  0
 13 15  1  0  0  0  0
  1 19  1  0  0  0  0
  2 20  1  0  0  0  0
  3 21  1  0  0  0  0
  8 22  1  0  0  0  0
  8 23  1  0  0  0  0
  9 24  1  0  0  0  0
  9 25  1  0  0  0  0
 10 26  1  0  0  0  0
 10 27  1  0  0  0  0
 11 28  1  0  0  0  0
 12 29  1  0  0  0  0
 12 30  1  0  0  0  0
 12 31  1  0  0  0  0
 13 32  1  0  0  0  0
 13 33  1  0  0  0  0
 15 34  1  0  0  0  0
M  END
> <Catalog ID>
Z2242855849

> <PlateID>
1337959-R-12

> <Well>
D10

> <MW (desalted)>
270.730

> <CLogP>
2.120

> <HBD>
1

> <TPSA>
32.340

> <RotBonds>
3

> <ROCS_ShapeQuery>
A71EV2A-x0451_0A_A71EV2A-x0310_0A_A71EV2A-x0416_0A_peptide

> <ROCS_TanimotoCombo>
0.401 

> <ROCS_ShapeTanimoto>
0.233 

> <ROCS_ColorTanimoto>
0.168 

> <ROCS_RefTversky>
0.219 

> <ROCS_RefColorTversky>
0.174 

> <ROCS_RefTverskyCombo>
0.393 

> <ROCS_FitTversky>
1.372 

> <ROCS_FitColorTversky>
0.834 

> <ROCS_FitTverskyCombo>
2.206 

> <ROCS_ColorScore>
-5.282

> <ROCS_Overlap>
1522.226

> <ROCS_Rank>
430                 

$$$$
untitled-dbase-1107_1817
  -OEChem-11112309163D

 33 35  0     1  0  0  0  0  0999 V2000
    7.3493   10.1198   24.1446 C   0  0  0  0  0  0  0  0  0  0  0  0
    7.3384   11.2767   24.8921 C   0  0  0  0  0  0  0  0  0  0  0  0
    8.6000    9.9149   23.4935 C   0  0  0  0  0  0  0  0  0  0  0  0
    9.4974   10.9235   23.7681 C   0  0  0  0  0  0  0  0  0  0  0  0
   10.8816   11.0908   23.2979 C   0  0  0  0  0  0  0  0  0  0  0  0
   11.7133   15.3482   22.9298 C   0  0  0  0  0  0  0  0  0  0  0  0
    8.1218    7.4285   22.8146 C   0  0  0  0  0  0  0  0  0  0  0  0
    9.5662    7.4952   23.2014 C   0  0  0  0  0  0  0  0  0  0  0  0
   10.9363   13.9583   20.9784 C   0  0  0  0  0  0  0  0  0  0  0  0
   10.1741   12.8859   21.7433 C   0  0  0  0  0  0  0  0  0  0  0  0
   12.4390   12.9733   22.5531 C   0  0  0  0  0  0  0  0  0  0  0  0
    8.8963    8.7123   22.5966 C   0  0  0  0  0  0  0  0  0  0  0  0
   12.1001   14.3206   21.9093 C   0  0  2  0  0  0  0  0  0  0  0  0
   11.1780   12.2312   22.5667 N   0  0  0  0  0  0  0  0  0  0  0  0
   11.6837   10.2017   23.5767 O   0  0  0  0  0  0  0  0  0  0  0  0
   12.2660   16.4272   23.0836 O   0  0  0  0  0  0  0  0  0  0  0  0
   10.6614   14.9174   23.6681 O   0  0  0  0  0  0  0  0  0  0  0  0
    8.8317   12.1106   24.8072 S   0  0  0  0  0  0  0  0  0  0  0  0
    6.4968    9.4562   24.0721 H   0  0  0  0  0  0  0  0  0  0  0  0
    6.5250   11.6726   25.4843 H   0  0  0  0  0  0  0  0  0  0  0  0
    7.8585    6.8425   21.9424 H   0  0  0  0  0  0  0  0  0  0  0  0
    7.3884    7.3958   23.6114 H   0  0  0  0  0  0  0  0  0  0  0  0
    9.8051    7.5088   24.2580 H   0  0  0  0  0  0  0  0  0  0  0  0
   10.2788    6.9545   22.5903 H   0  0  0  0  0  0  0  0  0  0  0  0
   11.2890   13.5972   20.0035 H   0  0  0  0  0  0  0  0  0  0  0  0
   10.2905   14.8299   20.7937 H   0  0  0  0  0  0  0  0  0  0  0  0
    9.3669   13.2922   22.3600 H   0  0  0  0  0  0  0  0  0  0  0  0
    9.7554   12.1326   21.0669 H   0  0  0  0  0  0  0  0  0  0  0  0
   13.1996   12.4263   21.9830 H   0  0  0  0  0  0  0  0  0  0  0  0
   12.7887   13.0704   23.5895 H   0  0  0  0  0  0  0  0  0  0  0  0
    9.1598    8.9535   21.5695 H   0  0  0  0  0  0  0  0  0  0  0  0
   12.9546   14.6933   21.3273 H   0  0  0  0  0  0  0  0  0  0  0  0
   10.3939   15.5762   24.3440 H   0  0  0  0  0  0  0  0  0  0  0  0
  1  2  2  0  0  0  0
  1  3  1  0  0  0  0
  2 18  1  0  0  0  0
  3  4  2  0  0  0  0
  3 12  1  0  0  0  0
  4  5  1  0  0  0  0
  4 18  1  0  0  0  0
  5 14  1  0  0  0  0
  5 15  2  0  0  0  0
  6 13  1  0  0  0  0
  6 16  2  0  0  0  0
  6 17  1  0  0  0  0
  7  8  1  0  0  0  0
  7 12  1  0  0  0  0
  8 12  1  0  0  0  0
  9 10  1  0  0  0  0
  9 13  1  0  0  0  0
 10 14  1  0  0  0  0
 11 13  1  0  0  0  0
 11 14  1  0  0  0  0
  1 19  1  0  0  0  0
  2 20  1  0  0  0  0
  7 21  1  0  0  0  0
  7 22  1  0  0  0  0
  8 23  1  0  0  0  0
  8 24  1  0  0  0  0
  9 25  1  0  0  0  0
  9 26  1  0  0  0  0
 10 27  1  0  0  0  0
 10 28  1  0  0  0  0
 11 29  1  0  0  0  0
 11 30  1  0  0  0  0
 12 31  1  0  0  0  0
 13 32  1  0  0  0  0
 17 33  1  0  0  0  0
M  END
> <Catalog ID>
Z1455170063

> <PlateID>
1337959-R-14

> <Well>
H03

> <MW (desalted)>
265.328

> <CLogP>
1.338

> <HBD>
1

> <TPSA>
57.610

> <RotBonds>
3

> <ROCS_ShapeQuery>
A71EV2A-x0451_0A_A71EV2A-x0310_0A_A71EV2A-x0416_0A_peptide

> <ROCS_TanimotoCombo>
0.401 

> <ROCS_ShapeTanimoto>
0.288 

> <ROCS_ColorTanimoto>
0.113 

> <ROCS_RefTversky>
0.260 

> <ROCS_RefColorTversky>
0.126 

> <ROCS_RefTverskyCombo>
0.386 

> <ROCS_FitTversky>
1.624 

> <ROCS_FitColorTversky>
0.525 

> <ROCS_FitTverskyCombo>
2.149 

> <ROCS_ColorScore>
-3.834

> <ROCS_Overlap>
1800.083

> <ROCS_Rank>
431                 

$$$$
untitled-dbase-584_396
  -OEChem-11112309163D

 38 39  0     0  0  0  0  0  0999 V2000
   10.3722   13.2931   23.4502 C   0  0  0  0  0  0  0  0  0  0  0  0
   10.8245   14.4447   19.5532 C   0  0  0  0  0  0  0  0  0  0  0  0
   10.0320   15.3257   20.4760 C   0  0  0  0  0  0  0  0  0  0  0  0
    8.2600   12.3528   24.4979 C   0  0  0  0  0  0  0  0  0  0  0  0
    9.6337   10.9878   22.9055 C   0  0  0  0  0  0  0  0  0  0  0  0
    7.2297   11.2476   24.3090 C   0  0  0  0  0  0  0  0  0  0  0  0
    9.5576    9.7908   23.8423 C   0  0  0  0  0  0  0  0  0  0  0  0
   11.5175   15.1552   20.6923 C   0  0  0  0  0  0  0  0  0  0  0  0
   12.4190   17.3621   21.4802 C   0  0  0  0  0  0  0  0  0  0  0  0
   13.8525   15.8472   20.0824 C   0  0  0  0  0  0  0  0  0  0  0  0
   11.9653   14.3386   21.8565 C   0  0  0  0  0  0  0  0  0  0  0  0
   12.4162   16.3140   20.3583 C   0  0  0  0  0  0  0  0  0  0  0  0
    9.4331   12.2539   23.6168 N   0  0  0  0  0  0  0  0  0  0  0  0
   10.9823   13.3360   22.1991 N   0  0  0  0  0  0  0  0  0  0  0  0
   10.6389   14.1112   24.3358 O   0  0  0  0  0  0  0  0  0  0  0  0
    7.9245    9.5975   24.6250 S   0  0  0  0  0  0  0  0  0  0  0  0
   10.6717   13.3743   19.6254 H   0  0  0  0  0  0  0  0  0  0  0  0
   10.9926   14.7971   18.5424 H   0  0  0  0  0  0  0  0  0  0  0  0
    9.6692   16.2682   20.0831 H   0  0  0  0  0  0  0  0  0  0  0  0
    9.3483   14.8455   21.1661 H   0  0  0  0  0  0  0  0  0  0  0  0
    7.8051   13.3569   24.3423 H   0  0  0  0  0  0  0  0  0  0  0  0
    8.5887   12.3542   25.5592 H   0  0  0  0  0  0  0  0  0  0  0  0
   10.5886   10.9788   22.3643 H   0  0  0  0  0  0  0  0  0  0  0  0
    8.8627   10.9196   22.1195 H   0  0  0  0  0  0  0  0  0  0  0  0
    6.3658   11.4032   24.9692 H   0  0  0  0  0  0  0  0  0  0  0  0
    6.8531   11.2659   23.2782 H   0  0  0  0  0  0  0  0  0  0  0  0
    9.7749    8.8662   23.2781 H   0  0  0  0  0  0  0  0  0  0  0  0
   10.3318    9.8586   24.6292 H   0  0  0  0  0  0  0  0  0  0  0  0
   12.7746   16.9279   22.4210 H   0  0  0  0  0  0  0  0  0  0  0  0
   11.4069   17.7459   21.6458 H   0  0  0  0  0  0  0  0  0  0  0  0
   13.0636   18.2128   21.2350 H   0  0  0  0  0  0  0  0  0  0  0  0
   14.2752   15.3421   20.9577 H   0  0  0  0  0  0  0  0  0  0  0  0
   14.5072   16.6872   19.8271 H   0  0  0  0  0  0  0  0  0  0  0  0
   13.8699   15.1427   19.2441 H   0  0  0  0  0  0  0  0  0  0  0  0
   12.9127   13.8407   21.6026 H   0  0  0  0  0  0  0  0  0  0  0  0
   12.1193   15.0006   22.7214 H   0  0  0  0  0  0  0  0  0  0  0  0
   12.0500   16.8118   19.4431 H   0  0  0  0  0  0  0  0  0  0  0  0
   10.7283   12.6421   21.5083 H   0  0  0  0  0  0  0  0  0  0  0  0
  1 13  1  0  0  0  0
  1 14  1  0  0  0  0
  1 15  2  0  0  0  0
  2  3  1  0  0  0  0
  2  8  1  0  0  0  0
  3  8  1  0  0  0  0
  4  6  1  0  0  0  0
  4 13  1  0  0  0  0
  5  7  1  0  0  0  0
  5 13  1  0  0  0  0
  6 16  1  0  0  0  0
  7 16  1  0  0  0  0
  8 11  1  0  0  0  0
  8 12  1  0  0  0  0
  9 12  1  0  0  0  0
 10 12  1  0  0  0  0
 11 14  1  0  0  0  0
  2 17  1  0  0  0  0
  2 18  1  0  0  0  0
  3 19  1  0  0  0  0
  3 20  1  0  0  0  0
  4 21  1  0  0  0  0
  4 22  1  0  0  0  0
  5 23  1  0  0  0  0
  5 24  1  0  0  0  0
  6 25  1  0  0  0  0
  6 26  1  0  0  0  0
  7 27  1  0  0  0  0
  7 28  1  0  0  0  0
  9 29  1  0  0  0  0
  9 30  1  0  0  0  0
  9 31  1  0  0  0  0
 10 32  1  0  0  0  0
 10 33  1  0  0  0  0
 10 34  1  0  0  0  0
 11 35  1  0  0  0  0
 11 36  1  0  0  0  0
 12 37  1  0  0  0  0
 14 38  1  0  0  0  0
M  END
> <Catalog ID>
Z1375145729

> <PlateID>
1337959-R-08

> <Well>
C06

> <MW (desalted)>
242.381

> <CLogP>
2.822

> <HBD>
1

> <TPSA>
32.340

> <RotBonds>
3

> <ROCS_ShapeQuery>
A71EV2A-x0451_0A_A71EV2A-x0310_0A_A71EV2A-x0416_0A_peptide

> <ROCS_TanimotoCombo>
0.401 

> <ROCS_ShapeTanimoto>
0.260 

> <ROCS_ColorTanimoto>
0.141 

> <ROCS_RefTversky>
0.236 

> <ROCS_RefColorTversky>
0.145 

> <ROCS_RefTverskyCombo>
0.382 

> <ROCS_FitTversky>
1.654 

> <ROCS_FitColorTversky>
0.819 

> <ROCS_FitTverskyCombo>
2.473 

> <ROCS_ColorScore>
-4.410

> <ROCS_Overlap>
1635.878

> <ROCS_Rank>
432                 

$$$$
untitled-dbase-263_239
  -OEChem-11112309163D

 31 32  0     0  0  0  0  0  0999 V2000
    7.4268   12.4849   25.9433 C   0  0  0  0  0  0  0  0  0  0  0  0
    6.3591   11.6871   25.5318 C   0  0  0  0  0  0  0  0  0  0  0  0
    8.7033   12.2623   25.4269 C   0  0  0  0  0  0  0  0  0  0  0  0
    6.5680   10.6666   24.6042 C   0  0  0  0  0  0  0  0  0  0  0  0
    8.9122   11.2418   24.4992 C   0  0  0  0  0  0  0  0  0  0  0  0
    7.8446   10.4439   24.0878 C   0  0  0  0  0  0  0  0  0  0  0  0
   10.7671   13.3919   23.2306 C   0  0  0  0  0  0  0  0  0  0  0  0
   11.0404   14.0623   21.9046 C   0  0  0  0  0  0  0  0  0  0  0  0
   11.5270   12.9171   21.0246 C   0  0  0  0  0  0  0  0  0  0  0  0
   10.8151   11.7012   21.5828 C   0  0  0  0  0  0  0  0  0  0  0  0
   10.2945   11.0213   23.9562 C   0  0  0  0  0  0  0  0  0  0  0  0
    8.0439    9.3450   23.0963 C   0  0  0  0  0  0  0  0  0  0  0  0
   10.6596   12.0258   22.9810 N   0  0  0  0  0  0  0  0  0  0  0  0
    8.0366    8.0443   23.7145 N   0  0  0  0  0  0  0  0  0  0  0  0
   10.6267   13.9807   24.2919 O   0  0  0  0  0  0  0  0  0  0  0  0
    7.2639   13.2787   26.6661 H   0  0  0  0  0  0  0  0  0  0  0  0
    5.3655   11.8608   25.9346 H   0  0  0  0  0  0  0  0  0  0  0  0
    9.5288   12.8884   25.7551 H   0  0  0  0  0  0  0  0  0  0  0  0
    5.7297   10.0506   24.2895 H   0  0  0  0  0  0  0  0  0  0  0  0
   10.1354   14.5261   21.5050 H   0  0  0  0  0  0  0  0  0  0  0  0
   11.8197   14.8177   22.0464 H   0  0  0  0  0  0  0  0  0  0  0  0
   11.2180   13.0894   19.9863 H   0  0  0  0  0  0  0  0  0  0  0  0
   12.6157   12.8139   21.0427 H   0  0  0  0  0  0  0  0  0  0  0  0
    9.8414   11.5394   21.1118 H   0  0  0  0  0  0  0  0  0  0  0  0
   11.4257   10.7960   21.5035 H   0  0  0  0  0  0  0  0  0  0  0  0
   11.0352   11.0493   24.7628 H   0  0  0  0  0  0  0  0  0  0  0  0
   10.3756   10.0415   23.4740 H   0  0  0  0  0  0  0  0  0  0  0  0
    7.2535    9.3541   22.3338 H   0  0  0  0  0  0  0  0  0  0  0  0
    8.9994    9.4519   22.5662 H   0  0  0  0  0  0  0  0  0  0  0  0
    8.9254    7.6087   23.5795 H   0  0  0  0  0  0  0  0  0  0  0  0
    7.8570    8.1442   24.6921 H   0  0  0  0  0  0  0  0  0  0  0  0
  1  2  2  0  0  0  0
  1  3  1  0  0  0  0
  2  4  1  0  0  0  0
  3  5  2  0  0  0  0
  4  6  2  0  0  0  0
  5  6  1  0  0  0  0
  5 11  1  0  0  0  0
  6 12  1  0  0  0  0
  7  8  1  0  0  0  0
  7 13  1  0  0  0  0
  7 15  2  0  0  0  0
  8  9  1  0  0  0  0
  9 10  1  0  0  0  0
 10 13  1  0  0  0  0
 11 13  1  0  0  0  0
 12 14  1  0  0  0  0
  1 16  1  0  0  0  0
  2 17  1  0  0  0  0
  3 18  1  0  0  0  0
  4 19  1  0  0  0  0
  8 20  1  0  0  0  0
  8 21  1  0  0  0  0
  9 22  1  0  0  0  0
  9 23  1  0  0  0  0
 10 24  1  0  0  0  0
 10 25  1  0  0  0  0
 11 26  1  0  0  0  0
 11 27  1  0  0  0  0
 12 28  1  0  0  0  0
 12 29  1  0  0  0  0
 14 30  1  0  0  0  0
 14 31  1  0  0  0  0
M  END
> <Catalog ID>
Z324553128

> <PlateID>
1337959-R-04

> <Well>
C05

> <MW (desalted)>
204.268

> <CLogP>
-0.057

> <HBD>
1

> <TPSA>
46.330

> <RotBonds>
3

> <ROCS_ShapeQuery>
A71EV2A-x0451_0A_A71EV2A-x0310_0A_A71EV2A-x0416_0A_peptide

> <ROCS_TanimotoCombo>
0.401 

> <ROCS_ShapeTanimoto>
0.267 

> <ROCS_ColorTanimoto>
0.134 

> <ROCS_RefTversky>
0.241 

> <ROCS_RefColorTversky>
0.143 

> <ROCS_RefTverskyCombo>
0.384 

> <ROCS_FitTversky>
1.685 

> <ROCS_FitColorTversky>
0.687 

> <ROCS_FitTverskyCombo>
2.372 

> <ROCS_ColorScore>
-4.352

> <ROCS_Overlap>
1667.814

> <ROCS_Rank>
433                 

$$$$
untitled-dbase-671_2
  -OEChem-11112309163D

 34 36  0     0  0  0  0  0  0999 V2000
   12.0095   11.6992   22.2758 C   0  0  0  0  0  0  0  0  0  0  0  0
    6.0805    9.1504   24.9784 C   0  0  0  0  0  0  0  0  0  0  0  0
    6.8733    8.2314   24.2711 C   0  0  0  0  0  0  0  0  0  0  0  0
    6.4799   10.4820   25.1126 C   0  0  0  0  0  0  0  0  0  0  0  0
    8.0779    8.6299   23.6873 C   0  0  0  0  0  0  0  0  0  0  0  0
    7.6745   10.8671   24.5308 C   0  0  0  0  0  0  0  0  0  0  0  0
    8.4650    9.9509   23.8258 C   0  0  0  0  0  0  0  0  0  0  0  0
   10.4441   13.0425   23.5332 C   0  0  0  0  0  0  0  0  0  0  0  0
    8.3155   12.2145   24.5294 C   0  0  0  0  0  0  0  0  0  0  0  0
    9.6931   10.6192   23.3022 C   0  0  0  0  0  0  0  0  0  0  0  0
   11.4887   15.0413   21.0334 C   0  0  0  0  0  0  0  0  0  0  0  0
   10.8627   14.0288   20.0937 C   0  0  0  0  0  0  0  0  0  0  0  0
   12.1548   14.1695   22.0915 C   0  0  0  0  0  0  0  0  0  0  0  0
   10.2758   12.9866   21.0393 C   0  0  0  0  0  0  0  0  0  0  0  0
   11.2295   12.9465   22.2500 C   0  0  0  0  0  0  0  0  0  0  0  0
   12.6246   10.7156   22.2962 N   0  0  0  0  0  0  0  0  0  0  0  0
    9.5511   12.0099   23.7635 N   0  0  0  0  0  0  0  0  0  0  0  0
   10.6135   13.9910   24.3010 O   0  0  0  0  0  0  0  0  0  0  0  0
    5.1465    8.8200   25.4253 H   0  0  0  0  0  0  0  0  0  0  0  0
    6.5444    7.1997   24.1781 H   0  0  0  0  0  0  0  0  0  0  0  0
    5.8662   11.1899   25.6590 H   0  0  0  0  0  0  0  0  0  0  0  0
    8.6886    7.9190   23.1416 H   0  0  0  0  0  0  0  0  0  0  0  0
    7.7034   12.9652   24.0203 H   0  0  0  0  0  0  0  0  0  0  0  0
    8.5752   12.5519   25.5372 H   0  0  0  0  0  0  0  0  0  0  0  0
   10.6048   10.1916   23.7289 H   0  0  0  0  0  0  0  0  0  0  0  0
    9.7311   10.6065   22.2092 H   0  0  0  0  0  0  0  0  0  0  0  0
   12.2030   15.6960   20.5262 H   0  0  0  0  0  0  0  0  0  0  0  0
   10.7136   15.6673   21.4913 H   0  0  0  0  0  0  0  0  0  0  0  0
   10.1028   14.4749   19.4456 H   0  0  0  0  0  0  0  0  0  0  0  0
   11.6311   13.5731   19.4580 H   0  0  0  0  0  0  0  0  0  0  0  0
   13.1483   13.8707   21.7317 H   0  0  0  0  0  0  0  0  0  0  0  0
   12.3048   14.7335   23.0186 H   0  0  0  0  0  0  0  0  0  0  0  0
    9.2679   13.3064   21.3346 H   0  0  0  0  0  0  0  0  0  0  0  0
   10.1701   12.0195   20.5340 H   0  0  0  0  0  0  0  0  0  0  0  0
  1 15  1  0  0  0  0
  1 16  3  0  0  0  0
  2  3  2  0  0  0  0
  2  4  1  0  0  0  0
  3  5  1  0  0  0  0
  4  6  2  0  0  0  0
  5  7  2  0  0  0  0
  6  7  1  0  0  0  0
  6  9  1  0  0  0  0
  7 10  1  0  0  0  0
  8 15  1  0  0  0  0
  8 17  1  0  0  0  0
  8 18  2  0  0  0  0
  9 17  1  0  0  0  0
 10 17  1  0  0  0  0
 11 12  1  0  0  0  0
 11 13  1  0  0  0  0
 12 14  1  0  0  0  0
 13 15  1  0  0  0  0
 14 15  1  0  0  0  0
  2 19  1  0  0  0  0
  3 20  1  0  0  0  0
  4 21  1  0  0  0  0
  5 22  1  0  0  0  0
  9 23  1  0  0  0  0
  9 24  1  0  0  0  0
 10 25  1  0  0  0  0
 10 26  1  0  0  0  0
 11 27  1  0  0  0  0
 11 28  1  0  0  0  0
 12 29  1  0  0  0  0
 12 30  1  0  0  0  0
 13 31  1  0  0  0  0
 13 32  1  0  0  0  0
 14 33  1  0  0  0  0
 14 34  1  0  0  0  0
M  END
> <Catalog ID>
Z963454974

> <PlateID>
1337959-R-09

> <Well>
D04

> <MW (desalted)>
240.300

> <CLogP>
1.395

> <HBD>
0

> <TPSA>
44.100

> <RotBonds>
1

> <ROCS_ShapeQuery>
A71EV2A-x0451_0A_A71EV2A-x0310_0A_A71EV2A-x0416_0A_peptide

> <ROCS_TanimotoCombo>
0.401 

> <ROCS_ShapeTanimoto>
0.298 

> <ROCS_ColorTanimoto>
0.104 

> <ROCS_RefTversky>
0.267 

> <ROCS_RefColorTversky>
0.114 

> <ROCS_RefTverskyCombo>
0.381 

> <ROCS_FitTversky>
1.625 

> <ROCS_FitColorTversky>
0.543 

> <ROCS_FitTverskyCombo>
2.168 

> <ROCS_ColorScore>
-3.450

> <ROCS_Overlap>
1852.191

> <ROCS_Rank>
434                 

$$$$
untitled-dbase-1095_23
  -OEChem-11112309163D

 23 24  0     0  0  0  0  0  0999 V2000
   14.2691   12.3001   25.7873 C   0  0  0  0  0  0  0  0  0  0  0  0
    8.5748   12.2687   24.6312 C   0  0  0  0  0  0  0  0  0  0  0  0
    9.9857   10.8876   23.2388 C   0  0  0  0  0  0  0  0  0  0  0  0
   15.4822   12.5016   25.1841 C   0  0  0  0  0  0  0  0  0  0  0  0
    7.6337   11.2412   24.6967 C   0  0  0  0  0  0  0  0  0  0  0  0
    9.0447    9.8601   23.3043 C   0  0  0  0  0  0  0  0  0  0  0  0
    7.8686   10.0369   24.0333 C   0  0  0  0  0  0  0  0  0  0  0  0
    9.7508   12.0919   23.9021 C   0  0  0  0  0  0  0  0  0  0  0  0
   13.3636   12.9754   24.9507 C   0  0  0  0  0  0  0  0  0  0  0  0
   13.9689   13.5517   23.9084 N   0  0  0  0  0  0  0  0  0  0  0  0
   11.9448   13.0524   25.1727 N   0  0  0  0  0  0  0  0  0  0  0  0
   10.2324   14.6348   24.0690 O   0  0  0  0  0  0  0  0  0  0  0  0
   11.6945   13.2316   22.5882 O   0  0  0  0  0  0  0  0  0  0  0  0
   15.3162   13.2472   24.0618 O   0  0  0  0  0  0  0  0  0  0  0  0
    6.5044   11.4109   25.3967 F   0  0  0  0  0  0  0  0  0  0  0  0
    9.2702    8.7035   22.6674 F   0  0  0  0  0  0  0  0  0  0  0  0
    6.9651    9.0502   24.0964 F   0  0  0  0  0  0  0  0  0  0  0  0
   10.9287   13.3781   23.8200 S   0  0  0  0  0  0  0  0  0  0  0  0
   14.0756   11.7467   26.6943 H   0  0  0  0  0  0  0  0  0  0  0  0
    8.3813   13.2026   25.1518 H   0  0  0  0  0  0  0  0  0  0  0  0
   10.8983   10.7389   22.6679 H   0  0  0  0  0  0  0  0  0  0  0  0
   16.4956   12.2031   25.4067 H   0  0  0  0  0  0  0  0  0  0  0  0
   11.6712   13.4955   26.0597 H   0  0  0  0  0  0  0  0  0  0  0  0
  1  4  2  0  0  0  0
  1  9  1  0  0  0  0
  2  5  2  0  0  0  0
  2  8  1  0  0  0  0
  3  6  1  0  0  0  0
  3  8  2  0  0  0  0
  4 14  1  0  0  0  0
  5  7  1  0  0  0  0
  5 15  1  0  0  0  0
  6  7  2  0  0  0  0
  6 16  1  0  0  0  0
  7 17  1  0  0  0  0
  8 18  1  0  0  0  0
  9 10  2  0  0  0  0
  9 11  1  0  0  0  0
 10 14  1  0  0  0  0
 11 18  1  0  0  0  0
 12 18  2  0  0  0  0
 13 18  2  0  0  0  0
  1 19  1  0  0  0  0
  2 20  1  0  0  0  0
  3 21  1  0  0  0  0
  4 22  1  0  0  0  0
 11 23  1  0  0  0  0
M  END
> <Catalog ID>
Z1638935398

> <PlateID>
1337959-R-14

> <Well>
F11

> <MW (desalted)>
278.208

> <CLogP>
1.515

> <HBD>
1

> <TPSA>
72.200

> <RotBonds>
2

> <ROCS_ShapeQuery>
A71EV2A-x0451_0A_A71EV2A-x0310_0A_A71EV2A-x0416_0A_peptide

> <ROCS_TanimotoCombo>
0.401 

> <ROCS_ShapeTanimoto>
0.289 

> <ROCS_ColorTanimoto>
0.112 

> <ROCS_RefTversky>
0.261 

> <ROCS_RefColorTversky>
0.125 

> <ROCS_RefTverskyCombo>
0.385 

> <ROCS_FitTversky>
1.608 

> <ROCS_FitColorTversky>
0.520 

> <ROCS_FitTverskyCombo>
2.128 

> <ROCS_ColorScore>
-3.791

> <ROCS_Overlap>
1808.894

> <ROCS_Rank>
435                 

$$$$
untitled-dbase-833_47
  -OEChem-11112309163D

 30 31  0     0  0  0  0  0  0999 V2000
    9.4112   14.0055   19.7799 C   0  0  0  0  0  0  0  0  0  0  0  0
    9.2801   13.5538   21.0931 C   0  0  0  0  0  0  0  0  0  0  0  0
   10.5209   14.7661   19.4115 C   0  0  0  0  0  0  0  0  0  0  0  0
   11.3684   14.6235   21.6695 C   0  0  0  0  0  0  0  0  0  0  0  0
   10.2587   13.8628   22.0379 C   0  0  0  0  0  0  0  0  0  0  0  0
   11.4995   15.0751   20.3563 C   0  0  0  0  0  0  0  0  0  0  0  0
   10.1202   13.3854   23.4236 C   0  0  0  0  0  0  0  0  0  0  0  0
    9.3903   11.0604   22.6993 C   0  0  0  0  0  0  0  0  0  0  0  0
    8.7630   11.9653   24.9174 C   0  0  0  0  0  0  0  0  0  0  0  0
    9.2107    9.7478   23.4510 C   0  0  0  0  0  0  0  0  0  0  0  0
    7.6051   10.9941   24.7400 C   0  0  0  0  0  0  0  0  0  0  0  0
   12.6861   15.8886   19.9624 C   0  0  0  0  0  0  0  0  0  0  0  0
    9.4410   12.1849   23.6414 N   0  0  0  0  0  0  0  0  0  0  0  0
   10.6161   14.0879   24.3035 O   0  0  0  0  0  0  0  0  0  0  0  0
    8.0194    9.7208   24.2398 O   0  0  0  0  0  0  0  0  0  0  0  0
   12.6826   16.2610   18.6483 F   0  0  0  0  0  0  0  0  0  0  0  0
   12.8059   17.0550   20.6628 F   0  0  0  0  0  0  0  0  0  0  0  0
   13.8636   15.2250   20.1518 F   0  0  0  0  0  0  0  0  0  0  0  0
    8.6487   13.7658   19.0445 H   0  0  0  0  0  0  0  0  0  0  0  0
    8.4115   12.9613   21.3692 H   0  0  0  0  0  0  0  0  0  0  0  0
   10.6151   15.1132   18.3859 H   0  0  0  0  0  0  0  0  0  0  0  0
   12.1318   14.8663   22.4052 H   0  0  0  0  0  0  0  0  0  0  0  0
   10.2828   11.0145   22.0698 H   0  0  0  0  0  0  0  0  0  0  0  0
    8.5260   11.2428   22.0488 H   0  0  0  0  0  0  0  0  0  0  0  0
    8.3911   12.9434   25.2435 H   0  0  0  0  0  0  0  0  0  0  0  0
    9.4618   11.5972   25.6741 H   0  0  0  0  0  0  0  0  0  0  0  0
    9.1473    8.9132   22.7314 H   0  0  0  0  0  0  0  0  0  0  0  0
   10.0826    9.5342   24.0978 H   0  0  0  0  0  0  0  0  0  0  0  0
    7.0496   10.8524   25.6891 H   0  0  0  0  0  0  0  0  0  0  0  0
    6.8775   11.4106   24.0191 H   0  0  0  0  0  0  0  0  0  0  0  0
  1  2  2  0  0  0  0
  1  3  1  0  0  0  0
  2  5  1  0  0  0  0
  3  6  2  0  0  0  0
  4  5  2  0  0  0  0
  4  6  1  0  0  0  0
  5  7  1  0  0  0  0
  6 12  1  0  0  0  0
  7 13  1  0  0  0  0
  7 14  2  0  0  0  0
  8 10  1  0  0  0  0
  8 13  1  0  0  0  0
  9 11  1  0  0  0  0
  9 13  1  0  0  0  0
 10 15  1  0  0  0  0
 11 15  1  0  0  0  0
 12 16  1  0  0  0  0
 12 17  1  0  0  0  0
 12 18  1  0  0  0  0
  1 19  1  0  0  0  0
  2 20  1  0  0  0  0
  3 21  1  0  0  0  0
  4 22  1  0  0  0  0
  8 23  1  0  0  0  0
  8 24  1  0  0  0  0
  9 25  1  0  0  0  0
  9 26  1  0  0  0  0
 10 27  1  0  0  0  0
 10 28  1  0  0  0  0
 11 29  1  0  0  0  0
 11 30  1  0  0  0  0
M  END
> <Catalog ID>
Z31721208

> <PlateID>
1337959-R-11

> <Well>
D06

> <MW (desalted)>
259.224

> <CLogP>
1.787

> <HBD>
0

> <TPSA>
29.540

> <RotBonds>
2

> <ROCS_ShapeQuery>
A71EV2A-x0451_0A_A71EV2A-x0310_0A_A71EV2A-x0416_0A_peptide

> <ROCS_TanimotoCombo>
0.401 

> <ROCS_ShapeTanimoto>
0.262 

> <ROCS_ColorTanimoto>
0.139 

> <ROCS_RefTversky>
0.241 

> <ROCS_RefColorTversky>
0.144 

> <ROCS_RefTverskyCombo>
0.385 

> <ROCS_FitTversky>
1.478 

> <ROCS_FitColorTversky>
0.810 

> <ROCS_FitTverskyCombo>
2.288 

> <ROCS_ColorScore>
-4.363

> <ROCS_Overlap>
1674.316

> <ROCS_Rank>
436                 

$$$$
untitled-dbase-869_233
  -OEChem-11112309163D

 31 32  0     1  0  0  0  0  0999 V2000
    9.7563   11.0720   22.9965 C   0  0  0  0  0  0  0  0  0  0  0  0
    9.3935    9.8321   23.5222 C   0  0  0  0  0  0  0  0  0  0  0  0
    7.8040   10.9166   24.9832 C   0  0  0  0  0  0  0  0  0  0  0  0
    9.1431   12.2343   23.4642 C   0  0  0  0  0  0  0  0  0  0  0  0
    8.4173    9.7543   24.5155 C   0  0  0  0  0  0  0  0  0  0  0  0
    8.1669   12.1566   24.4575 C   0  0  0  0  0  0  0  0  0  0  0  0
   13.0193   13.0334   23.6680 C   0  0  0  0  0  0  0  0  0  0  0  0
   12.4697   14.3086   21.5913 C   0  0  0  0  0  0  0  0  0  0  0  0
   11.0625   15.4327   23.1879 C   0  0  0  0  0  0  0  0  0  0  0  0
   11.9609   13.3286   22.6473 C   0  0  2  0  0  0  0  0  0  0  0  0
   11.6699   15.5801   21.8085 C   0  0  2  0  0  0  0  0  0  0  0  0
    9.5621   13.5488   22.8720 C   0  0  0  0  0  0  0  0  0  0  0  0
   10.8648   13.9855   23.3749 N   0  0  2  0  0  0  0  0  0  0  0  0
   12.9199   11.7796   24.2232 N   0  0  0  0  0  0  0  0  0  0  0  0
   13.8954   13.8460   23.9537 O   0  0  0  0  0  0  0  0  0  0  0  0
    8.0688    8.5633   25.0196 F   0  0  0  0  0  0  0  0  0  0  0  0
   10.6687   15.6370   20.8892 F   0  0  0  0  0  0  0  0  0  0  0  0
    7.3855   13.5731   25.0593 Cl  0  0  0  0  0  0  0  0  0  0  0  0
   10.5182   11.1206   22.2229 H   0  0  0  0  0  0  0  0  0  0  0  0
    9.8703    8.9272   23.1571 H   0  0  0  0  0  0  0  0  0  0  0  0
    7.0453   10.8380   25.7577 H   0  0  0  0  0  0  0  0  0  0  0  0
   13.5481   14.5092   21.6519 H   0  0  0  0  0  0  0  0  0  0  0  0
   12.2706   13.9177   20.5828 H   0  0  0  0  0  0  0  0  0  0  0  0
   11.7257   15.8575   23.9670 H   0  0  0  0  0  0  0  0  0  0  0  0
   10.1071   15.9960   23.2467 H   0  0  0  0  0  0  0  0  0  0  0  0
   11.6608   12.3815   22.1748 H   0  0  0  0  0  0  0  0  0  0  0  0
   12.2828   16.4716   21.7156 H   0  0  0  0  0  0  0  0  0  0  0  0
    9.6285   13.4771   21.7810 H   0  0  0  0  0  0  0  0  0  0  0  0
    8.8340   14.3336   23.1027 H   0  0  0  0  0  0  0  0  0  0  0  0
   13.5997   11.5019   24.9235 H   0  0  0  0  0  0  0  0  0  0  0  0
   12.1940   11.1207   23.9608 H   0  0  0  0  0  0  0  0  0  0  0  0
  1  2  1  0  0  0  0
  1  4  2  0  0  0  0
  2  5  2  0  0  0  0
  3  5  1  0  0  0  0
  3  6  2  0  0  0  0
  4  6  1  0  0  0  0
  4 12  1  0  0  0  0
  5 16  1  0  0  0  0
  6 18  1  0  0  0  0
  7 10  1  1  0  0  0
  7 14  1  0  0  0  0
  7 15  2  0  0  0  0
  8 10  1  0  0  0  0
  8 11  1  0  0  0  0
  9 11  1  0  0  0  0
  9 13  1  0  0  0  0
 10 13  1  0  0  0  0
 11 17  1  6  0  0  0
 12 13  1  0  0  0  0
  1 19  1  0  0  0  0
  2 20  1  0  0  0  0
  3 21  1  0  0  0  0
  8 22  1  0  0  0  0
  8 23  1  0  0  0  0
  9 24  1  0  0  0  0
  9 25  1  0  0  0  0
 10 26  1  0  0  0  0
 11 27  1  0  0  0  0
 12 28  1  0  0  0  0
 12 29  1  0  0  0  0
 14 30  1  0  0  0  0
 14 31  1  0  0  0  0
M  END
> <Catalog ID>
Z2054555786

> <PlateID>
1337959-R-11

> <Well>
H03

> <MW (desalted)>
274.694

> <CLogP>
2.142

> <HBD>
1

> <TPSA>
46.330

> <RotBonds>
3

> <ROCS_ShapeQuery>
A71EV2A-x0451_0A_A71EV2A-x0310_0A_A71EV2A-x0416_0A_peptide

> <ROCS_TanimotoCombo>
0.401 

> <ROCS_ShapeTanimoto>
0.308 

> <ROCS_ColorTanimoto>
0.093 

> <ROCS_RefTversky>
0.274 

> <ROCS_RefColorTversky>
0.102 

> <ROCS_RefTverskyCombo>
0.376 

> <ROCS_FitTversky>
1.701 

> <ROCS_FitColorTversky>
0.491 

> <ROCS_FitTverskyCombo>
2.192 

> <ROCS_ColorScore>
-3.109

> <ROCS_Overlap>
1897.956

> <ROCS_Rank>
437                 

$$$$
untitled-dbase-1010_204
  -OEChem-11112309163D

 34 35  0     0  0  0  0  0  0999 V2000
    6.9838   11.6406   24.8904 C   0  0  0  0  0  0  0  0  0  0  0  0
    7.4184   10.3374   25.0125 C   0  0  0  0  0  0  0  0  0  0  0  0
    9.0318   11.1054   23.7408 C   0  0  0  0  0  0  0  0  0  0  0  0
   10.6299   13.6265   23.2056 C   0  0  0  0  0  0  0  0  0  0  0  0
   11.6720    9.6607   21.5542 C   0  0  0  0  0  0  0  0  0  0  0  0
   12.1375    9.5103   22.9907 C   0  0  0  0  0  0  0  0  0  0  0  0
   10.2469   10.1728   21.7117 C   0  0  0  0  0  0  0  0  0  0  0  0
   11.5859   10.7499   23.6922 C   0  0  0  0  0  0  0  0  0  0  0  0
   10.3150   11.1635   22.8991 C   0  0  0  0  0  0  0  0  0  0  0  0
    6.7409    9.2705   25.7754 C   0  0  0  0  0  0  0  0  0  0  0  0
   12.3189   15.2097   22.1959 C   0  0  0  0  0  0  0  0  0  0  0  0
   10.8482   14.8927   22.3980 C   0  0  0  0  0  0  0  0  0  0  0  0
    8.5924   10.0285   24.3536 N   0  0  0  0  0  0  0  0  0  0  0  0
   10.5246   12.5103   22.3870 N   0  0  0  0  0  0  0  0  0  0  0  0
   10.5609   13.6152   24.4316 O   0  0  0  0  0  0  0  0  0  0  0  0
    8.0830   12.5246   23.9148 S   0  0  0  0  0  0  0  0  0  0  0  0
    6.1034   12.1040   25.3128 H   0  0  0  0  0  0  0  0  0  0  0  0
   12.2852   10.3896   21.0351 H   0  0  0  0  0  0  0  0  0  0  0  0
   11.7013    8.7238   21.0124 H   0  0  0  0  0  0  0  0  0  0  0  0
   11.7658    8.5976   23.4502 H   0  0  0  0  0  0  0  0  0  0  0  0
   13.2256    9.4988   23.0356 H   0  0  0  0  0  0  0  0  0  0  0  0
    9.8682   10.6346   20.7971 H   0  0  0  0  0  0  0  0  0  0  0  0
    9.5823    9.3359   21.9515 H   0  0  0  0  0  0  0  0  0  0  0  0
   11.3207   10.4943   24.7283 H   0  0  0  0  0  0  0  0  0  0  0  0
   12.3267   11.5572   23.7488 H   0  0  0  0  0  0  0  0  0  0  0  0
    6.0211    8.7258   25.1428 H   0  0  0  0  0  0  0  0  0  0  0  0
    7.4556    8.5341   26.1805 H   0  0  0  0  0  0  0  0  0  0  0  0
    6.1893    9.6696   26.6437 H   0  0  0  0  0  0  0  0  0  0  0  0
   12.8295   15.3366   23.1563 H   0  0  0  0  0  0  0  0  0  0  0  0
   12.8120   14.3991   21.6509 H   0  0  0  0  0  0  0  0  0  0  0  0
   12.4468   16.1340   21.6229 H   0  0  0  0  0  0  0  0  0  0  0  0
   10.3617   14.7708   21.4235 H   0  0  0  0  0  0  0  0  0  0  0  0
   10.3614   15.7252   22.9184 H   0  0  0  0  0  0  0  0  0  0  0  0
   10.5974   12.6395   21.3813 H   0  0  0  0  0  0  0  0  0  0  0  0
  1  2  2  0  0  0  0
  1 16  1  0  0  0  0
  2 10  1  0  0  0  0
  2 13  1  0  0  0  0
  3  9  1  0  0  0  0
  3 13  2  0  0  0  0
  3 16  1  0  0  0  0
  4 12  1  0  0  0  0
  4 14  1  0  0  0  0
  4 15  2  0  0  0  0
  5  6  1  0  0  0  0
  5  7  1  0  0  0  0
  6  8  1  0  0  0  0
  7  9  1  0  0  0  0
  8  9  1  0  0  0  0
  9 14  1  0  0  0  0
 11 12  1  0  0  0  0
  1 17  1  0  0  0  0
  5 18  1  0  0  0  0
  5 19  1  0  0  0  0
  6 20  1  0  0  0  0
  6 21  1  0  0  0  0
  7 22  1  0  0  0  0
  7 23  1  0  0  0  0
  8 24  1  0  0  0  0
  8 25  1  0  0  0  0
 10 26  1  0  0  0  0
 10 27  1  0  0  0  0
 10 28  1  0  0  0  0
 11 29  1  0  0  0  0
 11 30  1  0  0  0  0
 11 31  1  0  0  0  0
 12 32  1  0  0  0  0
 12 33  1  0  0  0  0
 14 34  1  0  0  0  0
M  END
> <Catalog ID>
Z1188610733

> <PlateID>
1337959-R-13

> <Well>
F05

> <MW (desalted)>
238.349

> <CLogP>
1.784

> <HBD>
1

> <TPSA>
41.990

> <RotBonds>
3

> <ROCS_ShapeQuery>
A71EV2A-x0451_0A_A71EV2A-x0310_0A_A71EV2A-x0416_0A_peptide

> <ROCS_TanimotoCombo>
0.401 

> <ROCS_ShapeTanimoto>
0.264 

> <ROCS_ColorTanimoto>
0.136 

> <ROCS_RefTversky>
0.240 

> <ROCS_RefColorTversky>
0.149 

> <ROCS_RefTverskyCombo>
0.389 

> <ROCS_FitTversky>
1.641 

> <ROCS_FitColorTversky>
0.622 

> <ROCS_FitTverskyCombo>
2.262 

> <ROCS_ColorScore>
-4.528

> <ROCS_Overlap>
1661.280

> <ROCS_Rank>
438                 

$$$$
untitled-dbase-1148_45
  -OEChem-11112309163D

 29 30  0     1  0  0  0  0  0999 V2000
    9.3270    9.4205   23.7388 C   0  0  0  0  0  0  0  0  0  0  0  0
    8.1295   11.5922   25.5161 C   0  0  0  0  0  0  0  0  0  0  0  0
    6.7498   11.2363   24.0249 C   0  0  0  0  0  0  0  0  0  0  0  0
   10.5564   11.5501   23.3575 C   0  0  0  0  0  0  0  0  0  0  0  0
    8.4108   13.1525   23.4731 C   0  0  0  0  0  0  0  0  0  0  0  0
    9.2172   10.8247   23.2393 C   0  0  2  0  0  0  0  0  0  0  0  0
    8.2100   11.7242   23.9766 C   0  0  0  0  0  0  0  0  0  0  0  0
   11.2680    7.6704   25.4808 C   0  0  0  0  0  0  0  0  0  0  0  0
   10.8560    7.6416   24.0244 C   0  0  0  0  0  0  0  0  0  0  0  0
    8.3933    8.7861   24.2108 O   0  0  0  0  0  0  0  0  0  0  0  0
   10.7681   13.9983   24.3013 O   0  0  0  0  0  0  0  0  0  0  0  0
   10.3886   13.6793   21.8142 O   0  0  0  0  0  0  0  0  0  0  0  0
    6.8825   10.8600   25.4180 O   0  0  0  0  0  0  0  0  0  0  0  0
   10.6081    8.9803   23.5835 O   0  0  0  0  0  0  0  0  0  0  0  0
   10.1708   13.2857   23.1909 S   0  0  0  0  0  0  0  0  0  0  0  0
    8.9050   10.9818   25.9858 H   0  0  0  0  0  0  0  0  0  0  0  0
    8.0088   12.5262   26.0690 H   0  0  0  0  0  0  0  0  0  0  0  0
    5.9741   11.9973   23.8838 H   0  0  0  0  0  0  0  0  0  0  0  0
    6.5044   10.3615   23.4102 H   0  0  0  0  0  0  0  0  0  0  0  0
   11.0679   11.3835   24.3051 H   0  0  0  0  0  0  0  0  0  0  0  0
   11.2109   11.2869   22.5243 H   0  0  0  0  0  0  0  0  0  0  0  0
    7.8742   13.3737   22.5469 H   0  0  0  0  0  0  0  0  0  0  0  0
    8.1424   13.8878   24.2380 H   0  0  0  0  0  0  0  0  0  0  0  0
    8.9498   10.7407   22.1602 H   0  0  0  0  0  0  0  0  0  0  0  0
   12.1807    8.2572   25.6166 H   0  0  0  0  0  0  0  0  0  0  0  0
   10.4741    8.1036   26.0980 H   0  0  0  0  0  0  0  0  0  0  0  0
   11.4421    6.6553   25.8527 H   0  0  0  0  0  0  0  0  0  0  0  0
    9.9427    7.0532   23.8955 H   0  0  0  0  0  0  0  0  0  0  0  0
   11.6507    7.2092   23.4091 H   0  0  0  0  0  0  0  0  0  0  0  0
  1  6  1  0  0  0  0
  1 10  2  0  0  0  0
  1 14  1  0  0  0  0
  2  7  1  0  0  0  0
  2 13  1  0  0  0  0
  3  7  1  0  0  0  0
  3 13  1  0  0  0  0
  4  6  1  0  0  0  0
  4 15  1  0  0  0  0
  5  7  1  0  0  0  0
  5 15  1  0  0  0  0
  6  7  1  0  0  0  0
  8  9  1  0  0  0  0
  9 14  1  0  0  0  0
 11 15  2  0  0  0  0
 12 15  2  0  0  0  0
  2 16  1  0  0  0  0
  2 17  1  0  0  0  0
  3 18  1  0  0  0  0
  3 19  1  0  0  0  0
  4 20  1  0  0  0  0
  4 21  1  0  0  0  0
  5 22  1  0  0  0  0
  5 23  1  0  0  0  0
  6 24  1  0  0  0  0
  8 25  1  0  0  0  0
  8 26  1  0  0  0  0
  8 27  1  0  0  0  0
  9 28  1  0  0  0  0
  9 29  1  0  0  0  0
M  END
> <Catalog ID>
Z4469821600

> <PlateID>
1337959-R-15

> <Well>
D04

> <MW (desalted)>
234.269

> <CLogP>
0.074

> <HBD>
0

> <TPSA>
69.670

> <RotBonds>
3

> <ROCS_ShapeQuery>
A71EV2A-x0451_0A_A71EV2A-x0310_0A_A71EV2A-x0416_0A_peptide

> <ROCS_TanimotoCombo>
0.401 

> <ROCS_ShapeTanimoto>
0.261 

> <ROCS_ColorTanimoto>
0.140 

> <ROCS_RefTversky>
0.236 

> <ROCS_RefColorTversky>
0.152 

> <ROCS_RefTverskyCombo>
0.388 

> <ROCS_FitTversky>
1.689 

> <ROCS_FitColorTversky>
0.634 

> <ROCS_FitTverskyCombo>
2.324 

> <ROCS_ColorScore>
-4.628

> <ROCS_Overlap>
1634.047

> <ROCS_Rank>
439                 

$$$$
untitled-dbase-719_149
  -OEChem-11112309163D

 37 38  0     1  0  0  0  0  0999 V2000
   10.5837   12.9289   23.7183 C   0  0  0  0  0  0  0  0  0  0  0  0
    6.6821   11.1591   26.8280 C   0  0  0  0  0  0  0  0  0  0  0  0
    5.6221   11.4732   25.7722 C   0  0  0  0  0  0  0  0  0  0  0  0
    7.8408   10.4897   26.0883 C   0  0  0  0  0  0  0  0  0  0  0  0
    6.1254   10.8445   24.4781 C   0  0  0  0  0  0  0  0  0  0  0  0
    8.3819    9.9526   23.6434 C   0  0  0  0  0  0  0  0  0  0  0  0
    9.7956   10.5171   23.6215 C   0  0  0  0  0  0  0  0  0  0  0  0
    8.2618   12.2467   24.2945 C   0  0  0  0  0  0  0  0  0  0  0  0
    7.6444   10.8769   24.6157 C   0  0  0  0  0  0  0  0  0  0  0  0
   13.1968   11.6634   24.3774 C   0  0  0  0  0  0  0  0  0  0  0  0
   13.0231   12.7115   23.2872 C   0  0  0  0  0  0  0  0  0  0  0  0
   11.6343   12.6651   22.6697 C   0  0  2  0  0  0  0  0  0  0  0  0
    9.6209   11.9457   23.8592 N   0  0  0  0  0  0  0  0  0  0  0  0
   11.4247   13.6936   21.6927 N   0  0  0  0  0  0  0  0  0  0  0  0
   10.6116   13.9666   24.3821 O   0  0  0  0  0  0  0  0  0  0  0  0
    7.0137   12.0834   27.3144 H   0  0  0  0  0  0  0  0  0  0  0  0
    6.2883   10.5020   27.6105 H   0  0  0  0  0  0  0  0  0  0  0  0
    4.6374   11.0869   26.0528 H   0  0  0  0  0  0  0  0  0  0  0  0
    5.5276   12.5590   25.6543 H   0  0  0  0  0  0  0  0  0  0  0  0
    8.8094   10.7972   26.4965 H   0  0  0  0  0  0  0  0  0  0  0  0
    7.7624    9.4022   26.2125 H   0  0  0  0  0  0  0  0  0  0  0  0
    5.7698    9.8086   24.4112 H   0  0  0  0  0  0  0  0  0  0  0  0
    5.7582   11.3788   23.5964 H   0  0  0  0  0  0  0  0  0  0  0  0
    7.9410   10.0210   22.6407 H   0  0  0  0  0  0  0  0  0  0  0  0
    8.3667    8.9014   23.9487 H   0  0  0  0  0  0  0  0  0  0  0  0
   10.4061   10.1157   24.4367 H   0  0  0  0  0  0  0  0  0  0  0  0
   10.3126   10.3419   22.6740 H   0  0  0  0  0  0  0  0  0  0  0  0
    7.7539   12.7372   23.4553 H   0  0  0  0  0  0  0  0  0  0  0  0
    8.2767   12.9368   25.1446 H   0  0  0  0  0  0  0  0  0  0  0  0
   12.4573   11.7995   25.1730 H   0  0  0  0  0  0  0  0  0  0  0  0
   13.0644   10.6600   23.9601 H   0  0  0  0  0  0  0  0  0  0  0  0
   14.1956   11.7131   24.8224 H   0  0  0  0  0  0  0  0  0  0  0  0
   13.7804   12.5406   22.5120 H   0  0  0  0  0  0  0  0  0  0  0  0
   13.2264   13.7039   23.7094 H   0  0  0  0  0  0  0  0  0  0  0  0
   11.4154   11.6996   22.2125 H   0  0  0  0  0  0  0  0  0  0  0  0
   10.7200   14.3270   22.0159 H   0  0  0  0  0  0  0  0  0  0  0  0
   12.2779   14.1959   21.5445 H   0  0  0  0  0  0  0  0  0  0  0  0
  1 12  1  0  0  0  0
  1 13  1  0  0  0  0
  1 15  2  0  0  0  0
  2  3  1  0  0  0  0
  2  4  1  0  0  0  0
  3  5  1  0  0  0  0
  4  9  1  0  0  0  0
  5  9  1  0  0  0  0
  6  7  1  0  0  0  0
  6  9  1  0  0  0  0
  7 13  1  0  0  0  0
  8  9  1  0  0  0  0
  8 13  1  0  0  0  0
 10 11  1  0  0  0  0
 11 12  1  0  0  0  0
 12 14  1  6  0  0  0
  2 16  1  0  0  0  0
  2 17  1  0  0  0  0
  3 18  1  0  0  0  0
  3 19  1  0  0  0  0
  4 20  1  0  0  0  0
  4 21  1  0  0  0  0
  5 22  1  0  0  0  0
  5 23  1  0  0  0  0
  6 24  1  0  0  0  0
  6 25  1  0  0  0  0
  7 26  1  0  0  0  0
  7 27  1  0  0  0  0
  8 28  1  0  0  0  0
  8 29  1  0  0  0  0
 10 30  1  0  0  0  0
 10 31  1  0  0  0  0
 10 32  1  0  0  0  0
 11 33  1  0  0  0  0
 11 34  1  0  0  0  0
 12 35  1  0  0  0  0
 14 36  1  0  0  0  0
 14 37  1  0  0  0  0
M  END
> <Catalog ID>
Z1450337397

> <PlateID>
1337959-R-10

> <Well>
A02

> <MW (desalted)>
210.316

> <CLogP>
1.450

> <HBD>
1

> <TPSA>
46.330

> <RotBonds>
2

> <ROCS_ShapeQuery>
A71EV2A-x0451_0A_A71EV2A-x0310_0A_A71EV2A-x0416_0A_peptide

> <ROCS_TanimotoCombo>
0.401 

> <ROCS_ShapeTanimoto>
0.266 

> <ROCS_ColorTanimoto>
0.134 

> <ROCS_RefTversky>
0.240 

> <ROCS_RefColorTversky>
0.147 

> <ROCS_RefTverskyCombo>
0.387 

> <ROCS_FitTversky>
1.703 

> <ROCS_FitColorTversky>
0.613 

> <ROCS_FitTverskyCombo>
2.315 

> <ROCS_ColorScore>
-4.465

> <ROCS_Overlap>
1661.813

> <ROCS_Rank>
440                 

$$$$
untitled-dbase-958_74
  -OEChem-11112309163D

 34 35  0     0  0  0  0  0  0999 V2000
    7.7032    9.8854   23.8705 C   0  0  0  0  0  0  0  0  0  0  0  0
    7.2913   10.9986   24.6031 C   0  0  0  0  0  0  0  0  0  0  0  0
    9.8146   10.9671   23.4138 C   0  0  0  0  0  0  0  0  0  0  0  0
    9.4027   12.0804   24.1464 C   0  0  0  0  0  0  0  0  0  0  0  0
    8.9649    9.8696   23.2759 C   0  0  0  0  0  0  0  0  0  0  0  0
    8.1410   12.0961   24.7410 C   0  0  0  0  0  0  0  0  0  0  0  0
   10.2931   13.2266   24.2879 C   0  0  0  0  0  0  0  0  0  0  0  0
   11.4639   15.0539   21.3592 C   0  0  0  0  0  0  0  0  0  0  0  0
    8.9984   14.5107   21.1832 C   0  0  0  0  0  0  0  0  0  0  0  0
   11.3080   15.1052   22.8784 C   0  0  0  0  0  0  0  0  0  0  0  0
    8.9096   14.5553   22.7094 C   0  0  0  0  0  0  0  0  0  0  0  0
   10.1481   15.3664   20.6352 C   0  0  0  0  0  0  0  0  0  0  0  0
    9.4052    8.6794   22.4926 C   0  0  0  0  0  0  0  0  0  0  0  0
   10.2046   14.2382   23.3139 N   0  0  0  0  0  0  0  0  0  0  0  0
    9.8366   16.7752   20.7120 N   0  0  0  0  0  0  0  0  0  0  0  0
   11.0817   13.2844   25.2331 O   0  0  0  0  0  0  0  0  0  0  0  0
    7.7350   13.1609   25.4469 F   0  0  0  0  0  0  0  0  0  0  0  0
    7.0339    9.0354   23.7673 H   0  0  0  0  0  0  0  0  0  0  0  0
    6.3086   11.0110   25.0653 H   0  0  0  0  0  0  0  0  0  0  0  0
   10.7982   10.9527   22.9491 H   0  0  0  0  0  0  0  0  0  0  0  0
   12.2510   15.7499   21.0442 H   0  0  0  0  0  0  0  0  0  0  0  0
   11.8024   14.0506   21.0693 H   0  0  0  0  0  0  0  0  0  0  0  0
    9.1526   13.4697   20.8698 H   0  0  0  0  0  0  0  0  0  0  0  0
    8.0416   14.8242   20.7482 H   0  0  0  0  0  0  0  0  0  0  0  0
   12.2519   14.8136   23.3460 H   0  0  0  0  0  0  0  0  0  0  0  0
   11.0837   16.1212   23.2225 H   0  0  0  0  0  0  0  0  0  0  0  0
    8.6149   15.5508   23.0600 H   0  0  0  0  0  0  0  0  0  0  0  0
    8.1439   13.8520   23.0530 H   0  0  0  0  0  0  0  0  0  0  0  0
   10.2801   15.1195   19.5686 H   0  0  0  0  0  0  0  0  0  0  0  0
    9.1211    8.7892   21.4388 H   0  0  0  0  0  0  0  0  0  0  0  0
   10.4935    8.5465   22.5474 H   0  0  0  0  0  0  0  0  0  0  0  0
    8.9528    7.7574   22.8807 H   0  0  0  0  0  0  0  0  0  0  0  0
   10.5939   17.2771   20.3167 H   0  0  0  0  0  0  0  0  0  0  0  0
    9.0024   16.9309   20.2007 H   0  0  0  0  0  0  0  0  0  0  0  0
  1  2  1  0  0  0  0
  1  5  2  0  0  0  0
  2  6  2  0  0  0  0
  3  4  2  0  0  0  0
  3  5  1  0  0  0  0
  4  6  1  0  0  0  0
  4  7  1  0  0  0  0
  5 13  1  0  0  0  0
  6 17  1  0  0  0  0
  7 14  1  0  0  0  0
  7 16  2  0  0  0  0
  8 10  1  0  0  0  0
  8 12  1  0  0  0  0
  9 11  1  0  0  0  0
  9 12  1  0  0  0  0
 10 14  1  0  0  0  0
 11 14  1  0  0  0  0
 12 15  1  0  0  0  0
  1 18  1  0  0  0  0
  2 19  1  0  0  0  0
  3 20  1  0  0  0  0
  8 21  1  0  0  0  0
  8 22  1  0  0  0  0
  9 23  1  0  0  0  0
  9 24  1  0  0  0  0
 10 25  1  0  0  0  0
 10 26  1  0  0  0  0
 11 27  1  0  0  0  0
 11 28  1  0  0  0  0
 12 29  1  0  0  0  0
 13 30  1  0  0  0  0
 13 31  1  0  0  0  0
 13 32  1  0  0  0  0
 15 33  1  0  0  0  0
 15 34  1  0  0  0  0
M  END
> <Catalog ID>
Z992338700

> <PlateID>
1337959-R-13

> <Well>
A02

> <MW (desalted)>
236.285

> <CLogP>
0.531

> <HBD>
1

> <TPSA>
46.330

> <RotBonds>
1

> <ROCS_ShapeQuery>
A71EV2A-x0451_0A_A71EV2A-x0310_0A_A71EV2A-x0416_0A_peptide

> <ROCS_TanimotoCombo>
0.400 

> <ROCS_ShapeTanimoto>
0.276 

> <ROCS_ColorTanimoto>
0.124 

> <ROCS_RefTversky>
0.250 

> <ROCS_RefColorTversky>
0.133 

> <ROCS_RefTverskyCombo>
0.383 

> <ROCS_FitTversky>
1.615 

> <ROCS_FitColorTversky>
0.640 

> <ROCS_FitTverskyCombo>
2.254 

> <ROCS_ColorScore>
-4.054

> <ROCS_Overlap>
1732.911

> <ROCS_Rank>
441                 

$$$$
untitled-dbase-165_5
  -OEChem-11112309163D

 19 20  0     0  0  0  0  0  0999 V2000
   10.2865   13.0746   23.5466 C   0  0  0  0  0  0  0  0  0  0  0  0
    9.8313   10.5603   24.3837 C   0  0  0  0  0  0  0  0  0  0  0  0
    8.7207   11.0659   22.6772 C   0  0  0  0  0  0  0  0  0  0  0  0
    7.4903   10.9664   24.7330 C   0  0  0  0  0  0  0  0  0  0  0  0
    8.4246   10.1296   23.8814 C   0  0  0  0  0  0  0  0  0  0  0  0
    9.3357   11.9312   23.8230 C   0  0  0  0  0  0  0  0  0  0  0  0
    8.1777   12.2634   24.6853 N   0  0  0  0  0  0  0  0  0  0  0  0
   10.7998   13.0731   22.2712 N   0  0  0  0  0  0  0  0  0  0  0  0
   10.5485   13.9251   24.3937 O   0  0  0  0  0  0  0  0  0  0  0  0
   10.0104   10.4950   25.4622 H   0  0  0  0  0  0  0  0  0  0  0  0
   10.6838   10.1084   23.8623 H   0  0  0  0  0  0  0  0  0  0  0  0
    9.4293   10.6799   21.9345 H   0  0  0  0  0  0  0  0  0  0  0  0
    7.8546   11.4774   22.1484 H   0  0  0  0  0  0  0  0  0  0  0  0
    6.4853   11.0260   24.3020 H   0  0  0  0  0  0  0  0  0  0  0  0
    7.4211   10.5960   25.7605 H   0  0  0  0  0  0  0  0  0  0  0  0
    8.2202    9.0762   23.7016 H   0  0  0  0  0  0  0  0  0  0  0  0
    7.5541   12.9657   24.2880 H   0  0  0  0  0  0  0  0  0  0  0  0
   11.4466   13.8084   22.0056 H   0  0  0  0  0  0  0  0  0  0  0  0
   10.5576   12.3660   21.5846 H   0  0  0  0  0  0  0  0  0  0  0  0
  1  6  1  0  0  0  0
  1  8  1  0  0  0  0
  1  9  2  0  0  0  0
  2  5  1  0  0  0  0
  2  6  1  0  0  0  0
  3  5  1  0  0  0  0
  3  6  1  0  0  0  0
  4  5  1  0  0  0  0
  4  7  1  0  0  0  0
  6  7  1  0  0  0  0
  2 10  1  0  0  0  0
  2 11  1  0  0  0  0
  3 12  1  0  0  0  0
  3 13  1  0  0  0  0
  4 14  1  0  0  0  0
  4 15  1  0  0  0  0
  5 16  1  0  0  0  0
  7 17  1  0  0  0  0
  8 18  1  0  0  0  0
  8 19  1  0  0  0  0
M  END
> <Catalog ID>
Z2587654810

> <PlateID>
1337959-R-03

> <Well>
A07

> <MW (desalted)>
126.156

> <CLogP>
-1.103

> <HBD>
2

> <TPSA>
55.120

> <RotBonds>
1

> <ROCS_ShapeQuery>
A71EV2A-x0451_0A_A71EV2A-x0310_0A_A71EV2A-x0416_0A_peptide

> <ROCS_TanimotoCombo>
0.400 

> <ROCS_ShapeTanimoto>
0.197 

> <ROCS_ColorTanimoto>
0.204 

> <ROCS_RefTversky>
0.182 

> <ROCS_RefColorTversky>
0.235 

> <ROCS_RefTverskyCombo>
0.417 

> <ROCS_FitTversky>
1.693 

> <ROCS_FitColorTversky>
0.606 

> <ROCS_FitTverskyCombo>
2.298 

> <ROCS_ColorScore>
-7.197

> <ROCS_Overlap>
1258.901

> <ROCS_Rank>
442                 

$$$$
untitled-dbase-839_79
  -OEChem-11112309163D

 33 34  0     0  0  0  0  0  0999 V2000
   10.8565   16.0298   20.2878 C   0  0  0  0  0  0  0  0  0  0  0  0
   10.7377   15.2889   21.4636 C   0  0  0  0  0  0  0  0  0  0  0  0
    9.0924   12.2409   24.3870 C   0  0  0  0  0  0  0  0  0  0  0  0
   13.0039   14.4962   21.1932 C   0  0  0  0  0  0  0  0  0  0  0  0
    8.0881   11.3609   24.7085 C   0  0  0  0  0  0  0  0  0  0  0  0
   12.0490   16.0038   19.5646 C   0  0  0  0  0  0  0  0  0  0  0  0
   13.1227   15.2371   20.0173 C   0  0  0  0  0  0  0  0  0  0  0  0
   11.8113   14.5222   21.9164 C   0  0  0  0  0  0  0  0  0  0  0  0
    9.8833   11.5462   23.4523 C   0  0  0  0  0  0  0  0  0  0  0  0
   12.1506   16.8029   18.3070 C   0  0  0  0  0  0  0  0  0  0  0  0
   14.4083   15.1925   19.2587 C   0  0  0  0  0  0  0  0  0  0  0  0
    7.5419    9.0266   23.9791 C   0  0  0  0  0  0  0  0  0  0  0  0
    9.4212   10.3193   23.1967 N   0  0  0  0  0  0  0  0  0  0  0  0
    8.3292   10.2362   23.9757 N   0  0  0  0  0  0  0  0  0  0  0  0
   11.0635   12.0809   22.8283 N   0  0  0  0  0  0  0  0  0  0  0  0
   10.6239   14.2196   24.2020 O   0  0  0  0  0  0  0  0  0  0  0  0
   12.9891   13.4145   23.9631 O   0  0  0  0  0  0  0  0  0  0  0  0
   11.6615   13.5963   23.3890 S   0  0  0  0  0  0  0  0  0  0  0  0
   10.0136   16.6220   19.9413 H   0  0  0  0  0  0  0  0  0  0  0  0
    9.8044   15.3164   22.0194 H   0  0  0  0  0  0  0  0  0  0  0  0
    9.2244   13.2409   24.7743 H   0  0  0  0  0  0  0  0  0  0  0  0
   13.8408   13.8977   21.5453 H   0  0  0  0  0  0  0  0  0  0  0  0
    7.2437   11.4401   25.3793 H   0  0  0  0  0  0  0  0  0  0  0  0
   12.5211   17.8110   18.5263 H   0  0  0  0  0  0  0  0  0  0  0  0
   12.8318   16.3285   17.5898 H   0  0  0  0  0  0  0  0  0  0  0  0
   11.1753   16.8887   17.8120 H   0  0  0  0  0  0  0  0  0  0  0  0
   14.3884   14.3784   18.5249 H   0  0  0  0  0  0  0  0  0  0  0  0
   14.5891   16.1361   18.7292 H   0  0  0  0  0  0  0  0  0  0  0  0
   15.2605   15.0359   19.9317 H   0  0  0  0  0  0  0  0  0  0  0  0
    6.7736    9.1220   23.2073 H   0  0  0  0  0  0  0  0  0  0  0  0
    8.1892    8.1702   23.7703 H   0  0  0  0  0  0  0  0  0  0  0  0
    7.0829    8.8970   24.9632 H   0  0  0  0  0  0  0  0  0  0  0  0
   11.7737   11.3800   22.5785 H   0  0  0  0  0  0  0  0  0  0  0  0
  1  2  1  0  0  0  0
  1  6  2  0  0  0  0
  2  8  2  0  0  0  0
  3  5  2  0  0  0  0
  3  9  1  0  0  0  0
  4  7  2  0  0  0  0
  4  8  1  0  0  0  0
  5 14  1  0  0  0  0
  6  7  1  0  0  0  0
  6 10  1  0  0  0  0
  7 11  1  0  0  0  0
  8 18  1  0  0  0  0
  9 13  2  0  0  0  0
  9 15  1  0  0  0  0
 12 14  1  0  0  0  0
 13 14  1  0  0  0  0
 15 18  1  0  0  0  0
 16 18  2  0  0  0  0
 17 18  2  0  0  0  0
  1 19  1  0  0  0  0
  2 20  1  0  0  0  0
  3 21  1  0  0  0  0
  4 22  1  0  0  0  0
  5 23  1  0  0  0  0
 10 24  1  0  0  0  0
 10 25  1  0  0  0  0
 10 26  1  0  0  0  0
 11 27  1  0  0  0  0
 11 28  1  0  0  0  0
 11 29  1  0  0  0  0
 12 30  1  0  0  0  0
 12 31  1  0  0  0  0
 12 32  1  0  0  0  0
 15 33  1  0  0  0  0
M  END
> <Catalog ID>
Z123605552

> <PlateID>
1337959-R-11

> <Well>
E02

> <MW (desalted)>
265.331

> <CLogP>
1.952

> <HBD>
1

> <TPSA>
63.990

> <RotBonds>
2

> <ROCS_ShapeQuery>
A71EV2A-x0451_0A_A71EV2A-x0310_0A_A71EV2A-x0416_0A_peptide

> <ROCS_TanimotoCombo>
0.400 

> <ROCS_ShapeTanimoto>
0.283 

> <ROCS_ColorTanimoto>
0.117 

> <ROCS_RefTversky>
0.256 

> <ROCS_RefColorTversky>
0.130 

> <ROCS_RefTverskyCombo>
0.386 

> <ROCS_FitTversky>
1.597 

> <ROCS_FitColorTversky>
0.543 

> <ROCS_FitTverskyCombo>
2.140 

> <ROCS_ColorScore>
-3.957

> <ROCS_Overlap>
1774.944

> <ROCS_Rank>
443                 

$$$$
untitled-dbase-683_11
  -OEChem-11112309163D

 34 36  0     1  0  0  0  0  0999 V2000
   12.1854   12.7561   24.1067 C   0  0  0  0  0  0  0  0  0  0  0  0
   13.0749   14.2723   22.7952 C   0  0  0  0  0  0  0  0  0  0  0  0
   11.1290   12.9226   23.2359 C   0  0  0  0  0  0  0  0  0  0  0  0
    8.8715   10.1846   23.8907 C   0  0  0  0  0  0  0  0  0  0  0  0
    6.7604   11.9546   26.4868 C   0  0  0  0  0  0  0  0  0  0  0  0
    6.0110   12.2776   25.1929 C   0  0  0  0  0  0  0  0  0  0  0  0
    7.8664   10.9781   26.0972 C   0  0  0  0  0  0  0  0  0  0  0  0
    6.7472   11.5367   24.0776 C   0  0  0  0  0  0  0  0  0  0  0  0
    9.7755   12.2482   23.2157 C   0  0  2  0  0  0  0  0  0  0  0  0
    8.1533   11.2919   24.6310 C   0  0  0  0  0  0  0  0  0  0  0  0
   11.8536    9.5964   22.5866 C   0  0  0  0  0  0  0  0  0  0  0  0
   10.5730   10.1324   22.0429 C   0  0  0  0  0  0  0  0  0  0  0  0
   13.3023   13.5289   23.8554 N   0  0  0  0  0  0  0  0  0  0  0  0
    9.0046   12.4844   24.4530 N   0  0  0  0  0  0  0  0  0  0  0  0
    9.8076   10.8076   23.0752 N   0  0  0  0  0  0  0  0  0  0  0  0
    8.6187    8.9921   23.9747 O   0  0  0  0  0  0  0  0  0  0  0  0
   11.5388   14.0932   22.0514 S   0  0  0  0  0  0  0  0  0  0  0  0
   12.1956   12.0781   24.9498 H   0  0  0  0  0  0  0  0  0  0  0  0
   13.8120   14.9620   22.4076 H   0  0  0  0  0  0  0  0  0  0  0  0
    7.1769   12.8558   26.9425 H   0  0  0  0  0  0  0  0  0  0  0  0
    6.0779   11.5036   27.2120 H   0  0  0  0  0  0  0  0  0  0  0  0
    4.9761   11.9236   25.2651 H   0  0  0  0  0  0  0  0  0  0  0  0
    5.9737   13.3545   25.0016 H   0  0  0  0  0  0  0  0  0  0  0  0
    8.7479   11.1770   26.7164 H   0  0  0  0  0  0  0  0  0  0  0  0
    7.5641    9.9415   26.2651 H   0  0  0  0  0  0  0  0  0  0  0  0
    6.2213   10.6145   23.7973 H   0  0  0  0  0  0  0  0  0  0  0  0
    6.7891   12.1786   23.1853 H   0  0  0  0  0  0  0  0  0  0  0  0
    9.1912   12.6524   22.3489 H   0  0  0  0  0  0  0  0  0  0  0  0
   11.6389    8.8811   23.3941 H   0  0  0  0  0  0  0  0  0  0  0  0
   12.4081    9.0878   21.7842 H   0  0  0  0  0  0  0  0  0  0  0  0
   12.4591   10.4251   22.9823 H   0  0  0  0  0  0  0  0  0  0  0  0
   10.7962   10.8464   21.2365 H   0  0  0  0  0  0  0  0  0  0  0  0
    9.9772    9.2997   21.6409 H   0  0  0  0  0  0  0  0  0  0  0  0
    9.6490   12.5249   25.2338 H   0  0  0  0  0  0  0  0  0  0  0  0
  1  3  2  0  0  0  0
  1 13  1  0  0  0  0
  2 13  2  0  0  0  0
  2 17  1  0  0  0  0
  3  9  1  0  0  0  0
  3 17  1  0  0  0  0
  4 10  1  0  0  0  0
  4 15  1  0  0  0  0
  4 16  2  0  0  0  0
  5  6  1  0  0  0  0
  5  7  1  0  0  0  0
  6  8  1  0  0  0  0
  7 10  1  0  0  0  0
  8 10  1  0  0  0  0
  9 14  1  0  0  0  0
  9 15  1  0  0  0  0
 10 14  1  0  0  0  0
 11 12  1  0  0  0  0
 12 15  1  0  0  0  0
  1 18  1  0  0  0  0
  2 19  1  0  0  0  0
  5 20  1  0  0  0  0
  5 21  1  0  0  0  0
  6 22  1  0  0  0  0
  6 23  1  0  0  0  0
  7 24  1  0  0  0  0
  7 25  1  0  0  0  0
  8 26  1  0  0  0  0
  8 27  1  0  0  0  0
  9 28  1  0  0  0  0
 11 29  1  0  0  0  0
 11 30  1  0  0  0  0
 11 31  1  0  0  0  0
 12 32  1  0  0  0  0
 12 33  1  0  0  0  0
 14 34  1  0  0  0  0
M  END
> <Catalog ID>
Z1816986654

> <PlateID>
1337959-R-09

> <Well>
E06

> <MW (desalted)>
251.348

> <CLogP>
1.269

> <HBD>
1

> <TPSA>
45.230

> <RotBonds>
2

> <ROCS_ShapeQuery>
A71EV2A-x0451_0A_A71EV2A-x0310_0A_A71EV2A-x0416_0A_peptide

> <ROCS_TanimotoCombo>
0.400 

> <ROCS_ShapeTanimoto>
0.297 

> <ROCS_ColorTanimoto>
0.103 

> <ROCS_RefTversky>
0.265 

> <ROCS_RefColorTversky>
0.119 

> <ROCS_RefTverskyCombo>
0.383 

> <ROCS_FitTversky>
1.701 

> <ROCS_FitColorTversky>
0.440 

> <ROCS_FitTverskyCombo>
2.140 

> <ROCS_ColorScore>
-3.623

> <ROCS_Overlap>
1834.344

> <ROCS_Rank>
444                 

$$$$
untitled-dbase-656_37
  -OEChem-11112309163D

 31 32  0     0  0  0  0  0  0999 V2000
    6.3254   11.7865   25.6601 C   0  0  0  0  0  0  0  0  0  0  0  0
    8.5682    9.6911   23.5539 C   0  0  0  0  0  0  0  0  0  0  0  0
    7.4812   10.0896   24.3319 C   0  0  0  0  0  0  0  0  0  0  0  0
    9.6129   10.5818   23.3069 C   0  0  0  0  0  0  0  0  0  0  0  0
    8.4837   12.2694   24.6159 C   0  0  0  0  0  0  0  0  0  0  0  0
    7.4390   11.3788   24.8629 C   0  0  0  0  0  0  0  0  0  0  0  0
    9.5707   11.8709   23.8379 C   0  0  0  0  0  0  0  0  0  0  0  0
   11.7545   15.6876   20.6366 C   0  0  0  0  0  0  0  0  0  0  0  0
   10.5170   15.7462   21.5301 C   0  0  0  0  0  0  0  0  0  0  0  0
   12.6300   14.4857   20.9862 C   0  0  0  0  0  0  0  0  0  0  0  0
    9.7494   14.4294   21.4995 C   0  0  0  0  0  0  0  0  0  0  0  0
   11.8263   13.1905   20.9648 C   0  0  0  0  0  0  0  0  0  0  0  0
    5.4210   12.1177   26.3076 N   0  0  0  0  0  0  0  0  0  0  0  0
   10.6430   13.2947   21.8632 N   0  0  0  0  0  0  0  0  0  0  0  0
   10.6268   14.2106   24.2665 O   0  0  0  0  0  0  0  0  0  0  0  0
   12.1389   12.2795   23.6902 O   0  0  0  0  0  0  0  0  0  0  0  0
   10.8935   12.9970   23.5255 S   0  0  0  0  0  0  0  0  0  0  0  0
    8.6009    8.6873   23.1401 H   0  0  0  0  0  0  0  0  0  0  0  0
    6.6746    9.3837   24.5158 H   0  0  0  0  0  0  0  0  0  0  0  0
   10.4547   10.2606   22.6998 H   0  0  0  0  0  0  0  0  0  0  0  0
    8.4546   13.2758   25.0285 H   0  0  0  0  0  0  0  0  0  0  0  0
   11.4450   15.6227   19.5847 H   0  0  0  0  0  0  0  0  0  0  0  0
   12.3339   16.6131   20.7425 H   0  0  0  0  0  0  0  0  0  0  0  0
   10.8266   15.9665   22.5592 H   0  0  0  0  0  0  0  0  0  0  0  0
    9.8650   16.5644   21.2060 H   0  0  0  0  0  0  0  0  0  0  0  0
   13.4640   14.4175   20.2792 H   0  0  0  0  0  0  0  0  0  0  0  0
   13.0622   14.6332   21.9837 H   0  0  0  0  0  0  0  0  0  0  0  0
    8.9188   14.4856   22.2181 H   0  0  0  0  0  0  0  0  0  0  0  0
    9.3193   14.2559   20.5014 H   0  0  0  0  0  0  0  0  0  0  0  0
   11.4945   12.9580   19.9414 H   0  0  0  0  0  0  0  0  0  0  0  0
   12.4713   12.3667   21.3039 H   0  0  0  0  0  0  0  0  0  0  0  0
  1  6  1  0  0  0  0
  1 13  3  0  0  0  0
  2  3  2  0  0  0  0
  2  4  1  0  0  0  0
  3  6  1  0  0  0  0
  4  7  2  0  0  0  0
  5  6  2  0  0  0  0
  5  7  1  0  0  0  0
  7 17  1  0  0  0  0
  8  9  1  0  0  0  0
  8 10  1  0  0  0  0
  9 11  1  0  0  0  0
 10 12  1  0  0  0  0
 11 14  1  0  0  0  0
 12 14  1  0  0  0  0
 14 17  1  0  0  0  0
 15 17  2  0  0  0  0
 16 17  2  0  0  0  0
  2 18  1  0  0  0  0
  3 19  1  0  0  0  0
  4 20  1  0  0  0  0
  5 21  1  0  0  0  0
  8 22  1  0  0  0  0
  8 23  1  0  0  0  0
  9 24  1  0  0  0  0
  9 25  1  0  0  0  0
 10 26  1  0  0  0  0
 10 27  1  0  0  0  0
 11 28  1  0  0  0  0
 11 29  1  0  0  0  0
 12 30  1  0  0  0  0
 12 31  1  0  0  0  0
M  END
> <Catalog ID>
Z45498118

> <PlateID>
1337959-R-09

> <Well>
B09

> <MW (desalted)>
250.317

> <CLogP>
1.963

> <HBD>
0

> <TPSA>
61.170

> <RotBonds>
1

> <ROCS_ShapeQuery>
A71EV2A-x0451_0A_A71EV2A-x0310_0A_A71EV2A-x0416_0A_peptide

> <ROCS_TanimotoCombo>
0.400 

> <ROCS_ShapeTanimoto>
0.297 

> <ROCS_ColorTanimoto>
0.102 

> <ROCS_RefTversky>
0.264 

> <ROCS_RefColorTversky>
0.112 

> <ROCS_RefTverskyCombo>
0.376 

> <ROCS_FitTversky>
1.745 

> <ROCS_FitColorTversky>
0.538 

> <ROCS_FitTverskyCombo>
2.283 

> <ROCS_ColorScore>
-3.410

> <ROCS_Overlap>
1829.805

> <ROCS_Rank>
445                 

$$$$
untitled-dbase-17_3
  -OEChem-11112309163D

 29 31  0     0  0  0  0  0  0999 V2000
    6.6168   10.3850   25.3619 C   0  0  0  0  0  0  0  0  0  0  0  0
    8.2733   11.2313   24.3294 C   0  0  0  0  0  0  0  0  0  0  0  0
    8.2315    9.9076   23.9614 C   0  0  0  0  0  0  0  0  0  0  0  0
    9.1604    9.2467   23.0262 C   0  0  0  0  0  0  0  0  0  0  0  0
   10.3120   12.5400   24.9865 C   0  0  0  0  0  0  0  0  0  0  0  0
    8.6661   13.5154   23.3670 C   0  0  0  0  0  0  0  0  0  0  0  0
   10.3850   10.1661   22.8376 C   0  0  0  0  0  0  0  0  0  0  0  0
   11.2486   13.6889   24.6214 C   0  0  0  0  0  0  0  0  0  0  0  0
    9.6964   14.6061   23.0832 C   0  0  0  0  0  0  0  0  0  0  0  0
    9.3173   12.1979   23.8512 C   0  0  0  0  0  0  0  0  0  0  0  0
    7.2655   11.5225   25.2125 N   0  0  0  0  0  0  0  0  0  0  0  0
    7.1671    9.3719   24.6186 N   0  0  0  0  0  0  0  0  0  0  0  0
   10.0096   11.5846   22.6767 N   0  0  0  0  0  0  0  0  0  0  0  0
   10.5078   14.8437   24.2318 O   0  0  0  0  0  0  0  0  0  0  0  0
    5.7495   10.2268   25.9871 H   0  0  0  0  0  0  0  0  0  0  0  0
    9.4789    8.2869   23.4483 H   0  0  0  0  0  0  0  0  0  0  0  0
    8.6843    9.0532   22.0599 H   0  0  0  0  0  0  0  0  0  0  0  0
   10.9408   11.6608   25.1794 H   0  0  0  0  0  0  0  0  0  0  0  0
    9.7884   12.7750   25.9197 H   0  0  0  0  0  0  0  0  0  0  0  0
    7.9305   13.8929   24.0885 H   0  0  0  0  0  0  0  0  0  0  0  0
    8.1261   13.3166   22.4300 H   0  0  0  0  0  0  0  0  0  0  0  0
   11.0448   10.0688   23.7084 H   0  0  0  0  0  0  0  0  0  0  0  0
   10.9757    9.8380   21.9726 H   0  0  0  0  0  0  0  0  0  0  0  0
   11.9276   13.9485   25.4389 H   0  0  0  0  0  0  0  0  0  0  0  0
   11.8713   13.3955   23.7703 H   0  0  0  0  0  0  0  0  0  0  0  0
   10.3587   14.2822   22.2739 H   0  0  0  0  0  0  0  0  0  0  0  0
    9.2277   15.5423   22.7618 H   0  0  0  0  0  0  0  0  0  0  0  0
    6.8431    8.4149   24.5732 H   0  0  0  0  0  0  0  0  0  0  0  0
   10.8558   12.1192   22.4701 H   0  0  0  0  0  0  0  0  0  0  0  0
  1 11  2  0  0  0  0
  1 12  1  0  0  0  0
  2  3  2  0  0  0  0
  2 10  1  0  0  0  0
  2 11  1  0  0  0  0
  3  4  1  0  0  0  0
  3 12  1  0  0  0  0
  4  7  1  0  0  0  0
  5  8  1  0  0  0  0
  5 10  1  0  0  0  0
  6  9  1  0  0  0  0
  6 10  1  0  0  0  0
  7 13  1  0  0  0  0
  8 14  1  0  0  0  0
  9 14  1  0  0  0  0
 10 13  1  0  0  0  0
  1 15  1  0  0  0  0
  4 16  1  0  0  0  0
  4 17  1  0  0  0  0
  5 18  1  0  0  0  0
  5 19  1  0  0  0  0
  6 20  1  0  0  0  0
  6 21  1  0  0  0  0
  7 22  1  0  0  0  0
  7 23  1  0  0  0  0
  8 24  1  0  0  0  0
  8 25  1  0  0  0  0
  9 26  1  0  0  0  0
  9 27  1  0  0  0  0
 12 28  1  0  0  0  0
 13 29  1  0  0  0  0
M  END
> <Catalog ID>
Z2327673459

> <PlateID>
1337959-R-01

> <Well>
B08

> <MW (desalted)>
193.246

> <CLogP>
-1.214

> <HBD>
2

> <TPSA>
49.940

> <RotBonds>
0

> <ROCS_ShapeQuery>
A71EV2A-x0451_0A_A71EV2A-x0310_0A_A71EV2A-x0416_0A_peptide

> <ROCS_TanimotoCombo>
0.399 

> <ROCS_ShapeTanimoto>
0.259 

> <ROCS_ColorTanimoto>
0.140 

> <ROCS_RefTversky>
0.235 

> <ROCS_RefColorTversky>
0.164 

> <ROCS_RefTverskyCombo>
0.399 

> <ROCS_FitTversky>
1.672 

> <ROCS_FitColorTversky>
0.493 

> <ROCS_FitTverskyCombo>
2.166 

> <ROCS_ColorScore>
-5.011

> <ROCS_Overlap>
1625.495

> <ROCS_Rank>
446                 

$$$$
untitled-dbase-149_32
  -OEChem-11112309163D

 22 23  0     0  0  0  0  0  0999 V2000
    7.3869   10.4386   24.7833 C   0  0  0  0  0  0  0  0  0  0  0  0
    8.3514    9.5724   24.2686 C   0  0  0  0  0  0  0  0  0  0  0  0
    7.4660   11.8061   24.5201 C   0  0  0  0  0  0  0  0  0  0  0  0
    9.4742   11.4412   23.2275 C   0  0  0  0  0  0  0  0  0  0  0  0
    9.3951   10.0737   23.4907 C   0  0  0  0  0  0  0  0  0  0  0  0
    8.5096   12.3074   23.7422 C   0  0  0  0  0  0  0  0  0  0  0  0
   10.5624   11.9640   22.4152 C   0  0  0  0  0  0  0  0  0  0  0  0
   11.1087   13.1726   22.5129 C   0  0  0  0  0  0  0  0  0  0  0  0
   10.7813   14.2588   23.4165 C   0  0  0  0  0  0  0  0  0  0  0  0
   12.1607   13.2190   21.4740 C   0  0  0  0  0  0  0  0  0  0  0  0
   11.1549   11.2060   21.4364 N   0  0  0  0  0  0  0  0  0  0  0  0
   12.0680   11.8682   20.8659 N   0  0  0  0  0  0  0  0  0  0  0  0
   10.4072   15.3742   23.0711 O   0  0  0  0  0  0  0  0  0  0  0  0
   10.9486   13.8643   24.7013 O   0  0  0  0  0  0  0  0  0  0  0  0
   10.3143    9.2278   23.0030 F   0  0  0  0  0  0  0  0  0  0  0  0
    8.5719   13.6247   23.4985 F   0  0  0  0  0  0  0  0  0  0  0  0
    6.5743   10.0487   25.3891 H   0  0  0  0  0  0  0  0  0  0  0  0
    8.2896    8.5077   24.4736 H   0  0  0  0  0  0  0  0  0  0  0  0
    6.7153   12.4804   24.9220 H   0  0  0  0  0  0  0  0  0  0  0  0
   11.9608   13.9838   20.7173 H   0  0  0  0  0  0  0  0  0  0  0  0
   13.1561   13.3681   21.9023 H   0  0  0  0  0  0  0  0  0  0  0  0
   10.7363   14.5746   25.3436 H   0  0  0  0  0  0  0  0  0  0  0  0
  1  2  2  0  0  0  0
  1  3  1  0  0  0  0
  2  5  1  0  0  0  0
  3  6  2  0  0  0  0
  4  5  2  0  0  0  0
  4  6  1  0  0  0  0
  4  7  1  0  0  0  0
  5 15  1  0  0  0  0
  6 16  1  0  0  0  0
  7  8  2  0  0  0  0
  7 11  1  0  0  0  0
  8  9  1  0  0  0  0
  8 10  1  0  0  0  0
  9 13  2  0  0  0  0
  9 14  1  0  0  0  0
 10 12  1  0  0  0  0
 11 12  2  0  0  0  0
  1 17  1  0  0  0  0
  2 18  1  0  0  0  0
  3 19  1  0  0  0  0
 10 20  1  0  0  0  0
 10 21  1  0  0  0  0
 14 22  1  0  0  0  0
M  END
> <Catalog ID>
Z362114752

> <PlateID>
1337959-R-02

> <Well>
G11

> <MW (desalted)>
224.164

> <CLogP>
2.145

> <HBD>
2

> <TPSA>
65.980

> <RotBonds>
1

> <ROCS_ShapeQuery>
A71EV2A-x0451_0A_A71EV2A-x0310_0A_A71EV2A-x0416_0A_peptide

> <ROCS_TanimotoCombo>
0.399 

> <ROCS_ShapeTanimoto>
0.279 

> <ROCS_ColorTanimoto>
0.120 

> <ROCS_RefTversky>
0.252 

> <ROCS_RefColorTversky>
0.129 

> <ROCS_RefTverskyCombo>
0.381 

> <ROCS_FitTversky>
1.641 

> <ROCS_FitColorTversky>
0.620 

> <ROCS_FitTverskyCombo>
2.260 

> <ROCS_ColorScore>
-3.932

> <ROCS_Overlap>
1746.392

> <ROCS_Rank>
447                 

$$$$
untitled-dbase-885_8
  -OEChem-11112309163D

 34 35  0     1  0  0  0  0  0999 V2000
   11.3262   15.8096   19.3842 C   0  0  0  0  0  0  0  0  0  0  0  0
   10.3127   16.0050   20.3224 C   0  0  0  0  0  0  0  0  0  0  0  0
   12.3414   14.8867   19.6361 C   0  0  0  0  0  0  0  0  0  0  0  0
   10.3144   15.2777   21.5126 C   0  0  0  0  0  0  0  0  0  0  0  0
   12.3431   14.1594   20.8263 C   0  0  0  0  0  0  0  0  0  0  0  0
   11.3296   14.3549   21.7646 C   0  0  0  0  0  0  0  0  0  0  0  0
    7.5004   11.0828   25.5645 C   0  0  0  0  0  0  0  0  0  0  0  0
    7.8339   12.2174   24.6287 C   0  0  0  0  0  0  0  0  0  0  0  0
    8.4666   10.0091   25.1112 C   0  0  0  0  0  0  0  0  0  0  0  0
    8.1041   11.4717   23.3335 C   0  0  1  0  0  0  0  0  0  0  0  0
    8.9250   11.6907   20.9620 C   0  0  0  0  0  0  0  0  0  0  0  0
    9.0281   12.2153   22.3889 C   0  0  2  0  0  0  0  0  0  0  0  0
   10.4308   12.0623   22.8519 N   0  0  0  0  0  0  0  0  0  0  0  0
   12.7016   13.0471   23.5584 O   0  0  0  0  0  0  0  0  0  0  0  0
   10.5788   14.2092   24.2422 O   0  0  0  0  0  0  0  0  0  0  0  0
    8.6972   10.2176   23.7099 O   0  0  0  0  0  0  0  0  0  0  0  0
   11.3333   13.4358   23.2746 S   0  0  0  0  0  0  0  0  0  0  0  0
   11.3258   16.3761   18.4574 H   0  0  0  0  0  0  0  0  0  0  0  0
    9.5227   16.7242   20.1271 H   0  0  0  0  0  0  0  0  0  0  0  0
   13.1306   14.7354   18.9057 H   0  0  0  0  0  0  0  0  0  0  0  0
    9.5206   15.4384   22.2372 H   0  0  0  0  0  0  0  0  0  0  0  0
   13.1395   13.4441   21.0128 H   0  0  0  0  0  0  0  0  0  0  0  0
    7.6098   11.3370   26.6220 H   0  0  0  0  0  0  0  0  0  0  0  0
    6.4683   10.7529   25.3964 H   0  0  0  0  0  0  0  0  0  0  0  0
    7.0313   12.9542   24.5359 H   0  0  0  0  0  0  0  0  0  0  0  0
    8.7351   12.7328   24.9825 H   0  0  0  0  0  0  0  0  0  0  0  0
    9.4300   10.1013   25.6239 H   0  0  0  0  0  0  0  0  0  0  0  0
    8.0794    8.9995   25.2751 H   0  0  0  0  0  0  0  0  0  0  0  0
    7.1605   11.2432   22.8236 H   0  0  0  0  0  0  0  0  0  0  0  0
    9.1601   10.6215   20.9198 H   0  0  0  0  0  0  0  0  0  0  0  0
    9.6232   12.2175   20.3033 H   0  0  0  0  0  0  0  0  0  0  0  0
    7.9135   11.8211   20.5614 H   0  0  0  0  0  0  0  0  0  0  0  0
    8.7875   13.2859   22.3981 H   0  0  0  0  0  0  0  0  0  0  0  0
   10.6550   11.1588   23.2707 H   0  0  0  0  0  0  0  0  0  0  0  0
  1  2  2  0  0  0  0
  1  3  1  0  0  0  0
  2  4  1  0  0  0  0
  3  5  2  0  0  0  0
  4  6  2  0  0  0  0
  5  6  1  0  0  0  0
  6 17  1  0  0  0  0
  7  8  1  0  0  0  0
  7  9  1  0  0  0  0
  8 10  1  0  0  0  0
  9 16  1  0  0  0  0
 10 12  1  0  0  0  0
 10 16  1  0  0  0  0
 11 12  1  0  0  0  0
 12 13  1  0  0  0  0
 13 17  1  0  0  0  0
 14 17  2  0  0  0  0
 15 17  2  0  0  0  0
  1 18  1  0  0  0  0
  2 19  1  0  0  0  0
  3 20  1  0  0  0  0
  4 21  1  0  0  0  0
  5 22  1  0  0  0  0
  7 23  1  0  0  0  0
  7 24  1  0  0  0  0
  8 25  1  0  0  0  0
  8 26  1  0  0  0  0
  9 27  1  0  0  0  0
  9 28  1  0  0  0  0
 10 29  1  0  0  0  0
 11 30  1  0  0  0  0
 11 31  1  0  0  0  0
 11 32  1  0  0  0  0
 12 33  1  0  0  0  0
 13 34  1  0  0  0  0
M  END
> <Catalog ID>
Z355277714

> <PlateID>
1337959-R-12

> <Well>
A09

> <MW (desalted)>
255.333

> <CLogP>
1.857

> <HBD>
1

> <TPSA>
55.400

> <RotBonds>
3

> <ROCS_ShapeQuery>
A71EV2A-x0451_0A_A71EV2A-x0310_0A_A71EV2A-x0416_0A_peptide

> <ROCS_TanimotoCombo>
0.399 

> <ROCS_ShapeTanimoto>
0.257 

> <ROCS_ColorTanimoto>
0.143 

> <ROCS_RefTversky>
0.235 

> <ROCS_RefColorTversky>
0.155 

> <ROCS_RefTverskyCombo>
0.390 

> <ROCS_FitTversky>
1.553 

> <ROCS_FitColorTversky>
0.646 

> <ROCS_FitTverskyCombo>
2.199 

> <ROCS_ColorScore>
-4.707

> <ROCS_Overlap>
1630.083

> <ROCS_Rank>
448                 

$$$$
untitled-dbase-314_2
  -OEChem-11112309163D

 23 24  0     0  0  0  0  0  0999 V2000
    7.3684   11.3895   24.7051 C   0  0  0  0  0  0  0  0  0  0  0  0
    7.7941   10.0632   24.6326 C   0  0  0  0  0  0  0  0  0  0  0  0
    8.1788   12.4104   24.2082 C   0  0  0  0  0  0  0  0  0  0  0  0
    9.0303    9.7577   24.0633 C   0  0  0  0  0  0  0  0  0  0  0  0
    9.4150   12.1049   23.6389 C   0  0  0  0  0  0  0  0  0  0  0  0
    9.8408   10.7785   23.5664 C   0  0  0  0  0  0  0  0  0  0  0  0
   10.2185   13.1894   23.1380 C   0  0  0  0  0  0  0  0  0  0  0  0
   11.3246   14.9596   23.1271 C   0  0  0  0  0  0  0  0  0  0  0  0
   11.9093   14.9115   20.6690 C   0  0  0  0  0  0  0  0  0  0  0  0
   10.6447   14.1987   23.9531 N   0  0  0  0  0  0  0  0  0  0  0  0
   10.5920   13.2780   21.8597 N   0  0  0  0  0  0  0  0  0  0  0  0
   11.2981   14.4187   21.8795 N   0  0  0  0  0  0  0  0  0  0  0  0
   11.9844   16.1170   23.3571 N   0  0  0  0  0  0  0  0  0  0  0  0
   11.3631   10.3411   22.8711 Cl  0  0  0  0  0  0  0  0  0  0  0  0
    6.4056   11.6271   25.1475 H   0  0  0  0  0  0  0  0  0  0  0  0
    7.1634    9.2687   25.0205 H   0  0  0  0  0  0  0  0  0  0  0  0
    7.8292   13.4384   24.2721 H   0  0  0  0  0  0  0  0  0  0  0  0
    9.3463    8.7186   24.0150 H   0  0  0  0  0  0  0  0  0  0  0  0
   12.9145   14.4871   20.6017 H   0  0  0  0  0  0  0  0  0  0  0  0
   11.3077   14.6081   19.8077 H   0  0  0  0  0  0  0  0  0  0  0  0
   11.9559   16.0035   20.7064 H   0  0  0  0  0  0  0  0  0  0  0  0
   12.5232   16.5943   22.6208 H   0  0  0  0  0  0  0  0  0  0  0  0
   12.0579   16.5257   24.2994 H   0  0  0  0  0  0  0  0  0  0  0  0
  1  2  2  0  0  0  0
  1  3  1  0  0  0  0
  2  4  1  0  0  0  0
  3  5  2  0  0  0  0
  4  6  2  0  0  0  0
  5  6  1  0  0  0  0
  5  7  1  0  0  0  0
  6 14  1  0  0  0  0
  7 10  1  0  0  0  0
  7 11  2  0  0  0  0
  8 10  2  0  0  0  0
  8 12  1  0  0  0  0
  8 13  1  0  0  0  0
  9 12  1  0  0  0  0
 11 12  1  0  0  0  0
  1 15  1  0  0  0  0
  2 16  1  0  0  0  0
  3 17  1  0  0  0  0
  4 18  1  0  0  0  0
  9 19  1  0  0  0  0
  9 20  1  0  0  0  0
  9 21  1  0  0  0  0
 13 22  1  0  0  0  0
 13 23  1  0  0  0  0
M  END
> <Catalog ID>
Z1675005275

> <PlateID>
1337959-R-04

> <Well>
H06

> <MW (desalted)>
208.648

> <CLogP>
1.528

> <HBD>
1

> <TPSA>
56.730

> <RotBonds>
1

> <ROCS_ShapeQuery>
A71EV2A-x0451_0A_A71EV2A-x0310_0A_A71EV2A-x0416_0A_peptide

> <ROCS_TanimotoCombo>
0.399 

> <ROCS_ShapeTanimoto>
0.275 

> <ROCS_ColorTanimoto>
0.125 

> <ROCS_RefTversky>
0.246 

> <ROCS_RefColorTversky>
0.137 

> <ROCS_RefTverskyCombo>
0.383 

> <ROCS_FitTversky>
1.757 

> <ROCS_FitColorTversky>
0.573 

> <ROCS_FitTverskyCombo>
2.330 

> <ROCS_ColorScore>
-4.182

> <ROCS_Overlap>
1700.776

> <ROCS_Rank>
449                 

$$$$
untitled-dbase-28_153
  -OEChem-11112309163D

 35 36  0     1  0  0  0  0  0999 V2000
   10.3470   12.9273   23.6062 C   0  0  0  0  0  0  0  0  0  0  0  0
   11.4650   15.4553   22.6794 C   0  0  0  0  0  0  0  0  0  0  0  0
   10.1372   13.4625   19.8014 C   0  0  0  0  0  0  0  0  0  0  0  0
   11.1631   14.5857   19.6857 C   0  0  0  0  0  0  0  0  0  0  0  0
    7.4296   10.8934   24.5406 C   0  0  0  0  0  0  0  0  0  0  0  0
    8.3355    9.8340   23.9256 C   0  0  0  0  0  0  0  0  0  0  0  0
    9.6698   13.2686   21.2414 C   0  0  0  0  0  0  0  0  0  0  0  0
   12.3469   14.3808   20.6329 C   0  0  0  0  0  0  0  0  0  0  0  0
    8.3972   12.0237   24.8559 C   0  0  0  0  0  0  0  0  0  0  0  0
    9.3174   10.6589   23.1055 C   0  0  0  0  0  0  0  0  0  0  0  0
   10.8532   13.0487   22.1789 C   0  0  1  0  0  0  0  0  0  0  0  0
   11.9142   14.1479   22.0853 C   0  0  2  0  0  0  0  0  0  0  0  0
    9.4223   11.9231   23.8275 N   0  0  0  0  0  0  0  0  0  0  0  0
   10.7613   13.6883   24.4821 O   0  0  0  0  0  0  0  0  0  0  0  0
   12.2009   16.2764   23.2063 O   0  0  0  0  0  0  0  0  0  0  0  0
   10.1234   15.6021   22.5543 O   0  0  0  0  0  0  0  0  0  0  0  0
    9.2756   13.6827   19.1611 H   0  0  0  0  0  0  0  0  0  0  0  0
   10.5773   12.5277   19.4329 H   0  0  0  0  0  0  0  0  0  0  0  0
   11.5276   14.6444   18.6537 H   0  0  0  0  0  0  0  0  0  0  0  0
   10.6784   15.5452   19.9026 H   0  0  0  0  0  0  0  0  0  0  0  0
    6.6838   11.2245   23.8085 H   0  0  0  0  0  0  0  0  0  0  0  0
    6.9070   10.5292   25.4294 H   0  0  0  0  0  0  0  0  0  0  0  0
    8.8656    9.2866   24.7139 H   0  0  0  0  0  0  0  0  0  0  0  0
    7.7811    9.1155   23.3156 H   0  0  0  0  0  0  0  0  0  0  0  0
    9.0807   14.1381   21.5590 H   0  0  0  0  0  0  0  0  0  0  0  0
    8.9895   12.4089   21.2872 H   0  0  0  0  0  0  0  0  0  0  0  0
   12.9236   13.5113   20.2920 H   0  0  0  0  0  0  0  0  0  0  0  0
   13.0145   15.2486   20.5666 H   0  0  0  0  0  0  0  0  0  0  0  0
    7.9256   13.0107   24.8424 H   0  0  0  0  0  0  0  0  0  0  0  0
    8.8843   11.8781   25.8264 H   0  0  0  0  0  0  0  0  0  0  0  0
   10.2939   10.1771   23.0081 H   0  0  0  0  0  0  0  0  0  0  0  0
    8.9221   10.8752   22.1071 H   0  0  0  0  0  0  0  0  0  0  0  0
   11.3138   12.0948   21.9467 H   0  0  0  0  0  0  0  0  0  0  0  0
   12.7970   13.8499   22.6659 H   0  0  0  0  0  0  0  0  0  0  0  0
    9.8101   16.4489   22.9380 H   0  0  0  0  0  0  0  0  0  0  0  0
  1 11  1  6  0  0  0
  1 13  1  0  0  0  0
  1 14  2  0  0  0  0
  2 12  1  6  0  0  0
  2 15  2  0  0  0  0
  2 16  1  0  0  0  0
  3  4  1  0  0  0  0
  3  7  1  0  0  0  0
  4  8  1  0  0  0  0
  5  6  1  0  0  0  0
  5  9  1  0  0  0  0
  6 10  1  0  0  0  0
  7 11  1  0  0  0  0
  8 12  1  0  0  0  0
  9 13  1  0  0  0  0
 10 13  1  0  0  0  0
 11 12  1  0  0  0  0
  3 17  1  0  0  0  0
  3 18  1  0  0  0  0
  4 19  1  0  0  0  0
  4 20  1  0  0  0  0
  5 21  1  0  0  0  0
  5 22  1  0  0  0  0
  6 23  1  0  0  0  0
  6 24  1  0  0  0  0
  7 25  1  0  0  0  0
  7 26  1  0  0  0  0
  8 27  1  0  0  0  0
  8 28  1  0  0  0  0
  9 29  1  0  0  0  0
  9 30  1  0  0  0  0
 10 31  1  0  0  0  0
 10 32  1  0  0  0  0
 11 33  1  0  0  0  0
 12 34  1  0  0  0  0
 16 35  1  0  0  0  0
M  END
> <Catalog ID>
Z1955819860

> <PlateID>
1337959-R-01

> <Well>
C09

> <MW (desalted)>
225.284

> <CLogP>
1.150

> <HBD>
1

> <TPSA>
57.610

> <RotBonds>
2

> <ROCS_ShapeQuery>
A71EV2A-x0451_0A_A71EV2A-x0310_0A_A71EV2A-x0416_0A_peptide

> <ROCS_TanimotoCombo>
0.399 

> <ROCS_ShapeTanimoto>
0.258 

> <ROCS_ColorTanimoto>
0.141 

> <ROCS_RefTversky>
0.235 

> <ROCS_RefColorTversky>
0.154 

> <ROCS_RefTverskyCombo>
0.389 

> <ROCS_FitTversky>
1.592 

> <ROCS_FitColorTversky>
0.641 

> <ROCS_FitTverskyCombo>
2.233 

> <ROCS_ColorScore>
-4.674

> <ROCS_Overlap>
1629.854

> <ROCS_Rank>
450                 

$$$$
untitled-dbase-692_24
  -OEChem-11112309163D

 29 30  0     0  0  0  0  0  0999 V2000
    6.0115    9.9946   25.1240 C   0  0  0  0  0  0  0  0  0  0  0  0
    7.4880   11.8182   24.4348 C   0  0  0  0  0  0  0  0  0  0  0  0
    8.7025   12.2643   23.9138 C   0  0  0  0  0  0  0  0  0  0  0  0
    8.2378    9.5311   24.2246 C   0  0  0  0  0  0  0  0  0  0  0  0
    7.2556   10.4516   24.5903 C   0  0  0  0  0  0  0  0  0  0  0  0
    9.6847   11.3439   23.5482 C   0  0  0  0  0  0  0  0  0  0  0  0
    9.4524    9.9773   23.7035 C   0  0  0  0  0  0  0  0  0  0  0  0
   10.7010   14.1649   20.1453 C   0  0  0  0  0  0  0  0  0  0  0  0
   10.5538   15.5113   22.1434 C   0  0  0  0  0  0  0  0  0  0  0  0
   10.8360   13.0495   20.8708 C   0  0  0  0  0  0  0  0  0  0  0  0
   10.5544   15.4438   20.8031 C   0  0  0  0  0  0  0  0  0  0  0  0
   10.7034   14.2735   22.9686 C   0  0  0  0  0  0  0  0  0  0  0  0
   10.4083   16.6502   19.9284 C   0  0  0  0  0  0  0  0  0  0  0  0
   10.9909   11.8275   22.9877 C   0  0  0  0  0  0  0  0  0  0  0  0
    5.0010    9.6235   25.5575 N   0  0  0  0  0  0  0  0  0  0  0  0
   10.8400   13.0783   22.2538 N   0  0  0  0  0  0  0  0  0  0  0  0
   10.6973   14.3752   24.1944 O   0  0  0  0  0  0  0  0  0  0  0  0
   10.3903    9.0853   23.3549 F   0  0  0  0  0  0  0  0  0  0  0  0
    6.7321   12.5479   24.7153 H   0  0  0  0  0  0  0  0  0  0  0  0
    8.8748   13.3309   23.7963 H   0  0  0  0  0  0  0  0  0  0  0  0
    8.0718    8.4627   24.3396 H   0  0  0  0  0  0  0  0  0  0  0  0
   10.7003   14.1225   19.0617 H   0  0  0  0  0  0  0  0  0  0  0  0
   10.4465   16.4515   22.6733 H   0  0  0  0  0  0  0  0  0  0  0  0
   10.9475   12.0790   20.4001 H   0  0  0  0  0  0  0  0  0  0  0  0
    9.3543   16.8252   19.7203 H   0  0  0  0  0  0  0  0  0  0  0  0
   10.9411   16.4904   18.9924 H   0  0  0  0  0  0  0  0  0  0  0  0
   10.8279   17.5198   20.4316 H   0  0  0  0  0  0  0  0  0  0  0  0
   11.7178   11.9930   23.7903 H   0  0  0  0  0  0  0  0  0  0  0  0
   11.4231   11.0886   22.3047 H   0  0  0  0  0  0  0  0  0  0  0  0
  1  5  1  0  0  0  0
  1 15  3  0  0  0  0
  2  3  1  0  0  0  0
  2  5  2  0  0  0  0
  3  6  2  0  0  0  0
  4  5  1  0  0  0  0
  4  7  2  0  0  0  0
  6  7  1  0  0  0  0
  6 14  1  0  0  0  0
  7 18  1  0  0  0  0
  8 10  2  0  0  0  0
  8 11  1  0  0  0  0
  9 11  2  0  0  0  0
  9 12  1  0  0  0  0
 10 16  1  0  0  0  0
 11 13  1  0  0  0  0
 12 16  1  0  0  0  0
 12 17  2  0  0  0  0
 14 16  1  0  0  0  0
  2 19  1  0  0  0  0
  3 20  1  0  0  0  0
  4 21  1  0  0  0  0
  8 22  1  0  0  0  0
  9 23  1  0  0  0  0
 10 24  1  0  0  0  0
 13 25  1  0  0  0  0
 13 26  1  0  0  0  0
 13 27  1  0  0  0  0
 14 28  1  0  0  0  0
 14 29  1  0  0  0  0
M  END
> <Catalog ID>
Z1065656684

> <PlateID>
1337959-R-09

> <Well>
F05

> <MW (desalted)>
242.248

> <CLogP>
1.757

> <HBD>
0

> <TPSA>
44.100

> <RotBonds>
2

> <ROCS_ShapeQuery>
A71EV2A-x0451_0A_A71EV2A-x0310_0A_A71EV2A-x0416_0A_peptide

> <ROCS_TanimotoCombo>
0.398 

> <ROCS_ShapeTanimoto>
0.300 

> <ROCS_ColorTanimoto>
0.098 

> <ROCS_RefTversky>
0.268 

> <ROCS_RefColorTversky>
0.106 

> <ROCS_RefTverskyCombo>
0.374 

> <ROCS_FitTversky>
1.648 

> <ROCS_FitColorTversky>
0.594 

> <ROCS_FitTverskyCombo>
2.242 

> <ROCS_ColorScore>
-3.201

> <ROCS_Overlap>
1860.901

> <ROCS_Rank>
451                 

$$$$
untitled-dbase-573_16
  -OEChem-11112309163D

 40 41  0     1  0  0  0  0  0999 V2000
   11.9581   11.3765   22.7331 C   0  0  0  0  0  0  0  0  0  0  0  0
   10.4343   13.0550   23.5247 C   0  0  0  0  0  0  0  0  0  0  0  0
   11.2297   15.3467   21.2713 C   0  0  0  0  0  0  0  0  0  0  0  0
   12.2688   15.1947   22.3809 C   0  0  0  0  0  0  0  0  0  0  0  0
   11.2215   14.1521   20.3308 C   0  0  0  0  0  0  0  0  0  0  0  0
   12.6481   13.7403   22.6800 C   0  0  0  0  0  0  0  0  0  0  0  0
   10.8864   12.8481   21.0632 C   0  0  0  0  0  0  0  0  0  0  0  0
    9.0886   11.1079   22.6189 C   0  0  0  0  0  0  0  0  0  0  0  0
    9.3110    9.7742   23.3202 C   0  0  0  0  0  0  0  0  0  0  0  0
    8.2685   12.4402   24.5684 C   0  0  2  0  0  0  0  0  0  0  0  0
    7.4747   11.1537   24.9128 C   0  0  2  0  0  0  0  0  0  0  0  0
   11.4850   12.7543   22.4856 C   0  0  0  0  0  0  0  0  0  0  0  0
    7.3257   13.5635   24.1159 C   0  0  0  0  0  0  0  0  0  0  0  0
    6.7535   11.2654   26.2569 C   0  0  0  0  0  0  0  0  0  0  0  0
   12.3296   10.2947   22.9274 N   0  0  0  0  0  0  0  0  0  0  0  0
    9.3072   12.2279   23.5369 N   0  0  0  0  0  0  0  0  0  0  0  0
   10.6071   13.9961   24.3039 O   0  0  0  0  0  0  0  0  0  0  0  0
    8.5746    9.6883   24.9865 S   0  0  0  0  0  0  0  0  0  0  0  0
   10.2344   15.4748   21.7172 H   0  0  0  0  0  0  0  0  0  0  0  0
   11.4388   16.2629   20.7011 H   0  0  0  0  0  0  0  0  0  0  0  0
   13.1789   15.7581   22.1070 H   0  0  0  0  0  0  0  0  0  0  0  0
   11.8908   15.6747   23.3023 H   0  0  0  0  0  0  0  0  0  0  0  0
   10.4937   14.3203   19.5263 H   0  0  0  0  0  0  0  0  0  0  0  0
   12.2026   14.0552   19.8490 H   0  0  0  0  0  0  0  0  0  0  0  0
   13.4849   13.4610   22.0217 H   0  0  0  0  0  0  0  0  0  0  0  0
   13.0413   13.6831   23.7057 H   0  0  0  0  0  0  0  0  0  0  0  0
    9.7913   12.7329   21.0966 H   0  0  0  0  0  0  0  0  0  0  0  0
   11.2544   12.0059   20.4543 H   0  0  0  0  0  0  0  0  0  0  0  0
    9.7708   11.1688   21.7749 H   0  0  0  0  0  0  0  0  0  0  0  0
    8.0797   11.1797   22.2199 H   0  0  0  0  0  0  0  0  0  0  0  0
    8.8636    8.9664   22.7177 H   0  0  0  0  0  0  0  0  0  0  0  0
   10.3871    9.5404   23.3837 H   0  0  0  0  0  0  0  0  0  0  0  0
    8.7125   12.7901   25.4826 H   0  0  0  0  0  0  0  0  0  0  0  0
    6.7483   10.9531   24.1486 H   0  0  0  0  0  0  0  0  0  0  0  0
    6.8382   13.2754   23.1888 H   0  0  0  0  0  0  0  0  0  0  0  0
    7.8973   14.4735   23.9570 H   0  0  0  0  0  0  0  0  0  0  0  0
    6.5748   13.7362   24.8818 H   0  0  0  0  0  0  0  0  0  0  0  0
    7.4760   11.4690   27.0440 H   0  0  0  0  0  0  0  0  0  0  0  0
    6.2387   10.3323   26.4745 H   0  0  0  0  0  0  0  0  0  0  0  0
    6.0282   12.0750   26.2168 H   0  0  0  0  0  0  0  0  0  0  0  0
  1 12  1  0  0  0  0
  1 15  3  0  0  0  0
  2 12  1  0  0  0  0
  2 16  1  0  0  0  0
  2 17  2  0  0  0  0
  3  4  1  0  0  0  0
  3  5  1  0  0  0  0
  4  6  1  0  0  0  0
  5  7  1  0  0  0  0
  6 12  1  0  0  0  0
  7 12  1  0  0  0  0
  8  9  1  0  0  0  0
  8 16  1  0  0  0  0
  9 18  1  0  0  0  0
 10 11  1  0  0  0  0
 10 13  1  0  0  0  0
 10 16  1  0  0  0  0
 11 14  1  0  0  0  0
 11 18  1  0  0  0  0
  3 19  1  0  0  0  0
  3 20  1  0  0  0  0
  4 21  1  0  0  0  0
  4 22  1  0  0  0  0
  5 23  1  0  0  0  0
  5 24  1  0  0  0  0
  6 25  1  0  0  0  0
  6 26  1  0  0  0  0
  7 27  1  0  0  0  0
  7 28  1  0  0  0  0
  8 29  1  0  0  0  0
  8 30  1  0  0  0  0
  9 31  1  0  0  0  0
  9 32  1  0  0  0  0
 10 33  1  0  0  0  0
 11 34  1  0  0  0  0
 13 35  1  0  0  0  0
 13 36  1  0  0  0  0
 13 37  1  0  0  0  0
 14 38  1  0  0  0  0
 14 39  1  0  0  0  0
 14 40  1  0  0  0  0
M  END
> <Catalog ID>
Z1228041720

> <PlateID>
1337959-R-08

> <Well>
B05

> <MW (desalted)>
266.402

> <CLogP>
2.832

> <HBD>
0

> <TPSA>
44.100

> <RotBonds>
1

> <ROCS_ShapeQuery>
A71EV2A-x0451_0A_A71EV2A-x0310_0A_A71EV2A-x0416_0A_peptide

> <ROCS_TanimotoCombo>
0.398 

> <ROCS_ShapeTanimoto>
0.293 

> <ROCS_ColorTanimoto>
0.105 

> <ROCS_RefTversky>
0.262 

> <ROCS_RefColorTversky>
0.112 

> <ROCS_RefTverskyCombo>
0.374 

> <ROCS_FitTversky>
1.678 

> <ROCS_FitColorTversky>
0.632 

> <ROCS_FitTverskyCombo>
2.310 

> <ROCS_ColorScore>
-3.402

> <ROCS_Overlap>
1816.420

> <ROCS_Rank>
452                 

$$$$
untitled-dbase-977_46
  -OEChem-11112309163D

 32 33  0     0  0  0  0  0  0999 V2000
   13.6799   15.7690   21.2313 C   0  0  0  0  0  0  0  0  0  0  0  0
   13.0057   16.4552   20.2274 C   0  0  0  0  0  0  0  0  0  0  0  0
    7.4573   11.4731   24.5664 C   0  0  0  0  0  0  0  0  0  0  0  0
    8.5284   12.3492   24.3914 C   0  0  0  0  0  0  0  0  0  0  0  0
   13.0995   14.6446   21.8078 C   0  0  0  0  0  0  0  0  0  0  0  0
    8.7708    9.6785   23.6223 C   0  0  0  0  0  0  0  0  0  0  0  0
   11.7636   15.9801   19.8386 C   0  0  0  0  0  0  0  0  0  0  0  0
    7.5785   10.1377   24.1819 C   0  0  0  0  0  0  0  0  0  0  0  0
    9.8419   10.5547   23.4472 C   0  0  0  0  0  0  0  0  0  0  0  0
    9.7207   11.8900   23.8318 C   0  0  0  0  0  0  0  0  0  0  0  0
   11.8531   14.2507   21.3484 C   0  0  0  0  0  0  0  0  0  0  0  0
    6.4326    9.2012   24.3693 C   0  0  0  0  0  0  0  0  0  0  0  0
   11.1050   10.0310   22.8458 C   0  0  0  0  0  0  0  0  0  0  0  0
   11.1677   14.8917   20.3752 N   0  0  0  0  0  0  0  0  0  0  0  0
   11.2131   13.0942   21.9152 N   0  0  0  0  0  0  0  0  0  0  0  0
   12.2421   12.3914   24.1738 O   0  0  0  0  0  0  0  0  0  0  0  0
   10.6305   14.3151   24.1387 O   0  0  0  0  0  0  0  0  0  0  0  0
   11.0448   13.0159   23.6271 S   0  0  0  0  0  0  0  0  0  0  0  0
   14.6556   16.1101   21.5640 H   0  0  0  0  0  0  0  0  0  0  0  0
   13.4389   17.3340   19.7638 H   0  0  0  0  0  0  0  0  0  0  0  0
    6.5320   11.8394   25.0030 H   0  0  0  0  0  0  0  0  0  0  0  0
    8.4217   13.3872   24.6948 H   0  0  0  0  0  0  0  0  0  0  0  0
   13.6151   14.1009   22.5920 H   0  0  0  0  0  0  0  0  0  0  0  0
    8.8630    8.6369   23.3233 H   0  0  0  0  0  0  0  0  0  0  0  0
   11.1969   16.4796   19.0597 H   0  0  0  0  0  0  0  0  0  0  0  0
    5.7913    9.2000   23.4795 H   0  0  0  0  0  0  0  0  0  0  0  0
    6.7814    8.1760   24.5484 H   0  0  0  0  0  0  0  0  0  0  0  0
    5.8236    9.4858   25.2371 H   0  0  0  0  0  0  0  0  0  0  0  0
   11.0781   10.1359   21.7551 H   0  0  0  0  0  0  0  0  0  0  0  0
   11.9795   10.5718   23.2278 H   0  0  0  0  0  0  0  0  0  0  0  0
   11.2516    8.9721   23.0920 H   0  0  0  0  0  0  0  0  0  0  0  0
   11.4294   12.2070   21.4417 H   0  0  0  0  0  0  0  0  0  0  0  0
  1  2  2  0  0  0  0
  1  5  1  0  0  0  0
  2  7  1  0  0  0  0
  3  4  1  0  0  0  0
  3  8  2  0  0  0  0
  4 10  2  0  0  0  0
  5 11  2  0  0  0  0
  6  8  1  0  0  0  0
  6  9  2  0  0  0  0
  7 14  2  0  0  0  0
  8 12  1  0  0  0  0
  9 10  1  0  0  0  0
  9 13  1  0  0  0  0
 10 18  1  0  0  0  0
 11 14  1  0  0  0  0
 11 15  1  0  0  0  0
 15 18  1  0  0  0  0
 16 18  2  0  0  0  0
 17 18  2  0  0  0  0
  1 19  1  0  0  0  0
  2 20  1  0  0  0  0
  3 21  1  0  0  0  0
  4 22  1  0  0  0  0
  5 23  1  0  0  0  0
  6 24  1  0  0  0  0
  7 25  1  0  0  0  0
 12 26  1  0  0  0  0
 12 27  1  0  0  0  0
 12 28  1  0  0  0  0
 13 29  1  0  0  0  0
 13 30  1  0  0  0  0
 13 31  1  0  0  0  0
 15 32  1  0  0  0  0
M  END
> <Catalog ID>
Z45654237

> <PlateID>
1337959-R-13

> <Well>
C02

> <MW (desalted)>
262.327

> <CLogP>
2.711

> <HBD>
1

> <TPSA>
59.060

> <RotBonds>
2

> <ROCS_ShapeQuery>
A71EV2A-x0451_0A_A71EV2A-x0310_0A_A71EV2A-x0416_0A_peptide

> <ROCS_TanimotoCombo>
0.398 

> <ROCS_ShapeTanimoto>
0.298 

> <ROCS_ColorTanimoto>
0.100 

> <ROCS_RefTversky>
0.266 

> <ROCS_RefColorTversky>
0.113 

> <ROCS_RefTverskyCombo>
0.379 

> <ROCS_FitTversky>
1.666 

> <ROCS_FitColorTversky>
0.472 

> <ROCS_FitTverskyCombo>
2.138 

> <ROCS_ColorScore>
-3.438

> <ROCS_Overlap>
1845.111

> <ROCS_Rank>
453                 

$$$$
untitled-dbase-1122_37
  -OEChem-11112309163D

 33 36  0     0  0  0  0  0  0999 V2000
   12.6019   15.0022   23.4752 C   0  0  0  0  0  0  0  0  0  0  0  0
   11.6902   12.4749   24.0741 C   0  0  0  0  0  0  0  0  0  0  0  0
   10.5412   13.4251   22.5637 C   0  0  0  0  0  0  0  0  0  0  0  0
   10.3012   13.9928   24.5947 C   0  0  0  0  0  0  0  0  0  0  0  0
    9.3283   10.1830   24.4360 C   0  0  0  0  0  0  0  0  0  0  0  0
    8.1739   11.1363   22.9195 C   0  0  0  0  0  0  0  0  0  0  0  0
    7.9332   11.7068   24.9587 C   0  0  0  0  0  0  0  0  0  0  0  0
   11.5444   13.9751   23.6375 C   0  0  0  0  0  0  0  0  0  0  0  0
   10.1834   12.6583   23.8448 C   0  0  0  0  0  0  0  0  0  0  0  0
    9.1337   11.6430   24.0047 C   0  0  0  0  0  0  0  0  0  0  0  0
    7.7585   10.3118   24.2147 C   0  0  0  0  0  0  0  0  0  0  0  0
    5.9217    9.0126   23.0966 C   0  0  0  0  0  0  0  0  0  0  0  0
    6.7032    9.2896   24.3761 C   0  0  0  0  0  0  0  0  0  0  0  0
   12.4101   16.1584   23.1294 O   0  0  0  0  0  0  0  0  0  0  0  0
   13.8210   14.4834   23.7613 O   0  0  0  0  0  0  0  0  0  0  0  0
    5.8038    9.6614   25.3361 F   0  0  0  0  0  0  0  0  0  0  0  0
    7.2319    8.1029   24.8012 F   0  0  0  0  0  0  0  0  0  0  0  0
   12.2252   11.8071   23.3907 H   0  0  0  0  0  0  0  0  0  0  0  0
   12.0234   12.2853   25.0998 H   0  0  0  0  0  0  0  0  0  0  0  0
    9.7961   14.1260   22.1729 H   0  0  0  0  0  0  0  0  0  0  0  0
   10.9651   12.8484   21.7350 H   0  0  0  0  0  0  0  0  0  0  0  0
   10.5003   13.9487   25.6707 H   0  0  0  0  0  0  0  0  0  0  0  0
    9.5328   14.7484   24.3995 H   0  0  0  0  0  0  0  0  0  0  0  0
    9.8701    9.5224   23.7510 H   0  0  0  0  0  0  0  0  0  0  0  0
    9.6685   10.0003   25.4607 H   0  0  0  0  0  0  0  0  0  0  0  0
    7.4360   11.8442   22.5278 H   0  0  0  0  0  0  0  0  0  0  0  0
    8.6058   10.5666   22.0901 H   0  0  0  0  0  0  0  0  0  0  0  0
    8.1402   11.6697   26.0333 H   0  0  0  0  0  0  0  0  0  0  0  0
    7.1723   12.4691   24.7621 H   0  0  0  0  0  0  0  0  0  0  0  0
    5.1454    8.2504   23.2451 H   0  0  0  0  0  0  0  0  0  0  0  0
    6.5706    8.6543   22.2868 H   0  0  0  0  0  0  0  0  0  0  0  0
    5.4100    9.9048   22.7122 H   0  0  0  0  0  0  0  0  0  0  0  0
   14.5354   15.1477   23.6578 H   0  0  0  0  0  0  0  0  0  0  0  0
  1  8  1  0  0  0  0
  1 14  2  0  0  0  0
  1 15  1  0  0  0  0
  2  8  1  0  0  0  0
  2  9  1  0  0  0  0
  3  8  1  0  0  0  0
  3  9  1  0  0  0  0
  4  8  1  0  0  0  0
  4  9  1  0  0  0  0
  5 10  1  0  0  0  0
  5 11  1  0  0  0  0
  6 10  1  0  0  0  0
  6 11  1  0  0  0  0
  7 10  1  0  0  0  0
  7 11  1  0  0  0  0
  9 10  1  0  0  0  0
 11 13  1  0  0  0  0
 12 13  1  0  0  0  0
 13 16  1  0  0  0  0
 13 17  1  0  0  0  0
  2 18  1  0  0  0  0
  2 19  1  0  0  0  0
  3 20  1  0  0  0  0
  3 21  1  0  0  0  0
  4 22  1  0  0  0  0
  4 23  1  0  0  0  0
  5 24  1  0  0  0  0
  5 25  1  0  0  0  0
  6 26  1  0  0  0  0
  6 27  1  0  0  0  0
  7 28  1  0  0  0  0
  7 29  1  0  0  0  0
 12 30  1  0  0  0  0
 12 31  1  0  0  0  0
 12 32  1  0  0  0  0
 15 33  1  0  0  0  0
M  END
> <Catalog ID>
Z4764609770

> <PlateID>
1337959-R-15

> <Well>
A08

> <MW (desalted)>
242.262

> <CLogP>
2.375

> <HBD>
1

> <TPSA>
37.300

> <RotBonds>
3

> <ROCS_ShapeQuery>
A71EV2A-x0451_0A_A71EV2A-x0310_0A_A71EV2A-x0416_0A_peptide

> <ROCS_TanimotoCombo>
0.398 

> <ROCS_ShapeTanimoto>
0.259 

> <ROCS_ColorTanimoto>
0.139 

> <ROCS_RefTversky>
0.238 

> <ROCS_RefColorTversky>
0.196 

> <ROCS_RefTverskyCombo>
0.434 

> <ROCS_FitTversky>
1.499 

> <ROCS_FitColorTversky>
0.325 

> <ROCS_FitTverskyCombo>
1.824 

> <ROCS_ColorScore>
-6.082

> <ROCS_Overlap>
1651.716

> <ROCS_Rank>
454                 

$$$$
untitled-dbase-662_53
  -OEChem-11112309163D

 27 28  0     0  0  0  0  0  0999 V2000
    9.3193   14.0501   19.8042 C   0  0  0  0  0  0  0  0  0  0  0  0
    9.2173   13.5855   21.1154 C   0  0  0  0  0  0  0  0  0  0  0  0
   10.4191   14.8171   19.4195 C   0  0  0  0  0  0  0  0  0  0  0  0
   10.2151   13.8879   22.0421 C   0  0  0  0  0  0  0  0  0  0  0  0
   11.3149   14.6549   21.6574 C   0  0  0  0  0  0  0  0  0  0  0  0
   11.4168   15.1195   20.3462 C   0  0  0  0  0  0  0  0  0  0  0  0
   10.1028   13.3952   23.4248 C   0  0  0  0  0  0  0  0  0  0  0  0
    9.3625   11.0772   22.6885 C   0  0  0  0  0  0  0  0  0  0  0  0
    8.7752   11.9569   24.9277 C   0  0  0  0  0  0  0  0  0  0  0  0
    9.1983    9.7562   23.4290 C   0  0  0  0  0  0  0  0  0  0  0  0
    7.6153   10.9861   24.7610 C   0  0  0  0  0  0  0  0  0  0  0  0
    9.4293   12.1914   23.6418 N   0  0  0  0  0  0  0  0  0  0  0  0
   10.6140   14.0887   24.3030 O   0  0  0  0  0  0  0  0  0  0  0  0
    8.0219    9.7189   24.2393 O   0  0  0  0  0  0  0  0  0  0  0  0
   12.2726   14.9440   22.5518 F   0  0  0  0  0  0  0  0  0  0  0  0
   12.7713   16.0667   19.8643 Cl  0  0  0  0  0  0  0  0  0  0  0  0
    8.5425   13.8148   19.0829 H   0  0  0  0  0  0  0  0  0  0  0  0
    8.3559   12.9887   21.4043 H   0  0  0  0  0  0  0  0  0  0  0  0
   10.4851   15.1722   18.3941 H   0  0  0  0  0  0  0  0  0  0  0  0
   10.2433   11.0395   22.0422 H   0  0  0  0  0  0  0  0  0  0  0  0
    8.4861   11.2655   22.0562 H   0  0  0  0  0  0  0  0  0  0  0  0
    8.4082   12.9308   25.2713 H   0  0  0  0  0  0  0  0  0  0  0  0
    9.4883   11.5815   25.6673 H   0  0  0  0  0  0  0  0  0  0  0  0
    9.1227    8.9295   22.7016 H   0  0  0  0  0  0  0  0  0  0  0  0
   10.0824    9.5367   24.0572 H   0  0  0  0  0  0  0  0  0  0  0  0
    7.0777   10.8331   25.7186 H   0  0  0  0  0  0  0  0  0  0  0  0
    6.8741   11.4094   24.0582 H   0  0  0  0  0  0  0  0  0  0  0  0
  1  2  1  0  0  0  0
  1  3  2  0  0  0  0
  2  4  2  0  0  0  0
  3  6  1  0  0  0  0
  4  5  1  0  0  0  0
  4  7  1  0  0  0  0
  5  6  2  0  0  0  0
  5 15  1  0  0  0  0
  6 16  1  0  0  0  0
  7 12  1  0  0  0  0
  7 13  2  0  0  0  0
  8 10  1  0  0  0  0
  8 12  1  0  0  0  0
  9 11  1  0  0  0  0
  9 12  1  0  0  0  0
 10 14  1  0  0  0  0
 11 14  1  0  0  0  0
  1 17  1  0  0  0  0
  2 18  1  0  0  0  0
  3 19  1  0  0  0  0
  8 20  1  0  0  0  0
  8 21  1  0  0  0  0
  9 22  1  0  0  0  0
  9 23  1  0  0  0  0
 10 24  1  0  0  0  0
 10 25  1  0  0  0  0
 11 26  1  0  0  0  0
 11 27  1  0  0  0  0
M  END
> <Catalog ID>
Z1431484556

> <PlateID>
1337959-R-09

> <Well>
C05

> <MW (desalted)>
243.662

> <CLogP>
1.730

> <HBD>
0

> <TPSA>
29.540

> <RotBonds>
1

> <ROCS_ShapeQuery>
A71EV2A-x0451_0A_A71EV2A-x0310_0A_A71EV2A-x0416_0A_peptide

> <ROCS_TanimotoCombo>
0.398 

> <ROCS_ShapeTanimoto>
0.258 

> <ROCS_ColorTanimoto>
0.139 

> <ROCS_RefTversky>
0.236 

> <ROCS_RefColorTversky>
0.144 

> <ROCS_RefTverskyCombo>
0.380 

> <ROCS_FitTversky>
1.582 

> <ROCS_FitColorTversky>
0.811 

> <ROCS_FitTverskyCombo>
2.393 

> <ROCS_ColorScore>
-4.365

> <ROCS_Overlap>
1635.855

> <ROCS_Rank>
455                 

$$$$
untitled-dbase-791_66
  -OEChem-11112309163D

 37 38  0     1  0  0  0  0  0999 V2000
    9.1658   12.1042   23.8700 C   0  0  0  0  0  0  0  0  0  0  0  0
    8.0123   12.1339   24.6256 C   0  0  0  0  0  0  0  0  0  0  0  0
    8.1180    9.9724   24.2697 C   0  0  0  0  0  0  0  0  0  0  0  0
   10.0519   13.1954   23.4381 C   0  0  0  0  0  0  0  0  0  0  0  0
   10.7544   13.8849   19.1735 C   0  0  0  0  0  0  0  0  0  0  0  0
   10.4278   12.5054   19.7435 C   0  0  0  0  0  0  0  0  0  0  0  0
   10.6670   15.0000   20.2145 C   0  0  0  0  0  0  0  0  0  0  0  0
    9.5968   12.5790   21.0182 C   0  0  0  0  0  0  0  0  0  0  0  0
   11.0614   14.5387   21.6220 C   0  0  2  0  0  0  0  0  0  0  0  0
    7.3779   13.3381   25.2000 C   0  0  0  0  0  0  0  0  0  0  0  0
    7.7821    8.5323   24.2954 C   0  0  0  0  0  0  0  0  0  0  0  0
   13.3955   15.3841   21.3250 C   0  0  0  0  0  0  0  0  0  0  0  0
   12.5556   14.2177   21.7253 C   0  0  0  0  0  0  0  0  0  0  0  0
    7.4099   10.9124   24.8554 N   0  0  0  0  0  0  0  0  0  0  0  0
   10.2338   13.3993   22.0626 N   0  0  0  0  0  0  0  0  0  0  0  0
   10.5704   13.8639   24.3316 O   0  0  0  0  0  0  0  0  0  0  0  0
    9.5209   10.4863   23.4255 S   0  0  0  0  0  0  0  0  0  0  0  0
   11.7659   13.8700   18.7209 H   0  0  0  0  0  0  0  0  0  0  0  0
   10.0641   14.1082   18.3363 H   0  0  0  0  0  0  0  0  0  0  0  0
    9.8869   11.9155   18.9867 H   0  0  0  0  0  0  0  0  0  0  0  0
   11.3643   11.9642   19.9453 H   0  0  0  0  0  0  0  0  0  0  0  0
   11.2947   15.8439   19.8995 H   0  0  0  0  0  0  0  0  0  0  0  0
    9.6349   15.3776   20.2416 H   0  0  0  0  0  0  0  0  0  0  0  0
    8.5996   12.9567   20.7687 H   0  0  0  0  0  0  0  0  0  0  0  0
    9.4551   11.5750   21.4400 H   0  0  0  0  0  0  0  0  0  0  0  0
   10.8756   15.3828   22.2971 H   0  0  0  0  0  0  0  0  0  0  0  0
    6.6500   13.7754   24.4978 H   0  0  0  0  0  0  0  0  0  0  0  0
    6.8462   13.1156   26.1402 H   0  0  0  0  0  0  0  0  0  0  0  0
    8.1189   14.1176   25.4449 H   0  0  0  0  0  0  0  0  0  0  0  0
    7.1358    8.2628   23.4454 H   0  0  0  0  0  0  0  0  0  0  0  0
    8.6833    7.8993   24.2482 H   0  0  0  0  0  0  0  0  0  0  0  0
    7.2565    8.2495   25.2222 H   0  0  0  0  0  0  0  0  0  0  0  0
   13.1605   15.6657   20.2918 H   0  0  0  0  0  0  0  0  0  0  0  0
   14.4609   15.1358   21.3752 H   0  0  0  0  0  0  0  0  0  0  0  0
   13.1962   16.2490   21.9665 H   0  0  0  0  0  0  0  0  0  0  0  0
   12.7853   13.9325   22.7539 H   0  0  0  0  0  0  0  0  0  0  0  0
   12.7786   13.3638   21.0827 H   0  0  0  0  0  0  0  0  0  0  0  0
  1  2  2  0  0  0  0
  1  4  1  0  0  0  0
  1 17  1  0  0  0  0
  2 10  1  0  0  0  0
  2 14  1  0  0  0  0
  3 11  1  0  0  0  0
  3 14  2  0  0  0  0
  3 17  1  0  0  0  0
  4 15  1  0  0  0  0
  4 16  2  0  0  0  0
  5  6  1  0  0  0  0
  5  7  1  0  0  0  0
  6  8  1  0  0  0  0
  7  9  1  0  0  0  0
  8 15  1  0  0  0  0
  9 13  1  0  0  0  0
  9 15  1  0  0  0  0
 12 13  1  0  0  0  0
  5 18  1  0  0  0  0
  5 19  1  0  0  0  0
  6 20  1  0  0  0  0
  6 21  1  0  0  0  0
  7 22  1  0  0  0  0
  7 23  1  0  0  0  0
  8 24  1  0  0  0  0
  8 25  1  0  0  0  0
  9 26  1  0  0  0  0
 10 27  1  0  0  0  0
 10 28  1  0  0  0  0
 10 29  1  0  0  0  0
 11 30  1  0  0  0  0
 11 31  1  0  0  0  0
 11 32  1  0  0  0  0
 12 33  1  0  0  0  0
 12 34  1  0  0  0  0
 12 35  1  0  0  0  0
 13 36  1  0  0  0  0
 13 37  1  0  0  0  0
M  END
> <Catalog ID>
Z54676280

> <PlateID>
1337959-R-10

> <Well>
H04

> <MW (desalted)>
252.376

> <CLogP>
2.574

> <HBD>
0

> <TPSA>
33.200

> <RotBonds>
2

> <ROCS_ShapeQuery>
A71EV2A-x0451_0A_A71EV2A-x0310_0A_A71EV2A-x0416_0A_peptide

> <ROCS_TanimotoCombo>
0.397 

> <ROCS_ShapeTanimoto>
0.266 

> <ROCS_ColorTanimoto>
0.132 

> <ROCS_RefTversky>
0.242 

> <ROCS_RefColorTversky>
0.140 

> <ROCS_RefTverskyCombo>
0.382 

> <ROCS_FitTversky>
1.598 

> <ROCS_FitColorTversky>
0.674 

> <ROCS_FitTverskyCombo>
2.272 

> <ROCS_ColorScore>
-4.267

> <ROCS_Overlap>
1676.100

> <ROCS_Rank>
456                 

$$$$
untitled-dbase-703_19
  -OEChem-11112309163D

 32 33  0     0  0  0  0  0  0999 V2000
    7.8447    9.9197   24.3032 C   0  0  0  0  0  0  0  0  0  0  0  0
    7.3894   11.2030   24.6056 C   0  0  0  0  0  0  0  0  0  0  0  0
    9.8863   10.8543   23.4111 C   0  0  0  0  0  0  0  0  0  0  0  0
    9.4309   12.1376   23.7135 C   0  0  0  0  0  0  0  0  0  0  0  0
    9.0932    9.7454   23.7060 C   0  0  0  0  0  0  0  0  0  0  0  0
    8.1824   12.3119   24.3107 C   0  0  0  0  0  0  0  0  0  0  0  0
   10.2631   13.2946   23.4045 C   0  0  0  0  0  0  0  0  0  0  0  0
   11.6513   15.3224   20.7700 C   0  0  0  0  0  0  0  0  0  0  0  0
    9.5722   14.1663   19.9254 C   0  0  0  0  0  0  0  0  0  0  0  0
   11.8809   14.1529   21.7267 C   0  0  0  0  0  0  0  0  0  0  0  0
    9.8523   13.0196   20.8946 C   0  0  0  0  0  0  0  0  0  0  0  0
   10.8495   14.9215   19.5206 C   0  0  0  0  0  0  0  0  0  0  0  0
   11.7002   14.1126   18.5383 C   0  0  0  0  0  0  0  0  0  0  0  0
   10.6141   13.4973   22.0568 N   0  0  0  0  0  0  0  0  0  0  0  0
   10.6292   14.0515   24.3054 O   0  0  0  0  0  0  0  0  0  0  0  0
    9.5310    8.5131   23.4162 F   0  0  0  0  0  0  0  0  0  0  0  0
    7.7349   13.5405   24.6061 F   0  0  0  0  0  0  0  0  0  0  0  0
    7.2278    9.0559   24.5325 H   0  0  0  0  0  0  0  0  0  0  0  0
    6.4179   11.3383   25.0717 H   0  0  0  0  0  0  0  0  0  0  0  0
   10.8572   10.7061   22.9458 H   0  0  0  0  0  0  0  0  0  0  0  0
   11.1246   16.1291   21.3060 H   0  0  0  0  0  0  0  0  0  0  0  0
   12.6278   15.7416   20.4716 H   0  0  0  0  0  0  0  0  0  0  0  0
    9.0683   13.7683   19.0275 H   0  0  0  0  0  0  0  0  0  0  0  0
    8.8589   14.8670   20.3902 H   0  0  0  0  0  0  0  0  0  0  0  0
   12.5799   13.4384   21.2790 H   0  0  0  0  0  0  0  0  0  0  0  0
   12.3256   14.5045   22.6655 H   0  0  0  0  0  0  0  0  0  0  0  0
    8.9128   12.5972   21.2714 H   0  0  0  0  0  0  0  0  0  0  0  0
   10.3796   12.2187   20.3697 H   0  0  0  0  0  0  0  0  0  0  0  0
   10.5409   15.8540   19.0048 H   0  0  0  0  0  0  0  0  0  0  0  0
   12.0251   13.1850   19.0074 H   0  0  0  0  0  0  0  0  0  0  0  0
   12.5762   14.6895   18.2457 H   0  0  0  0  0  0  0  0  0  0  0  0
   11.1158   13.8769   17.6501 H   0  0  0  0  0  0  0  0  0  0  0  0
  1  2  1  0  0  0  0
  1  5  2  0  0  0  0
  2  6  2  0  0  0  0
  3  4  2  0  0  0  0
  3  5  1  0  0  0  0
  4  6  1  0  0  0  0
  4  7  1  0  0  0  0
  5 16  1  0  0  0  0
  6 17  1  0  0  0  0
  7 14  1  0  0  0  0
  7 15  2  0  0  0  0
  8 10  1  0  0  0  0
  8 12  1  0  0  0  0
  9 11  1  0  0  0  0
  9 12  1  0  0  0  0
 10 14  1  0  0  0  0
 11 14  1  0  0  0  0
 12 13  1  0  0  0  0
  1 18  1  0  0  0  0
  2 19  1  0  0  0  0
  3 20  1  0  0  0  0
  8 21  1  0  0  0  0
  8 22  1  0  0  0  0
  9 23  1  0  0  0  0
  9 24  1  0  0  0  0
 10 25  1  0  0  0  0
 10 26  1  0  0  0  0
 11 27  1  0  0  0  0
 11 28  1  0  0  0  0
 12 29  1  0  0  0  0
 13 30  1  0  0  0  0
 13 31  1  0  0  0  0
 13 32  1  0  0  0  0
M  END
> <Catalog ID>
Z82198762

> <PlateID>
1337959-R-09

> <Well>
G06

> <MW (desalted)>
239.261

> <CLogP>
2.707

> <HBD>
0

> <TPSA>
20.310

> <RotBonds>
1

> <ROCS_ShapeQuery>
A71EV2A-x0451_0A_A71EV2A-x0310_0A_A71EV2A-x0416_0A_peptide

> <ROCS_TanimotoCombo>
0.397 

> <ROCS_ShapeTanimoto>
0.289 

> <ROCS_ColorTanimoto>
0.108 

> <ROCS_RefTversky>
0.259 

> <ROCS_RefColorTversky>
0.112 

> <ROCS_RefTverskyCombo>
0.371 

> <ROCS_FitTversky>
1.670 

> <ROCS_FitColorTversky>
0.765 

> <ROCS_FitTverskyCombo>
2.435 

> <ROCS_ColorScore>
-3.394

> <ROCS_Overlap>
1795.609

> <ROCS_Rank>
457                 

$$$$
untitled-dbase-1025_181
  -OEChem-11112309163D

 40 41  0     1  0  0  0  0  0999 V2000
    8.2661   10.5395   25.2029 C   0  0  0  0  0  0  0  0  0  0  0  0
    9.1339    9.8131   24.3875 C   0  0  0  0  0  0  0  0  0  0  0  0
    8.2787   12.3501   23.6033 C   0  0  0  0  0  0  0  0  0  0  0  0
    7.8384   11.8080   24.8107 C   0  0  0  0  0  0  0  0  0  0  0  0
    9.5742   10.3552   23.1801 C   0  0  0  0  0  0  0  0  0  0  0  0
    9.1466   11.6237   22.7879 C   0  0  0  0  0  0  0  0  0  0  0  0
   11.5314   13.1905   23.7244 C   0  0  0  0  0  0  0  0  0  0  0  0
   12.0320   15.7282   21.7345 C   0  0  0  0  0  0  0  0  0  0  0  0
   10.8630   15.6956   20.7495 C   0  0  0  0  0  0  0  0  0  0  0  0
   12.6902   14.3596   21.8674 C   0  0  0  0  0  0  0  0  0  0  0  0
   10.3419   14.2830   20.4696 C   0  0  0  0  0  0  0  0  0  0  0  0
   11.6726   13.2650   22.2328 C   0  0  2  0  0  0  0  0  0  0  0  0
    6.9110   12.5846   25.6829 C   0  0  0  0  0  0  0  0  0  0  0  0
   10.5041    9.5592   22.3243 C   0  0  0  0  0  0  0  0  0  0  0  0
    9.6074   12.2277   21.4930 C   0  0  0  0  0  0  0  0  0  0  0  0
   10.3192   13.4896   21.6999 N   0  0  2  0  0  0  0  0  0  0  0  0
   12.4395   12.3517   24.3262 N   0  0  0  0  0  0  0  0  0  0  0  0
   10.6859   13.8413   24.3335 O   0  0  0  0  0  0  0  0  0  0  0  0
    7.9286   10.1094   26.1422 H   0  0  0  0  0  0  0  0  0  0  0  0
    9.4619    8.8258   24.7023 H   0  0  0  0  0  0  0  0  0  0  0  0
    7.9442   13.3388   23.2980 H   0  0  0  0  0  0  0  0  0  0  0  0
   12.7780   16.4649   21.3938 H   0  0  0  0  0  0  0  0  0  0  0  0
   11.6810   16.0744   22.7191 H   0  0  0  0  0  0  0  0  0  0  0  0
   10.0382   16.3217   21.1407 H   0  0  0  0  0  0  0  0  0  0  0  0
   11.1724   16.1692   19.7997 H   0  0  0  0  0  0  0  0  0  0  0  0
   13.1934   14.1017   20.9265 H   0  0  0  0  0  0  0  0  0  0  0  0
   13.4799   14.4134   22.6304 H   0  0  0  0  0  0  0  0  0  0  0  0
    9.3323   14.3741   20.0640 H   0  0  0  0  0  0  0  0  0  0  0  0
   10.9697   13.8121   19.7092 H   0  0  0  0  0  0  0  0  0  0  0  0
   12.0516   12.2752   21.8899 H   0  0  0  0  0  0  0  0  0  0  0  0
    7.4785   13.2039   26.3882 H   0  0  0  0  0  0  0  0  0  0  0  0
    6.2609   13.2403   25.0892 H   0  0  0  0  0  0  0  0  0  0  0  0
    6.2522   11.9192   26.2562 H   0  0  0  0  0  0  0  0  0  0  0  0
    9.9361    8.9356   21.6243 H   0  0  0  0  0  0  0  0  0  0  0  0
   11.1706   10.2131   21.7486 H   0  0  0  0  0  0  0  0  0  0  0  0
   11.1435    8.9080   22.9332 H   0  0  0  0  0  0  0  0  0  0  0  0
   10.2808   11.5432   20.9657 H   0  0  0  0  0  0  0  0  0  0  0  0
    8.7600   12.4264   20.8285 H   0  0  0  0  0  0  0  0  0  0  0  0
   12.4104   12.2457   25.3349 H   0  0  0  0  0  0  0  0  0  0  0  0
   13.1377   11.8344   23.8020 H   0  0  0  0  0  0  0  0  0  0  0  0
  1  2  1  0  0  0  0
  1  4  2  0  0  0  0
  2  5  2  0  0  0  0
  3  4  1  0  0  0  0
  3  6  2  0  0  0  0
  4 13  1  0  0  0  0
  5  6  1  0  0  0  0
  5 14  1  0  0  0  0
  6 15  1  0  0  0  0
  7 12  1  0  0  0  0
  7 17  1  0  0  0  0
  7 18  2  0  0  0  0
  8  9  1  0  0  0  0
  8 10  1  0  0  0  0
  9 11  1  0  0  0  0
 10 12  1  0  0  0  0
 11 16  1  0  0  0  0
 12 16  1  0  0  0  0
 15 16  1  0  0  0  0
  1 19  1  0  0  0  0
  2 20  1  0  0  0  0
  3 21  1  0  0  0  0
  8 22  1  0  0  0  0
  8 23  1  0  0  0  0
  9 24  1  0  0  0  0
  9 25  1  0  0  0  0
 10 26  1  0  0  0  0
 10 27  1  0  0  0  0
 11 28  1  0  0  0  0
 11 29  1  0  0  0  0
 12 30  1  0  0  0  0
 13 31  1  0  0  0  0
 13 32  1  0  0  0  0
 13 33  1  0  0  0  0
 14 34  1  0  0  0  0
 14 35  1  0  0  0  0
 14 36  1  0  0  0  0
 15 37  1  0  0  0  0
 15 38  1  0  0  0  0
 17 39  1  0  0  0  0
 17 40  1  0  0  0  0
M  END
> <Catalog ID>
Z103866484

> <PlateID>
1337959-R-13

> <Well>
G10

> <MW (desalted)>
246.348

> <CLogP>
2.950

> <HBD>
1

> <TPSA>
46.330

> <RotBonds>
3

> <ROCS_ShapeQuery>
A71EV2A-x0451_0A_A71EV2A-x0310_0A_A71EV2A-x0416_0A_peptide

> <ROCS_TanimotoCombo>
0.397 

> <ROCS_ShapeTanimoto>
0.292 

> <ROCS_ColorTanimoto>
0.106 

> <ROCS_RefTversky>
0.262 

> <ROCS_RefColorTversky>
0.115 

> <ROCS_RefTverskyCombo>
0.377 

> <ROCS_FitTversky>
1.640 

> <ROCS_FitColorTversky>
0.553 

> <ROCS_FitTverskyCombo>
2.193 

> <ROCS_ColorScore>
-3.505

> <ROCS_Overlap>
1816.313

> <ROCS_Rank>
458                 

$$$$
untitled-dbase-408_68
  -OEChem-11112309163D

 38 39  0     1  0  0  0  0  0999 V2000
   11.3889   15.8506   21.8671 C   0  0  0  0  0  0  0  0  0  0  0  0
   10.7160   15.0134   20.9772 C   0  0  0  0  0  0  0  0  0  0  0  0
   11.7958   15.3647   23.1097 C   0  0  0  0  0  0  0  0  0  0  0  0
   10.4498   13.6904   21.3299 C   0  0  0  0  0  0  0  0  0  0  0  0
   11.5296   14.0417   23.4624 C   0  0  0  0  0  0  0  0  0  0  0  0
   10.8566   13.2045   22.5725 C   0  0  0  0  0  0  0  0  0  0  0  0
    8.0096   12.8761   25.2690 C   0  0  0  0  0  0  0  0  0  0  0  0
    7.4809   11.1883   23.5073 C   0  0  0  0  0  0  0  0  0  0  0  0
    9.4792   10.2901   24.5189 C   0  0  0  0  0  0  0  0  0  0  0  0
    8.4289   12.3007   23.9491 C   0  0  2  0  0  0  0  0  0  0  0  0
    8.2586    9.8911   23.7065 C   0  0  1  0  0  0  0  0  0  0  0  0
    9.7279   12.8146   20.3586 C   0  0  0  0  0  0  0  0  0  0  0  0
   11.9763   13.5461   24.7991 C   0  0  0  0  0  0  0  0  0  0  0  0
   10.5701   11.7805   22.9522 C   0  0  0  0  0  0  0  0  0  0  0  0
    9.7500   11.6903   24.1618 N   0  0  2  0  0  0  0  0  0  0  0  0
    6.7545   13.4371   25.2558 N   0  0  0  0  0  0  0  0  0  0  0  0
    8.7308   12.8243   26.2623 O   0  0  0  0  0  0  0  0  0  0  0  0
    7.4887    8.9316   24.4086 O   0  0  0  0  0  0  0  0  0  0  0  0
   11.5955   16.8812   21.5927 H   0  0  0  0  0  0  0  0  0  0  0  0
   10.4037   15.4017   20.0113 H   0  0  0  0  0  0  0  0  0  0  0  0
   12.3199   16.0249   23.7955 H   0  0  0  0  0  0  0  0  0  0  0  0
    6.5271   11.1832   24.0503 H   0  0  0  0  0  0  0  0  0  0  0  0
    7.2649   11.3127   22.4371 H   0  0  0  0  0  0  0  0  0  0  0  0
    9.3075   10.1938   25.6087 H   0  0  0  0  0  0  0  0  0  0  0  0
   10.3370    9.6398   24.2521 H   0  0  0  0  0  0  0  0  0  0  0  0
    8.4443   13.1088   23.2043 H   0  0  0  0  0  0  0  0  0  0  0  0
    8.5454    9.4402   22.7328 H   0  0  0  0  0  0  0  0  0  0  0  0
   10.4433   12.3028   19.7048 H   0  0  0  0  0  0  0  0  0  0  0  0
    9.1261   12.0590   20.8781 H   0  0  0  0  0  0  0  0  0  0  0  0
    9.0394   13.3982   19.7351 H   0  0  0  0  0  0  0  0  0  0  0  0
   11.1912   13.7096   25.5462 H   0  0  0  0  0  0  0  0  0  0  0  0
   12.2105   12.4750   24.7662 H   0  0  0  0  0  0  0  0  0  0  0  0
   12.8863   14.0622   25.1288 H   0  0  0  0  0  0  0  0  0  0  0  0
   10.0382   11.2652   22.1449 H   0  0  0  0  0  0  0  0  0  0  0  0
   11.4978   11.2281   23.1348 H   0  0  0  0  0  0  0  0  0  0  0  0
    6.3962   13.8489   26.1111 H   0  0  0  0  0  0  0  0  0  0  0  0
    6.1721   13.4559   24.4249 H   0  0  0  0  0  0  0  0  0  0  0  0
    6.6968    8.7649   23.8733 H   0  0  0  0  0  0  0  0  0  0  0  0
  1  2  1  0  0  0  0
  1  3  2  0  0  0  0
  2  4  2  0  0  0  0
  3  5  1  0  0  0  0
  4  6  1  0  0  0  0
  4 12  1  0  0  0  0
  5  6  2  0  0  0  0
  5 13  1  0  0  0  0
  6 14  1  0  0  0  0
  7 10  1  0  0  0  0
  7 16  1  0  0  0  0
  7 17  2  0  0  0  0
  8 10  1  0  0  0  0
  8 11  1  0  0  0  0
  9 11  1  0  0  0  0
  9 15  1  0  0  0  0
 10 15  1  0  0  0  0
 11 18  1  0  0  0  0
 14 15  1  0  0  0  0
  1 19  1  0  0  0  0
  2 20  1  0  0  0  0
  3 21  1  0  0  0  0
  8 22  1  0  0  0  0
  8 23  1  0  0  0  0
  9 24  1  0  0  0  0
  9 25  1  0  0  0  0
 10 26  1  0  0  0  0
 11 27  1  0  0  0  0
 12 28  1  0  0  0  0
 12 29  1  0  0  0  0
 12 30  1  0  0  0  0
 13 31  1  0  0  0  0
 13 32  1  0  0  0  0
 13 33  1  0  0  0  0
 14 34  1  0  0  0  0
 14 35  1  0  0  0  0
 16 36  1  0  0  0  0
 16 37  1  0  0  0  0
 18 38  1  0  0  0  0
M  END
> <Catalog ID>
Z1243654595

> <PlateID>
1337959-R-06

> <Well>
A10

> <MW (desalted)>
248.321

> <CLogP>
1.087

> <HBD>
2

> <TPSA>
66.560

> <RotBonds>
3

> <ROCS_ShapeQuery>
A71EV2A-x0451_0A_A71EV2A-x0310_0A_A71EV2A-x0416_0A_peptide

> <ROCS_TanimotoCombo>
0.397 

> <ROCS_ShapeTanimoto>
0.288 

> <ROCS_ColorTanimoto>
0.109 

> <ROCS_RefTversky>
0.260 

> <ROCS_RefColorTversky>
0.125 

> <ROCS_RefTverskyCombo>
0.385 

> <ROCS_FitTversky>
1.611 

> <ROCS_FitColorTversky>
0.462 

> <ROCS_FitTverskyCombo>
2.073 

> <ROCS_ColorScore>
-3.803

> <ROCS_Overlap>
1802.198

> <ROCS_Rank>
459                 

$$$$
untitled-dbase-854_7
  -OEChem-11112309163D

 24 25  0     0  0  0  0  0  0999 V2000
    8.2762    9.4047   23.9137 C   0  0  0  0  0  0  0  0  0  0  0  0
    9.0058   10.1623   22.9976 C   0  0  0  0  0  0  0  0  0  0  0  0
    7.6171   10.0330   24.9704 C   0  0  0  0  0  0  0  0  0  0  0  0
    8.4175   12.1766   24.1949 C   0  0  0  0  0  0  0  0  0  0  0  0
   10.6611   12.7514   20.2646 C   0  0  0  0  0  0  0  0  0  0  0  0
    9.0765   11.5483   23.1382 C   0  0  0  0  0  0  0  0  0  0  0  0
    7.6878   11.4190   25.1110 C   0  0  0  0  0  0  0  0  0  0  0  0
    9.8325   12.3310   22.1915 C   0  0  0  0  0  0  0  0  0  0  0  0
   10.5380   13.5083   22.2229 C   0  0  0  0  0  0  0  0  0  0  0  0
   10.7283   14.3725   23.3472 C   0  0  0  0  0  0  0  0  0  0  0  0
    6.9845   12.0901   26.2420 C   0  0  0  0  0  0  0  0  0  0  0  0
   11.0668   13.7722   20.9853 N   0  0  0  0  0  0  0  0  0  0  0  0
   10.7692   14.0270   24.5470 O   0  0  0  0  0  0  0  0  0  0  0  0
    9.9060   11.8321   20.9261 O   0  0  0  0  0  0  0  0  0  0  0  0
   10.8737   15.6907   23.0017 O   0  0  0  0  0  0  0  0  0  0  0  0
    6.3127   11.2258   27.0591 F   0  0  0  0  0  0  0  0  0  0  0  0
    7.8195   12.7857   27.0694 F   0  0  0  0  0  0  0  0  0  0  0  0
    6.0525   12.9931   25.8191 F   0  0  0  0  0  0  0  0  0  0  0  0
    8.2203    8.3256   23.8044 H   0  0  0  0  0  0  0  0  0  0  0  0
    9.5135    9.6574   22.1791 H   0  0  0  0  0  0  0  0  0  0  0  0
    7.0511    9.4348   25.6792 H   0  0  0  0  0  0  0  0  0  0  0  0
    8.4693   13.2575   24.3107 H   0  0  0  0  0  0  0  0  0  0  0  0
   10.8531   12.5559   19.2200 H   0  0  0  0  0  0  0  0  0  0  0  0
   10.8265   15.8580   22.0362 H   0  0  0  0  0  0  0  0  0  0  0  0
  1  2  1  0  0  0  0
  1  3  2  0  0  0  0
  2  6  2  0  0  0  0
  3  7  1  0  0  0  0
  4  6  1  0  0  0  0
  4  7  2  0  0  0  0
  5 12  2  0  0  0  0
  5 14  1  0  0  0  0
  6  8  1  0  0  0  0
  7 11  1  0  0  0  0
  8  9  2  0  0  0  0
  8 14  1  0  0  0  0
  9 10  1  0  0  0  0
  9 12  1  0  0  0  0
 10 13  2  0  0  0  0
 10 15  1  0  0  0  0
 11 16  1  0  0  0  0
 11 17  1  0  0  0  0
 11 18  1  0  0  0  0
  1 19  1  0  0  0  0
  2 20  1  0  0  0  0
  3 21  1  0  0  0  0
  4 22  1  0  0  0  0
  5 23  1  0  0  0  0
 15 24  1  0  0  0  0
M  END
> <Catalog ID>
Z838909264

> <PlateID>
1337959-R-11

> <Well>
F08

> <MW (desalted)>
257.165

> <CLogP>
2.371

> <HBD>
1

> <TPSA>
63.330

> <RotBonds>
3

> <ROCS_ShapeQuery>
A71EV2A-x0451_0A_A71EV2A-x0310_0A_A71EV2A-x0416_0A_peptide

> <ROCS_TanimotoCombo>
0.397 

> <ROCS_ShapeTanimoto>
0.282 

> <ROCS_ColorTanimoto>
0.116 

> <ROCS_RefTversky>
0.256 

> <ROCS_RefColorTversky>
0.128 

> <ROCS_RefTverskyCombo>
0.385 

> <ROCS_FitTversky>
1.538 

> <ROCS_FitColorTversky>
0.535 

> <ROCS_FitTverskyCombo>
2.073 

> <ROCS_ColorScore>
-3.908

> <ROCS_Overlap>
1778.241

> <ROCS_Rank>
460                 

$$$$
untitled-dbase-499_864
  -OEChem-11112309163D

 33 34  0     0  0  0  0  0  0999 V2000
    9.1231    9.7552   23.6729 C   0  0  0  0  0  0  0  0  0  0  0  0
    7.8896    9.9110   24.3051 C   0  0  0  0  0  0  0  0  0  0  0  0
    9.8968   10.8750   23.3676 C   0  0  0  0  0  0  0  0  0  0  0  0
    7.4297   11.1867   24.6320 C   0  0  0  0  0  0  0  0  0  0  0  0
    9.4369   12.1506   23.6944 C   0  0  0  0  0  0  0  0  0  0  0  0
    8.2034   12.3065   24.3267 C   0  0  0  0  0  0  0  0  0  0  0  0
   10.2693   13.3188   23.3631 C   0  0  0  0  0  0  0  0  0  0  0  0
   11.3529   14.1361   19.2130 C   0  0  0  0  0  0  0  0  0  0  0  0
   11.1171   15.2131   20.2726 C   0  0  0  0  0  0  0  0  0  0  0  0
   11.2004   12.7163   19.7591 C   0  0  0  0  0  0  0  0  0  0  0  0
   11.4139   14.7056   21.6774 C   0  0  0  0  0  0  0  0  0  0  0  0
   10.2075   12.6508   20.9139 C   0  0  0  0  0  0  0  0  0  0  0  0
    6.8959   13.6425   25.7974 C   0  0  0  0  0  0  0  0  0  0  0  0
   10.5915   13.5424   22.0197 N   0  0  0  0  0  0  0  0  0  0  0  0
   10.6229   14.0280   24.3044 O   0  0  0  0  0  0  0  0  0  0  0  0
    7.7377   13.5445   24.6558 O   0  0  0  0  0  0  0  0  0  0  0  0
    5.6156   13.4770   25.3756 F   0  0  0  0  0  0  0  0  0  0  0  0
    7.1616   12.6114   26.6365 F   0  0  0  0  0  0  0  0  0  0  0  0
    9.4810    8.7616   23.4184 H   0  0  0  0  0  0  0  0  0  0  0  0
    7.2875    9.0388   24.5421 H   0  0  0  0  0  0  0  0  0  0  0  0
   10.8567   10.7415   22.8752 H   0  0  0  0  0  0  0  0  0  0  0  0
    6.4679   11.3011   25.1246 H   0  0  0  0  0  0  0  0  0  0  0  0
   10.6410   14.2834   18.3805 H   0  0  0  0  0  0  0  0  0  0  0  0
   12.3593   14.2598   18.7761 H   0  0  0  0  0  0  0  0  0  0  0  0
   11.7495   16.0880   20.0551 H   0  0  0  0  0  0  0  0  0  0  0  0
   10.0748   15.5599   20.2160 H   0  0  0  0  0  0  0  0  0  0  0  0
   10.8736   12.0466   18.9512 H   0  0  0  0  0  0  0  0  0  0  0  0
   12.1802   12.3461   20.0966 H   0  0  0  0  0  0  0  0  0  0  0  0
   12.4864   14.4815   21.7658 H   0  0  0  0  0  0  0  0  0  0  0  0
   11.1966   15.4883   22.4227 H   0  0  0  0  0  0  0  0  0  0  0  0
    9.2047   12.9611   20.5815 H   0  0  0  0  0  0  0  0  0  0  0  0
   10.1179   11.6152   21.2726 H   0  0  0  0  0  0  0  0  0  0  0  0
    6.9719   14.6052   26.3142 H   0  0  0  0  0  0  0  0  0  0  0  0
  1  2  2  0  0  0  0
  1  3  1  0  0  0  0
  2  4  1  0  0  0  0
  3  5  2  0  0  0  0
  4  6  2  0  0  0  0
  5  6  1  0  0  0  0
  5  7  1  0  0  0  0
  6 16  1  0  0  0  0
  7 14  1  0  0  0  0
  7 15  2  0  0  0  0
  8  9  1  0  0  0  0
  8 10  1  0  0  0  0
  9 11  1  0  0  0  0
 10 12  1  0  0  0  0
 11 14  1  0  0  0  0
 12 14  1  0  0  0  0
 13 16  1  0  0  0  0
 13 17  1  0  0  0  0
 13 18  1  0  0  0  0
  1 19  1  0  0  0  0
  2 20  1  0  0  0  0
  3 21  1  0  0  0  0
  4 22  1  0  0  0  0
  8 23  1  0  0  0  0
  8 24  1  0  0  0  0
  9 25  1  0  0  0  0
  9 26  1  0  0  0  0
 10 27  1  0  0  0  0
 10 28  1  0  0  0  0
 11 29  1  0  0  0  0
 11 30  1  0  0  0  0
 12 31  1  0  0  0  0
 12 32  1  0  0  0  0
 13 33  1  0  0  0  0
M  END
> <Catalog ID>
Z54409038

> <PlateID>
1337959-R-07

> <Well>
B11

> <MW (desalted)>
255.261

> <CLogP>
2.466

> <HBD>
0

> <TPSA>
29.540

> <RotBonds>
3

> <ROCS_ShapeQuery>
A71EV2A-x0451_0A_A71EV2A-x0310_0A_A71EV2A-x0416_0A_peptide

> <ROCS_TanimotoCombo>
0.397 

> <ROCS_ShapeTanimoto>
0.291 

> <ROCS_ColorTanimoto>
0.105 

> <ROCS_RefTversky>
0.262 

> <ROCS_RefColorTversky>
0.112 

> <ROCS_RefTverskyCombo>
0.374 

> <ROCS_FitTversky>
1.621 

> <ROCS_FitColorTversky>
0.631 

> <ROCS_FitTverskyCombo>
2.253 

> <ROCS_ColorScore>
-3.399

> <ROCS_Overlap>
1818.538

> <ROCS_Rank>
461                 

$$$$
untitled-dbase-735_122
  -OEChem-11112309163D

 37 38  0     1  0  0  0  0  0999 V2000
    6.7895    9.9538   25.0911 C   0  0  0  0  0  0  0  0  0  0  0  0
    6.6523   11.1182   25.8450 C   0  0  0  0  0  0  0  0  0  0  0  0
    7.7710    9.8716   24.1041 C   0  0  0  0  0  0  0  0  0  0  0  0
    7.4993   12.2030   25.6173 C   0  0  0  0  0  0  0  0  0  0  0  0
    8.6126   10.9618   23.8613 C   0  0  0  0  0  0  0  0  0  0  0  0
    8.4850   12.1330   24.6245 C   0  0  0  0  0  0  0  0  0  0  0  0
   10.3270   14.6695   22.5436 C   0  0  0  0  0  0  0  0  0  0  0  0
    9.6892   10.9088   22.8177 C   0  0  0  0  0  0  0  0  0  0  0  0
    9.7772   12.2498   22.0962 C   0  0  0  0  0  0  0  0  0  0  0  0
    9.4447   13.2830   24.3989 C   0  0  1  0  0  0  0  0  0  0  0  0
   11.4475   11.9321   25.0384 C   0  0  0  0  0  0  0  0  0  0  0  0
    8.5358   16.8619   21.4855 C   0  0  0  0  0  0  0  0  0  0  0  0
   10.0182   15.0127   21.1064 C   0  0  0  0  0  0  0  0  0  0  0  0
   10.6512   13.1561   25.3380 C   0  0  0  0  0  0  0  0  0  0  0  0
    9.8947   13.4129   22.9922 N   0  0  0  0  0  0  0  0  0  0  0  0
    9.8648   16.4340   21.0388 N   0  0  0  0  0  0  0  0  0  0  0  0
   10.9332   15.4838   23.2444 O   0  0  0  0  0  0  0  0  0  0  0  0
    6.1253    9.1121   25.2678 H   0  0  0  0  0  0  0  0  0  0  0  0
    5.8811   11.1823   26.6076 H   0  0  0  0  0  0  0  0  0  0  0  0
    7.8702    8.9581   23.5287 H   0  0  0  0  0  0  0  0  0  0  0  0
    7.3797   13.0985   26.2166 H   0  0  0  0  0  0  0  0  0  0  0  0
   10.6522   10.6960   23.2779 H   0  0  0  0  0  0  0  0  0  0  0  0
    9.4550   10.1194   22.1053 H   0  0  0  0  0  0  0  0  0  0  0  0
   10.6577   12.2717   21.4160 H   0  0  0  0  0  0  0  0  0  0  0  0
    8.8977   12.3641   21.4256 H   0  0  0  0  0  0  0  0  0  0  0  0
    8.9038   14.2001   24.6715 H   0  0  0  0  0  0  0  0  0  0  0  0
   10.8103   11.0474   25.1537 H   0  0  0  0  0  0  0  0  0  0  0  0
   12.2925   11.8340   25.7283 H   0  0  0  0  0  0  0  0  0  0  0  0
   11.8223   11.9491   24.0096 H   0  0  0  0  0  0  0  0  0  0  0  0
    7.7665   16.3753   20.8680 H   0  0  0  0  0  0  0  0  0  0  0  0
    8.3941   16.5780   22.5388 H   0  0  0  0  0  0  0  0  0  0  0  0
    8.4495   17.9540   21.3854 H   0  0  0  0  0  0  0  0  0  0  0  0
    9.1012   14.5033   20.8268 H   0  0  0  0  0  0  0  0  0  0  0  0
   10.8479   14.6757   20.4925 H   0  0  0  0  0  0  0  0  0  0  0  0
   11.2759   14.0432   25.2264 H   0  0  0  0  0  0  0  0  0  0  0  0
   10.2913   13.1233   26.3670 H   0  0  0  0  0  0  0  0  0  0  0  0
   10.5648   16.9012   21.6298 H   0  0  0  0  0  0  0  0  0  0  0  0
  1  2  2  0  0  0  0
  1  3  1  0  0  0  0
  2  4  1  0  0  0  0
  3  5  2  0  0  0  0
  4  6  2  0  0  0  0
  5  6  1  0  0  0  0
  5  8  1  0  0  0  0
  6 10  1  0  0  0  0
  7 13  1  0  0  0  0
  7 15  1  0  0  0  0
  7 17  2  0  0  0  0
  8  9  1  0  0  0  0
  9 15  1  0  0  0  0
 10 14  1  0  0  0  0
 10 15  1  0  0  0  0
 11 14  1  0  0  0  0
 12 16  1  0  0  0  0
 13 16  1  0  0  0  0
  1 18  1  0  0  0  0
  2 19  1  0  0  0  0
  3 20  1  0  0  0  0
  4 21  1  0  0  0  0
  8 22  1  0  0  0  0
  8 23  1  0  0  0  0
  9 24  1  0  0  0  0
  9 25  1  0  0  0  0
 10 26  1  0  0  0  0
 11 27  1  0  0  0  0
 11 28  1  0  0  0  0
 11 29  1  0  0  0  0
 12 30  1  0  0  0  0
 12 31  1  0  0  0  0
 12 32  1  0  0  0  0
 13 33  1  0  0  0  0
 13 34  1  0  0  0  0
 14 35  1  0  0  0  0
 14 36  1  0  0  0  0
 16 37  1  0  0  0  0
M  END
> <Catalog ID>
Z1459072754

> <PlateID>
1337959-R-10

> <Well>
B08

> <MW (desalted)>
232.321

> <CLogP>
1.788

> <HBD>
1

> <TPSA>
32.340

> <RotBonds>
3

> <ROCS_ShapeQuery>
A71EV2A-x0451_0A_A71EV2A-x0310_0A_A71EV2A-x0416_0A_peptide

> <ROCS_TanimotoCombo>
0.397 

> <ROCS_ShapeTanimoto>
0.261 

> <ROCS_ColorTanimoto>
0.136 

> <ROCS_RefTversky>
0.238 

> <ROCS_RefColorTversky>
0.148 

> <ROCS_RefTverskyCombo>
0.387 

> <ROCS_FitTversky>
1.551 

> <ROCS_FitColorTversky>
0.620 

> <ROCS_FitTverskyCombo>
2.171 

> <ROCS_ColorScore>
-4.518

> <ROCS_Overlap>
1653.443

> <ROCS_Rank>
462                 

$$$$
untitled-dbase-1057_111
  -OEChem-11112309163D

 35 37  0     1  0  0  0  0  0999 V2000
   11.5865   13.7861   21.6724 C   0  0  0  0  0  0  0  0  0  0  0  0
   10.8644   14.1233   22.8302 C   0  0  0  0  0  0  0  0  0  0  0  0
   11.6245   14.9555   20.9601 C   0  0  0  0  0  0  0  0  0  0  0  0
   10.5183   13.2561   23.9501 C   0  0  0  0  0  0  0  0  0  0  0  0
    6.2736   10.9333   25.2554 C   0  0  0  0  0  0  0  0  0  0  0  0
    8.2814   10.5979   22.6052 C   0  0  0  0  0  0  0  0  0  0  0  0
    7.3311   10.7636   26.3617 C   0  0  0  0  0  0  0  0  0  0  0  0
    6.9368   12.2800   24.9126 C   0  0  0  0  0  0  0  0  0  0  0  0
    8.8417    9.9700   23.8758 C   0  0  0  0  0  0  0  0  0  0  0  0
    9.2540   11.7352   22.3321 C   0  0  0  0  0  0  0  0  0  0  0  0
    8.2374   11.7445   25.5700 C   0  0  0  0  0  0  0  0  0  0  0  0
    9.3288   11.1780   24.6803 C   0  0  2  0  0  0  0  0  0  0  0  0
   12.2063   15.3397   19.6681 C   0  0  0  0  0  0  0  0  0  0  0  0
   10.4837   15.4039   22.8356 N   0  0  0  0  0  0  0  0  0  0  0  0
    9.7404   12.1385   23.6525 N   0  0  0  0  0  0  0  0  0  0  0  0
   10.8957   13.5404   25.0855 O   0  0  0  0  0  0  0  0  0  0  0  0
   10.9697   15.9284   21.6440 O   0  0  0  0  0  0  0  0  0  0  0  0
   12.0168   12.8351   21.3943 H   0  0  0  0  0  0  0  0  0  0  0  0
    6.2873   10.1796   24.4617 H   0  0  0  0  0  0  0  0  0  0  0  0
    5.2481   11.0296   25.6352 H   0  0  0  0  0  0  0  0  0  0  0  0
    8.2351    9.8829   21.7788 H   0  0  0  0  0  0  0  0  0  0  0  0
    7.2721   10.9879   22.7785 H   0  0  0  0  0  0  0  0  0  0  0  0
    7.0293   11.0979   27.3601 H   0  0  0  0  0  0  0  0  0  0  0  0
    7.7243    9.7407   26.4387 H   0  0  0  0  0  0  0  0  0  0  0  0
    7.0160   12.4676   23.8332 H   0  0  0  0  0  0  0  0  0  0  0  0
    6.4922   13.1606   25.3885 H   0  0  0  0  0  0  0  0  0  0  0  0
    8.0897    9.3743   24.4018 H   0  0  0  0  0  0  0  0  0  0  0  0
    9.6892    9.3208   23.6249 H   0  0  0  0  0  0  0  0  0  0  0  0
   10.1146   11.3932   21.7463 H   0  0  0  0  0  0  0  0  0  0  0  0
    8.7826   12.5772   21.8166 H   0  0  0  0  0  0  0  0  0  0  0  0
    8.6744   12.5207   26.2629 H   0  0  0  0  0  0  0  0  0  0  0  0
   10.2119   10.8984   25.3065 H   0  0  0  0  0  0  0  0  0  0  0  0
   11.4905   15.1871   18.8400 H   0  0  0  0  0  0  0  0  0  0  0  0
   12.5149   16.4019   19.6438 H   0  0  0  0  0  0  0  0  0  0  0  0
   13.1169   14.7594   19.4264 H   0  0  0  0  0  0  0  0  0  0  0  0
  1  2  1  0  0  0  0
  1  3  2  0  0  0  0
  2  4  1  0  0  0  0
  2 14  2  0  0  0  0
  3 13  1  0  0  0  0
  3 17  1  0  0  0  0
  4 15  1  0  0  0  0
  4 16  2  0  0  0  0
  5  7  1  0  0  0  0
  5  8  1  0  0  0  0
  6  9  1  0  0  0  0
  6 10  1  0  0  0  0
  7 11  1  0  0  0  0
  8 11  1  0  0  0  0
  9 12  1  0  0  0  0
 10 15  1  0  0  0  0
 11 12  1  0  0  0  0
 12 15  1  0  0  0  0
 14 17  1  0  0  0  0
  1 18  1  0  0  0  0
  5 19  1  0  0  0  0
  5 20  1  0  0  0  0
  6 21  1  0  0  0  0
  6 22  1  0  0  0  0
  7 23  1  0  0  0  0
  7 24  1  0  0  0  0
  8 25  1  0  0  0  0
  8 26  1  0  0  0  0
  9 27  1  0  0  0  0
  9 28  1  0  0  0  0
 10 29  1  0  0  0  0
 10 30  1  0  0  0  0
 11 31  1  0  0  0  0
 12 32  1  0  0  0  0
 13 33  1  0  0  0  0
 13 34  1  0  0  0  0
 13 35  1  0  0  0  0
M  END
> <Catalog ID>
Z1096796802

> <PlateID>
1337959-R-14

> <Well>
C03

> <MW (desalted)>
234.294

> <CLogP>
1.439

> <HBD>
0

> <TPSA>
46.340

> <RotBonds>
2

> <ROCS_ShapeQuery>
A71EV2A-x0451_0A_A71EV2A-x0310_0A_A71EV2A-x0416_0A_peptide

> <ROCS_TanimotoCombo>
0.397 

> <ROCS_ShapeTanimoto>
0.282 

> <ROCS_ColorTanimoto>
0.114 

> <ROCS_RefTversky>
0.255 

> <ROCS_RefColorTversky>
0.124 

> <ROCS_RefTverskyCombo>
0.379 

> <ROCS_FitTversky>
1.620 

> <ROCS_FitColorTversky>
0.595 

> <ROCS_FitTverskyCombo>
2.215 

> <ROCS_ColorScore>
-3.769

> <ROCS_Overlap>
1765.748

> <ROCS_Rank>
463                 

$$$$
untitled-dbase-229_4
  -OEChem-11112309163D

 21 22  0     0  0  0  0  0  0999 V2000
    9.3825   13.4040   24.0119 C   0  0  0  0  0  0  0  0  0  0  0  0
    8.4645   11.0892   22.8233 C   0  0  0  0  0  0  0  0  0  0  0  0
    7.8769   11.2559   24.8641 C   0  0  0  0  0  0  0  0  0  0  0  0
    9.8777   10.7128   24.3721 C   0  0  0  0  0  0  0  0  0  0  0  0
    8.9973   11.9721   24.0163 C   0  0  0  0  0  0  0  0  0  0  0  0
    8.5047   10.1502   24.0237 C   0  0  0  0  0  0  0  0  0  0  0  0
    8.5444   15.5743   23.5983 C   0  0  0  0  0  0  0  0  0  0  0  0
    8.1375    8.7932   24.0287 N   0  0  0  0  0  0  0  0  0  0  0  0
   10.4989   13.8141   24.2992 O   0  0  0  0  0  0  0  0  0  0  0  0
    8.3112   14.1631   23.6441 O   0  0  0  0  0  0  0  0  0  0  0  0
    7.4819   11.3465   22.4141 H   0  0  0  0  0  0  0  0  0  0  0  0
    9.1604   10.8912   22.0014 H   0  0  0  0  0  0  0  0  0  0  0  0
    8.0240   11.2136   25.9483 H   0  0  0  0  0  0  0  0  0  0  0  0
    6.8386   11.5288   24.6482 H   0  0  0  0  0  0  0  0  0  0  0  0
   10.7073   10.4792   23.6968 H   0  0  0  0  0  0  0  0  0  0  0  0
   10.2149   10.6191   25.4097 H   0  0  0  0  0  0  0  0  0  0  0  0
    7.6279   16.0861   23.2946 H   0  0  0  0  0  0  0  0  0  0  0  0
    9.3467   15.7891   22.8880 H   0  0  0  0  0  0  0  0  0  0  0  0
    8.8388   15.9184   24.5926 H   0  0  0  0  0  0  0  0  0  0  0  0
    7.1702    8.6756   23.7594 H   0  0  0  0  0  0  0  0  0  0  0  0
    8.7038    8.2598   23.3831 H   0  0  0  0  0  0  0  0  0  0  0  0
  1  5  1  0  0  0  0
  1  9  2  0  0  0  0
  1 10  1  0  0  0  0
  2  5  1  0  0  0  0
  2  6  1  0  0  0  0
  3  5  1  0  0  0  0
  3  6  1  0  0  0  0
  4  5  1  0  0  0  0
  4  6  1  0  0  0  0
  6  8  1  0  0  0  0
  7 10  1  0  0  0  0
  2 11  1  0  0  0  0
  2 12  1  0  0  0  0
  3 13  1  0  0  0  0
  3 14  1  0  0  0  0
  4 15  1  0  0  0  0
  4 16  1  0  0  0  0
  7 17  1  0  0  0  0
  7 18  1  0  0  0  0
  7 19  1  0  0  0  0
  8 20  1  0  0  0  0
  8 21  1  0  0  0  0
M  END
> <Catalog ID>
Z1262677642

> <PlateID>
1337959-R-03

> <Well>
G11

> <MW (desalted)>
141.168

> <CLogP>
0.657

> <HBD>
1

> <TPSA>
52.320

> <RotBonds>
2

> <ROCS_ShapeQuery>
A71EV2A-x0451_0A_A71EV2A-x0310_0A_A71EV2A-x0416_0A_peptide

> <ROCS_TanimotoCombo>
0.396 

> <ROCS_ShapeTanimoto>
0.173 

> <ROCS_ColorTanimoto>
0.224 

> <ROCS_RefTversky>
0.164 

> <ROCS_RefColorTversky>
0.252 

> <ROCS_RefTverskyCombo>
0.416 

> <ROCS_FitTversky>
1.453 

> <ROCS_FitColorTversky>
0.667 

> <ROCS_FitTverskyCombo>
2.120 

> <ROCS_ColorScore>
-7.722

> <ROCS_Overlap>
1133.594

> <ROCS_Rank>
464                 

$$$$
untitled-dbase-1002_121
  -OEChem-11112309163D

 31 32  0     0  0  0  0  0  0999 V2000
    9.7503   10.8469   23.1359 C   0  0  0  0  0  0  0  0  0  0  0  0
    8.8808    9.7912   23.4098 C   0  0  0  0  0  0  0  0  0  0  0  0
    7.5855   11.2325   24.8529 C   0  0  0  0  0  0  0  0  0  0  0  0
    9.5375   12.0954   23.7206 C   0  0  0  0  0  0  0  0  0  0  0  0
    8.4551   12.2881   24.5790 C   0  0  0  0  0  0  0  0  0  0  0  0
    7.7984    9.9840   24.2682 C   0  0  0  0  0  0  0  0  0  0  0  0
   10.4649   13.1921   23.4188 C   0  0  0  0  0  0  0  0  0  0  0  0
   10.5319   12.6417   20.9313 C   0  0  0  0  0  0  0  0  0  0  0  0
   12.3910   13.8566   22.0196 C   0  0  0  0  0  0  0  0  0  0  0  0
   10.2075   13.7400   19.9258 C   0  0  0  0  0  0  0  0  0  0  0  0
   12.2864   15.0969   21.1400 C   0  0  0  0  0  0  0  0  0  0  0  0
    7.0991   13.6046   26.0226 C   0  0  0  0  0  0  0  0  0  0  0  0
   11.0922   13.1996   22.1695 N   0  0  0  0  0  0  0  0  0  0  0  0
   10.6125   14.0349   24.3025 O   0  0  0  0  0  0  0  0  0  0  0  0
    8.2294   13.5003   25.1594 O   0  0  0  0  0  0  0  0  0  0  0  0
   11.6987   14.6804   19.4668 S   0  0  0  0  0  0  0  0  0  0  0  0
    6.7258    8.6813   24.6059 Cl  0  0  0  0  0  0  0  0  0  0  0  0
   10.5905   10.6841   22.4657 H   0  0  0  0  0  0  0  0  0  0  0  0
    9.0596    8.8240   22.9469 H   0  0  0  0  0  0  0  0  0  0  0  0
    6.7438   11.3903   25.5232 H   0  0  0  0  0  0  0  0  0  0  0  0
    9.6235   12.0697   21.1383 H   0  0  0  0  0  0  0  0  0  0  0  0
   11.2618   11.9323   20.5219 H   0  0  0  0  0  0  0  0  0  0  0  0
   13.0967   13.1284   21.6018 H   0  0  0  0  0  0  0  0  0  0  0  0
   12.7775   14.1486   23.0021 H   0  0  0  0  0  0  0  0  0  0  0  0
    9.7937   13.2974   19.0143 H   0  0  0  0  0  0  0  0  0  0  0  0
    9.4576   14.4305   20.3265 H   0  0  0  0  0  0  0  0  0  0  0  0
   11.6094   15.8355   21.5829 H   0  0  0  0  0  0  0  0  0  0  0  0
   13.2699   15.5681   21.0457 H   0  0  0  0  0  0  0  0  0  0  0  0
    7.0344   14.6212   26.4181 H   0  0  0  0  0  0  0  0  0  0  0  0
    7.1985   12.8889   26.8425 H   0  0  0  0  0  0  0  0  0  0  0  0
    6.1946   13.3796   25.4527 H   0  0  0  0  0  0  0  0  0  0  0  0
  1  2  1  0  0  0  0
  1  4  2  0  0  0  0
  2  6  2  0  0  0  0
  3  5  2  0  0  0  0
  3  6  1  0  0  0  0
  4  5  1  0  0  0  0
  4  7  1  0  0  0  0
  5 15  1  0  0  0  0
  6 17  1  0  0  0  0
  7 13  1  0  0  0  0
  7 14  2  0  0  0  0
  8 10  1  0  0  0  0
  8 13  1  0  0  0  0
  9 11  1  0  0  0  0
  9 13  1  0  0  0  0
 10 16  1  0  0  0  0
 11 16  1  0  0  0  0
 12 15  1  0  0  0  0
  1 18  1  0  0  0  0
  2 19  1  0  0  0  0
  3 20  1  0  0  0  0
  8 21  1  0  0  0  0
  8 22  1  0  0  0  0
  9 23  1  0  0  0  0
  9 24  1  0  0  0  0
 10 25  1  0  0  0  0
 10 26  1  0  0  0  0
 11 27  1  0  0  0  0
 11 28  1  0  0  0  0
 12 29  1  0  0  0  0
 12 30  1  0  0  0  0
 12 31  1  0  0  0  0
M  END
> <Catalog ID>
Z899389184

> <PlateID>
1337959-R-13

> <Well>
E07

> <MW (desalted)>
271.763

> <CLogP>
2.482

> <HBD>
0

> <TPSA>
29.540

> <RotBonds>
2

> <ROCS_ShapeQuery>
A71EV2A-x0451_0A_A71EV2A-x0310_0A_A71EV2A-x0416_0A_peptide

> <ROCS_TanimotoCombo>
0.396 

> <ROCS_ShapeTanimoto>
0.291 

> <ROCS_ColorTanimoto>
0.105 

> <ROCS_RefTversky>
0.260 

> <ROCS_RefColorTversky>
0.112 

> <ROCS_RefTverskyCombo>
0.372 

> <ROCS_FitTversky>
1.712 

> <ROCS_FitColorTversky>
0.632 

> <ROCS_FitTverskyCombo>
2.343 

> <ROCS_ColorScore>
-3.402

> <ROCS_Overlap>
1800.453

> <ROCS_Rank>
465                 

$$$$
untitled-dbase-852_39
  -OEChem-11112309163D

 30 31  0     0  0  0  0  0  0999 V2000
   10.8790   16.0094   20.2699 C   0  0  0  0  0  0  0  0  0  0  0  0
   13.1455   15.2121   20.0159 C   0  0  0  0  0  0  0  0  0  0  0  0
   10.7528   15.2752   21.4490 C   0  0  0  0  0  0  0  0  0  0  0  0
   13.0192   14.4778   21.1952 C   0  0  0  0  0  0  0  0  0  0  0  0
    9.0912   12.2452   24.3838 C   0  0  0  0  0  0  0  0  0  0  0  0
    8.0845   11.3681   24.7062 C   0  0  0  0  0  0  0  0  0  0  0  0
   12.0754   15.9779   19.5533 C   0  0  0  0  0  0  0  0  0  0  0  0
   11.8229   14.5094   21.9117 C   0  0  0  0  0  0  0  0  0  0  0  0
    9.8850   11.5442   23.4563 C   0  0  0  0  0  0  0  0  0  0  0  0
   12.2104   16.7623   18.2921 C   0  0  0  0  0  0  0  0  0  0  0  0
    7.5388    9.0302   23.9878 C   0  0  0  0  0  0  0  0  0  0  0  0
    9.4227   10.3164   23.2059 N   0  0  0  0  0  0  0  0  0  0  0  0
    8.3274   10.2389   23.9808 N   0  0  0  0  0  0  0  0  0  0  0  0
   11.0684   12.0740   22.8342 N   0  0  0  0  0  0  0  0  0  0  0  0
   10.6255   14.2209   24.1941 O   0  0  0  0  0  0  0  0  0  0  0  0
   12.9908   13.4119   23.9696 O   0  0  0  0  0  0  0  0  0  0  0  0
   11.6658   13.5920   23.3888 S   0  0  0  0  0  0  0  0  0  0  0  0
   10.0398   16.6029   19.9169 H   0  0  0  0  0  0  0  0  0  0  0  0
   14.0812   15.1811   19.4640 H   0  0  0  0  0  0  0  0  0  0  0  0
    9.8161   15.3063   21.9994 H   0  0  0  0  0  0  0  0  0  0  0  0
   13.8591   13.8842   21.5463 H   0  0  0  0  0  0  0  0  0  0  0  0
    9.2227   13.2472   24.7660 H   0  0  0  0  0  0  0  0  0  0  0  0
    7.2375   11.4520   25.3730 H   0  0  0  0  0  0  0  0  0  0  0  0
   12.5886   17.7692   18.5071 H   0  0  0  0  0  0  0  0  0  0  0  0
   12.8998   16.2741   17.5910 H   0  0  0  0  0  0  0  0  0  0  0  0
   11.2460   16.8557   17.7757 H   0  0  0  0  0  0  0  0  0  0  0  0
    6.7737    9.1221   23.2124 H   0  0  0  0  0  0  0  0  0  0  0  0
    8.1859    8.1720   23.7866 H   0  0  0  0  0  0  0  0  0  0  0  0
    7.0755    8.9067   24.9707 H   0  0  0  0  0  0  0  0  0  0  0  0
   11.7789   11.3710   22.5914 H   0  0  0  0  0  0  0  0  0  0  0  0
  1  3  1  0  0  0  0
  1  7  2  0  0  0  0
  2  4  2  0  0  0  0
  2  7  1  0  0  0  0
  3  8  2  0  0  0  0
  4  8  1  0  0  0  0
  5  6  2  0  0  0  0
  5  9  1  0  0  0  0
  6 13  1  0  0  0  0
  7 10  1  0  0  0  0
  8 17  1  0  0  0  0
  9 12  2  0  0  0  0
  9 14  1  0  0  0  0
 11 13  1  0  0  0  0
 12 13  1  0  0  0  0
 14 17  1  0  0  0  0
 15 17  2  0  0  0  0
 16 17  2  0  0  0  0
  1 18  1  0  0  0  0
  2 19  1  0  0  0  0
  3 20  1  0  0  0  0
  4 21  1  0  0  0  0
  5 22  1  0  0  0  0
  6 23  1  0  0  0  0
 10 24  1  0  0  0  0
 10 25  1  0  0  0  0
 10 26  1  0  0  0  0
 11 27  1  0  0  0  0
 11 28  1  0  0  0  0
 11 29  1  0  0  0  0
 14 30  1  0  0  0  0
M  END
> <Catalog ID>
Z123605534

> <PlateID>
1337959-R-11

> <Well>
F06

> <MW (desalted)>
251.305

> <CLogP>
1.503

> <HBD>
1

> <TPSA>
63.990

> <RotBonds>
2

> <ROCS_ShapeQuery>
A71EV2A-x0451_0A_A71EV2A-x0310_0A_A71EV2A-x0416_0A_peptide

> <ROCS_TanimotoCombo>
0.396 

> <ROCS_ShapeTanimoto>
0.279 

> <ROCS_ColorTanimoto>
0.117 

> <ROCS_RefTversky>
0.252 

> <ROCS_RefColorTversky>
0.130 

> <ROCS_RefTverskyCombo>
0.382 

> <ROCS_FitTversky>
1.631 

> <ROCS_FitColorTversky>
0.543 

> <ROCS_FitTverskyCombo>
2.174 

> <ROCS_ColorScore>
-3.957

> <ROCS_Overlap>
1745.689

> <ROCS_Rank>
466                 

$$$$
untitled-dbase-919_61
  -OEChem-11112309163D

 32 33  0     0  0  0  0  0  0999 V2000
   14.7657   12.4587   26.0274 C   0  0  0  0  0  0  0  0  0  0  0  0
   15.1998   13.7474   25.7375 C   0  0  0  0  0  0  0  0  0  0  0  0
    7.4521   10.0681   24.4628 C   0  0  0  0  0  0  0  0  0  0  0  0
    8.2149    9.8271   23.3202 C   0  0  0  0  0  0  0  0  0  0  0  0
   13.7447   11.8892   25.2746 C   0  0  0  0  0  0  0  0  0  0  0  0
    8.6853   12.1081   24.8560 C   0  0  0  0  0  0  0  0  0  0  0  0
   14.5853   14.4191   24.6930 C   0  0  0  0  0  0  0  0  0  0  0  0
    7.6872   11.2086   25.2307 C   0  0  0  0  0  0  0  0  0  0  0  0
    9.2130   10.7265   22.9455 C   0  0  0  0  0  0  0  0  0  0  0  0
    9.4482   11.8670   23.7134 C   0  0  0  0  0  0  0  0  0  0  0  0
   13.1952   12.6442   24.2510 C   0  0  0  0  0  0  0  0  0  0  0  0
    6.8703   11.4665   26.4515 C   0  0  0  0  0  0  0  0  0  0  0  0
   10.0119   10.4388   21.7165 C   0  0  0  0  0  0  0  0  0  0  0  0
   13.5907   13.8989   23.9396 N   0  0  0  0  0  0  0  0  0  0  0  0
   12.1364   12.0973   23.4460 N   0  0  0  0  0  0  0  0  0  0  0  0
   10.6964   14.0690   24.2786 O   0  0  0  0  0  0  0  0  0  0  0  0
   10.5081   13.3805   21.8724 O   0  0  0  0  0  0  0  0  0  0  0  0
   10.6911   13.0169   23.2708 S   0  0  0  0  0  0  0  0  0  0  0  0
   15.2220   11.8994   26.8386 H   0  0  0  0  0  0  0  0  0  0  0  0
   15.9941   14.2113   26.3109 H   0  0  0  0  0  0  0  0  0  0  0  0
    6.6759    9.3623   24.7464 H   0  0  0  0  0  0  0  0  0  0  0  0
    8.0216    8.9365   22.7280 H   0  0  0  0  0  0  0  0  0  0  0  0
   13.3969   10.8848   25.4910 H   0  0  0  0  0  0  0  0  0  0  0  0
    8.8660   12.9964   25.4567 H   0  0  0  0  0  0  0  0  0  0  0  0
   14.8874   15.4267   24.4268 H   0  0  0  0  0  0  0  0  0  0  0  0
    7.3426   11.0108   27.3304 H   0  0  0  0  0  0  0  0  0  0  0  0
    6.7579   12.5428   26.6358 H   0  0  0  0  0  0  0  0  0  0  0  0
    5.8579   11.0547   26.3478 H   0  0  0  0  0  0  0  0  0  0  0  0
    9.5327   10.8871   20.8387 H   0  0  0  0  0  0  0  0  0  0  0  0
   11.0293   10.8396   21.8026 H   0  0  0  0  0  0  0  0  0  0  0  0
   10.1071    9.3587   21.5499 H   0  0  0  0  0  0  0  0  0  0  0  0
   12.4507   11.5867   22.6102 H   0  0  0  0  0  0  0  0  0  0  0  0
  1  2  2  0  0  0  0
  1  5  1  0  0  0  0
  2  7  1  0  0  0  0
  3  4  1  0  0  0  0
  3  8  2  0  0  0  0
  4  9  2  0  0  0  0
  5 11  2  0  0  0  0
  6  8  1  0  0  0  0
  6 10  2  0  0  0  0
  7 14  2  0  0  0  0
  8 12  1  0  0  0  0
  9 10  1  0  0  0  0
  9 13  1  0  0  0  0
 10 18  1  0  0  0  0
 11 14  1  0  0  0  0
 11 15  1  0  0  0  0
 15 18  1  0  0  0  0
 16 18  2  0  0  0  0
 17 18  2  0  0  0  0
  1 19  1  0  0  0  0
  2 20  1  0  0  0  0
  3 21  1  0  0  0  0
  4 22  1  0  0  0  0
  5 23  1  0  0  0  0
  6 24  1  0  0  0  0
  7 25  1  0  0  0  0
 12 26  1  0  0  0  0
 12 27  1  0  0  0  0
 12 28  1  0  0  0  0
 13 29  1  0  0  0  0
 13 30  1  0  0  0  0
 13 31  1  0  0  0  0
 15 32  1  0  0  0  0
M  END
> <Catalog ID>
Z56996453

> <PlateID>
1337959-R-12

> <Well>
E03

> <MW (desalted)>
262.327

> <CLogP>
2.711

> <HBD>
1

> <TPSA>
59.060

> <RotBonds>
2

> <ROCS_ShapeQuery>
A71EV2A-x0451_0A_A71EV2A-x0310_0A_A71EV2A-x0416_0A_peptide

> <ROCS_TanimotoCombo>
0.396 

> <ROCS_ShapeTanimoto>
0.267 

> <ROCS_ColorTanimoto>
0.130 

> <ROCS_RefTversky>
0.244 

> <ROCS_RefColorTversky>
0.142 

> <ROCS_RefTverskyCombo>
0.386 

> <ROCS_FitTversky>
1.529 

> <ROCS_FitColorTversky>
0.593 

> <ROCS_FitTverskyCombo>
2.122 

> <ROCS_ColorScore>
-4.325

> <ROCS_Overlap>
1692.880

> <ROCS_Rank>
467                 

$$$$
untitled-dbase-341_26
  -OEChem-11112309163D

 27 28  0     0  0  0  0  0  0999 V2000
   11.4452   14.1105   23.5286 C   0  0  0  0  0  0  0  0  0  0  0  0
   10.7548   11.5630   23.4157 C   0  0  0  0  0  0  0  0  0  0  0  0
    9.1977   12.8649   24.1504 C   0  0  0  0  0  0  0  0  0  0  0  0
    8.3329   10.6973   23.0138 C   0  0  0  0  0  0  0  0  0  0  0  0
    9.0645   10.4220   25.0470 C   0  0  0  0  0  0  0  0  0  0  0  0
   10.3918   13.0584   23.1673 C   0  0  0  0  0  0  0  0  0  0  0  0
    9.3445   11.3784   23.9137 C   0  0  0  0  0  0  0  0  0  0  0  0
    7.7490   10.0435   24.3024 C   0  0  0  0  0  0  0  0  0  0  0  0
    6.4442   10.5823   24.8458 C   0  0  0  0  0  0  0  0  0  0  0  0
    7.7349    8.5929   24.1112 N   0  0  0  0  0  0  0  0  0  0  0  0
   12.5973   13.8669   23.8552 O   0  0  0  0  0  0  0  0  0  0  0  0
   10.9249   15.3590   23.4399 O   0  0  0  0  0  0  0  0  0  0  0  0
    5.4594   10.4558   23.9346 F   0  0  0  0  0  0  0  0  0  0  0  0
    6.0779    9.9134   25.9569 F   0  0  0  0  0  0  0  0  0  0  0  0
    6.5613   11.8876   25.1600 F   0  0  0  0  0  0  0  0  0  0  0  0
   11.0430   11.0024   22.5201 H   0  0  0  0  0  0  0  0  0  0  0  0
   11.5305   11.4179   24.1788 H   0  0  0  0  0  0  0  0  0  0  0  0
    9.4131   13.1787   25.1775 H   0  0  0  0  0  0  0  0  0  0  0  0
    8.2563   13.3198   23.8338 H   0  0  0  0  0  0  0  0  0  0  0  0
    7.6389   11.3904   22.5272 H   0  0  0  0  0  0  0  0  0  0  0  0
    8.7267   10.0225   22.2503 H   0  0  0  0  0  0  0  0  0  0  0  0
    9.7917    9.6228   25.2059 H   0  0  0  0  0  0  0  0  0  0  0  0
    8.8929   10.9208   26.0064 H   0  0  0  0  0  0  0  0  0  0  0  0
   10.0403   13.2181   22.1375 H   0  0  0  0  0  0  0  0  0  0  0  0
    7.1655    8.3961   23.3253 H   0  0  0  0  0  0  0  0  0  0  0  0
    8.6678    8.2987   23.9576 H   0  0  0  0  0  0  0  0  0  0  0  0
    9.9841   15.3450   23.1622 H   0  0  0  0  0  0  0  0  0  0  0  0
  1  6  1  0  0  0  0
  1 11  2  0  0  0  0
  1 12  1  0  0  0  0
  2  6  1  0  0  0  0
  2  7  1  0  0  0  0
  3  6  1  0  0  0  0
  3  7  1  0  0  0  0
  4  7  1  0  0  0  0
  4  8  1  0  0  0  0
  5  7  1  0  0  0  0
  5  8  1  0  0  0  0
  8  9  1  0  0  0  0
  8 10  1  0  0  0  0
  9 13  1  0  0  0  0
  9 14  1  0  0  0  0
  9 15  1  0  0  0  0
  2 16  1  0  0  0  0
  2 17  1  0  0  0  0
  3 18  1  0  0  0  0
  3 19  1  0  0  0  0
  4 20  1  0  0  0  0
  4 21  1  0  0  0  0
  5 22  1  0  0  0  0
  5 23  1  0  0  0  0
  6 24  1  0  0  0  0
 10 25  1  0  0  0  0
 10 26  1  0  0  0  0
 12 27  1  0  0  0  0
M  END
> <Catalog ID>
Z1222278698

> <PlateID>
1337959-R-05

> <Well>
C03

> <MW (desalted)>
223.192

> <CLogP>
-1.972

> <HBD>
2

> <TPSA>
63.320

> <RotBonds>
2

> <ROCS_ShapeQuery>
A71EV2A-x0451_0A_A71EV2A-x0310_0A_A71EV2A-x0416_0A_peptide

> <ROCS_TanimotoCombo>
0.396 

> <ROCS_ShapeTanimoto>
0.262 

> <ROCS_ColorTanimoto>
0.134 

> <ROCS_RefTversky>
0.238 

> <ROCS_RefColorTversky>
0.150 

> <ROCS_RefTverskyCombo>
0.388 

> <ROCS_FitTversky>
1.651 

> <ROCS_FitColorTversky>
0.553 

> <ROCS_FitTverskyCombo>
2.204 

> <ROCS_ColorScore>
-4.573

> <ROCS_Overlap>
1646.916

> <ROCS_Rank>
468                 

$$$$
untitled-dbase-1059_362
  -OEChem-11112309163D

 30 31  0     1  0  0  0  0  0999 V2000
    7.7195   11.8501   24.5825 C   0  0  0  0  0  0  0  0  0  0  0  0
    8.7334   12.2444   23.7095 C   0  0  0  0  0  0  0  0  0  0  0  0
    7.5469   10.4998   24.8866 C   0  0  0  0  0  0  0  0  0  0  0  0
    9.5747   11.2883   23.1404 C   0  0  0  0  0  0  0  0  0  0  0  0
    8.3882    9.5437   24.3175 C   0  0  0  0  0  0  0  0  0  0  0  0
    9.4021    9.9380   23.4444 C   0  0  0  0  0  0  0  0  0  0  0  0
   11.6972   15.0385   23.4890 C   0  0  0  0  0  0  0  0  0  0  0  0
   13.0761   13.6066   21.9921 C   0  0  0  0  0  0  0  0  0  0  0  0
   13.0412   12.0904   21.9073 C   0  0  0  0  0  0  0  0  0  0  0  0
   12.0690   12.6087   23.9658 C   0  0  0  0  0  0  0  0  0  0  0  0
   12.6744   13.9065   23.4300 C   0  0  2  0  0  0  0  0  0  0  0  0
   10.6646   11.7163   22.2007 C   0  0  0  0  0  0  0  0  0  0  0  0
   11.9825   11.6703   22.8338 N   0  0  1  0  0  0  0  0  0  0  0  0
   10.5658   14.9660   23.9452 O   0  0  0  0  0  0  0  0  0  0  0  0
   12.2369   16.1648   22.9622 O   0  0  0  0  0  0  0  0  0  0  0  0
    8.2225    8.2472   24.6095 F   0  0  0  0  0  0  0  0  0  0  0  0
   10.2055    9.0119   22.9025 F   0  0  0  0  0  0  0  0  0  0  0  0
    7.0635   12.5943   25.0248 H   0  0  0  0  0  0  0  0  0  0  0  0
    8.8599   13.2988   23.4780 H   0  0  0  0  0  0  0  0  0  0  0  0
    6.7576   10.1919   25.5658 H   0  0  0  0  0  0  0  0  0  0  0  0
   14.0976   13.9631   21.8175 H   0  0  0  0  0  0  0  0  0  0  0  0
   12.4267   14.0676   21.2431 H   0  0  0  0  0  0  0  0  0  0  0  0
   12.8161   11.7755   20.8674 H   0  0  0  0  0  0  0  0  0  0  0  0
   14.0196   11.6475   22.1757 H   0  0  0  0  0  0  0  0  0  0  0  0
   12.6975   12.1831   24.7745 H   0  0  0  0  0  0  0  0  0  0  0  0
   11.0685   12.7900   24.4166 H   0  0  0  0  0  0  0  0  0  0  0  0
   13.5624   14.1983   24.0119 H   0  0  0  0  0  0  0  0  0  0  0  0
   10.6912   11.0669   21.3189 H   0  0  0  0  0  0  0  0  0  0  0  0
   10.4989   12.7392   21.8465 H   0  0  0  0  0  0  0  0  0  0  0  0
   13.1554   16.0194   22.6497 H   0  0  0  0  0  0  0  0  0  0  0  0
  1  2  1  0  0  0  0
  1  3  2  0  0  0  0
  2  4  2  0  0  0  0
  3  5  1  0  0  0  0
  4  6  1  0  0  0  0
  4 12  1  0  0  0  0
  5  6  2  0  0  0  0
  5 16  1  0  0  0  0
  6 17  1  0  0  0  0
  7 11  1  0  0  0  0
  7 14  2  0  0  0  0
  7 15  1  0  0  0  0
  8  9  1  0  0  0  0
  8 11  1  0  0  0  0
  9 13  1  0  0  0  0
 10 11  1  0  0  0  0
 10 13  1  0  0  0  0
 12 13  1  0  0  0  0
  1 18  1  0  0  0  0
  2 19  1  0  0  0  0
  3 20  1  0  0  0  0
  8 21  1  0  0  0  0
  8 22  1  0  0  0  0
  9 23  1  0  0  0  0
  9 24  1  0  0  0  0
 10 25  1  0  0  0  0
 10 26  1  0  0  0  0
 11 27  1  0  0  0  0
 12 28  1  0  0  0  0
 12 29  1  0  0  0  0
 15 30  1  0  0  0  0
M  END
> <Catalog ID>
Z1459885733

> <PlateID>
1337959-R-14

> <Well>
C05

> <MW (desalted)>
241.234

> <CLogP>
-0.260

> <HBD>
1

> <TPSA>
40.540

> <RotBonds>
3

> <ROCS_ShapeQuery>
A71EV2A-x0451_0A_A71EV2A-x0310_0A_A71EV2A-x0416_0A_peptide

> <ROCS_TanimotoCombo>
0.396 

> <ROCS_ShapeTanimoto>
0.279 

> <ROCS_ColorTanimoto>
0.116 

> <ROCS_RefTversky>
0.252 

> <ROCS_RefColorTversky>
0.129 

> <ROCS_RefTverskyCombo>
0.382 

> <ROCS_FitTversky>
1.617 

> <ROCS_FitColorTversky>
0.539 

> <ROCS_FitTverskyCombo>
2.156 

> <ROCS_ColorScore>
-3.929

> <ROCS_Overlap>
1750.773

> <ROCS_Rank>
469                 

$$$$
untitled-dbase-987_8
  -OEChem-11112309163D

 33 34  0     0  0  0  0  0  0999 V2000
    9.7827   10.3223   23.8372 C   0  0  0  0  0  0  0  0  0  0  0  0
    8.6664   13.8613   23.9322 C   0  0  0  0  0  0  0  0  0  0  0  0
    8.5955    9.6541   24.1381 C   0  0  0  0  0  0  0  0  0  0  0  0
    9.8536   14.5295   23.6314 C   0  0  0  0  0  0  0  0  0  0  0  0
    7.4455   11.7700   24.3050 C   0  0  0  0  0  0  0  0  0  0  0  0
   11.0036   12.4135   23.4646 C   0  0  0  0  0  0  0  0  0  0  0  0
    8.6315   12.4591   24.0034 C   0  0  0  0  0  0  0  0  0  0  0  0
    9.8176   11.7244   23.7661 C   0  0  0  0  0  0  0  0  0  0  0  0
    7.4292   10.3765   24.3715 C   0  0  0  0  0  0  0  0  0  0  0  0
   11.0200   13.8069   23.3980 C   0  0  0  0  0  0  0  0  0  0  0  0
   11.7246   14.6745   20.3820 C   0  0  0  0  0  0  0  0  0  0  0  0
   14.1386   14.4600   20.8148 C   0  0  0  0  0  0  0  0  0  0  0  0
    6.3252    8.2988   24.7179 C   0  0  0  0  0  0  0  0  0  0  0  0
   12.7691   14.2640   21.3546 N   0  0  0  0  0  0  0  0  0  0  0  0
   12.2617   16.0788   23.1421 O   0  0  0  0  0  0  0  0  0  0  0  0
   13.5760   14.0530   23.8147 O   0  0  0  0  0  0  0  0  0  0  0  0
    6.2715    9.7236   24.6654 O   0  0  0  0  0  0  0  0  0  0  0  0
   12.5047   14.6454   23.0213 S   0  0  0  0  0  0  0  0  0  0  0  0
   10.6818    9.7365   23.6573 H   0  0  0  0  0  0  0  0  0  0  0  0
    7.7671   14.4465   24.1128 H   0  0  0  0  0  0  0  0  0  0  0  0
    8.5879    8.5686   24.1873 H   0  0  0  0  0  0  0  0  0  0  0  0
    9.8554   15.6151   23.5821 H   0  0  0  0  0  0  0  0  0  0  0  0
    6.5239   12.3193   24.4895 H   0  0  0  0  0  0  0  0  0  0  0  0
   11.9216   11.8582   23.2794 H   0  0  0  0  0  0  0  0  0  0  0  0
   10.7294   14.5128   20.8218 H   0  0  0  0  0  0  0  0  0  0  0  0
   11.8491   15.7400   20.1384 H   0  0  0  0  0  0  0  0  0  0  0  0
   11.8219   14.0749   19.4649 H   0  0  0  0  0  0  0  0  0  0  0  0
   14.8779   14.1442   21.5657 H   0  0  0  0  0  0  0  0  0  0  0  0
   14.2627   13.8580   19.9025 H   0  0  0  0  0  0  0  0  0  0  0  0
   14.2899   15.5230   20.5761 H   0  0  0  0  0  0  0  0  0  0  0  0
    5.3355    7.9049   24.9617 H   0  0  0  0  0  0  0  0  0  0  0  0
    7.0494    7.9882   25.4752 H   0  0  0  0  0  0  0  0  0  0  0  0
    6.6358    7.9186   23.7418 H   0  0  0  0  0  0  0  0  0  0  0  0
  1  3  1  0  0  0  0
  1  8  2  0  0  0  0
  2  4  2  0  0  0  0
  2  7  1  0  0  0  0
  3  9  2  0  0  0  0
  4 10  1  0  0  0  0
  5  7  2  0  0  0  0
  5  9  1  0  0  0  0
  6  8  1  0  0  0  0
  6 10  2  0  0  0  0
  7  8  1  0  0  0  0
  9 17  1  0  0  0  0
 10 18  1  0  0  0  0
 11 14  1  0  0  0  0
 12 14  1  0  0  0  0
 13 17  1  0  0  0  0
 14 18  1  0  0  0  0
 15 18  2  0  0  0  0
 16 18  2  0  0  0  0
  1 19  1  0  0  0  0
  2 20  1  0  0  0  0
  3 21  1  0  0  0  0
  4 22  1  0  0  0  0
  5 23  1  0  0  0  0
  6 24  1  0  0  0  0
 11 25  1  0  0  0  0
 11 26  1  0  0  0  0
 11 27  1  0  0  0  0
 12 28  1  0  0  0  0
 12 29  1  0  0  0  0
 12 30  1  0  0  0  0
 13 31  1  0  0  0  0
 13 32  1  0  0  0  0
 13 33  1  0  0  0  0
M  END
> <Catalog ID>
Z283863518

> <PlateID>
1337959-R-13

> <Well>
D02

> <MW (desalted)>
265.328

> <CLogP>
2.617

> <HBD>
0

> <TPSA>
46.610

> <RotBonds>
2

> <ROCS_ShapeQuery>
A71EV2A-x0451_0A_A71EV2A-x0310_0A_A71EV2A-x0416_0A_peptide

> <ROCS_TanimotoCombo>
0.396 

> <ROCS_ShapeTanimoto>
0.283 

> <ROCS_ColorTanimoto>
0.113 

> <ROCS_RefTversky>
0.255 

> <ROCS_RefColorTversky>
0.123 

> <ROCS_RefTverskyCombo>
0.378 

> <ROCS_FitTversky>
1.604 

> <ROCS_FitColorTversky>
0.587 

> <ROCS_FitTverskyCombo>
2.191 

> <ROCS_ColorScore>
-3.726

> <ROCS_Overlap>
1771.801

> <ROCS_Rank>
470                 

$$$$
untitled-dbase-233_13
  -OEChem-11112309163D

 30 31  0     1  0  0  0  0  0999 V2000
    6.2708   10.9450   25.9540 C   0  0  0  0  0  0  0  0  0  0  0  0
    6.7530   12.2457   26.1645 C   0  0  0  0  0  0  0  0  0  0  0  0
    6.8768   10.1047   25.0185 C   0  0  0  0  0  0  0  0  0  0  0  0
    7.8484   12.7251   25.4425 C   0  0  0  0  0  0  0  0  0  0  0  0
    7.9704   10.5832   24.3157 C   0  0  0  0  0  0  0  0  0  0  0  0
    8.4557   11.8832   24.5215 C   0  0  0  0  0  0  0  0  0  0  0  0
   10.7393   12.8895   24.2892 C   0  0  0  0  0  0  0  0  0  0  0  0
    8.7468    9.8812   23.2464 C   0  0  0  0  0  0  0  0  0  0  0  0
   10.0249   10.7335   23.2048 C   0  0  0  0  0  0  0  0  0  0  0  0
    9.6171   12.1707   23.6064 C   0  0  1  0  0  0  0  0  0  0  0  0
    8.1994   12.2274   21.6652 C   0  0  0  0  0  0  0  0  0  0  0  0
   10.3653   13.2652   21.6005 C   0  0  0  0  0  0  0  0  0  0  0  0
    9.2089   12.9498   22.4416 N   0  0  0  0  0  0  0  0  0  0  0  0
   11.6771   12.3488   24.8562 O   0  0  0  0  0  0  0  0  0  0  0  0
   10.5746   14.2317   24.1968 O   0  0  0  0  0  0  0  0  0  0  0  0
    5.4215   10.5872   26.5297 H   0  0  0  0  0  0  0  0  0  0  0  0
    6.2722   12.8837   26.9013 H   0  0  0  0  0  0  0  0  0  0  0  0
    6.4970    9.1024   24.8511 H   0  0  0  0  0  0  0  0  0  0  0  0
    8.2122   13.7337   25.6086 H   0  0  0  0  0  0  0  0  0  0  0  0
    8.9623    8.8520   23.5502 H   0  0  0  0  0  0  0  0  0  0  0  0
    8.2310    9.8883   22.2825 H   0  0  0  0  0  0  0  0  0  0  0  0
   10.8119   10.3103   23.8427 H   0  0  0  0  0  0  0  0  0  0  0  0
   10.4127   10.7205   22.1733 H   0  0  0  0  0  0  0  0  0  0  0  0
    7.9057   12.8305   20.7934 H   0  0  0  0  0  0  0  0  0  0  0  0
    8.6165   11.2685   21.3238 H   0  0  0  0  0  0  0  0  0  0  0  0
    7.3173   12.0401   22.2951 H   0  0  0  0  0  0  0  0  0  0  0  0
   10.0370   13.8517   20.7297 H   0  0  0  0  0  0  0  0  0  0  0  0
   11.0934   13.8495   22.1825 H   0  0  0  0  0  0  0  0  0  0  0  0
   10.8348   12.3314   21.2576 H   0  0  0  0  0  0  0  0  0  0  0  0
    9.7604   14.4678   23.7032 H   0  0  0  0  0  0  0  0  0  0  0  0
  1  2  2  0  0  0  0
  1  3  1  0  0  0  0
  2  4  1  0  0  0  0
  3  5  2  0  0  0  0
  4  6  2  0  0  0  0
  5  6  1  0  0  0  0
  5  8  1  0  0  0  0
  6 10  1  0  0  0  0
  7 10  1  0  0  0  0
  7 14  2  0  0  0  0
  7 15  1  0  0  0  0
  8  9  1  0  0  0  0
  9 10  1  0  0  0  0
 10 13  1  0  0  0  0
 11 13  1  0  0  0  0
 12 13  1  0  0  0  0
  1 16  1  0  0  0  0
  2 17  1  0  0  0  0
  3 18  1  0  0  0  0
  4 19  1  0  0  0  0
  8 20  1  0  0  0  0
  8 21  1  0  0  0  0
  9 22  1  0  0  0  0
  9 23  1  0  0  0  0
 11 24  1  0  0  0  0
 11 25  1  0  0  0  0
 11 26  1  0  0  0  0
 12 27  1  0  0  0  0
 12 28  1  0  0  0  0
 12 29  1  0  0  0  0
 15 30  1  0  0  0  0
M  END
> <Catalog ID>
Z1222278669

> <PlateID>
1337959-R-03

> <Well>
H05

> <MW (desalted)>
205.253

> <CLogP>
2.870

> <HBD>
1

> <TPSA>
40.540

> <RotBonds>
2

> <ROCS_ShapeQuery>
A71EV2A-x0451_0A_A71EV2A-x0310_0A_A71EV2A-x0416_0A_peptide

> <ROCS_TanimotoCombo>
0.395 

> <ROCS_ShapeTanimoto>
0.263 

> <ROCS_ColorTanimoto>
0.132 

> <ROCS_RefTversky>
0.239 

> <ROCS_RefColorTversky>
0.145 

> <ROCS_RefTverskyCombo>
0.383 

> <ROCS_FitTversky>
1.641 

> <ROCS_FitColorTversky>
0.602 

> <ROCS_FitTverskyCombo>
2.243 

> <ROCS_ColorScore>
-4.401

> <ROCS_Overlap>
1654.340

> <ROCS_Rank>
471                 

$$$$
untitled-dbase-154_3
  -OEChem-11112309163D

 30 31  0     1  0  0  0  0  0999 V2000
   10.0344   12.8767   23.9043 C   0  0  0  0  0  0  0  0  0  0  0  0
   10.5515   14.2934   22.2602 C   0  0  0  0  0  0  0  0  0  0  0  0
   10.0574   12.8994   22.4174 C   0  0  0  0  0  0  0  0  0  0  0  0
    9.9558   10.3974   23.8956 C   0  0  0  0  0  0  0  0  0  0  0  0
    7.6338   10.5934   23.8240 C   0  0  0  0  0  0  0  0  0  0  0  0
    9.5991   11.6674   24.6800 C   0  0  2  0  0  0  0  0  0  0  0  0
    8.0718   11.5844   24.9083 C   0  0  0  0  0  0  0  0  0  0  0  0
   10.7823   14.9076   20.9254 C   0  0  0  0  0  0  0  0  0  0  0  0
    7.7959   11.0057   26.3145 C   0  0  0  0  0  0  0  0  0  0  0  0
    7.3143   12.9112   24.7828 C   0  0  0  0  0  0  0  0  0  0  0  0
   10.4222   13.9915   24.4429 N   0  0  0  0  0  0  0  0  0  0  0  0
   10.7536   14.8990   23.3898 N   0  0  0  0  0  0  0  0  0  0  0  0
    8.7206    9.6167   23.8076 N   0  0  0  0  0  0  0  0  0  0  0  0
   10.7668   12.1748   22.0160 H   0  0  0  0  0  0  0  0  0  0  0  0
    9.0582   12.7771   21.9980 H   0  0  0  0  0  0  0  0  0  0  0  0
   10.3440   10.6074   22.8949 H   0  0  0  0  0  0  0  0  0  0  0  0
   10.7172    9.8241   24.4330 H   0  0  0  0  0  0  0  0  0  0  0  0
    6.6957   10.0909   24.0856 H   0  0  0  0  0  0  0  0  0  0  0  0
    7.5039   11.0614   22.8442 H   0  0  0  0  0  0  0  0  0  0  0  0
   10.1358   11.6749   25.6092 H   0  0  0  0  0  0  0  0  0  0  0  0
    9.8738   15.4042   20.5785 H   0  0  0  0  0  0  0  0  0  0  0  0
   11.0652   14.1397   20.2020 H   0  0  0  0  0  0  0  0  0  0  0  0
   11.5881   15.6425   20.9843 H   0  0  0  0  0  0  0  0  0  0  0  0
    8.1118   11.7200   27.0708 H   0  0  0  0  0  0  0  0  0  0  0  0
    8.3485   10.0782   26.4416 H   0  0  0  0  0  0  0  0  0  0  0  0
    6.7323   10.8098   26.4255 H   0  0  0  0  0  0  0  0  0  0  0  0
    7.6490   13.5844   25.5631 H   0  0  0  0  0  0  0  0  0  0  0  0
    6.2524   12.7231   24.8885 H   0  0  0  0  0  0  0  0  0  0  0  0
    7.5175   13.3435   23.8102 H   0  0  0  0  0  0  0  0  0  0  0  0
    8.7075    9.1235   22.9190 H   0  0  0  0  0  0  0  0  0  0  0  0
  1  3  1  0  0  0  0
  1  6  1  0  0  0  0
  1 11  2  0  0  0  0
  2  3  1  0  0  0  0
  2  8  1  0  0  0  0
  2 12  2  0  0  0  0
  4  6  1  0  0  0  0
  4 13  1  0  0  0  0
  5  7  1  0  0  0  0
  5 13  1  0  0  0  0
  6  7  1  0  0  0  0
  7  9  1  0  0  0  0
  7 10  1  0  0  0  0
 11 12  1  0  0  0  0
  3 14  1  0  0  0  0
  3 15  1  0  0  0  0
  4 16  1  0  0  0  0
  4 17  1  0  0  0  0
  5 18  1  0  0  0  0
  5 19  1  0  0  0  0
  6 20  1  0  0  0  0
  8 21  1  0  0  0  0
  8 22  1  0  0  0  0
  8 23  1  0  0  0  0
  9 24  1  0  0  0  0
  9 25  1  0  0  0  0
  9 26  1  0  0  0  0
 10 27  1  0  0  0  0
 10 28  1  0  0  0  0
 10 29  1  0  0  0  0
 13 30  1  0  0  0  0
M  END
> <Catalog ID>
Z4272589291

> <PlateID>
1337959-R-02

> <Well>
H06

> <MW (desalted)>
179.262

> <CLogP>
1.110

> <HBD>
2

> <TPSA>
40.710

> <RotBonds>
1

> <ROCS_ShapeQuery>
A71EV2A-x0451_0A_A71EV2A-x0310_0A_A71EV2A-x0416_0A_peptide

> <ROCS_TanimotoCombo>
0.395 

> <ROCS_ShapeTanimoto>
0.247 

> <ROCS_ColorTanimoto>
0.148 

> <ROCS_RefTversky>
0.224 

> <ROCS_RefColorTversky>
0.165 

> <ROCS_RefTverskyCombo>
0.389 

> <ROCS_FitTversky>
1.718 

> <ROCS_FitColorTversky>
0.592 

> <ROCS_FitTverskyCombo>
2.310 

> <ROCS_ColorScore>
-5.023

> <ROCS_Overlap>
1551.696

> <ROCS_Rank>
472                 

$$$$
untitled-dbase-972_23
  -OEChem-11112309163D

 29 30  0     0  0  0  0  0  0999 V2000
   13.0872   13.8743   23.0499 C   0  0  0  0  0  0  0  0  0  0  0  0
    7.9906   12.2127   23.9862 C   0  0  0  0  0  0  0  0  0  0  0  0
    9.3304   11.9334   23.8161 C   0  0  0  0  0  0  0  0  0  0  0  0
    8.6153    9.8963   24.2021 C   0  0  0  0  0  0  0  0  0  0  0  0
   10.3482   12.9542   23.5203 C   0  0  0  0  0  0  0  0  0  0  0  0
   12.4959   15.2790   20.4631 C   0  0  0  0  0  0  0  0  0  0  0  0
   11.4740   15.2150   21.6151 C   0  0  0  0  0  0  0  0  0  0  0  0
   12.6103   13.7446   20.5567 C   0  0  0  0  0  0  0  0  0  0  0  0
   12.0788   13.8413   22.0122 C   0  0  0  0  0  0  0  0  0  0  0  0
    8.6073    8.4305   24.3997 C   0  0  0  0  0  0  0  0  0  0  0  0
   10.9262   11.7619   21.3572 C   0  0  0  0  0  0  0  0  0  0  0  0
   13.8956   13.9008   23.8818 N   0  0  0  0  0  0  0  0  0  0  0  0
    9.6906   10.6057   23.9399 N   0  0  0  0  0  0  0  0  0  0  0  0
   11.0745   12.8325   22.3356 N   0  0  0  0  0  0  0  0  0  0  0  0
   10.4717   13.8557   24.3486 O   0  0  0  0  0  0  0  0  0  0  0  0
    7.1373   10.7614   24.3130 S   0  0  0  0  0  0  0  0  0  0  0  0
    7.4835   13.1661   23.9359 H   0  0  0  0  0  0  0  0  0  0  0  0
   12.0725   15.6335   19.5159 H   0  0  0  0  0  0  0  0  0  0  0  0
   13.4126   15.8371   20.6720 H   0  0  0  0  0  0  0  0  0  0  0  0
   11.6118   16.0092   22.3606 H   0  0  0  0  0  0  0  0  0  0  0  0
   10.4240   15.2166   21.3041 H   0  0  0  0  0  0  0  0  0  0  0  0
   11.9908   13.1893   19.8447 H   0  0  0  0  0  0  0  0  0  0  0  0
   13.6428   13.3815   20.4689 H   0  0  0  0  0  0  0  0  0  0  0  0
    8.7617    8.1748   25.4597 H   0  0  0  0  0  0  0  0  0  0  0  0
    7.6551    7.9778   24.0784 H   0  0  0  0  0  0  0  0  0  0  0  0
    9.3973    7.9328   23.8137 H   0  0  0  0  0  0  0  0  0  0  0  0
   10.1689   12.0476   20.6123 H   0  0  0  0  0  0  0  0  0  0  0  0
   11.8888   11.5895   20.8536 H   0  0  0  0  0  0  0  0  0  0  0  0
   10.6090   10.8404   21.8674 H   0  0  0  0  0  0  0  0  0  0  0  0
  1  9  1  0  0  0  0
  1 12  3  0  0  0  0
  2  3  2  0  0  0  0
  2 16  1  0  0  0  0
  3  5  1  0  0  0  0
  3 13  1  0  0  0  0
  4 10  1  0  0  0  0
  4 13  2  0  0  0  0
  4 16  1  0  0  0  0
  5 14  1  0  0  0  0
  5 15  2  0  0  0  0
  6  7  1  0  0  0  0
  6  8  1  0  0  0  0
  7  9  1  0  0  0  0
  8  9  1  0  0  0  0
  9 14  1  0  0  0  0
 11 14  1  0  0  0  0
  2 17  1  0  0  0  0
  6 18  1  0  0  0  0
  6 19  1  0  0  0  0
  7 20  1  0  0  0  0
  7 21  1  0  0  0  0
  8 22  1  0  0  0  0
  8 23  1  0  0  0  0
 10 24  1  0  0  0  0
 10 25  1  0  0  0  0
 10 26  1  0  0  0  0
 11 27  1  0  0  0  0
 11 28  1  0  0  0  0
 11 29  1  0  0  0  0
M  END
> <Catalog ID>
Z878665180

> <PlateID>
1337959-R-13

> <Well>
B07

> <MW (desalted)>
235.305

> <CLogP>
0.339

> <HBD>
0

> <TPSA>
56.990

> <RotBonds>
2

> <ROCS_ShapeQuery>
A71EV2A-x0451_0A_A71EV2A-x0310_0A_A71EV2A-x0416_0A_peptide

> <ROCS_TanimotoCombo>
0.395 

> <ROCS_ShapeTanimoto>
0.264 

> <ROCS_ColorTanimoto>
0.131 

> <ROCS_RefTversky>
0.240 

> <ROCS_RefColorTversky>
0.140 

> <ROCS_RefTverskyCombo>
0.380 

> <ROCS_FitTversky>
1.619 

> <ROCS_FitColorTversky>
0.673 

> <ROCS_FitTverskyCombo>
2.291 

> <ROCS_ColorScore>
-4.263

> <ROCS_Overlap>
1660.220

> <ROCS_Rank>
473                 

$$$$
untitled-dbase-1015_1
  -OEChem-11112309163D

 26 27  0     0  0  0  0  0  0999 V2000
    9.0773    9.7541   23.6465 C   0  0  0  0  0  0  0  0  0  0  0  0
    7.4199   11.1848   24.6677 C   0  0  0  0  0  0  0  0  0  0  0  0
    9.4187   12.1450   23.7086 C   0  0  0  0  0  0  0  0  0  0  0  0
    7.8586    9.9109   24.3066 C   0  0  0  0  0  0  0  0  0  0  0  0
    9.8574   10.8712   23.3475 C   0  0  0  0  0  0  0  0  0  0  0  0
    8.1999   12.3019   24.3687 C   0  0  0  0  0  0  0  0  0  0  0  0
   10.2351   13.3135   23.3943 C   0  0  0  0  0  0  0  0  0  0  0  0
   10.2862   13.6585   19.7055 C   0  0  0  0  0  0  0  0  0  0  0  0
   11.4659   14.5236   20.1295 C   0  0  0  0  0  0  0  0  0  0  0  0
   10.0968   12.7368   20.9023 C   0  0  0  0  0  0  0  0  0  0  0  0
   11.2037   14.7480   21.6106 C   0  0  0  0  0  0  0  0  0  0  0  0
   10.5108   13.5442   22.0495 N   0  0  0  0  0  0  0  0  0  0  0  0
   10.6276   14.0521   24.2970 O   0  0  0  0  0  0  0  0  0  0  0  0
    7.1095    8.8383   24.5933 F   0  0  0  0  0  0  0  0  0  0  0  0
   11.0266   10.7086   22.7123 F   0  0  0  0  0  0  0  0  0  0  0  0
    7.7681   13.5212   24.7207 F   0  0  0  0  0  0  0  0  0  0  0  0
    9.4183    8.7622   23.3654 H   0  0  0  0  0  0  0  0  0  0  0  0
    6.4702   11.3063   25.1803 H   0  0  0  0  0  0  0  0  0  0  0  0
    9.3946   14.2794   19.5582 H   0  0  0  0  0  0  0  0  0  0  0  0
   10.4848   13.1093   18.7810 H   0  0  0  0  0  0  0  0  0  0  0  0
   12.4059   13.9774   19.9877 H   0  0  0  0  0  0  0  0  0  0  0  0
   11.5186   15.4594   19.5663 H   0  0  0  0  0  0  0  0  0  0  0  0
    9.0639   12.3947   21.0127 H   0  0  0  0  0  0  0  0  0  0  0  0
   10.7603   11.8667   20.8483 H   0  0  0  0  0  0  0  0  0  0  0  0
   12.1175   14.9038   22.1916 H   0  0  0  0  0  0  0  0  0  0  0  0
   10.5315   15.5971   21.7763 H   0  0  0  0  0  0  0  0  0  0  0  0
  1  4  2  0  0  0  0
  1  5  1  0  0  0  0
  2  4  1  0  0  0  0
  2  6  2  0  0  0  0
  3  5  2  0  0  0  0
  3  6  1  0  0  0  0
  3  7  1  0  0  0  0
  4 14  1  0  0  0  0
  5 15  1  0  0  0  0
  6 16  1  0  0  0  0
  7 12  1  0  0  0  0
  7 13  2  0  0  0  0
  8  9  1  0  0  0  0
  8 10  1  0  0  0  0
  9 11  1  0  0  0  0
 10 12  1  0  0  0  0
 11 12  1  0  0  0  0
  1 17  1  0  0  0  0
  2 18  1  0  0  0  0
  8 19  1  0  0  0  0
  8 20  1  0  0  0  0
  9 21  1  0  0  0  0
  9 22  1  0  0  0  0
 10 23  1  0  0  0  0
 10 24  1  0  0  0  0
 11 25  1  0  0  0  0
 11 26  1  0  0  0  0
M  END
> <Catalog ID>
Z1258715612

> <PlateID>
1337959-R-13

> <Well>
F10

> <MW (desalted)>
229.198

> <CLogP>
1.781

> <HBD>
0

> <TPSA>
20.310

> <RotBonds>
1

> <ROCS_ShapeQuery>
A71EV2A-x0451_0A_A71EV2A-x0310_0A_A71EV2A-x0416_0A_peptide

> <ROCS_TanimotoCombo>
0.395 

> <ROCS_ShapeTanimoto>
0.287 

> <ROCS_ColorTanimoto>
0.108 

> <ROCS_RefTversky>
0.256 

> <ROCS_RefColorTversky>
0.112 

> <ROCS_RefTverskyCombo>
0.369 

> <ROCS_FitTversky>
1.695 

> <ROCS_FitColorTversky>
0.765 

> <ROCS_FitTverskyCombo>
2.460 

> <ROCS_ColorScore>
-3.394

> <ROCS_Overlap>
1777.923

> <ROCS_Rank>
474                 

$$$$
untitled-dbase-1120_2
  -OEChem-11112309163D

 24 26  0     0  0  0  0  0  0999 V2000
    6.8116    9.6652   24.6891 C   0  0  0  0  0  0  0  0  0  0  0  0
    8.3366   11.9565   24.7202 C   0  0  0  0  0  0  0  0  0  0  0  0
    8.3102   11.0143   22.8186 C   0  0  0  0  0  0  0  0  0  0  0  0
    9.4912   10.2072   24.3866 C   0  0  0  0  0  0  0  0  0  0  0  0
   11.2713   13.0516   24.4706 C   0  0  0  0  0  0  0  0  0  0  0  0
   10.1226   13.8364   22.9460 C   0  0  0  0  0  0  0  0  0  0  0  0
   10.5605   12.4114   23.2796 C   0  0  0  0  0  0  0  0  0  0  0  0
    7.9559   10.5054   24.2600 C   0  0  0  0  0  0  0  0  0  0  0  0
    9.4268   11.5820   23.7063 C   0  0  0  0  0  0  0  0  0  0  0  0
    6.5788    8.5363   24.2833 O   0  0  0  0  0  0  0  0  0  0  0  0
   10.6838   14.3431   24.1809 O   0  0  0  0  0  0  0  0  0  0  0  0
    6.0495   10.3221   25.5974 O   0  0  0  0  0  0  0  0  0  0  0  0
    7.6491   12.7629   24.4442 H   0  0  0  0  0  0  0  0  0  0  0  0
    8.6427   12.0834   25.7639 H   0  0  0  0  0  0  0  0  0  0  0  0
    8.5921   10.2579   22.0786 H   0  0  0  0  0  0  0  0  0  0  0  0
    7.6206   11.7303   22.3595 H   0  0  0  0  0  0  0  0  0  0  0  0
    9.9088   10.1661   25.3981 H   0  0  0  0  0  0  0  0  0  0  0  0
    9.8869    9.3730   23.7976 H   0  0  0  0  0  0  0  0  0  0  0  0
   10.9895   12.6934   25.4651 H   0  0  0  0  0  0  0  0  0  0  0  0
   12.3624   13.0909   24.3941 H   0  0  0  0  0  0  0  0  0  0  0  0
   10.6171   14.2802   22.0761 H   0  0  0  0  0  0  0  0  0  0  0  0
    9.0461   14.0211   22.8857 H   0  0  0  0  0  0  0  0  0  0  0  0
   11.2191   11.9440   22.5429 H   0  0  0  0  0  0  0  0  0  0  0  0
    5.2850    9.7828   25.8927 H   0  0  0  0  0  0  0  0  0  0  0  0
  1  8  1  0  0  0  0
  1 10  2  0  0  0  0
  1 12  1  0  0  0  0
  2  8  1  0  0  0  0
  2  9  1  0  0  0  0
  3  8  1  0  0  0  0
  3  9  1  0  0  0  0
  4  8  1  0  0  0  0
  4  9  1  0  0  0  0
  5  7  1  0  0  0  0
  5 11  1  0  0  0  0
  6  7  1  0  0  0  0
  6 11  1  0  0  0  0
  7  9  1  0  0  0  0
  2 13  1  0  0  0  0
  2 14  1  0  0  0  0
  3 15  1  0  0  0  0
  3 16  1  0  0  0  0
  4 17  1  0  0  0  0
  4 18  1  0  0  0  0
  5 19  1  0  0  0  0
  5 20  1  0  0  0  0
  6 21  1  0  0  0  0
  6 22  1  0  0  0  0
  7 23  1  0  0  0  0
 12 24  1  0  0  0  0
M  END
> <Catalog ID>
Z3589635022

> <PlateID>
1337959-R-15

> <Well>
A06

> <MW (desalted)>
168.190

> <CLogP>
-0.493

> <HBD>
1

> <TPSA>
46.530

> <RotBonds>
2

> <ROCS_ShapeQuery>
A71EV2A-x0451_0A_A71EV2A-x0310_0A_A71EV2A-x0416_0A_peptide

> <ROCS_TanimotoCombo>
0.395 

> <ROCS_ShapeTanimoto>
0.226 

> <ROCS_ColorTanimoto>
0.169 

> <ROCS_RefTversky>
0.207 

> <ROCS_RefColorTversky>
0.209 

> <ROCS_RefTverskyCombo>
0.416 

> <ROCS_FitTversky>
1.638 

> <ROCS_FitColorTversky>
0.475 

> <ROCS_FitTverskyCombo>
2.113 

> <ROCS_ColorScore>
-6.412

> <ROCS_Overlap>
1435.135

> <ROCS_Rank>
475                 

$$$$
untitled-dbase-847_36
  -OEChem-11112309163D

 32 33  0     1  0  0  0  0  0999 V2000
    9.8710   10.8856   23.3315 C   0  0  0  0  0  0  0  0  0  0  0  0
    9.0984    9.7674   23.6448 C   0  0  0  0  0  0  0  0  0  0  0  0
    7.4440   11.1980   24.6713 C   0  0  0  0  0  0  0  0  0  0  0  0
    9.4302   12.1601   23.6881 C   0  0  0  0  0  0  0  0  0  0  0  0
    7.8849    9.9236   24.3147 C   0  0  0  0  0  0  0  0  0  0  0  0
    8.2167   12.3163   24.3580 C   0  0  0  0  0  0  0  0  0  0  0  0
   10.2470   13.3369   23.3559 C   0  0  0  0  0  0  0  0  0  0  0  0
   11.2614   14.1892   19.1846 C   0  0  0  0  0  0  0  0  0  0  0  0
   11.0137   12.7725   19.7007 C   0  0  0  0  0  0  0  0  0  0  0  0
   10.9787   15.2665   20.2306 C   0  0  0  0  0  0  0  0  0  0  0  0
   10.0688   12.7401   20.8953 C   0  0  0  0  0  0  0  0  0  0  0  0
   11.2865   14.8092   21.6608 C   0  0  2  0  0  0  0  0  0  0  0  0
   12.7888   14.6222   21.8950 C   0  0  0  0  0  0  0  0  0  0  0  0
   10.5315   13.5894   22.0061 N   0  0  0  0  0  0  0  0  0  0  0  0
   10.6196   14.0280   24.3034 O   0  0  0  0  0  0  0  0  0  0  0  0
    7.1429    8.8498   24.6158 F   0  0  0  0  0  0  0  0  0  0  0  0
    7.7835   13.5362   24.7055 F   0  0  0  0  0  0  0  0  0  0  0  0
   10.8147   10.7515   22.8091 H   0  0  0  0  0  0  0  0  0  0  0  0
    9.4412    8.7750   23.3674 H   0  0  0  0  0  0  0  0  0  0  0  0
    6.4993   11.3194   25.1929 H   0  0  0  0  0  0  0  0  0  0  0  0
   12.3065   14.2759   18.8258 H   0  0  0  0  0  0  0  0  0  0  0  0
   10.6311   14.3695   18.2915 H   0  0  0  0  0  0  0  0  0  0  0  0
   10.5992   12.1542   18.8888 H   0  0  0  0  0  0  0  0  0  0  0  0
   11.9744   12.3137   19.9782 H   0  0  0  0  0  0  0  0  0  0  0  0
   11.5509   16.1715   19.9878 H   0  0  0  0  0  0  0  0  0  0  0  0
    9.9178   15.5482   20.1688 H   0  0  0  0  0  0  0  0  0  0  0  0
    9.0670   13.0341   20.5644 H   0  0  0  0  0  0  0  0  0  0  0  0
    9.9829   11.7174   21.2860 H   0  0  0  0  0  0  0  0  0  0  0  0
   10.9628   15.6140   22.3320 H   0  0  0  0  0  0  0  0  0  0  0  0
   13.1631   13.8307   21.2502 H   0  0  0  0  0  0  0  0  0  0  0  0
   12.9656   14.3538   22.9338 H   0  0  0  0  0  0  0  0  0  0  0  0
   13.3116   15.5484   21.6684 H   0  0  0  0  0  0  0  0  0  0  0  0
  1  2  1  0  0  0  0
  1  4  2  0  0  0  0
  2  5  2  0  0  0  0
  3  5  1  0  0  0  0
  3  6  2  0  0  0  0
  4  6  1  0  0  0  0
  4  7  1  0  0  0  0
  5 16  1  0  0  0  0
  6 17  1  0  0  0  0
  7 14  1  0  0  0  0
  7 15  2  0  0  0  0
  8  9  1  0  0  0  0
  8 10  1  0  0  0  0
  9 11  1  0  0  0  0
 10 12  1  0  0  0  0
 11 14  1  0  0  0  0
 12 13  1  0  0  0  0
 12 14  1  0  0  0  0
  1 18  1  0  0  0  0
  2 19  1  0  0  0  0
  3 20  1  0  0  0  0
  8 21  1  0  0  0  0
  8 22  1  0  0  0  0
  9 23  1  0  0  0  0
  9 24  1  0  0  0  0
 10 25  1  0  0  0  0
 10 26  1  0  0  0  0
 11 27  1  0  0  0  0
 11 28  1  0  0  0  0
 12 29  1  0  0  0  0
 13 30  1  0  0  0  0
 13 31  1  0  0  0  0
 13 32  1  0  0  0  0
M  END
> <Catalog ID>
Z32968460

> <PlateID>
1337959-R-11

> <Well>
E11

> <MW (desalted)>
239.261

> <CLogP>
2.707

> <HBD>
0

> <TPSA>
20.310

> <RotBonds>
1

> <ROCS_ShapeQuery>
A71EV2A-x0451_0A_A71EV2A-x0310_0A_A71EV2A-x0416_0A_peptide

> <ROCS_TanimotoCombo>
0.395 

> <ROCS_ShapeTanimoto>
0.286 

> <ROCS_ColorTanimoto>
0.109 

> <ROCS_RefTversky>
0.257 

> <ROCS_RefColorTversky>
0.112 

> <ROCS_RefTverskyCombo>
0.369 

> <ROCS_FitTversky>
1.656 

> <ROCS_FitColorTversky>
0.766 

> <ROCS_FitTverskyCombo>
2.423 

> <ROCS_ColorScore>
-3.399

> <ROCS_Overlap>
1783.208

> <ROCS_Rank>
476                 

$$$$
untitled-dbase-800_352
  -OEChem-11112309163D

 28 28  0     0  0  0  0  0  0999 V2000
    6.8644   11.0599   25.9795 C   0  0  0  0  0  0  0  0  0  0  0  0
    7.6833   10.1526   25.3075 C   0  0  0  0  0  0  0  0  0  0  0  0
    6.8913   12.4114   25.6352 C   0  0  0  0  0  0  0  0  0  0  0  0
    8.5293   10.5967   24.2912 C   0  0  0  0  0  0  0  0  0  0  0  0
    8.5563   11.9482   23.9470 C   0  0  0  0  0  0  0  0  0  0  0  0
    7.7373   12.8555   24.6190 C   0  0  0  0  0  0  0  0  0  0  0  0
    9.3716    9.6226   23.6085 C   0  0  0  0  0  0  0  0  0  0  0  0
   10.4064   13.3992   23.2067 C   0  0  0  0  0  0  0  0  0  0  0  0
   11.7399   15.3189   22.2174 C   0  0  0  0  0  0  0  0  0  0  0  0
    9.2640   11.8925   21.5338 C   0  0  0  0  0  0  0  0  0  0  0  0
   11.2569   13.8877   22.0375 C   0  0  0  0  0  0  0  0  0  0  0  0
    9.4277   12.4296   22.8938 N   0  0  0  0  0  0  0  0  0  0  0  0
   10.4757    9.8588   23.1118 O   0  0  0  0  0  0  0  0  0  0  0  0
   10.5877   13.8833   24.3268 O   0  0  0  0  0  0  0  0  0  0  0  0
    8.8063    8.3862   23.5708 O   0  0  0  0  0  0  0  0  0  0  0  0
    7.7537   14.1569   24.2965 F   0  0  0  0  0  0  0  0  0  0  0  0
    6.2056   10.7139   26.7705 H   0  0  0  0  0  0  0  0  0  0  0  0
    7.6524    9.1021   25.5853 H   0  0  0  0  0  0  0  0  0  0  0  0
    6.2534   13.1178   26.1579 H   0  0  0  0  0  0  0  0  0  0  0  0
   12.3377   15.4066   23.1298 H   0  0  0  0  0  0  0  0  0  0  0  0
   10.8959   16.0125   22.2938 H   0  0  0  0  0  0  0  0  0  0  0  0
   12.3597   15.6344   21.3715 H   0  0  0  0  0  0  0  0  0  0  0  0
    8.5452   12.5126   20.9782 H   0  0  0  0  0  0  0  0  0  0  0  0
   10.2345   11.9035   21.0162 H   0  0  0  0  0  0  0  0  0  0  0  0
    8.8902   10.8595   21.5902 H   0  0  0  0  0  0  0  0  0  0  0  0
   10.6635   13.8332   21.1186 H   0  0  0  0  0  0  0  0  0  0  0  0
   12.1321   13.2361   21.9439 H   0  0  0  0  0  0  0  0  0  0  0  0
    7.9279    8.3531   24.0065 H   0  0  0  0  0  0  0  0  0  0  0  0
  1  2  1  0  0  0  0
  1  3  2  0  0  0  0
  2  4  2  0  0  0  0
  3  6  1  0  0  0  0
  4  5  1  0  0  0  0
  4  7  1  0  0  0  0
  5  6  2  0  0  0  0
  5 12  1  0  0  0  0
  6 16  1  0  0  0  0
  7 13  2  0  0  0  0
  7 15  1  0  0  0  0
  8 11  1  0  0  0  0
  8 12  1  0  0  0  0
  8 14  2  0  0  0  0
  9 11  1  0  0  0  0
 10 12  1  0  0  0  0
  1 17  1  0  0  0  0
  2 18  1  0  0  0  0
  3 19  1  0  0  0  0
  9 20  1  0  0  0  0
  9 21  1  0  0  0  0
  9 22  1  0  0  0  0
 10 23  1  0  0  0  0
 10 24  1  0  0  0  0
 10 25  1  0  0  0  0
 11 26  1  0  0  0  0
 11 27  1  0  0  0  0
 15 28  1  0  0  0  0
M  END
> <Catalog ID>
Z910841134

> <PlateID>
1337959-R-11

> <Well>
A03

> <MW (desalted)>
225.216

> <CLogP>
2.900

> <HBD>
1

> <TPSA>
57.610

> <RotBonds>
3

> <ROCS_ShapeQuery>
A71EV2A-x0451_0A_A71EV2A-x0310_0A_A71EV2A-x0416_0A_peptide

> <ROCS_TanimotoCombo>
0.395 

> <ROCS_ShapeTanimoto>
0.307 

> <ROCS_ColorTanimoto>
0.088 

> <ROCS_RefTversky>
0.270 

> <ROCS_RefColorTversky>
0.100 

> <ROCS_RefTverskyCombo>
0.370 

> <ROCS_FitTversky>
1.808 

> <ROCS_FitColorTversky>
0.417 

> <ROCS_FitTverskyCombo>
2.224 

> <ROCS_ColorScore>
-3.039

> <ROCS_Overlap>
1872.530

> <ROCS_Rank>
477                 

$$$$
untitled-dbase-427_12
  -OEChem-11112309163D

 35 36  0     1  0  0  0  0  0999 V2000
   10.2120   11.0183   23.4646 C   0  0  0  0  0  0  0  0  0  0  0  0
    8.1404   12.3977   23.9034 C   0  0  0  0  0  0  0  0  0  0  0  0
   11.6627   14.4397   22.9876 C   0  0  0  0  0  0  0  0  0  0  0  0
    9.7831   13.2148   22.2038 C   0  0  0  0  0  0  0  0  0  0  0  0
    9.1067    9.9922   23.2613 C   0  0  0  0  0  0  0  0  0  0  0  0
   11.5927   13.7271   24.3371 C   0  0  2  0  0  0  0  0  0  0  0  0
    9.6483   12.4547   23.5426 C   0  0  2  0  0  0  0  0  0  0  0  0
    7.7633   11.2354   24.8481 C   0  0  0  0  0  0  0  0  0  0  0  0
   12.6916   12.6844   24.5236 C   0  0  0  0  0  0  0  0  0  0  0  0
    8.3255   11.4336   26.2615 C   0  0  0  0  0  0  0  0  0  0  0  0
    6.2343   11.1361   24.9409 C   0  0  0  0  0  0  0  0  0  0  0  0
   11.1719   13.5747   21.9175 N   0  0  0  0  0  0  0  0  0  0  0  0
    8.2230    9.9594   24.3782 O   0  0  0  0  0  0  0  0  0  0  0  0
   10.2856   13.2027   24.5951 O   0  0  0  0  0  0  0  0  0  0  0  0
   10.7598   10.7720   24.3817 H   0  0  0  0  0  0  0  0  0  0  0  0
   10.9137   10.9528   22.6236 H   0  0  0  0  0  0  0  0  0  0  0  0
    7.7872   13.3384   24.3352 H   0  0  0  0  0  0  0  0  0  0  0  0
    7.5917   12.2633   22.9614 H   0  0  0  0  0  0  0  0  0  0  0  0
   11.0636   15.3607   23.0118 H   0  0  0  0  0  0  0  0  0  0  0  0
   12.6959   14.7422   22.7590 H   0  0  0  0  0  0  0  0  0  0  0  0
    9.4037   12.5986   21.3754 H   0  0  0  0  0  0  0  0  0  0  0  0
    9.1720   14.1274   22.2142 H   0  0  0  0  0  0  0  0  0  0  0  0
    8.5111   10.2699   22.3854 H   0  0  0  0  0  0  0  0  0  0  0  0
    9.5076    8.9931   23.0645 H   0  0  0  0  0  0  0  0  0  0  0  0
   11.7896   14.5227   25.1481 H   0  0  0  0  0  0  0  0  0  0  0  0
   12.5779   11.8877   23.7885 H   0  0  0  0  0  0  0  0  0  0  0  0
   12.6315   12.2545   25.5234 H   0  0  0  0  0  0  0  0  0  0  0  0
   13.6700   13.1473   24.3955 H   0  0  0  0  0  0  0  0  0  0  0  0
    8.0351   10.5943   26.8865 H   0  0  0  0  0  0  0  0  0  0  0  0
    7.9292   12.3533   26.6818 H   0  0  0  0  0  0  0  0  0  0  0  0
    9.4089   11.4933   26.2140 H   0  0  0  0  0  0  0  0  0  0  0  0
    5.9679   10.3198   25.6043 H   0  0  0  0  0  0  0  0  0  0  0  0
    5.8267   10.9509   23.9524 H   0  0  0  0  0  0  0  0  0  0  0  0
    5.8378   12.0679   25.3308 H   0  0  0  0  0  0  0  0  0  0  0  0
   11.2219   14.0694   21.0303 H   0  0  0  0  0  0  0  0  0  0  0  0
  1  5  1  0  0  0  0
  1  7  1  0  0  0  0
  2  7  1  0  0  0  0
  2  8  1  0  0  0  0
  3  6  1  0  0  0  0
  3 12  1  0  0  0  0
  4  7  1  0  0  0  0
  4 12  1  0  0  0  0
  5 13  1  0  0  0  0
  6  9  1  0  0  0  0
  6 14  1  0  0  0  0
  7 14  1  0  0  0  0
  8 10  1  0  0  0  0
  8 11  1  0  0  0  0
  8 13  1  0  0  0  0
  1 15  1  0  0  0  0
  1 16  1  0  0  0  0
  2 17  1  0  0  0  0
  2 18  1  0  0  0  0
  3 19  1  0  0  0  0
  3 20  1  0  0  0  0
  4 21  1  0  0  0  0
  4 22  1  0  0  0  0
  5 23  1  0  0  0  0
  5 24  1  0  0  0  0
  6 25  1  0  0  0  0
  9 26  1  0  0  0  0
  9 27  1  0  0  0  0
  9 28  1  0  0  0  0
 10 29  1  0  0  0  0
 10 30  1  0  0  0  0
 10 31  1  0  0  0  0
 11 32  1  0  0  0  0
 11 33  1  0  0  0  0
 11 34  1  0  0  0  0
 12 35  1  0  0  0  0
M  END
> <Catalog ID>
Z1258763164

> <PlateID>
1337959-R-06

> <Well>
C09

> <MW (desalted)>
199.290

> <CLogP>
0.741

> <HBD>
1

> <TPSA>
30.490

> <RotBonds>
0

> <ROCS_ShapeQuery>
A71EV2A-x0451_0A_A71EV2A-x0310_0A_A71EV2A-x0416_0A_peptide

> <ROCS_TanimotoCombo>
0.395 

> <ROCS_ShapeTanimoto>
0.264 

> <ROCS_ColorTanimoto>
0.131 

> <ROCS_RefTversky>
0.237 

> <ROCS_RefColorTversky>
0.147 

> <ROCS_RefTverskyCombo>
0.384 

> <ROCS_FitTversky>
1.753 

> <ROCS_FitColorTversky>
0.543 

> <ROCS_FitTverskyCombo>
2.295 

> <ROCS_ColorScore>
-4.471

> <ROCS_Overlap>
1643.818

> <ROCS_Rank>
478                 

$$$$
untitled-dbase-1032_246
  -OEChem-11112309163D

 30 31  0     0  0  0  0  0  0999 V2000
    6.8174   12.0942   24.4957 C   0  0  0  0  0  0  0  0  0  0  0  0
    7.4374   11.9517   25.7370 C   0  0  0  0  0  0  0  0  0  0  0  0
    7.2224   11.3051   23.4192 C   0  0  0  0  0  0  0  0  0  0  0  0
    8.4625   11.0202   25.9018 C   0  0  0  0  0  0  0  0  0  0  0  0
    8.2474   10.3735   23.5839 C   0  0  0  0  0  0  0  0  0  0  0  0
    8.8675   10.2311   24.8252 C   0  0  0  0  0  0  0  0  0  0  0  0
   10.3121   11.3052   21.9327 C   0  0  0  0  0  0  0  0  0  0  0  0
   11.2213   13.3703   20.7463 C   0  0  0  0  0  0  0  0  0  0  0  0
   10.6869   13.2566   23.1590 C   0  0  0  0  0  0  0  0  0  0  0  0
   10.7810   11.9444   20.6508 C   0  0  0  0  0  0  0  0  0  0  0  0
   10.8285    8.9652   21.3699 C   0  0  0  0  0  0  0  0  0  0  0  0
    8.6550    9.5452   22.3999 C   0  0  0  0  0  0  0  0  0  0  0  0
   10.2851   11.9450   23.0639 N   0  0  0  0  0  0  0  0  0  0  0  0
   11.1328   13.9092   22.0127 N   0  0  0  0  0  0  0  0  0  0  0  0
    9.9126    9.9954   21.8285 N   0  0  0  0  0  0  0  0  0  0  0  0
   11.6252   13.9932   19.7665 O   0  0  0  0  0  0  0  0  0  0  0  0
   10.6601   13.8618   24.2324 O   0  0  0  0  0  0  0  0  0  0  0  0
   10.1390    9.0891   25.0671 Cl  0  0  0  0  0  0  0  0  0  0  0  0
    6.0186   12.8191   24.3679 H   0  0  0  0  0  0  0  0  0  0  0  0
    7.1210   12.5655   26.5753 H   0  0  0  0  0  0  0  0  0  0  0  0
    6.7323   11.4238   22.4563 H   0  0  0  0  0  0  0  0  0  0  0  0
    8.9346   10.9206   26.8759 H   0  0  0  0  0  0  0  0  0  0  0  0
   11.6213   11.3567   20.2637 H   0  0  0  0  0  0  0  0  0  0  0  0
    9.9618   11.8926   19.9245 H   0  0  0  0  0  0  0  0  0  0  0  0
   11.3595    8.5357   22.2322 H   0  0  0  0  0  0  0  0  0  0  0  0
   10.2627    8.1738   20.8565 H   0  0  0  0  0  0  0  0  0  0  0  0
   11.5569    9.4060   20.6733 H   0  0  0  0  0  0  0  0  0  0  0  0
    8.7715    8.4941   22.6857 H   0  0  0  0  0  0  0  0  0  0  0  0
    7.8957    9.5858   21.6118 H   0  0  0  0  0  0  0  0  0  0  0  0
   11.4231   14.8769   22.1221 H   0  0  0  0  0  0  0  0  0  0  0  0
  1  2  1  0  0  0  0
  1  3  2  0  0  0  0
  2  4  2  0  0  0  0
  3  5  1  0  0  0  0
  4  6  1  0  0  0  0
  5  6  2  0  0  0  0
  5 12  1  0  0  0  0
  6 18  1  0  0  0  0
  7 10  1  0  0  0  0
  7 13  2  0  0  0  0
  7 15  1  0  0  0  0
  8 10  1  0  0  0  0
  8 14  1  0  0  0  0
  8 16  2  0  0  0  0
  9 13  1  0  0  0  0
  9 14  1  0  0  0  0
  9 17  2  0  0  0  0
 11 15  1  0  0  0  0
 12 15  1  0  0  0  0
  1 19  1  0  0  0  0
  2 20  1  0  0  0  0
  3 21  1  0  0  0  0
  4 22  1  0  0  0  0
 10 23  1  0  0  0  0
 10 24  1  0  0  0  0
 11 25  1  0  0  0  0
 11 26  1  0  0  0  0
 11 27  1  0  0  0  0
 12 28  1  0  0  0  0
 12 29  1  0  0  0  0
 14 30  1  0  0  0  0
M  END
> <Catalog ID>
Z1640901244

> <PlateID>
1337959-R-13

> <Well>
H07

> <MW (desalted)>
265.696

> <CLogP>
1.895

> <HBD>
2

> <TPSA>
61.440

> <RotBonds>
3

> <ROCS_ShapeQuery>
A71EV2A-x0451_0A_A71EV2A-x0310_0A_A71EV2A-x0416_0A_peptide

> <ROCS_TanimotoCombo>
0.395 

> <ROCS_ShapeTanimoto>
0.251 

> <ROCS_ColorTanimoto>
0.144 

> <ROCS_RefTversky>
0.233 

> <ROCS_RefColorTversky>
0.156 

> <ROCS_RefTverskyCombo>
0.389 

> <ROCS_FitTversky>
1.438 

> <ROCS_FitColorTversky>
0.652 

> <ROCS_FitTverskyCombo>
2.090 

> <ROCS_ColorScore>
-4.756

> <ROCS_Overlap>
1614.572

> <ROCS_Rank>
479                 

$$$$
untitled-dbase-994_36
  -OEChem-11112309163D

 32 33  0     0  0  0  0  0  0999 V2000
   12.5298   14.0210   22.1731 C   0  0  0  0  0  0  0  0  0  0  0  0
   12.0839   13.5128   23.3643 C   0  0  0  0  0  0  0  0  0  0  0  0
   13.9254   14.0707   22.3323 C   0  0  0  0  0  0  0  0  0  0  0  0
    8.0821   10.8201   24.3899 C   0  0  0  0  0  0  0  0  0  0  0  0
   10.7416   13.2082   23.8592 C   0  0  0  0  0  0  0  0  0  0  0  0
    8.6898   11.9366   23.5703 C   0  0  0  0  0  0  0  0  0  0  0  0
    9.7985    9.4875   23.2740 C   0  0  0  0  0  0  0  0  0  0  0  0
   10.8551   10.6072   23.4806 C   0  0  0  0  0  0  0  0  0  0  0  0
   14.9276   14.5368   21.3608 C   0  0  0  0  0  0  0  0  0  0  0  0
   11.6855   10.2225   24.7212 C   0  0  0  0  0  0  0  0  0  0  0  0
   11.7463   10.5951   22.2269 C   0  0  0  0  0  0  0  0  0  0  0  0
   14.3154   13.6273   23.5307 N   0  0  0  0  0  0  0  0  0  0  0  0
    8.7145    9.6088   24.2171 N   0  0  0  0  0  0  0  0  0  0  0  0
   10.1581   11.9393   23.6652 N   0  0  0  0  0  0  0  0  0  0  0  0
    7.0476   10.9653   25.0364 O   0  0  0  0  0  0  0  0  0  0  0  0
   10.2056   14.1490   24.4515 O   0  0  0  0  0  0  0  0  0  0  0  0
   13.1402   13.2738   24.1830 O   0  0  0  0  0  0  0  0  0  0  0  0
   11.9356   14.3115   21.3190 H   0  0  0  0  0  0  0  0  0  0  0  0
    8.3557   11.8122   22.5436 H   0  0  0  0  0  0  0  0  0  0  0  0
    8.3313   12.8921   23.9532 H   0  0  0  0  0  0  0  0  0  0  0  0
    9.3712    9.5160   22.2667 H   0  0  0  0  0  0  0  0  0  0  0  0
   10.2445    8.4970   23.4202 H   0  0  0  0  0  0  0  0  0  0  0  0
   15.1241   15.6173   21.4733 H   0  0  0  0  0  0  0  0  0  0  0  0
   15.8933   14.0111   21.4712 H   0  0  0  0  0  0  0  0  0  0  0  0
   14.6093   14.3649   20.3165 H   0  0  0  0  0  0  0  0  0  0  0  0
   12.4356   10.9851   24.8954 H   0  0  0  0  0  0  0  0  0  0  0  0
   12.1656    9.2674   24.5434 H   0  0  0  0  0  0  0  0  0  0  0  0
   11.0273   10.1502   25.5791 H   0  0  0  0  0  0  0  0  0  0  0  0
   12.5036   11.3638   22.3245 H   0  0  0  0  0  0  0  0  0  0  0  0
   11.1326   10.7902   21.3556 H   0  0  0  0  0  0  0  0  0  0  0  0
   12.2164    9.6230   22.1372 H   0  0  0  0  0  0  0  0  0  0  0  0
    8.4183    8.8042   24.7519 H   0  0  0  0  0  0  0  0  0  0  0  0
  1  2  2  0  0  0  0
  1  3  1  0  0  0  0
  2  5  1  0  0  0  0
  2 17  1  0  0  0  0
  3  9  1  0  0  0  0
  3 12  2  0  0  0  0
  4  6  1  0  0  0  0
  4 13  1  0  0  0  0
  4 15  2  0  0  0  0
  5 14  1  0  0  0  0
  5 16  2  0  0  0  0
  6 14  1  0  0  0  0
  7  8  1  0  0  0  0
  7 13  1  0  0  0  0
  8 10  1  0  0  0  0
  8 11  1  0  0  0  0
  8 14  1  0  0  0  0
 12 17  1  0  0  0  0
  1 18  1  0  0  0  0
  6 19  1  0  0  0  0
  6 20  1  0  0  0  0
  7 21  1  0  0  0  0
  7 22  1  0  0  0  0
  9 23  1  0  0  0  0
  9 24  1  0  0  0  0
  9 25  1  0  0  0  0
 10 26  1  0  0  0  0
 10 27  1  0  0  0  0
 10 28  1  0  0  0  0
 11 29  1  0  0  0  0
 11 30  1  0  0  0  0
 11 31  1  0  0  0  0
 13 32  1  0  0  0  0
M  END
> <Catalog ID>
Z2001735784

> <PlateID>
1337959-R-13

> <Well>
D09

> <MW (desalted)>
237.255

> <CLogP>
0.365

> <HBD>
1

> <TPSA>
75.440

> <RotBonds>
1

> <ROCS_ShapeQuery>
A71EV2A-x0451_0A_A71EV2A-x0310_0A_A71EV2A-x0416_0A_peptide

> <ROCS_TanimotoCombo>
0.395 

> <ROCS_ShapeTanimoto>
0.257 

> <ROCS_ColorTanimoto>
0.137 

> <ROCS_RefTversky>
0.237 

> <ROCS_RefColorTversky>
0.153 

> <ROCS_RefTverskyCombo>
0.390 

> <ROCS_FitTversky>
1.508 

> <ROCS_FitColorTversky>
0.567 

> <ROCS_FitTverskyCombo>
2.075 

> <ROCS_ColorScore>
-4.672

> <ROCS_Overlap>
1642.730

> <ROCS_Rank>
480                 

$$$$
untitled-dbase-721_266
  -OEChem-11112309163D

 37 37  0     1  0  0  0  0  0999 V2000
    8.3379    9.7183   24.5572 C   0  0  0  0  0  0  0  0  0  0  0  0
    9.3756    9.8509   23.4534 C   0  0  0  0  0  0  0  0  0  0  0  0
    8.2093   11.0318   25.3174 C   0  0  0  0  0  0  0  0  0  0  0  0
    9.0734   11.0517   22.5599 C   0  0  0  0  0  0  0  0  0  0  0  0
    7.9365   12.2198   24.3726 C   0  0  1  0  0  0  0  0  0  0  0  0
    7.8429   13.4946   25.2233 C   0  0  0  0  0  0  0  0  0  0  0  0
    7.4535   13.2481   21.6824 C   0  0  0  0  0  0  0  0  0  0  0  0
   11.7123   15.8068   22.7377 C   0  0  0  0  0  0  0  0  0  0  0  0
    9.9747   13.5528   21.4635 C   0  0  0  0  0  0  0  0  0  0  0  0
    8.7812   13.4242   22.4126 C   0  0  2  0  0  0  0  0  0  0  0  0
    8.9888   12.3029   23.3337 N   0  0  2  0  0  0  0  0  0  0  0  0
   11.2209   13.2388   22.1245 N   0  0  0  0  0  0  0  0  0  0  0  0
   13.1300   13.8595   23.7617 O   0  0  0  0  0  0  0  0  0  0  0  0
   10.7377   14.1511   24.5023 O   0  0  0  0  0  0  0  0  0  0  0  0
   11.7488   14.1837   23.4631 S   0  0  0  0  0  0  0  0  0  0  0  0
    7.3678    9.4483   24.1222 H   0  0  0  0  0  0  0  0  0  0  0  0
    8.6194    8.9124   25.2437 H   0  0  0  0  0  0  0  0  0  0  0  0
   10.3730    9.9631   23.8971 H   0  0  0  0  0  0  0  0  0  0  0  0
    9.3946    8.9359   22.8510 H   0  0  0  0  0  0  0  0  0  0  0  0
    7.3982   10.9407   26.0502 H   0  0  0  0  0  0  0  0  0  0  0  0
    9.1314   11.2108   25.8864 H   0  0  0  0  0  0  0  0  0  0  0  0
    9.8790   11.1278   21.8190 H   0  0  0  0  0  0  0  0  0  0  0  0
    8.1407   10.8741   22.0078 H   0  0  0  0  0  0  0  0  0  0  0  0
    6.9603   12.0615   23.8932 H   0  0  0  0  0  0  0  0  0  0  0  0
    8.7970   13.6749   25.7096 H   0  0  0  0  0  0  0  0  0  0  0  0
    7.0696   13.3704   25.9756 H   0  0  0  0  0  0  0  0  0  0  0  0
    7.5960   14.3374   24.5844 H   0  0  0  0  0  0  0  0  0  0  0  0
    7.4434   12.3440   21.0639 H   0  0  0  0  0  0  0  0  0  0  0  0
    6.6297   13.1584   22.3993 H   0  0  0  0  0  0  0  0  0  0  0  0
    7.2467   14.1080   21.0369 H   0  0  0  0  0  0  0  0  0  0  0  0
   12.0318   16.5282   23.4915 H   0  0  0  0  0  0  0  0  0  0  0  0
   12.3928   15.8182   21.8849 H   0  0  0  0  0  0  0  0  0  0  0  0
   10.6914   16.0171   22.4155 H   0  0  0  0  0  0  0  0  0  0  0  0
   10.0347   14.5744   21.0717 H   0  0  0  0  0  0  0  0  0  0  0  0
    9.8471   12.8821   20.6068 H   0  0  0  0  0  0  0  0  0  0  0  0
    8.7214   14.3425   23.0086 H   0  0  0  0  0  0  0  0  0  0  0  0
   11.9803   12.8928   21.5034 H   0  0  0  0  0  0  0  0  0  0  0  0
  1  2  1  0  0  0  0
  1  3  1  0  0  0  0
  2  4  1  0  0  0  0
  3  5  1  0  0  0  0
  4 11  1  0  0  0  0
  5  6  1  0  0  0  0
  5 11  1  0  0  0  0
  7 10  1  0  0  0  0
  8 15  1  0  0  0  0
  9 10  1  0  0  0  0
  9 12  1  0  0  0  0
 10 11  1  0  0  0  0
 12 15  1  0  0  0  0
 13 15  2  0  0  0  0
 14 15  2  0  0  0  0
  1 16  1  0  0  0  0
  1 17  1  0  0  0  0
  2 18  1  0  0  0  0
  2 19  1  0  0  0  0
  3 20  1  0  0  0  0
  3 21  1  0  0  0  0
  4 22  1  0  0  0  0
  4 23  1  0  0  0  0
  5 24  1  0  0  0  0
  6 25  1  0  0  0  0
  6 26  1  0  0  0  0
  6 27  1  0  0  0  0
  7 28  1  0  0  0  0
  7 29  1  0  0  0  0
  7 30  1  0  0  0  0
  8 31  1  0  0  0  0
  8 32  1  0  0  0  0
  8 33  1  0  0  0  0
  9 34  1  0  0  0  0
  9 35  1  0  0  0  0
 10 36  1  0  0  0  0
 12 37  1  0  0  0  0
M  END
> <Catalog ID>
Z408235908

> <PlateID>
1337959-R-10

> <Well>
A04

> <MW (desalted)>
234.359

> <CLogP>
1.597

> <HBD>
1

> <TPSA>
49.410

> <RotBonds>
3

> <ROCS_ShapeQuery>
A71EV2A-x0451_0A_A71EV2A-x0310_0A_A71EV2A-x0416_0A_peptide

> <ROCS_TanimotoCombo>
0.395 

> <ROCS_ShapeTanimoto>
0.236 

> <ROCS_ColorTanimoto>
0.158 

> <ROCS_RefTversky>
0.217 

> <ROCS_RefColorTversky>
0.165 

> <ROCS_RefTverskyCombo>
0.382 

> <ROCS_FitTversky>
1.611 

> <ROCS_FitColorTversky>
0.792 

> <ROCS_FitTverskyCombo>
2.403 

> <ROCS_ColorScore>
-5.020

> <ROCS_Overlap>
1500.958

> <ROCS_Rank>
481                 

$$$$
untitled-dbase-698_217
  -OEChem-11112309163D

 30 31  0     1  0  0  0  0  0999 V2000
    7.3515   11.6149   24.6313 C   0  0  0  0  0  0  0  0  0  0  0  0
    8.5042   12.2258   24.1376 C   0  0  0  0  0  0  0  0  0  0  0  0
    7.2262   10.2263   24.5908 C   0  0  0  0  0  0  0  0  0  0  0  0
    9.4062   10.0594   23.5629 C   0  0  0  0  0  0  0  0  0  0  0  0
    9.5315   11.4481   23.6034 C   0  0  0  0  0  0  0  0  0  0  0  0
    8.2535    9.4485   24.0566 C   0  0  0  0  0  0  0  0  0  0  0  0
   10.8943   14.6079   23.4049 C   0  0  0  0  0  0  0  0  0  0  0  0
   11.4711   11.3477   21.9251 C   0  0  0  0  0  0  0  0  0  0  0  0
   11.3523   12.2621   20.7177 C   0  0  0  0  0  0  0  0  0  0  0  0
   10.7842   12.1125   23.0686 C   0  0  1  0  0  0  0  0  0  0  0  0
   10.4964   13.5026   22.4830 C   0  0  2  0  0  0  0  0  0  0  0  0
    8.1191    7.9637   24.0128 C   0  0  0  0  0  0  0  0  0  0  0  0
   11.3637   13.5968   21.3085 N   0  0  0  0  0  0  0  0  0  0  0  0
   11.3754   15.6752   23.0545 O   0  0  0  0  0  0  0  0  0  0  0  0
   10.6515   14.2668   24.6941 O   0  0  0  0  0  0  0  0  0  0  0  0
    6.5516   12.2206   25.0473 H   0  0  0  0  0  0  0  0  0  0  0  0
    8.5932   13.3085   24.1738 H   0  0  0  0  0  0  0  0  0  0  0  0
    6.3242    9.7589   24.9770 H   0  0  0  0  0  0  0  0  0  0  0  0
   10.2072    9.4525   23.1475 H   0  0  0  0  0  0  0  0  0  0  0  0
   11.0450   10.3580   21.7298 H   0  0  0  0  0  0  0  0  0  0  0  0
   12.5313   11.2108   22.1748 H   0  0  0  0  0  0  0  0  0  0  0  0
   12.1738   12.1216   20.0092 H   0  0  0  0  0  0  0  0  0  0  0  0
   10.4087   12.0922   20.1866 H   0  0  0  0  0  0  0  0  0  0  0  0
   11.4945   12.1785   23.9329 H   0  0  0  0  0  0  0  0  0  0  0  0
    9.4556   13.6473   22.1936 H   0  0  0  0  0  0  0  0  0  0  0  0
    7.6515    7.6503   23.0715 H   0  0  0  0  0  0  0  0  0  0  0  0
    9.0973    7.4726   24.0960 H   0  0  0  0  0  0  0  0  0  0  0  0
    7.5065    7.5945   24.8457 H   0  0  0  0  0  0  0  0  0  0  0  0
   12.3186   13.7993   21.6093 H   0  0  0  0  0  0  0  0  0  0  0  0
   10.9083   14.9803   25.3165 H   0  0  0  0  0  0  0  0  0  0  0  0
  1  2  2  0  0  0  0
  1  3  1  0  0  0  0
  2  5  1  0  0  0  0
  3  6  2  0  0  0  0
  4  5  2  0  0  0  0
  4  6  1  0  0  0  0
  5 10  1  0  0  0  0
  6 12  1  0  0  0  0
  7 11  1  0  0  0  0
  7 14  2  0  0  0  0
  7 15  1  0  0  0  0
  8  9  1  0  0  0  0
  8 10  1  0  0  0  0
  9 13  1  0  0  0  0
 10 11  1  0  0  0  0
 11 13  1  0  0  0  0
  1 16  1  0  0  0  0
  2 17  1  0  0  0  0
  3 18  1  0  0  0  0
  4 19  1  0  0  0  0
  8 20  1  0  0  0  0
  8 21  1  0  0  0  0
  9 22  1  0  0  0  0
  9 23  1  0  0  0  0
 10 24  1  0  0  0  0
 11 25  1  0  0  0  0
 12 26  1  0  0  0  0
 12 27  1  0  0  0  0
 12 28  1  0  0  0  0
 13 29  1  0  0  0  0
 15 30  1  0  0  0  0
M  END
> <Catalog ID>
Z2189283464

> <PlateID>
1337959-R-09

> <Well>
F11

> <MW (desalted)>
205.253

> <CLogP>
-1.056

> <HBD>
2

> <TPSA>
49.330

> <RotBonds>
2

> <ROCS_ShapeQuery>
A71EV2A-x0451_0A_A71EV2A-x0310_0A_A71EV2A-x0416_0A_peptide

> <ROCS_TanimotoCombo>
0.394 

> <ROCS_ShapeTanimoto>
0.274 

> <ROCS_ColorTanimoto>
0.120 

> <ROCS_RefTversky>
0.246 

> <ROCS_RefColorTversky>
0.136 

> <ROCS_RefTverskyCombo>
0.382 

> <ROCS_FitTversky>
1.719 

> <ROCS_FitColorTversky>
0.504 

> <ROCS_FitTverskyCombo>
2.223 

> <ROCS_ColorScore>
-4.154

> <ROCS_Overlap>
1704.344

> <ROCS_Rank>
482                 

$$$$
untitled-dbase-22_22
  -OEChem-11112309163D

 17 18  0     0  0  0  0  0  0999 V2000
    8.1931   12.0751   24.1394 C   0  0  0  0  0  0  0  0  0  0  0  0
   10.6159   12.7922   22.5679 C   0  0  0  0  0  0  0  0  0  0  0  0
    9.9350   11.6439   22.5356 C   0  0  0  0  0  0  0  0  0  0  0  0
   10.5353   13.8692   23.5352 C   0  0  0  0  0  0  0  0  0  0  0  0
   11.4982   12.7742   21.3807 C   0  0  0  0  0  0  0  0  0  0  0  0
    7.4093   11.3593   24.9125 N   0  0  0  0  0  0  0  0  0  0  0  0
    7.7484   10.0470   24.6719 N   0  0  0  0  0  0  0  0  0  0  0  0
    8.7186    9.9626   23.7699 N   0  0  0  0  0  0  0  0  0  0  0  0
   10.2991   10.8710   21.4555 N   0  0  0  0  0  0  0  0  0  0  0  0
   11.1783   11.4617   20.7657 N   0  0  0  0  0  0  0  0  0  0  0  0
    8.9950   11.2316   23.4387 N   0  0  0  0  0  0  0  0  0  0  0  0
   10.2272   15.0276   23.2765 O   0  0  0  0  0  0  0  0  0  0  0  0
   10.8502   13.4125   24.7709 O   0  0  0  0  0  0  0  0  0  0  0  0
    8.2103   13.1529   24.0571 H   0  0  0  0  0  0  0  0  0  0  0  0
   11.2648   13.5822   20.6810 H   0  0  0  0  0  0  0  0  0  0  0  0
   12.5570   12.8102   21.6538 H   0  0  0  0  0  0  0  0  0  0  0  0
   10.8068   14.1149   25.4543 H   0  0  0  0  0  0  0  0  0  0  0  0
  1  6  2  0  0  0  0
  1 11  1  0  0  0  0
  2  3  2  0  0  0  0
  2  4  1  0  0  0  0
  2  5  1  0  0  0  0
  3  9  1  0  0  0  0
  3 11  1  0  0  0  0
  4 12  2  0  0  0  0
  4 13  1  0  0  0  0
  5 10  1  0  0  0  0
  6  7  1  0  0  0  0
  7  8  2  0  0  0  0
  8 11  1  0  0  0  0
  9 10  2  0  0  0  0
  1 14  1  0  0  0  0
  5 15  1  0  0  0  0
  5 16  1  0  0  0  0
 13 17  1  0  0  0  0
M  END
> <Catalog ID>
Z275129290

> <PlateID>
1337959-R-01

> <Well>
C03

> <MW (desalted)>
180.124

> <CLogP>
0.069

> <HBD>
2

> <TPSA>
109.580

> <RotBonds>
2

> <ROCS_ShapeQuery>
A71EV2A-x0451_0A_A71EV2A-x0310_0A_A71EV2A-x0416_0A_peptide

> <ROCS_TanimotoCombo>
0.394 

> <ROCS_ShapeTanimoto>
0.230 

> <ROCS_ColorTanimoto>
0.164 

> <ROCS_RefTversky>
0.213 

> <ROCS_RefColorTversky>
0.190 

> <ROCS_RefTverskyCombo>
0.403 

> <ROCS_FitTversky>
1.557 

> <ROCS_FitColorTversky>
0.541 

> <ROCS_FitTverskyCombo>
2.098 

> <ROCS_ColorScore>
-5.823

> <ROCS_Overlap>
1474.029

> <ROCS_Rank>
483                 

$$$$
untitled-dbase-617_18
  -OEChem-11112309163D

 31 32  0     0  0  0  0  0  0999 V2000
   11.6044   10.5021   24.3230 C   0  0  0  0  0  0  0  0  0  0  0  0
   11.5656   12.7132   23.6075 C   0  0  0  0  0  0  0  0  0  0  0  0
   10.8429   11.4928   23.7432 C   0  0  0  0  0  0  0  0  0  0  0  0
   12.8521   12.6088   24.0892 C   0  0  0  0  0  0  0  0  0  0  0  0
   11.0407   13.9304   23.0382 C   0  0  0  0  0  0  0  0  0  0  0  0
    7.2616   10.5123   25.2367 C   0  0  0  0  0  0  0  0  0  0  0  0
    7.8254   11.9273   25.2504 C   0  0  0  0  0  0  0  0  0  0  0  0
    8.3027    9.4921   24.7949 C   0  0  0  0  0  0  0  0  0  0  0  0
    8.4197   12.3186   23.8996 C   0  0  0  0  0  0  0  0  0  0  0  0
    8.9043    9.8420   23.4362 C   0  0  0  0  0  0  0  0  0  0  0  0
    9.4013   11.2931   23.3036 C   0  0  0  0  0  0  0  0  0  0  0  0
   13.8012   13.5800   24.1121 N   0  0  0  0  0  0  0  0  0  0  0  0
   11.1892   14.1328   21.6636 N   0  0  0  0  0  0  0  0  0  0  0  0
   10.4807   14.7995   23.7402 O   0  0  0  0  0  0  0  0  0  0  0  0
   13.1840   11.0444   24.7014 S   0  0  0  0  0  0  0  0  0  0  0  0
   11.3134    9.4843   24.5443 H   0  0  0  0  0  0  0  0  0  0  0  0
    6.8999   10.2536   26.2410 H   0  0  0  0  0  0  0  0  0  0  0  0
    6.3939   10.4676   24.5665 H   0  0  0  0  0  0  0  0  0  0  0  0
    7.0293   12.6362   25.5166 H   0  0  0  0  0  0  0  0  0  0  0  0
    8.5949   12.0106   26.0285 H   0  0  0  0  0  0  0  0  0  0  0  0
    9.1010    9.4306   25.5456 H   0  0  0  0  0  0  0  0  0  0  0  0
    7.8410    8.4965   24.7429 H   0  0  0  0  0  0  0  0  0  0  0  0
    7.5917   12.5057   23.1813 H   0  0  0  0  0  0  0  0  0  0  0  0
    8.9267   13.3042   24.0016 H   0  0  0  0  0  0  0  0  0  0  0  0
    9.7413    9.1402   23.2221 H   0  0  0  0  0  0  0  0  0  0  0  0
    8.1540    9.6289   22.6437 H   0  0  0  0  0  0  0  0  0  0  0  0
    9.4273   11.5102   22.1718 H   0  0  0  0  0  0  0  0  0  0  0  0
   14.7232   13.4244   24.5356 H   0  0  0  0  0  0  0  0  0  0  0  0
   13.6038   14.5354   23.7929 H   0  0  0  0  0  0  0  0  0  0  0  0
   10.8253   14.9838   21.2488 H   0  0  0  0  0  0  0  0  0  0  0  0
   11.6508   13.4525   21.0684 H   0  0  0  0  0  0  0  0  0  0  0  0
  1  3  2  0  0  0  0
  1 15  1  0  0  0  0
  2  3  1  0  0  0  0
  2  4  2  0  0  0  0
  2  5  1  0  0  0  0
  3 11  1  0  0  0  0
  4 12  1  0  0  0  0
  4 15  1  0  0  0  0
  5 13  1  0  0  0  0
  5 14  2  0  0  0  0
  6  7  1  0  0  0  0
  6  8  1  0  0  0  0
  7  9  1  0  0  0  0
  8 10  1  0  0  0  0
  9 11  1  0  0  0  0
 10 11  1  0  0  0  0
  1 16  1  0  0  0  0
  6 17  1  0  0  0  0
  6 18  1  0  0  0  0
  7 19  1  0  0  0  0
  7 20  1  0  0  0  0
  8 21  1  0  0  0  0
  8 22  1  0  0  0  0
  9 23  1  0  0  0  0
  9 24  1  0  0  0  0
 10 25  1  0  0  0  0
 10 26  1  0  0  0  0
 11 27  1  0  0  0  0
 12 28  1  0  0  0  0
 12 29  1  0  0  0  0
 13 30  1  0  0  0  0
 13 31  1  0  0  0  0
M  END
> <Catalog ID>
Z448247422

> <PlateID>
1337959-R-08

> <Well>
F10

> <MW (desalted)>
224.323

> <CLogP>
2.178

> <HBD>
2

> <TPSA>
69.110

> <RotBonds>
2

> <ROCS_ShapeQuery>
A71EV2A-x0451_0A_A71EV2A-x0310_0A_A71EV2A-x0416_0A_peptide

> <ROCS_TanimotoCombo>
0.394 

> <ROCS_ShapeTanimoto>
0.265 

> <ROCS_ColorTanimoto>
0.128 

> <ROCS_RefTversky>
0.239 

> <ROCS_RefColorTversky>
0.141 

> <ROCS_RefTverskyCombo>
0.380 

> <ROCS_FitTversky>
1.716 

> <ROCS_FitColorTversky>
0.589 

> <ROCS_FitTverskyCombo>
2.305 

> <ROCS_ColorScore>
-4.292

> <ROCS_Overlap>
1655.828

> <ROCS_Rank>
484                 

$$$$
untitled-dbase-663_131
  -OEChem-11112309163D

 32 33  0     1  0  0  0  0  0999 V2000
   11.1532   14.7644   25.1274 C   0  0  0  0  0  0  0  0  0  0  0  0
   10.3970   14.0193   23.3301 C   0  0  0  0  0  0  0  0  0  0  0  0
    9.8182   10.7095   23.5092 C   0  0  0  0  0  0  0  0  0  0  0  0
    6.9226   11.7274   24.7111 C   0  0  0  0  0  0  0  0  0  0  0  0
    7.2150   10.3580   25.3195 C   0  0  0  0  0  0  0  0  0  0  0  0
    8.1530   12.4814   24.1996 C   0  0  0  0  0  0  0  0  0  0  0  0
    7.8316    9.3765   24.3327 C   0  0  0  0  0  0  0  0  0  0  0  0
    8.8447   11.7811   23.0242 C   0  0  1  0  0  0  0  0  0  0  0  0
   10.4876   14.8507   27.5432 C   0  0  0  0  0  0  0  0  0  0  0  0
   11.6310   14.8492   26.5249 C   0  0  0  0  0  0  0  0  0  0  0  0
   10.7097   13.6146   24.5392 N   0  0  0  0  0  0  0  0  0  0  0  0
   10.6468   15.3512   23.2144 N   0  0  0  0  0  0  0  0  0  0  0  0
   11.1345   15.8551   24.3583 N   0  0  0  0  0  0  0  0  0  0  0  0
    9.2481    9.6167   24.1282 N   0  0  0  0  0  0  0  0  0  0  0  0
   11.0402   10.7898   23.3724 O   0  0  0  0  0  0  0  0  0  0  0  0
    9.7524   13.0207   22.0271 S   0  0  0  0  0  0  0  0  0  0  0  0
    6.1967   11.6184   23.8956 H   0  0  0  0  0  0  0  0  0  0  0  0
    6.4344   12.3441   25.4762 H   0  0  0  0  0  0  0  0  0  0  0  0
    7.8547   10.4638   26.2041 H   0  0  0  0  0  0  0  0  0  0  0  0
    6.2656    9.9381   25.6747 H   0  0  0  0  0  0  0  0  0  0  0  0
    7.8012   13.4767   23.8979 H   0  0  0  0  0  0  0  0  0  0  0  0
    8.8560   12.6316   25.0294 H   0  0  0  0  0  0  0  0  0  0  0  0
    7.7479    8.3591   24.7299 H   0  0  0  0  0  0  0  0  0  0  0  0
    7.3202    9.3992   23.3649 H   0  0  0  0  0  0  0  0  0  0  0  0
    8.1156   11.3271   22.3458 H   0  0  0  0  0  0  0  0  0  0  0  0
    9.7887   15.6696   27.3422 H   0  0  0  0  0  0  0  0  0  0  0  0
   10.8670   14.9712   28.5628 H   0  0  0  0  0  0  0  0  0  0  0  0
    9.9261   13.9113   27.4990 H   0  0  0  0  0  0  0  0  0  0  0  0
   12.3116   14.0102   26.7624 H   0  0  0  0  0  0  0  0  0  0  0  0
   12.2409   15.7589   26.6804 H   0  0  0  0  0  0  0  0  0  0  0  0
   11.3834   16.8341   24.4701 H   0  0  0  0  0  0  0  0  0  0  0  0
    9.8855    8.8962   24.4539 H   0  0  0  0  0  0  0  0  0  0  0  0
  1 10  1  0  0  0  0
  1 11  2  0  0  0  0
  1 13  1  0  0  0  0
  2 11  1  0  0  0  0
  2 12  2  0  0  0  0
  2 16  1  0  0  0  0
  3  8  1  0  0  0  0
  3 14  1  0  0  0  0
  3 15  2  0  0  0  0
  4  5  1  0  0  0  0
  4  6  1  0  0  0  0
  5  7  1  0  0  0  0
  6  8  1  0  0  0  0
  7 14  1  0  0  0  0
  8 16  1  0  0  0  0
  9 10  1  0  0  0  0
 12 13  1  0  0  0  0
  4 17  1  0  0  0  0
  4 18  1  0  0  0  0
  5 19  1  0  0  0  0
  5 20  1  0  0  0  0
  6 21  1  0  0  0  0
  6 22  1  0  0  0  0
  7 23  1  0  0  0  0
  7 24  1  0  0  0  0
  8 25  1  0  0  0  0
  9 26  1  0  0  0  0
  9 27  1  0  0  0  0
  9 28  1  0  0  0  0
 10 29  1  0  0  0  0
 10 30  1  0  0  0  0
 13 31  1  0  0  0  0
 14 32  1  0  0  0  0
M  END
> <Catalog ID>
Z231651122

> <PlateID>
1337959-R-09

> <Well>
C06

> <MW (desalted)>
240.325

> <CLogP>
0.363

> <HBD>
2

> <TPSA>
70.670

> <RotBonds>
3

> <ROCS_ShapeQuery>
A71EV2A-x0451_0A_A71EV2A-x0310_0A_A71EV2A-x0416_0A_peptide

> <ROCS_TanimotoCombo>
0.394 

> <ROCS_ShapeTanimoto>
0.253 

> <ROCS_ColorTanimoto>
0.141 

> <ROCS_RefTversky>
0.231 

> <ROCS_RefColorTversky>
0.161 

> <ROCS_RefTverskyCombo>
0.392 

> <ROCS_FitTversky>
1.583 

> <ROCS_FitColorTversky>
0.534 

> <ROCS_FitTverskyCombo>
2.117 

> <ROCS_ColorScore>
-4.917

> <ROCS_Overlap>
1601.698

> <ROCS_Rank>
485                 

$$$$
untitled-dbase-812_8
  -OEChem-11112309163D

 35 36  0     0  0  0  0  0  0999 V2000
    8.8812    9.8135   23.6366 C   0  0  0  0  0  0  0  0  0  0  0  0
    7.7566    9.9914   24.4422 C   0  0  0  0  0  0  0  0  0  0  0  0
    8.2116   12.3615   24.5541 C   0  0  0  0  0  0  0  0  0  0  0  0
    9.3363   12.1836   23.7485 C   0  0  0  0  0  0  0  0  0  0  0  0
    9.6712   10.9096   23.2898 C   0  0  0  0  0  0  0  0  0  0  0  0
    7.4217   11.2654   24.9009 C   0  0  0  0  0  0  0  0  0  0  0  0
   10.1466   13.3471   23.4015 C   0  0  0  0  0  0  0  0  0  0  0  0
    9.7564   14.2605   19.8319 C   0  0  0  0  0  0  0  0  0  0  0  0
   11.2650   14.3419   20.0254 C   0  0  0  0  0  0  0  0  0  0  0  0
    9.3177   13.3593   20.9778 C   0  0  0  0  0  0  0  0  0  0  0  0
   11.4074   14.4036   21.5382 C   0  0  0  0  0  0  0  0  0  0  0  0
   10.8699   10.6904   22.4254 C   0  0  0  0  0  0  0  0  0  0  0  0
    6.6255   11.2923   27.5691 C   0  0  0  0  0  0  0  0  0  0  0  0
   10.2743   13.6427   22.0472 N   0  0  0  0  0  0  0  0  0  0  0  0
   10.6615   14.0266   24.2890 O   0  0  0  0  0  0  0  0  0  0  0  0
    5.5658   12.8641   25.7577 O   0  0  0  0  0  0  0  0  0  0  0  0
    5.0837   10.3931   25.6696 O   0  0  0  0  0  0  0  0  0  0  0  0
    6.0143   11.4874   25.9103 S   0  0  0  0  0  0  0  0  0  0  0  0
    9.1333    8.8169   23.2836 H   0  0  0  0  0  0  0  0  0  0  0  0
    7.1477    9.1306   24.7057 H   0  0  0  0  0  0  0  0  0  0  0  0
    7.9499   13.3545   24.9130 H   0  0  0  0  0  0  0  0  0  0  0  0
    9.3068   15.2550   19.9361 H   0  0  0  0  0  0  0  0  0  0  0  0
    9.4843   13.8561   18.8530 H   0  0  0  0  0  0  0  0  0  0  0  0
   11.7459   13.4376   19.6343 H   0  0  0  0  0  0  0  0  0  0  0  0
   11.7016   15.2118   19.5271 H   0  0  0  0  0  0  0  0  0  0  0  0
    8.2924   13.5578   21.3026 H   0  0  0  0  0  0  0  0  0  0  0  0
    9.4133   12.2999   20.7151 H   0  0  0  0  0  0  0  0  0  0  0  0
   12.3509   13.9842   21.9001 H   0  0  0  0  0  0  0  0  0  0  0  0
   11.3123   15.4298   21.9101 H   0  0  0  0  0  0  0  0  0  0  0  0
   10.5976   10.7852   21.3680 H   0  0  0  0  0  0  0  0  0  0  0  0
   11.6587   11.4185   22.6504 H   0  0  0  0  0  0  0  0  0  0  0  0
   11.2986    9.6940   22.5886 H   0  0  0  0  0  0  0  0  0  0  0  0
    5.7912   11.4196   28.2607 H   0  0  0  0  0  0  0  0  0  0  0  0
    7.0516   10.2924   27.6637 H   0  0  0  0  0  0  0  0  0  0  0  0
    7.3885   12.0518   27.7464 H   0  0  0  0  0  0  0  0  0  0  0  0
  1  2  1  0  0  0  0
  1  5  2  0  0  0  0
  2  6  2  0  0  0  0
  3  4  2  0  0  0  0
  3  6  1  0  0  0  0
  4  5  1  0  0  0  0
  4  7  1  0  0  0  0
  5 12  1  0  0  0  0
  6 18  1  0  0  0  0
  7 14  1  0  0  0  0
  7 15  2  0  0  0  0
  8  9  1  0  0  0  0
  8 10  1  0  0  0  0
  9 11  1  0  0  0  0
 10 14  1  0  0  0  0
 11 14  1  0  0  0  0
 13 18  1  0  0  0  0
 16 18  2  0  0  0  0
 17 18  2  0  0  0  0
  1 19  1  0  0  0  0
  2 20  1  0  0  0  0
  3 21  1  0  0  0  0
  8 22  1  0  0  0  0
  8 23  1  0  0  0  0
  9 24  1  0  0  0  0
  9 25  1  0  0  0  0
 10 26  1  0  0  0  0
 10 27  1  0  0  0  0
 11 28  1  0  0  0  0
 11 29  1  0  0  0  0
 12 30  1  0  0  0  0
 12 31  1  0  0  0  0
 12 32  1  0  0  0  0
 13 33  1  0  0  0  0
 13 34  1  0  0  0  0
 13 35  1  0  0  0  0
M  END
> <Catalog ID>
Z27753260

> <PlateID>
1337959-R-11

> <Well>
B05

> <MW (desalted)>
267.344

> <CLogP>
0.517

> <HBD>
0

> <TPSA>
54.450

> <RotBonds>
2

> <ROCS_ShapeQuery>
A71EV2A-x0451_0A_A71EV2A-x0310_0A_A71EV2A-x0416_0A_peptide

> <ROCS_TanimotoCombo>
0.394 

> <ROCS_ShapeTanimoto>
0.290 

> <ROCS_ColorTanimoto>
0.103 

> <ROCS_RefTversky>
0.261 

> <ROCS_RefColorTversky>
0.113 

> <ROCS_RefTverskyCombo>
0.374 

> <ROCS_FitTversky>
1.644 

> <ROCS_FitColorTversky>
0.543 

> <ROCS_FitTverskyCombo>
2.187 

> <ROCS_ColorScore>
-3.442

> <ROCS_Overlap>
1808.062

> <ROCS_Rank>
486                 

$$$$
untitled-dbase-652_16
  -OEChem-11112309163D

 28 29  0     0  0  0  0  0  0999 V2000
    7.8731   10.0406   23.7610 C   0  0  0  0  0  0  0  0  0  0  0  0
    8.8824   10.1750   22.8077 C   0  0  0  0  0  0  0  0  0  0  0  0
    8.4552   12.1972   24.6814 C   0  0  0  0  0  0  0  0  0  0  0  0
    9.4646   12.3316   23.7282 C   0  0  0  0  0  0  0  0  0  0  0  0
    7.6594   11.0517   24.6978 C   0  0  0  0  0  0  0  0  0  0  0  0
    9.6782   11.3205   22.7913 C   0  0  0  0  0  0  0  0  0  0  0  0
   10.2744   13.5570   23.7550 C   0  0  0  0  0  0  0  0  0  0  0  0
   10.8732   16.6243   21.7933 C   0  0  0  0  0  0  0  0  0  0  0  0
    8.6687   15.7607   21.3529 C   0  0  0  0  0  0  0  0  0  0  0  0
   11.3753   15.2354   22.1856 C   0  0  0  0  0  0  0  0  0  0  0  0
    9.1192   14.3499   21.7195 C   0  0  0  0  0  0  0  0  0  0  0  0
    9.7836   16.5453   20.8187 N   0  0  0  0  0  0  0  0  0  0  0  0
   10.2678   14.3770   22.6239 N   0  0  0  0  0  0  0  0  0  0  0  0
   10.9006   13.7725   24.7917 O   0  0  0  0  0  0  0  0  0  0  0  0
    6.6902   10.9224   25.6135 F   0  0  0  0  0  0  0  0  0  0  0  0
   11.0372   11.4534   21.4740 Br  0  0  0  0  0  0  0  0  0  0  0  0
    7.2535    9.1491   23.7744 H   0  0  0  0  0  0  0  0  0  0  0  0
    9.0339    9.3761   22.0861 H   0  0  0  0  0  0  0  0  0  0  0  0
    8.2780   12.9772   25.4175 H   0  0  0  0  0  0  0  0  0  0  0  0
   10.5440   17.1737   22.6838 H   0  0  0  0  0  0  0  0  0  0  0  0
   11.6996   17.1928   21.3531 H   0  0  0  0  0  0  0  0  0  0  0  0
    7.8828   15.7002   20.5923 H   0  0  0  0  0  0  0  0  0  0  0  0
    8.2337   16.2622   22.2262 H   0  0  0  0  0  0  0  0  0  0  0  0
   11.8415   14.7395   21.3253 H   0  0  0  0  0  0  0  0  0  0  0  0
   12.1400   15.3296   22.9611 H   0  0  0  0  0  0  0  0  0  0  0  0
    8.2886   13.7982   22.1719 H   0  0  0  0  0  0  0  0  0  0  0  0
    9.4284   13.7994   20.8223 H   0  0  0  0  0  0  0  0  0  0  0  0
    9.4594   17.4868   20.5995 H   0  0  0  0  0  0  0  0  0  0  0  0
  1  2  1  0  0  0  0
  1  5  2  0  0  0  0
  2  6  2  0  0  0  0
  3  4  2  0  0  0  0
  3  5  1  0  0  0  0
  4  6  1  0  0  0  0
  4  7  1  0  0  0  0
  5 15  1  0  0  0  0
  6 16  1  0  0  0  0
  7 13  1  0  0  0  0
  7 14  2  0  0  0  0
  8 10  1  0  0  0  0
  8 12  1  0  0  0  0
  9 11  1  0  0  0  0
  9 12  1  0  0  0  0
 10 13  1  0  0  0  0
 11 13  1  0  0  0  0
  1 17  1  0  0  0  0
  2 18  1  0  0  0  0
  3 19  1  0  0  0  0
  8 20  1  0  0  0  0
  8 21  1  0  0  0  0
  9 22  1  0  0  0  0
  9 23  1  0  0  0  0
 10 24  1  0  0  0  0
 10 25  1  0  0  0  0
 11 26  1  0  0  0  0
 11 27  1  0  0  0  0
 12 28  1  0  0  0  0
M  END
> <Catalog ID>
Z1455770459

> <PlateID>
1337959-R-09

> <Well>
B05

> <MW (desalted)>
287.128

> <CLogP>
1.866

> <HBD>
1

> <TPSA>
32.340

> <RotBonds>
1

> <ROCS_ShapeQuery>
A71EV2A-x0451_0A_A71EV2A-x0310_0A_A71EV2A-x0416_0A_peptide

> <ROCS_TanimotoCombo>
0.394 

> <ROCS_ShapeTanimoto>
0.248 

> <ROCS_ColorTanimoto>
0.146 

> <ROCS_RefTversky>
0.228 

> <ROCS_RefColorTversky>
0.158 

> <ROCS_RefTverskyCombo>
0.386 

> <ROCS_FitTversky>
1.541 

> <ROCS_FitColorTversky>
0.659 

> <ROCS_FitTverskyCombo>
2.201 

> <ROCS_ColorScore>
-4.804

> <ROCS_Overlap>
1579.381

> <ROCS_Rank>
487                 

$$$$
untitled-dbase-1050_9
  -OEChem-11112309163D

 32 33  0     0  0  0  0  0  0999 V2000
   10.0523   11.0621   23.4453 C   0  0  0  0  0  0  0  0  0  0  0  0
    8.1454   12.2925   24.2419 C   0  0  0  0  0  0  0  0  0  0  0  0
    9.2895    9.9110   23.5596 C   0  0  0  0  0  0  0  0  0  0  0  0
    7.4679   11.0864   24.3203 C   0  0  0  0  0  0  0  0  0  0  0  0
    9.4619   12.2714   23.7949 C   0  0  0  0  0  0  0  0  0  0  0  0
    8.5438   15.5698   21.2391 C   0  0  0  0  0  0  0  0  0  0  0  0
   10.2227   13.5165   23.6926 C   0  0  0  0  0  0  0  0  0  0  0  0
    8.9836   14.2039   21.7170 C   0  0  0  0  0  0  0  0  0  0  0  0
   10.8918   15.7556   20.5921 C   0  0  0  0  0  0  0  0  0  0  0  0
   11.3502   15.1085   21.9277 C   0  0  0  0  0  0  0  0  0  0  0  0
   12.5775   14.2447   21.5896 C   0  0  0  0  0  0  0  0  0  0  0  0
   11.7581   16.2579   22.8705 C   0  0  0  0  0  0  0  0  0  0  0  0
    8.0080    9.8919   23.9896 N   0  0  0  0  0  0  0  0  0  0  0  0
    9.5702   16.3201   20.7091 N   0  0  0  0  0  0  0  0  0  0  0  0
   10.2216   14.2818   22.5083 N   0  0  0  0  0  0  0  0  0  0  0  0
    7.3635   15.9093   21.2108 O   0  0  0  0  0  0  0  0  0  0  0  0
   10.8491   13.8013   24.7170 O   0  0  0  0  0  0  0  0  0  0  0  0
   11.0766   11.0100   23.0917 H   0  0  0  0  0  0  0  0  0  0  0  0
    7.6550   13.2187   24.5219 H   0  0  0  0  0  0  0  0  0  0  0  0
    9.7030    8.9427   23.2986 H   0  0  0  0  0  0  0  0  0  0  0  0
    6.4394   11.0487   24.6631 H   0  0  0  0  0  0  0  0  0  0  0  0
    8.1693   13.7746   22.2945 H   0  0  0  0  0  0  0  0  0  0  0  0
    9.1833   13.5734   20.8507 H   0  0  0  0  0  0  0  0  0  0  0  0
   11.5707   16.5542   20.2769 H   0  0  0  0  0  0  0  0  0  0  0  0
   10.8554   15.0109   19.7888 H   0  0  0  0  0  0  0  0  0  0  0  0
   12.9363   13.7693   22.4950 H   0  0  0  0  0  0  0  0  0  0  0  0
   13.3527   14.8781   21.1742 H   0  0  0  0  0  0  0  0  0  0  0  0
   12.2911   13.4903   20.8660 H   0  0  0  0  0  0  0  0  0  0  0  0
   12.0847   15.8408   23.8158 H   0  0  0  0  0  0  0  0  0  0  0  0
   10.9038   16.9054   23.0287 H   0  0  0  0  0  0  0  0  0  0  0  0
   12.5665   16.8182   22.4157 H   0  0  0  0  0  0  0  0  0  0  0  0
    9.3967   17.2669   20.4021 H   0  0  0  0  0  0  0  0  0  0  0  0
  1  3  1  0  0  0  0
  1  5  2  0  0  0  0
  2  4  2  0  0  0  0
  2  5  1  0  0  0  0
  3 13  2  0  0  0  0
  4 13  1  0  0  0  0
  5  7  1  0  0  0  0
  6  8  1  0  0  0  0
  6 14  1  0  0  0  0
  6 16  2  0  0  0  0
  7 15  1  0  0  0  0
  7 17  2  0  0  0  0
  8 15  1  0  0  0  0
  9 10  1  0  0  0  0
  9 14  1  0  0  0  0
 10 11  1  0  0  0  0
 10 12  1  0  0  0  0
 10 15  1  0  0  0  0
  1 18  1  0  0  0  0
  2 19  1  0  0  0  0
  3 20  1  0  0  0  0
  4 21  1  0  0  0  0
  8 22  1  0  0  0  0
  8 23  1  0  0  0  0
  9 24  1  0  0  0  0
  9 25  1  0  0  0  0
 11 26  1  0  0  0  0
 11 27  1  0  0  0  0
 11 28  1  0  0  0  0
 12 29  1  0  0  0  0
 12 30  1  0  0  0  0
 12 31  1  0  0  0  0
 14 32  1  0  0  0  0
M  END
> <Catalog ID>
Z2001753056

> <PlateID>
1337959-R-14

> <Well>
B06

> <MW (desalted)>
233.266

> <CLogP>
0.498

> <HBD>
1

> <TPSA>
62.300

> <RotBonds>
1

> <ROCS_ShapeQuery>
A71EV2A-x0451_0A_A71EV2A-x0310_0A_A71EV2A-x0416_0A_peptide

> <ROCS_TanimotoCombo>
0.393 

> <ROCS_ShapeTanimoto>
0.253 

> <ROCS_ColorTanimoto>
0.140 

> <ROCS_RefTversky>
0.234 

> <ROCS_RefColorTversky>
0.156 

> <ROCS_RefTverskyCombo>
0.390 

> <ROCS_FitTversky>
1.493 

> <ROCS_FitColorTversky>
0.577 

> <ROCS_FitTverskyCombo>
2.070 

> <ROCS_ColorScore>
-4.749

> <ROCS_Overlap>
1621.571

> <ROCS_Rank>
488                 

$$$$
untitled-dbase-385_22
  -OEChem-11112309163D

 27 27  0     0  0  0  0  0  0999 V2000
    7.6162   10.0552   24.0995 C   0  0  0  0  0  0  0  0  0  0  0  0
    8.8288    9.6852   23.5178 C   0  0  0  0  0  0  0  0  0  0  0  0
    7.4354   11.3568   24.5673 C   0  0  0  0  0  0  0  0  0  0  0  0
    9.8606   10.6169   23.4039 C   0  0  0  0  0  0  0  0  0  0  0  0
    8.4672   12.2884   24.4534 C   0  0  0  0  0  0  0  0  0  0  0  0
    9.6798   11.9185   23.8718 C   0  0  0  0  0  0  0  0  0  0  0  0
    9.9054   15.3683   21.3009 C   0  0  0  0  0  0  0  0  0  0  0  0
    6.9969   13.8400   25.4958 C   0  0  0  0  0  0  0  0  0  0  0  0
    9.8696   13.8784   21.3387 C   0  0  0  0  0  0  0  0  0  0  0  0
   11.0461   13.3371   22.0341 N   0  0  0  0  0  0  0  0  0  0  0  0
   10.6019   14.3065   24.3792 O   0  0  0  0  0  0  0  0  0  0  0  0
   12.2160   12.3946   24.1260 O   0  0  0  0  0  0  0  0  0  0  0  0
    8.2685   13.5541   24.9170 O   0  0  0  0  0  0  0  0  0  0  0  0
   10.9903   13.0674   23.7201 S   0  0  0  0  0  0  0  0  0  0  0  0
    6.8130    9.3295   24.1881 H   0  0  0  0  0  0  0  0  0  0  0  0
    8.9691    8.6718   23.1535 H   0  0  0  0  0  0  0  0  0  0  0  0
    6.4878   11.6375   25.0191 H   0  0  0  0  0  0  0  0  0  0  0  0
   10.8007   10.3170   22.9489 H   0  0  0  0  0  0  0  0  0  0  0  0
   10.8125   15.7006   20.7748 H   0  0  0  0  0  0  0  0  0  0  0  0
    9.0168   15.7430   20.7718 H   0  0  0  0  0  0  0  0  0  0  0  0
    9.9131   15.7610   22.3284 H   0  0  0  0  0  0  0  0  0  0  0  0
    6.9711   14.8819   25.8242 H   0  0  0  0  0  0  0  0  0  0  0  0
    6.8244   13.1747   26.3455 H   0  0  0  0  0  0  0  0  0  0  0  0
    6.2200   13.6777   24.7449 H   0  0  0  0  0  0  0  0  0  0  0  0
    8.9603   13.5544   21.8660 H   0  0  0  0  0  0  0  0  0  0  0  0
    9.8528   13.4934   20.3084 H   0  0  0  0  0  0  0  0  0  0  0  0
   11.6854   12.7702   21.4637 H   0  0  0  0  0  0  0  0  0  0  0  0
  1  2  2  0  0  0  0
  1  3  1  0  0  0  0
  2  4  1  0  0  0  0
  3  5  2  0  0  0  0
  4  6  2  0  0  0  0
  5  6  1  0  0  0  0
  5 13  1  0  0  0  0
  6 14  1  0  0  0  0
  7  9  1  0  0  0  0
  8 13  1  0  0  0  0
  9 10  1  0  0  0  0
 10 14  1  0  0  0  0
 11 14  2  0  0  0  0
 12 14  2  0  0  0  0
  1 15  1  0  0  0  0
  2 16  1  0  0  0  0
  3 17  1  0  0  0  0
  4 18  1  0  0  0  0
  7 19  1  0  0  0  0
  7 20  1  0  0  0  0
  7 21  1  0  0  0  0
  8 22  1  0  0  0  0
  8 23  1  0  0  0  0
  8 24  1  0  0  0  0
  9 25  1  0  0  0  0
  9 26  1  0  0  0  0
 10 27  1  0  0  0  0
M  END
> <Catalog ID>
Z45528382

> <PlateID>
1337959-R-05

> <Well>
G07

> <MW (desalted)>
215.269

> <CLogP>
1.248

> <HBD>
1

> <TPSA>
55.400

> <RotBonds>
3

> <ROCS_ShapeQuery>
A71EV2A-x0451_0A_A71EV2A-x0310_0A_A71EV2A-x0416_0A_peptide

> <ROCS_TanimotoCombo>
0.393 

> <ROCS_ShapeTanimoto>
0.260 

> <ROCS_ColorTanimoto>
0.134 

> <ROCS_RefTversky>
0.233 

> <ROCS_RefColorTversky>
0.143 

> <ROCS_RefTverskyCombo>
0.376 

> <ROCS_FitTversky>
1.766 

> <ROCS_FitColorTversky>
0.683 

> <ROCS_FitTverskyCombo>
2.449 

> <ROCS_ColorScore>
-4.329

> <ROCS_Overlap>
1615.661

> <ROCS_Rank>
489                 

$$$$
untitled-dbase-907_34
  -OEChem-11112309163D

 26 27  0     0  0  0  0  0  0999 V2000
    8.5201   12.3199   24.4449 C   0  0  0  0  0  0  0  0  0  0  0  0
    7.4484   11.4451   24.6228 C   0  0  0  0  0  0  0  0  0  0  0  0
   12.6820   15.1111   22.0620 C   0  0  0  0  0  0  0  0  0  0  0  0
    8.7253    9.6715   23.5928 C   0  0  0  0  0  0  0  0  0  0  0  0
   13.0049   16.0814   21.1507 C   0  0  0  0  0  0  0  0  0  0  0  0
    9.7970   10.5464   23.4148 C   0  0  0  0  0  0  0  0  0  0  0  0
    9.6944   11.8706   23.8409 C   0  0  0  0  0  0  0  0  0  0  0  0
    7.5510   10.1209   24.1968 C   0  0  0  0  0  0  0  0  0  0  0  0
   11.7727   14.2923   21.3704 C   0  0  0  0  0  0  0  0  0  0  0  0
   11.0405   10.0334   22.7655 C   0  0  0  0  0  0  0  0  0  0  0  0
   11.5488   14.7218   20.1253 N   0  0  0  0  0  0  0  0  0  0  0  0
   11.1417   13.1229   21.9205 N   0  0  0  0  0  0  0  0  0  0  0  0
   12.2269   12.3494   24.1292 O   0  0  0  0  0  0  0  0  0  0  0  0
   10.6259   14.2812   24.1934 O   0  0  0  0  0  0  0  0  0  0  0  0
   12.3350   15.8599   19.9909 O   0  0  0  0  0  0  0  0  0  0  0  0
   11.0190   12.9955   23.6334 S   0  0  0  0  0  0  0  0  0  0  0  0
    6.2278    9.0418   24.4157 Cl  0  0  0  0  0  0  0  0  0  0  0  0
    8.4284   13.3494   24.7813 H   0  0  0  0  0  0  0  0  0  0  0  0
    6.5395   11.8088   25.0950 H   0  0  0  0  0  0  0  0  0  0  0  0
   13.0524   15.0159   23.0721 H   0  0  0  0  0  0  0  0  0  0  0  0
    8.8090    8.6395   23.2591 H   0  0  0  0  0  0  0  0  0  0  0  0
   13.6526   16.9451   21.1640 H   0  0  0  0  0  0  0  0  0  0  0  0
   10.9857   10.1699   21.6794 H   0  0  0  0  0  0  0  0  0  0  0  0
   11.9282   10.5580   23.1397 H   0  0  0  0  0  0  0  0  0  0  0  0
   11.1869    8.9670   22.9772 H   0  0  0  0  0  0  0  0  0  0  0  0
   11.3402   12.2488   21.4159 H   0  0  0  0  0  0  0  0  0  0  0  0
  1  2  1  0  0  0  0
  1  7  2  0  0  0  0
  2  8  2  0  0  0  0
  3  5  2  0  0  0  0
  3  9  1  0  0  0  0
  4  6  2  0  0  0  0
  4  8  1  0  0  0  0
  5 15  1  0  0  0  0
  6  7  1  0  0  0  0
  6 10  1  0  0  0  0
  7 16  1  0  0  0  0
  8 17  1  0  0  0  0
  9 11  2  0  0  0  0
  9 12  1  0  0  0  0
 11 15  1  0  0  0  0
 12 16  1  0  0  0  0
 13 16  2  0  0  0  0
 14 16  2  0  0  0  0
  1 18  1  0  0  0  0
  2 19  1  0  0  0  0
  3 20  1  0  0  0  0
  4 21  1  0  0  0  0
  5 22  1  0  0  0  0
 10 23  1  0  0  0  0
 10 24  1  0  0  0  0
 10 25  1  0  0  0  0
 12 26  1  0  0  0  0
M  END
> <Catalog ID>
Z1620657975

> <PlateID>
1337959-R-12

> <Well>
C11

> <MW (desalted)>
272.708

> <CLogP>
2.421

> <HBD>
1

> <TPSA>
72.200

> <RotBonds>
2

> <ROCS_ShapeQuery>
A71EV2A-x0451_0A_A71EV2A-x0310_0A_A71EV2A-x0416_0A_peptide

> <ROCS_TanimotoCombo>
0.393 

> <ROCS_ShapeTanimoto>
0.294 

> <ROCS_ColorTanimoto>
0.099 

> <ROCS_RefTversky>
0.262 

> <ROCS_RefColorTversky>
0.112 

> <ROCS_RefTverskyCombo>
0.374 

> <ROCS_FitTversky>
1.709 

> <ROCS_FitColorTversky>
0.467 

> <ROCS_FitTverskyCombo>
2.177 

> <ROCS_ColorScore>
-3.404

> <ROCS_Overlap>
1816.394

> <ROCS_Rank>
490                 

$$$$
untitled-dbase-733_186
  -OEChem-11112309163D

 41 42  0     1  0  0  0  0  0999 V2000
   10.9675   15.5051   23.7328 C   0  0  0  0  0  0  0  0  0  0  0  0
   11.5009   15.4022   22.4720 C   0  0  0  0  0  0  0  0  0  0  0  0
   11.0449   13.4606   23.2456 C   0  0  0  0  0  0  0  0  0  0  0  0
    8.1810    9.5174   23.8456 C   0  0  0  0  0  0  0  0  0  0  0  0
    7.3382   10.3549   24.8014 C   0  0  0  0  0  0  0  0  0  0  0  0
    9.6060   10.0603   23.7390 C   0  0  0  0  0  0  0  0  0  0  0  0
    8.8619   12.3017   24.2915 C   0  0  0  0  0  0  0  0  0  0  0  0
    7.4012   11.8367   24.4153 C   0  0  2  0  0  0  0  0  0  0  0  0
    6.6445   12.6912   25.4304 C   0  0  0  0  0  0  0  0  0  0  0  0
   13.1857   17.2190   22.0177 C   0  0  0  0  0  0  0  0  0  0  0  0
   10.8755   17.3708   21.0296 C   0  0  0  0  0  0  0  0  0  0  0  0
   12.5267   15.7465   20.1258 C   0  0  0  0  0  0  0  0  0  0  0  0
   10.9748   11.9622   23.1830 C   0  0  0  0  0  0  0  0  0  0  0  0
   11.9901   16.3593   21.4747 C   0  0  0  0  0  0  0  0  0  0  0  0
   10.6772   14.2576   24.2232 N   0  0  0  0  0  0  0  0  0  0  0  0
    9.6047   11.4716   23.3314 N   0  0  1  0  0  0  0  0  0  0  0  0
   11.5554   14.0806   22.1465 O   0  0  0  0  0  0  0  0  0  0  0  0
   10.7785   16.3989   24.3086 H   0  0  0  0  0  0  0  0  0  0  0  0
    8.2064    8.4775   24.1906 H   0  0  0  0  0  0  0  0  0  0  0  0
    7.7131    9.5131   22.8527 H   0  0  0  0  0  0  0  0  0  0  0  0
    6.3007   10.0011   24.7852 H   0  0  0  0  0  0  0  0  0  0  0  0
    7.7083   10.2172   25.8255 H   0  0  0  0  0  0  0  0  0  0  0  0
   10.1222    9.9310   24.6994 H   0  0  0  0  0  0  0  0  0  0  0  0
   10.1450    9.4598   22.9963 H   0  0  0  0  0  0  0  0  0  0  0  0
    8.8654   13.3445   23.9495 H   0  0  0  0  0  0  0  0  0  0  0  0
    9.3477   12.2824   25.2767 H   0  0  0  0  0  0  0  0  0  0  0  0
    6.9123   11.9613   23.4392 H   0  0  0  0  0  0  0  0  0  0  0  0
    7.1039   12.5910   26.4123 H   0  0  0  0  0  0  0  0  0  0  0  0
    5.6073   12.3651   25.4869 H   0  0  0  0  0  0  0  0  0  0  0  0
    6.6740   13.7366   25.1275 H   0  0  0  0  0  0  0  0  0  0  0  0
   13.5708   17.9436   21.2906 H   0  0  0  0  0  0  0  0  0  0  0  0
   12.8914   17.7851   22.9083 H   0  0  0  0  0  0  0  0  0  0  0  0
   14.0149   16.5616   22.3049 H   0  0  0  0  0  0  0  0  0  0  0  0
   11.2590   18.0771   20.2852 H   0  0  0  0  0  0  0  0  0  0  0  0
    9.9954   16.8878   20.5890 H   0  0  0  0  0  0  0  0  0  0  0  0
   10.5379   17.9547   21.8940 H   0  0  0  0  0  0  0  0  0  0  0  0
   12.8809   16.5012   19.4132 H   0  0  0  0  0  0  0  0  0  0  0  0
   13.3663   15.0691   20.3206 H   0  0  0  0  0  0  0  0  0  0  0  0
   11.7366   15.1759   19.6239 H   0  0  0  0  0  0  0  0  0  0  0  0
   11.3619   11.5972   22.2255 H   0  0  0  0  0  0  0  0  0  0  0  0
   11.5808   11.5071   23.9735 H   0  0  0  0  0  0  0  0  0  0  0  0
  1  2  2  0  0  0  0
  1 15  1  0  0  0  0
  2 14  1  0  0  0  0
  2 17  1  0  0  0  0
  3 13  1  0  0  0  0
  3 15  2  0  0  0  0
  3 17  1  0  0  0  0
  4  5  1  0  0  0  0
  4  6  1  0  0  0  0
  5  8  1  0  0  0  0
  6 16  1  0  0  0  0
  7  8  1  0  0  0  0
  7 16  1  0  0  0  0
  8  9  1  0  0  0  0
 10 14  1  0  0  0  0
 11 14  1  0  0  0  0
 12 14  1  0  0  0  0
 13 16  1  0  0  0  0
  1 18  1  0  0  0  0
  4 19  1  0  0  0  0
  4 20  1  0  0  0  0
  5 21  1  0  0  0  0
  5 22  1  0  0  0  0
  6 23  1  0  0  0  0
  6 24  1  0  0  0  0
  7 25  1  0  0  0  0
  7 26  1  0  0  0  0
  8 27  1  0  0  0  0
  9 28  1  0  0  0  0
  9 29  1  0  0  0  0
  9 30  1  0  0  0  0
 10 31  1  0  0  0  0
 10 32  1  0  0  0  0
 10 33  1  0  0  0  0
 11 34  1  0  0  0  0
 11 35  1  0  0  0  0
 11 36  1  0  0  0  0
 12 37  1  0  0  0  0
 12 38  1  0  0  0  0
 12 39  1  0  0  0  0
 13 40  1  0  0  0  0
 13 41  1  0  0  0  0
M  END
> <Catalog ID>
Z368775460

> <PlateID>
1337959-R-10

> <Well>
B06

> <MW (desalted)>
236.353

> <CLogP>
2.963

> <HBD>
0

> <TPSA>
29.270

> <RotBonds>
3

> <ROCS_ShapeQuery>
A71EV2A-x0451_0A_A71EV2A-x0310_0A_A71EV2A-x0416_0A_peptide

> <ROCS_TanimotoCombo>
0.393 

> <ROCS_ShapeTanimoto>
0.295 

> <ROCS_ColorTanimoto>
0.098 

> <ROCS_RefTversky>
0.263 

> <ROCS_RefColorTversky>
0.108 

> <ROCS_RefTverskyCombo>
0.370 

> <ROCS_FitTversky>
1.717 

> <ROCS_FitColorTversky>
0.518 

> <ROCS_FitTverskyCombo>
2.235 

> <ROCS_ColorScore>
-3.279

> <ROCS_Overlap>
1819.944

> <ROCS_Rank>
491                 

$$$$
untitled-dbase-1101_124
  -OEChem-11112309163D

 30 31  0     0  0  0  0  0  0999 V2000
   11.5186   16.0929   22.3589 C   0  0  0  0  0  0  0  0  0  0  0  0
    8.3746   11.9408   24.5444 C   0  0  0  0  0  0  0  0  0  0  0  0
    9.2070    9.9794   23.4055 C   0  0  0  0  0  0  0  0  0  0  0  0
    7.1555   11.2982   24.7602 C   0  0  0  0  0  0  0  0  0  0  0  0
    7.9879    9.3368   23.6214 C   0  0  0  0  0  0  0  0  0  0  0  0
    9.4003   11.2815   23.8670 C   0  0  0  0  0  0  0  0  0  0  0  0
    6.9622    9.9962   24.2987 C   0  0  0  0  0  0  0  0  0  0  0  0
   10.6000   13.4602   23.5040 C   0  0  0  0  0  0  0  0  0  0  0  0
   11.7519   11.2831   22.8121 C   0  0  0  0  0  0  0  0  0  0  0  0
   11.9389   11.4254   24.2878 C   0  0  0  0  0  0  0  0  0  0  0  0
   10.6890   11.9606   23.6381 C   0  0  0  0  0  0  0  0  0  0  0  0
   10.2953   13.0968   21.0502 C   0  0  0  0  0  0  0  0  0  0  0  0
   10.3032   15.3944   21.9446 C   0  0  0  0  0  0  0  0  0  0  0  0
   12.4822   16.6505   22.6863 N   0  0  0  0  0  0  0  0  0  0  0  0
   10.4071   13.9631   22.2168 N   0  0  0  0  0  0  0  0  0  0  0  0
   10.6991   14.1618   24.5142 O   0  0  0  0  0  0  0  0  0  0  0  0
    5.7913    9.3794   24.5053 F   0  0  0  0  0  0  0  0  0  0  0  0
    8.5152   12.9556   24.9075 H   0  0  0  0  0  0  0  0  0  0  0  0
    9.9997    9.4569   22.8765 H   0  0  0  0  0  0  0  0  0  0  0  0
    6.3563   11.8120   25.2863 H   0  0  0  0  0  0  0  0  0  0  0  0
    7.8362    8.3230   23.2625 H   0  0  0  0  0  0  0  0  0  0  0  0
   12.3867   11.8776   22.1650 H   0  0  0  0  0  0  0  0  0  0  0  0
   11.5387   10.2930   22.4253 H   0  0  0  0  0  0  0  0  0  0  0  0
   11.8521   10.5310   24.8941 H   0  0  0  0  0  0  0  0  0  0  0  0
   12.6996   12.1159   24.6341 H   0  0  0  0  0  0  0  0  0  0  0  0
    9.2402   12.8296   20.8910 H   0  0  0  0  0  0  0  0  0  0  0  0
   10.6776   13.6244   20.1639 H   0  0  0  0  0  0  0  0  0  0  0  0
   10.8842   12.1824   21.2149 H   0  0  0  0  0  0  0  0  0  0  0  0
    9.4291   15.7710   22.4834 H   0  0  0  0  0  0  0  0  0  0  0  0
   10.1256   15.5150   20.8722 H   0  0  0  0  0  0  0  0  0  0  0  0
  1 13  1  0  0  0  0
  1 14  3  0  0  0  0
  2  4  1  0  0  0  0
  2  6  2  0  0  0  0
  3  5  2  0  0  0  0
  3  6  1  0  0  0  0
  4  7  2  0  0  0  0
  5  7  1  0  0  0  0
  6 11  1  0  0  0  0
  7 17  1  0  0  0  0
  8 11  1  0  0  0  0
  8 15  1  0  0  0  0
  8 16  2  0  0  0  0
  9 10  1  0  0  0  0
  9 11  1  0  0  0  0
 10 11  1  0  0  0  0
 12 15  1  0  0  0  0
 13 15  1  0  0  0  0
  2 18  1  0  0  0  0
  3 19  1  0  0  0  0
  4 20  1  0  0  0  0
  5 21  1  0  0  0  0
  9 22  1  0  0  0  0
  9 23  1  0  0  0  0
 10 24  1  0  0  0  0
 10 25  1  0  0  0  0
 12 26  1  0  0  0  0
 12 27  1  0  0  0  0
 12 28  1  0  0  0  0
 13 29  1  0  0  0  0
 13 30  1  0  0  0  0
M  END
> <Catalog ID>
Z968637440

> <PlateID>
1337959-R-14

> <Well>
G07

> <MW (desalted)>
232.254

> <CLogP>
1.199

> <HBD>
0

> <TPSA>
44.100

> <RotBonds>
3

> <ROCS_ShapeQuery>
A71EV2A-x0451_0A_A71EV2A-x0310_0A_A71EV2A-x0416_0A_peptide

> <ROCS_TanimotoCombo>
0.393 

> <ROCS_ShapeTanimoto>
0.281 

> <ROCS_ColorTanimoto>
0.112 

> <ROCS_RefTversky>
0.253 

> <ROCS_RefColorTversky>
0.116 

> <ROCS_RefTverskyCombo>
0.369 

> <ROCS_FitTversky>
1.635 

> <ROCS_FitColorTversky>
0.789 

> <ROCS_FitTverskyCombo>
2.424 

> <ROCS_ColorScore>
-3.499

> <ROCS_Overlap>
1755.362

> <ROCS_Rank>
492                 

$$$$
untitled-dbase-310_2
  -OEChem-11112309163D

 31 32  0     0  0  0  0  0  0999 V2000
   10.4347   11.6345   22.8769 C   0  0  0  0  0  0  0  0  0  0  0  0
    9.6203   10.5301   23.1224 C   0  0  0  0  0  0  0  0  0  0  0  0
    9.1723   12.9188   24.4848 C   0  0  0  0  0  0  0  0  0  0  0  0
   10.2132   12.8276   23.5605 C   0  0  0  0  0  0  0  0  0  0  0  0
    8.3403   11.8178   24.7299 C   0  0  0  0  0  0  0  0  0  0  0  0
    8.5823   10.6157   24.0547 C   0  0  0  0  0  0  0  0  0  0  0  0
   11.0680   13.9777   23.3122 C   0  0  0  0  0  0  0  0  0  0  0  0
    7.2292   11.9319   25.7309 C   0  0  0  0  0  0  0  0  0  0  0  0
    6.2210   10.8102   25.5252 C   0  0  0  0  0  0  0  0  0  0  0  0
    6.9207    9.4544   25.3367 C   0  0  0  0  0  0  0  0  0  0  0  0
   12.4896   13.7112   22.9102 C   0  0  0  0  0  0  0  0  0  0  0  0
    5.8643    8.3972   24.9836 C   0  0  0  0  0  0  0  0  0  0  0  0
    7.6702    8.9933   26.5959 C   0  0  0  0  0  0  0  0  0  0  0  0
   10.7152   15.1548   23.4113 O   0  0  0  0  0  0  0  0  0  0  0  0
    7.8401    9.4774   24.2285 O   0  0  0  0  0  0  0  0  0  0  0  0
   11.2371   11.5541   22.1482 H   0  0  0  0  0  0  0  0  0  0  0  0
    9.7959    9.6054   22.5786 H   0  0  0  0  0  0  0  0  0  0  0  0
    9.0064   13.8493   25.0239 H   0  0  0  0  0  0  0  0  0  0  0  0
    7.6273   11.8726   26.7508 H   0  0  0  0  0  0  0  0  0  0  0  0
    6.7448   12.9086   25.6195 H   0  0  0  0  0  0  0  0  0  0  0  0
    5.5796   10.7617   26.4164 H   0  0  0  0  0  0  0  0  0  0  0  0
    5.5703   11.0441   24.6744 H   0  0  0  0  0  0  0  0  0  0  0  0
   12.6379   13.6270   21.8220 H   0  0  0  0  0  0  0  0  0  0  0  0
   12.9071   12.8029   23.3716 H   0  0  0  0  0  0  0  0  0  0  0  0
   13.1848   14.5162   23.2082 H   0  0  0  0  0  0  0  0  0  0  0  0
    6.3487    7.4349   24.8482 H   0  0  0  0  0  0  0  0  0  0  0  0
    5.3613    8.6833   24.0648 H   0  0  0  0  0  0  0  0  0  0  0  0
    5.1393    8.3292   25.7891 H   0  0  0  0  0  0  0  0  0  0  0  0
    8.1424    8.0344   26.4037 H   0  0  0  0  0  0  0  0  0  0  0  0
    6.9675    8.8938   27.4177 H   0  0  0  0  0  0  0  0  0  0  0  0
    8.4287    9.7267   26.8530 H   0  0  0  0  0  0  0  0  0  0  0  0
  1  2  1  0  0  0  0
  1  4  2  0  0  0  0
  2  6  2  0  0  0  0
  3  4  1  0  0  0  0
  3  5  2  0  0  0  0
  4  7  1  0  0  0  0
  5  6  1  0  0  0  0
  5  8  1  0  0  0  0
  6 15  1  0  0  0  0
  7 11  1  0  0  0  0
  7 14  2  0  0  0  0
  8  9  1  0  0  0  0
  9 10  1  0  0  0  0
 10 12  1  0  0  0  0
 10 13  1  0  0  0  0
 10 15  1  0  0  0  0
  1 16  1  0  0  0  0
  2 17  1  0  0  0  0
  3 18  1  0  0  0  0
  8 19  1  0  0  0  0
  8 20  1  0  0  0  0
  9 21  1  0  0  0  0
  9 22  1  0  0  0  0
 11 23  1  0  0  0  0
 11 24  1  0  0  0  0
 11 25  1  0  0  0  0
 12 26  1  0  0  0  0
 12 27  1  0  0  0  0
 12 28  1  0  0  0  0
 13 29  1  0  0  0  0
 13 30  1  0  0  0  0
 13 31  1  0  0  0  0
M  END
> <Catalog ID>
Z1509575584

> <PlateID>
1337959-R-04

> <Well>
H02

> <MW (desalted)>
204.265

> <CLogP>
3.383

> <HBD>
0

> <TPSA>
26.300

> <RotBonds>
1

> <ROCS_ShapeQuery>
A71EV2A-x0451_0A_A71EV2A-x0310_0A_A71EV2A-x0416_0A_peptide

> <ROCS_TanimotoCombo>
0.393 

> <ROCS_ShapeTanimoto>
0.275 

> <ROCS_ColorTanimoto>
0.118 

> <ROCS_RefTversky>
0.247 

> <ROCS_RefColorTversky>
0.127 

> <ROCS_RefTverskyCombo>
0.374 

> <ROCS_FitTversky>
1.717 

> <ROCS_FitColorTversky>
0.610 

> <ROCS_FitTverskyCombo>
2.327 

> <ROCS_ColorScore>
-3.865

> <ROCS_Overlap>
1709.476

> <ROCS_Rank>
493                 

$$$$
untitled-dbase-1060_93
  -OEChem-11112309163D

 35 36  0     1  0  0  0  0  0999 V2000
   11.5747   14.6605   19.2039 C   0  0  0  0  0  0  0  0  0  0  0  0
   11.1437   13.3520   19.4224 C   0  0  0  0  0  0  0  0  0  0  0  0
   11.8621   15.4903   20.2877 C   0  0  0  0  0  0  0  0  0  0  0  0
   11.0000   12.8734   20.7247 C   0  0  0  0  0  0  0  0  0  0  0  0
   11.7183   15.0117   21.5900 C   0  0  0  0  0  0  0  0  0  0  0  0
   11.2872   13.7032   21.8085 C   0  0  0  0  0  0  0  0  0  0  0  0
    8.9787    9.6069   23.4224 C   0  0  0  0  0  0  0  0  0  0  0  0
    8.0493    9.6052   24.6417 C   0  0  0  0  0  0  0  0  0  0  0  0
   10.1565   10.5628   23.5673 C   0  0  0  0  0  0  0  0  0  0  0  0
    7.9156   12.0511   24.8390 C   0  0  0  0  0  0  0  0  0  0  0  0
    8.4557   12.4552   23.4706 C   0  0  0  0  0  0  0  0  0  0  0  0
    6.3231   10.6301   25.9513 C   0  0  0  0  0  0  0  0  0  0  0  0
    7.1806   10.7815   24.7714 N   0  0  2  0  0  0  0  0  0  0  0  0
    9.8357   11.9705   23.2217 N   0  0  1  0  0  0  0  0  0  0  0  0
   12.3129   12.3848   23.8043 O   0  0  0  0  0  0  0  0  0  0  0  0
   10.6169   14.1867   24.2786 O   0  0  0  0  0  0  0  0  0  0  0  0
   11.1019   13.0980   23.4567 S   0  0  0  0  0  0  0  0  0  0  0  0
   11.6863   15.0340   18.1902 H   0  0  0  0  0  0  0  0  0  0  0  0
   10.9189   12.7060   18.5790 H   0  0  0  0  0  0  0  0  0  0  0  0
   12.1969   16.5092   20.1172 H   0  0  0  0  0  0  0  0  0  0  0  0
   10.6626   11.8527   20.8837 H   0  0  0  0  0  0  0  0  0  0  0  0
   11.9436   15.6672   22.4268 H   0  0  0  0  0  0  0  0  0  0  0  0
    9.3781    8.6033   23.2838 H   0  0  0  0  0  0  0  0  0  0  0  0
    8.4120    9.8385   22.5227 H   0  0  0  0  0  0  0  0  0  0  0  0
    7.4028    8.7108   24.5261 H   0  0  0  0  0  0  0  0  0  0  0  0
    8.6247    9.4206   25.5746 H   0  0  0  0  0  0  0  0  0  0  0  0
   10.4902   10.5476   24.6104 H   0  0  0  0  0  0  0  0  0  0  0  0
   10.9847   10.2125   22.9435 H   0  0  0  0  0  0  0  0  0  0  0  0
    8.7211   11.9991   25.5647 H   0  0  0  0  0  0  0  0  0  0  0  0
    7.2211   12.8283   25.1466 H   0  0  0  0  0  0  0  0  0  0  0  0
    7.7722   12.1506   22.6437 H   0  0  0  0  0  0  0  0  0  0  0  0
    8.4522   13.5678   23.4216 H   0  0  0  0  0  0  0  0  0  0  0  0
    5.6725   11.5119   26.0479 H   0  0  0  0  0  0  0  0  0  0  0  0
    5.7036    9.7279   25.8409 H   0  0  0  0  0  0  0  0  0  0  0  0
    6.9498   10.5368   26.8504 H   0  0  0  0  0  0  0  0  0  0  0  0
  1  2  2  0  0  0  0
  1  3  1  0  0  0  0
  2  4  1  0  0  0  0
  3  5  2  0  0  0  0
  4  6  2  0  0  0  0
  5  6  1  0  0  0  0
  6 17  1  0  0  0  0
  7  8  1  0  0  0  0
  7  9  1  0  0  0  0
  8 13  1  0  0  0  0
  9 14  1  0  0  0  0
 10 11  1  0  0  0  0
 10 13  1  0  0  0  0
 11 14  1  0  0  0  0
 12 13  1  0  0  0  0
 14 17  1  0  0  0  0
 15 17  2  0  0  0  0
 16 17  2  0  0  0  0
  1 18  1  0  0  0  0
  2 19  1  0  0  0  0
  3 20  1  0  0  0  0
  4 21  1  0  0  0  0
  5 22  1  0  0  0  0
  7 23  1  0  0  0  0
  7 24  1  0  0  0  0
  8 25  1  0  0  0  0
  8 26  1  0  0  0  0
  9 27  1  0  0  0  0
  9 28  1  0  0  0  0
 10 29  1  0  0  0  0
 10 30  1  0  0  0  0
 11 31  1  0  0  0  0
 11 32  1  0  0  0  0
 12 33  1  0  0  0  0
 12 34  1  0  0  0  0
 12 35  1  0  0  0  0
M  END
> <Catalog ID>
Z45547538

> <PlateID>
1337959-R-14

> <Well>
C06

> <MW (desalted)>
254.349

> <CLogP>
1.760

> <HBD>
0

> <TPSA>
40.620

> <RotBonds>
1

> <ROCS_ShapeQuery>
A71EV2A-x0451_0A_A71EV2A-x0310_0A_A71EV2A-x0416_0A_peptide

> <ROCS_TanimotoCombo>
0.392 

> <ROCS_ShapeTanimoto>
0.290 

> <ROCS_ColorTanimoto>
0.102 

> <ROCS_RefTversky>
0.259 

> <ROCS_RefColorTversky>
0.112 

> <ROCS_RefTverskyCombo>
0.371 

> <ROCS_FitTversky>
1.717 

> <ROCS_FitColorTversky>
0.537 

> <ROCS_FitTverskyCombo>
2.254 

> <ROCS_ColorScore>
-3.405

> <ROCS_Overlap>
1794.520

> <ROCS_Rank>
494                 

$$$$
untitled-dbase-684_37
  -OEChem-11112309163D

 30 31  0     0  0  0  0  0  0999 V2000
    8.8710    9.7899   23.4096 C   0  0  0  0  0  0  0  0  0  0  0  0
    7.7919    9.9790   24.2729 C   0  0  0  0  0  0  0  0  0  0  0  0
    9.7392   10.8469   23.1365 C   0  0  0  0  0  0  0  0  0  0  0  0
    7.5809   11.2251   24.8631 C   0  0  0  0  0  0  0  0  0  0  0  0
    9.5282   12.0931   23.7266 C   0  0  0  0  0  0  0  0  0  0  0  0
    8.4490   12.2822   24.5899 C   0  0  0  0  0  0  0  0  0  0  0  0
   10.4565   13.1880   23.4212 C   0  0  0  0  0  0  0  0  0  0  0  0
   10.5086   12.6409   20.9326 C   0  0  0  0  0  0  0  0  0  0  0  0
   12.3766   13.8498   22.0123 C   0  0  0  0  0  0  0  0  0  0  0  0
   10.1813   13.7413   19.9304 C   0  0  0  0  0  0  0  0  0  0  0  0
   12.2701   15.0915   21.1350 C   0  0  0  0  0  0  0  0  0  0  0  0
    8.1993   13.6061   25.2349 C   0  0  0  0  0  0  0  0  0  0  0  0
   11.0770   13.1957   22.1685 N   0  0  0  0  0  0  0  0  0  0  0  0
   10.6110   14.0293   24.3052 O   0  0  0  0  0  0  0  0  0  0  0  0
    7.1031   13.6181   26.0484 F   0  0  0  0  0  0  0  0  0  0  0  0
    9.2317   14.0331   26.0191 F   0  0  0  0  0  0  0  0  0  0  0  0
    7.9928   14.6006   24.3245 F   0  0  0  0  0  0  0  0  0  0  0  0
   11.6723   14.6787   19.4645 S   0  0  0  0  0  0  0  0  0  0  0  0
    9.0359    8.8195   22.9500 H   0  0  0  0  0  0  0  0  0  0  0  0
    7.1161    9.1556   24.4851 H   0  0  0  0  0  0  0  0  0  0  0  0
   10.5759   10.6871   22.4611 H   0  0  0  0  0  0  0  0  0  0  0  0
    6.7373   11.3617   25.5346 H   0  0  0  0  0  0  0  0  0  0  0  0
    9.6000   12.0707   21.1438 H   0  0  0  0  0  0  0  0  0  0  0  0
   11.2346   11.9302   20.5183 H   0  0  0  0  0  0  0  0  0  0  0  0
   13.0782   13.1205   21.5898 H   0  0  0  0  0  0  0  0  0  0  0  0
   12.7691   14.1395   22.9931 H   0  0  0  0  0  0  0  0  0  0  0  0
    9.7615   13.3009   19.0206 H   0  0  0  0  0  0  0  0  0  0  0  0
    9.4353   14.4330   20.3362 H   0  0  0  0  0  0  0  0  0  0  0  0
   11.5974   15.8312   21.5826 H   0  0  0  0  0  0  0  0  0  0  0  0
   13.2542   15.5605   21.0360 H   0  0  0  0  0  0  0  0  0  0  0  0
  1  2  2  0  0  0  0
  1  3  1  0  0  0  0
  2  4  1  0  0  0  0
  3  5  2  0  0  0  0
  4  6  2  0  0  0  0
  5  6  1  0  0  0  0
  5  7  1  0  0  0  0
  6 12  1  0  0  0  0
  7 13  1  0  0  0  0
  7 14  2  0  0  0  0
  8 10  1  0  0  0  0
  8 13  1  0  0  0  0
  9 11  1  0  0  0  0
  9 13  1  0  0  0  0
 10 18  1  0  0  0  0
 11 18  1  0  0  0  0
 12 15  1  0  0  0  0
 12 16  1  0  0  0  0
 12 17  1  0  0  0  0
  1 19  1  0  0  0  0
  2 20  1  0  0  0  0
  3 21  1  0  0  0  0
  4 22  1  0  0  0  0
  8 23  1  0  0  0  0
  8 24  1  0  0  0  0
  9 25  1  0  0  0  0
  9 26  1  0  0  0  0
 10 27  1  0  0  0  0
 10 28  1  0  0  0  0
 11 29  1  0  0  0  0
 11 30  1  0  0  0  0
M  END
> <Catalog ID>
Z437588016

> <PlateID>
1337959-R-09

> <Well>
E07

> <MW (desalted)>
275.290

> <CLogP>
2.522

> <HBD>
0

> <TPSA>
20.310

> <RotBonds>
2

> <ROCS_ShapeQuery>
A71EV2A-x0451_0A_A71EV2A-x0310_0A_A71EV2A-x0416_0A_peptide

> <ROCS_TanimotoCombo>
0.392 

> <ROCS_ShapeTanimoto>
0.284 

> <ROCS_ColorTanimoto>
0.109 

> <ROCS_RefTversky>
0.257 

> <ROCS_RefColorTversky>
0.112 

> <ROCS_RefTverskyCombo>
0.369 

> <ROCS_FitTversky>
1.592 

> <ROCS_FitColorTversky>
0.766 

> <ROCS_FitTverskyCombo>
2.358 

> <ROCS_ColorScore>
-3.399

> <ROCS_Overlap>
1781.094

> <ROCS_Rank>
495                 

$$$$
untitled-dbase-216_13
  -OEChem-11112309163D

 28 29  0     0  0  0  0  0  0999 V2000
    6.9917   10.1878   24.7224 C   0  0  0  0  0  0  0  0  0  0  0  0
    7.0510   11.5302   24.3484 C   0  0  0  0  0  0  0  0  0  0  0  0
    8.1449    9.4036   24.6915 C   0  0  0  0  0  0  0  0  0  0  0  0
    8.2634   12.0885   23.9434 C   0  0  0  0  0  0  0  0  0  0  0  0
    9.3573    9.9618   24.2865 C   0  0  0  0  0  0  0  0  0  0  0  0
    9.4166   11.3043   23.9125 C   0  0  0  0  0  0  0  0  0  0  0  0
   10.5794   13.4270   23.0960 C   0  0  0  0  0  0  0  0  0  0  0  0
   10.2753   15.5036   22.0180 C   0  0  0  0  0  0  0  0  0  0  0  0
   11.3816   11.2265   22.2168 C   0  0  0  0  0  0  0  0  0  0  0  0
   11.7859   11.6984   24.6121 C   0  0  0  0  0  0  0  0  0  0  0  0
   10.7133   11.9005   23.4793 C   0  0  0  0  0  0  0  0  0  0  0  0
   10.7287   14.4352   23.9286 N   0  0  0  0  0  0  0  0  0  0  0  0
   10.5493   15.6532   23.2964 N   0  0  0  0  0  0  0  0  0  0  0  0
   10.0507   16.5183   21.1444 N   0  0  0  0  0  0  0  0  0  0  0  0
   10.2126   13.8757   21.4818 S   0  0  0  0  0  0  0  0  0  0  0  0
    6.0478    9.7536   25.0390 H   0  0  0  0  0  0  0  0  0  0  0  0
    6.1534   12.1413   24.3735 H   0  0  0  0  0  0  0  0  0  0  0  0
    8.0993    8.3586   24.9837 H   0  0  0  0  0  0  0  0  0  0  0  0
    8.3001   13.1353   23.6536 H   0  0  0  0  0  0  0  0  0  0  0  0
   10.2506    9.3432   24.2654 H   0  0  0  0  0  0  0  0  0  0  0  0
   12.3267   11.7236   21.9672 H   0  0  0  0  0  0  0  0  0  0  0  0
   11.6016   10.1687   22.4025 H   0  0  0  0  0  0  0  0  0  0  0  0
   10.7487   11.2686   21.3213 H   0  0  0  0  0  0  0  0  0  0  0  0
   12.7418   12.1357   24.2975 H   0  0  0  0  0  0  0  0  0  0  0  0
   11.5169   12.1646   25.5674 H   0  0  0  0  0  0  0  0  0  0  0  0
   11.9693   10.6344   24.8019 H   0  0  0  0  0  0  0  0  0  0  0  0
   10.0353   17.4991   21.4475 H   0  0  0  0  0  0  0  0  0  0  0  0
    9.7943   16.3422   20.1659 H   0  0  0  0  0  0  0  0  0  0  0  0
  1  2  2  0  0  0  0
  1  3  1  0  0  0  0
  2  4  1  0  0  0  0
  3  5  2  0  0  0  0
  4  6  2  0  0  0  0
  5  6  1  0  0  0  0
  6 11  1  0  0  0  0
  7 11  1  0  0  0  0
  7 12  2  0  0  0  0
  7 15  1  0  0  0  0
  8 13  2  0  0  0  0
  8 14  1  0  0  0  0
  8 15  1  0  0  0  0
  9 11  1  0  0  0  0
 10 11  1  0  0  0  0
 12 13  1  0  0  0  0
  1 16  1  0  0  0  0
  2 17  1  0  0  0  0
  3 18  1  0  0  0  0
  4 19  1  0  0  0  0
  5 20  1  0  0  0  0
  9 21  1  0  0  0  0
  9 22  1  0  0  0  0
  9 23  1  0  0  0  0
 10 24  1  0  0  0  0
 10 25  1  0  0  0  0
 10 26  1  0  0  0  0
 14 27  1  0  0  0  0
 14 28  1  0  0  0  0
M  END
> <Catalog ID>
Z445126272

> <PlateID>
1337959-R-03

> <Well>
F08

> <MW (desalted)>
219.306

> <CLogP>
2.409

> <HBD>
1

> <TPSA>
51.800

> <RotBonds>
2

> <ROCS_ShapeQuery>
A71EV2A-x0451_0A_A71EV2A-x0310_0A_A71EV2A-x0416_0A_peptide

> <ROCS_TanimotoCombo>
0.392 

> <ROCS_ShapeTanimoto>
0.254 

> <ROCS_ColorTanimoto>
0.139 

> <ROCS_RefTversky>
0.231 

> <ROCS_RefColorTversky>
0.156 

> <ROCS_RefTverskyCombo>
0.387 

> <ROCS_FitTversky>
1.635 

> <ROCS_FitColorTversky>
0.557 

> <ROCS_FitTverskyCombo>
2.192 

> <ROCS_ColorScore>
-4.748

> <ROCS_Overlap>
1600.693

> <ROCS_Rank>
496                 

$$$$
untitled-dbase-933_15
  -OEChem-11112309163D

 28 29  0     1  0  0  0  0  0999 V2000
   11.2548   13.2169   23.4447 C   0  0  0  0  0  0  0  0  0  0  0  0
   12.1179   13.6059   22.4400 C   0  0  0  0  0  0  0  0  0  0  0  0
    8.0095    9.5477   23.5523 C   0  0  0  0  0  0  0  0  0  0  0  0
    7.0970   10.1738   24.6015 C   0  0  0  0  0  0  0  0  0  0  0  0
    9.4651    9.9652   23.7608 C   0  0  0  0  0  0  0  0  0  0  0  0
    8.7859   12.0366   24.8242 C   0  0  0  0  0  0  0  0  0  0  0  0
    7.2971   11.6925   24.6497 C   0  0  2  0  0  0  0  0  0  0  0  0
    6.4629   12.3111   25.7699 C   0  0  0  0  0  0  0  0  0  0  0  0
   11.0043   11.8115   23.9097 C   0  0  0  0  0  0  0  0  0  0  0  0
   10.5674   14.2440   24.0721 N   0  0  0  0  0  0  0  0  0  0  0  0
   10.8883   15.4236   23.5650 N   0  0  0  0  0  0  0  0  0  0  0  0
    9.6004   11.4279   23.7618 N   0  0  1  0  0  0  0  0  0  0  0  0
   12.0165   15.3154   22.3314 S   0  0  0  0  0  0  0  0  0  0  0  0
   13.1414   12.6940   21.4309 Cl  0  0  0  0  0  0  0  0  0  0  0  0
    7.9281    8.4557   23.5971 H   0  0  0  0  0  0  0  0  0  0  0  0
    7.6787    9.8519   22.5510 H   0  0  0  0  0  0  0  0  0  0  0  0
    6.0521    9.9347   24.3717 H   0  0  0  0  0  0  0  0  0  0  0  0
    7.3187    9.7341   25.5825 H   0  0  0  0  0  0  0  0  0  0  0  0
    9.8403    9.5370   24.6996 H   0  0  0  0  0  0  0  0  0  0  0  0
   10.0625    9.5376   22.9464 H   0  0  0  0  0  0  0  0  0  0  0  0
    8.8957   13.1279   24.7865 H   0  0  0  0  0  0  0  0  0  0  0  0
    9.1340   11.7101   25.8138 H   0  0  0  0  0  0  0  0  0  0  0  0
    6.9508   12.1178   23.6977 H   0  0  0  0  0  0  0  0  0  0  0  0
    6.7807   11.9104   26.7309 H   0  0  0  0  0  0  0  0  0  0  0  0
    5.4103   12.0791   25.6171 H   0  0  0  0  0  0  0  0  0  0  0  0
    6.5934   13.3920   25.7731 H   0  0  0  0  0  0  0  0  0  0  0  0
   11.6102   11.1014   23.3364 H   0  0  0  0  0  0  0  0  0  0  0  0
   11.2745   11.6924   24.9642 H   0  0  0  0  0  0  0  0  0  0  0  0
  1  2  2  0  0  0  0
  1  9  1  0  0  0  0
  1 10  1  0  0  0  0
  2 13  1  0  0  0  0
  2 14  1  0  0  0  0
  3  4  1  0  0  0  0
  3  5  1  0  0  0  0
  4  7  1  0  0  0  0
  5 12  1  0  0  0  0
  6  7  1  0  0  0  0
  6 12  1  0  0  0  0
  7  8  1  0  0  0  0
  9 12  1  0  0  0  0
 10 11  2  0  0  0  0
 11 13  1  0  0  0  0
  3 15  1  0  0  0  0
  3 16  1  0  0  0  0
  4 17  1  0  0  0  0
  4 18  1  0  0  0  0
  5 19  1  0  0  0  0
  5 20  1  0  0  0  0
  6 21  1  0  0  0  0
  6 22  1  0  0  0  0
  7 23  1  0  0  0  0
  8 24  1  0  0  0  0
  8 25  1  0  0  0  0
  8 26  1  0  0  0  0
  9 27  1  0  0  0  0
  9 28  1  0  0  0  0
M  END
> <Catalog ID>
Z137705484

> <PlateID>
1337959-R-12

> <Well>
F07

> <MW (desalted)>
231.746

> <CLogP>
2.083

> <HBD>
0

> <TPSA>
29.020

> <RotBonds>
2

> <ROCS_ShapeQuery>
A71EV2A-x0451_0A_A71EV2A-x0310_0A_A71EV2A-x0416_0A_peptide

> <ROCS_TanimotoCombo>
0.392 

> <ROCS_ShapeTanimoto>
0.263 

> <ROCS_ColorTanimoto>
0.129 

> <ROCS_RefTversky>
0.236 

> <ROCS_RefColorTversky>
0.139 

> <ROCS_RefTverskyCombo>
0.375 

> <ROCS_FitTversky>
1.790 

> <ROCS_FitColorTversky>
0.635 

> <ROCS_FitTverskyCombo>
2.425 

> <ROCS_ColorScore>
-4.231

> <ROCS_Overlap>
1634.163

> <ROCS_Rank>
497                 

$$$$
untitled-dbase-474_259
  -OEChem-11112309163D

 38 40  0     1  0  0  0  0  0999 V2000
    8.2839   11.7221   24.9398 C   0  0  0  0  0  0  0  0  0  0  0  0
    7.8563   10.4187   24.8133 C   0  0  0  0  0  0  0  0  0  0  0  0
    9.6131   10.9767   23.1849 C   0  0  0  0  0  0  0  0  0  0  0  0
    9.3015   12.0455   23.9965 C   0  0  0  0  0  0  0  0  0  0  0  0
   12.4289   13.1032   24.3237 C   0  0  0  0  0  0  0  0  0  0  0  0
   11.1282   14.9200   19.9106 C   0  0  0  0  0  0  0  0  0  0  0  0
   11.7612   16.0461   22.0669 C   0  0  0  0  0  0  0  0  0  0  0  0
   12.9118   13.8100   21.4352 C   0  0  0  0  0  0  0  0  0  0  0  0
    9.7526   15.5796   20.0266 C   0  0  0  0  0  0  0  0  0  0  0  0
   10.3609   16.6614   22.1020 C   0  0  0  0  0  0  0  0  0  0  0  0
   11.5658   13.4116   21.9802 C   0  0  2  0  0  0  0  0  0  0  0  0
   11.7401   14.7512   21.2845 C   0  0  0  0  0  0  0  0  0  0  0  0
   12.1613   12.3377   25.5953 C   0  0  0  0  0  0  0  0  0  0  0  0
    9.9566   13.3930   23.9005 C   0  0  0  0  0  0  0  0  0  0  0  0
    9.8189   16.8538   20.7517 N   0  0  0  0  0  0  0  0  0  0  0  0
   11.3524   13.2966   23.4272 N   0  0  0  0  0  0  0  0  0  0  0  0
   13.5654   13.5320   24.1071 O   0  0  0  0  0  0  0  0  0  0  0  0
    8.6805    9.5908   23.5613 S   0  0  0  0  0  0  0  0  0  0  0  0
    7.8831   12.4075   25.6760 H   0  0  0  0  0  0  0  0  0  0  0  0
    7.0999    9.9128   25.3966 H   0  0  0  0  0  0  0  0  0  0  0  0
   10.3438   10.9389   22.3888 H   0  0  0  0  0  0  0  0  0  0  0  0
   11.0304   13.9357   19.4408 H   0  0  0  0  0  0  0  0  0  0  0  0
   11.7679   15.5260   19.2618 H   0  0  0  0  0  0  0  0  0  0  0  0
   12.4594   16.7679   21.6306 H   0  0  0  0  0  0  0  0  0  0  0  0
   12.1034   15.8404   23.0876 H   0  0  0  0  0  0  0  0  0  0  0  0
   13.6953   14.0673   22.1394 H   0  0  0  0  0  0  0  0  0  0  0  0
   13.2733   13.2878   20.5563 H   0  0  0  0  0  0  0  0  0  0  0  0
    9.3238   15.7432   19.0285 H   0  0  0  0  0  0  0  0  0  0  0  0
    9.0732   14.9035   20.5598 H   0  0  0  0  0  0  0  0  0  0  0  0
    9.6908   15.9985   22.6611 H   0  0  0  0  0  0  0  0  0  0  0  0
   10.3814   17.6216   22.6333 H   0  0  0  0  0  0  0  0  0  0  0  0
   11.0368   12.6325   21.4574 H   0  0  0  0  0  0  0  0  0  0  0  0
   12.3380   11.2715   25.4222 H   0  0  0  0  0  0  0  0  0  0  0  0
   12.8382   12.6705   26.3868 H   0  0  0  0  0  0  0  0  0  0  0  0
   11.1195   12.4645   25.9014 H   0  0  0  0  0  0  0  0  0  0  0  0
    9.4090   14.0400   23.2065 H   0  0  0  0  0  0  0  0  0  0  0  0
    9.9670   13.8951   24.8737 H   0  0  0  0  0  0  0  0  0  0  0  0
   10.4187   17.4981   20.2401 H   0  0  0  0  0  0  0  0  0  0  0  0
  1  2  2  0  0  0  0
  1  4  1  0  0  0  0
  2 18  1  0  0  0  0
  3  4  2  0  0  0  0
  3 18  1  0  0  0  0
  4 14  1  0  0  0  0
  5 13  1  0  0  0  0
  5 16  1  0  0  0  0
  5 17  2  0  0  0  0
  6  9  1  0  0  0  0
  6 12  1  0  0  0  0
  7 10  1  0  0  0  0
  7 12  1  0  0  0  0
  8 11  1  0  0  0  0
  8 12  1  0  0  0  0
  9 15  1  0  0  0  0
 10 15  1  0  0  0  0
 11 12  1  0  0  0  0
 11 16  1  0  0  0  0
 14 16  1  0  0  0  0
  1 19  1  0  0  0  0
  2 20  1  0  0  0  0
  3 21  1  0  0  0  0
  6 22  1  0  0  0  0
  6 23  1  0  0  0  0
  7 24  1  0  0  0  0
  7 25  1  0  0  0  0
  8 26  1  0  0  0  0
  8 27  1  0  0  0  0
  9 28  1  0  0  0  0
  9 29  1  0  0  0  0
 10 30  1  0  0  0  0
 10 31  1  0  0  0  0
 11 32  1  0  0  0  0
 13 33  1  0  0  0  0
 13 34  1  0  0  0  0
 13 35  1  0  0  0  0
 14 36  1  0  0  0  0
 14 37  1  0  0  0  0
 15 38  1  0  0  0  0
M  END
> <Catalog ID>
Z1758461705

> <PlateID>
1337959-R-06

> <Well>
H06

> <MW (desalted)>
264.386

> <CLogP>
0.768

> <HBD>
1

> <TPSA>
32.340

> <RotBonds>
3

> <ROCS_ShapeQuery>
A71EV2A-x0451_0A_A71EV2A-x0310_0A_A71EV2A-x0416_0A_peptide

> <ROCS_TanimotoCombo>
0.392 

> <ROCS_ShapeTanimoto>
0.258 

> <ROCS_ColorTanimoto>
0.134 

> <ROCS_RefTversky>
0.238 

> <ROCS_RefColorTversky>
0.143 

> <ROCS_RefTverskyCombo>
0.381 

> <ROCS_FitTversky>
1.502 

> <ROCS_FitColorTversky>
0.685 

> <ROCS_FitTverskyCombo>
2.187 

> <ROCS_ColorScore>
-4.339

> <ROCS_Overlap>
1648.005

> <ROCS_Rank>
498                 

$$$$
untitled-dbase-682_94
  -OEChem-11112309163D

 31 32  0     0  0  0  0  0  0999 V2000
    8.1630    9.7543   23.8225 C   0  0  0  0  0  0  0  0  0  0  0  0
    7.5687   11.8439   24.8796 C   0  0  0  0  0  0  0  0  0  0  0  0
    9.2246   10.3846   23.1733 C   0  0  0  0  0  0  0  0  0  0  0  0
    8.6303   12.4742   24.2304 C   0  0  0  0  0  0  0  0  0  0  0  0
   14.8842   14.3526   23.0888 C   0  0  0  0  0  0  0  0  0  0  0  0
   14.4550   14.6333   21.8130 C   0  0  0  0  0  0  0  0  0  0  0  0
    7.3350   10.4840   24.6756 C   0  0  0  0  0  0  0  0  0  0  0  0
    9.4582   11.7446   23.3773 C   0  0  0  0  0  0  0  0  0  0  0  0
   12.7717   14.0953   23.1297 C   0  0  0  0  0  0  0  0  0  0  0  0
    6.1999    9.8109   25.3700 C   0  0  0  0  0  0  0  0  0  0  0  0
   12.1934   14.6467   20.7460 C   0  0  0  0  0  0  0  0  0  0  0  0
   10.5945   12.4174   22.6841 C   0  0  0  0  0  0  0  0  0  0  0  0
   13.8316   14.0181   23.9035 N   0  0  0  0  0  0  0  0  0  0  0  0
   13.0998   14.4637   21.8546 N   0  0  0  0  0  0  0  0  0  0  0  0
   11.2459   13.2914   25.0688 O   0  0  0  0  0  0  0  0  0  0  0  0
   10.3045   14.9112   23.3848 O   0  0  0  0  0  0  0  0  0  0  0  0
   11.1312   13.7576   23.6973 S   0  0  0  0  0  0  0  0  0  0  0  0
    7.9881    8.6945   23.6572 H   0  0  0  0  0  0  0  0  0  0  0  0
    6.9291   12.4197   25.5435 H   0  0  0  0  0  0  0  0  0  0  0  0
    9.8654    9.8080   22.5117 H   0  0  0  0  0  0  0  0  0  0  0  0
    8.8052   13.5342   24.3948 H   0  0  0  0  0  0  0  0  0  0  0  0
   15.8976   14.3743   23.4621 H   0  0  0  0  0  0  0  0  0  0  0  0
   14.9778   14.9277   20.9137 H   0  0  0  0  0  0  0  0  0  0  0  0
    6.5262    9.4138   26.3391 H   0  0  0  0  0  0  0  0  0  0  0  0
    5.3684   10.5069   25.5415 H   0  0  0  0  0  0  0  0  0  0  0  0
    5.8013    8.9818   24.7707 H   0  0  0  0  0  0  0  0  0  0  0  0
   12.0987   13.6896   20.2263 H   0  0  0  0  0  0  0  0  0  0  0  0
   11.2205   14.9756   21.1217 H   0  0  0  0  0  0  0  0  0  0  0  0
   12.5944   15.4101   20.0736 H   0  0  0  0  0  0  0  0  0  0  0  0
   10.3040   12.8266   21.7099 H   0  0  0  0  0  0  0  0  0  0  0  0
   11.4474   11.7453   22.5348 H   0  0  0  0  0  0  0  0  0  0  0  0
  1  3  1  0  0  0  0
  1  7  2  0  0  0  0
  2  4  2  0  0  0  0
  2  7  1  0  0  0  0
  3  8  2  0  0  0  0
  4  8  1  0  0  0  0
  5  6  2  0  0  0  0
  5 13  1  0  0  0  0
  6 14  1  0  0  0  0
  7 10  1  0  0  0  0
  8 12  1  0  0  0  0
  9 13  2  0  0  0  0
  9 14  1  0  0  0  0
  9 17  1  0  0  0  0
 11 14  1  0  0  0  0
 12 17  1  0  0  0  0
 15 17  2  0  0  0  0
 16 17  2  0  0  0  0
  1 18  1  0  0  0  0
  2 19  1  0  0  0  0
  3 20  1  0  0  0  0
  4 21  1  0  0  0  0
  5 22  1  0  0  0  0
  6 23  1  0  0  0  0
 10 24  1  0  0  0  0
 10 25  1  0  0  0  0
 10 26  1  0  0  0  0
 11 27  1  0  0  0  0
 11 28  1  0  0  0  0
 11 29  1  0  0  0  0
 12 30  1  0  0  0  0
 12 31  1  0  0  0  0
M  END
> <Catalog ID>
Z608380730

> <PlateID>
1337959-R-09

> <Well>
E05

> <MW (desalted)>
250.317

> <CLogP>
1.809

> <HBD>
0

> <TPSA>
51.960

> <RotBonds>
3

> <ROCS_ShapeQuery>
A71EV2A-x0451_0A_A71EV2A-x0310_0A_A71EV2A-x0416_0A_peptide

> <ROCS_TanimotoCombo>
0.392 

> <ROCS_ShapeTanimoto>
0.265 

> <ROCS_ColorTanimoto>
0.127 

> <ROCS_RefTversky>
0.242 

> <ROCS_RefColorTversky>
0.140 

> <ROCS_RefTverskyCombo>
0.382 

> <ROCS_FitTversky>
1.572 

> <ROCS_FitColorTversky>
0.583 

> <ROCS_FitTverskyCombo>
2.155 

> <ROCS_ColorScore>
-4.249

> <ROCS_Overlap>
1676.886

> <ROCS_Rank>
499                 

$$$$
untitled-dbase-389_2
  -OEChem-11112309163D

 37 38  0     0  0  0  0  0  0999 V2000
    8.6541    9.7023   23.4662 C   0  0  0  0  0  0  0  0  0  0  0  0
    8.5575   12.2614   24.5727 C   0  0  0  0  0  0  0  0  0  0  0  0
    7.5470   10.0957   24.2179 C   0  0  0  0  0  0  0  0  0  0  0  0
    9.7130   10.5884   23.2678 C   0  0  0  0  0  0  0  0  0  0  0  0
    7.4986   11.3753   24.7712 C   0  0  0  0  0  0  0  0  0  0  0  0
    9.6646   11.8679   23.8210 C   0  0  0  0  0  0  0  0  0  0  0  0
    9.5933   13.7935   21.3972 C   0  0  0  0  0  0  0  0  0  0  0  0
   12.0447   13.9604   21.2780 C   0  0  0  0  0  0  0  0  0  0  0  0
    9.5775   13.7023   19.8778 C   0  0  0  0  0  0  0  0  0  0  0  0
   11.9257   13.8627   19.7635 C   0  0  0  0  0  0  0  0  0  0  0  0
    6.4257    9.1298   24.4184 C   0  0  0  0  0  0  0  0  0  0  0  0
   10.8839   10.1363   22.4574 C   0  0  0  0  0  0  0  0  0  0  0  0
    6.3241   11.8189   25.5804 C   0  0  0  0  0  0  0  0  0  0  0  0
   10.8891   13.2473   21.8967 N   0  0  0  0  0  0  0  0  0  0  0  0
   10.6264   14.2463   24.2586 O   0  0  0  0  0  0  0  0  0  0  0  0
   12.2262   12.3332   23.9001 O   0  0  0  0  0  0  0  0  0  0  0  0
   10.6841   14.4193   19.3262 O   0  0  0  0  0  0  0  0  0  0  0  0
   10.9872   13.0143   23.5901 S   0  0  0  0  0  0  0  0  0  0  0  0
    8.6915    8.7045   23.0350 H   0  0  0  0  0  0  0  0  0  0  0  0
    8.5172   13.2585   25.0053 H   0  0  0  0  0  0  0  0  0  0  0  0
    9.4996   14.8372   21.7188 H   0  0  0  0  0  0  0  0  0  0  0  0
    8.7617   13.2135   21.8097 H   0  0  0  0  0  0  0  0  0  0  0  0
   12.9831   13.5009   21.6041 H   0  0  0  0  0  0  0  0  0  0  0  0
   12.0271   15.0093   21.5960 H   0  0  0  0  0  0  0  0  0  0  0  0
    9.6138   12.6608   19.5365 H   0  0  0  0  0  0  0  0  0  0  0  0
    8.6594   14.1507   19.4855 H   0  0  0  0  0  0  0  0  0  0  0  0
   12.7321   14.4292   19.2876 H   0  0  0  0  0  0  0  0  0  0  0  0
   11.9983   12.8238   19.4200 H   0  0  0  0  0  0  0  0  0  0  0  0
    6.5951    8.5334   25.3224 H   0  0  0  0  0  0  0  0  0  0  0  0
    5.4660    9.6516   24.5186 H   0  0  0  0  0  0  0  0  0  0  0  0
    6.3312    8.4492   23.5631 H   0  0  0  0  0  0  0  0  0  0  0  0
   10.7269   10.3735   21.3990 H   0  0  0  0  0  0  0  0  0  0  0  0
   11.8082   10.6229   22.7918 H   0  0  0  0  0  0  0  0  0  0  0  0
   11.0386    9.0548   22.5546 H   0  0  0  0  0  0  0  0  0  0  0  0
    5.5712   12.2837   24.9335 H   0  0  0  0  0  0  0  0  0  0  0  0
    5.8615   10.9732   26.1038 H   0  0  0  0  0  0  0  0  0  0  0  0
    6.6226   12.5444   26.3471 H   0  0  0  0  0  0  0  0  0  0  0  0
  1  3  2  0  0  0  0
  1  4  1  0  0  0  0
  2  5  2  0  0  0  0
  2  6  1  0  0  0  0
  3  5  1  0  0  0  0
  3 11  1  0  0  0  0
  4  6  2  0  0  0  0
  4 12  1  0  0  0  0
  5 13  1  0  0  0  0
  6 18  1  0  0  0  0
  7  9  1  0  0  0  0
  7 14  1  0  0  0  0
  8 10  1  0  0  0  0
  8 14  1  0  0  0  0
  9 17  1  0  0  0  0
 10 17  1  0  0  0  0
 14 18  1  0  0  0  0
 15 18  2  0  0  0  0
 16 18  2  0  0  0  0
  1 19  1  0  0  0  0
  2 20  1  0  0  0  0
  7 21  1  0  0  0  0
  7 22  1  0  0  0  0
  8 23  1  0  0  0  0
  8 24  1  0  0  0  0
  9 25  1  0  0  0  0
  9 26  1  0  0  0  0
 10 27  1  0  0  0  0
 10 28  1  0  0  0  0
 11 29  1  0  0  0  0
 11 30  1  0  0  0  0
 11 31  1  0  0  0  0
 12 32  1  0  0  0  0
 12 33  1  0  0  0  0
 12 34  1  0  0  0  0
 13 35  1  0  0  0  0
 13 36  1  0  0  0  0
 13 37  1  0  0  0  0
M  END
> <Catalog ID>
Z57188126

> <PlateID>
1337959-R-05

> <Well>
G11

> <MW (desalted)>
269.360

> <CLogP>
2.730

> <HBD>
0

> <TPSA>
46.610

> <RotBonds>
1

> <ROCS_ShapeQuery>
A71EV2A-x0451_0A_A71EV2A-x0310_0A_A71EV2A-x0416_0A_peptide

> <ROCS_TanimotoCombo>
0.392 

> <ROCS_ShapeTanimoto>
0.291 

> <ROCS_ColorTanimoto>
0.101 

> <ROCS_RefTversky>
0.261 

> <ROCS_RefColorTversky>
0.111 

> <ROCS_RefTverskyCombo>
0.372 

> <ROCS_FitTversky>
1.656 

> <ROCS_FitColorTversky>
0.532 

> <ROCS_FitTverskyCombo>
2.187 

> <ROCS_ColorScore>
-3.371

> <ROCS_Overlap>
1809.609

> <ROCS_Rank>
500                 

$$$$
