untitled-dbase-43728_4
  -OEChem-11132313473D

 43 46  0     1  0  0  0  0  0999 V2000
   10.5367   13.3680   23.4982 C   0  0  0  0  0  0  0  0  0  0  0  0
    7.0521   10.8177   25.8721 C   0  0  0  0  0  0  0  0  0  0  0  0
    8.2829   10.8141   22.3747 C   0  0  0  0  0  0  0  0  0  0  0  0
    8.5574   10.8656   25.6139 C   0  0  1  0  0  0  0  0  0  0  0  0
    6.7103   11.2570   24.4417 C   0  0  2  0  0  0  0  0  0  0  0  0
    7.5153   10.2297   23.5745 C   0  0  2  0  0  0  0  0  0  0  0  0
    8.6556    9.7723   24.5403 C   0  0  1  0  0  0  0  0  0  0  0  0
    9.7015   11.0933   22.9274 C   0  0  2  0  0  0  0  0  0  0  0  0
    8.7814   12.2834   24.9636 C   0  0  2  0  0  0  0  0  0  0  0  0
    7.3820   12.6369   24.4170 C   0  0  2  0  0  0  0  0  0  0  0  0
    9.9601    9.8551   23.7707 C   0  0  2  0  0  0  0  0  0  0  0  0
   13.1245   14.4896   23.0144 C   0  0  0  0  0  0  0  0  0  0  0  0
   12.7489   13.8506   20.6145 C   0  0  0  0  0  0  0  0  0  0  0  0
   11.2228   15.5109   21.7202 C   0  0  0  0  0  0  0  0  0  0  0  0
   12.0789   14.2617   21.9238 C   0  0  0  0  0  0  0  0  0  0  0  0
    9.7331   12.2694   23.8244 N   0  0  0  0  0  0  0  0  0  0  0  0
   10.6282   14.3874   24.1794 O   0  0  0  0  0  0  0  0  0  0  0  0
    6.7070   13.5429   25.2829 O   0  0  0  0  0  0  0  0  0  0  0  0
   10.1204    8.6997   22.9604 O   0  0  0  0  0  0  0  0  0  0  0  0
   11.2256   13.1852   22.3284 O   0  0  0  0  0  0  0  0  0  0  0  0
    6.6776    9.8169   26.1138 H   0  0  0  0  0  0  0  0  0  0  0  0
    6.7264   11.5134   26.6516 H   0  0  0  0  0  0  0  0  0  0  0  0
    8.3496   10.0496   21.5895 H   0  0  0  0  0  0  0  0  0  0  0  0
    7.8100   11.6833   21.9109 H   0  0  0  0  0  0  0  0  0  0  0  0
    9.1918   10.6767   26.4827 H   0  0  0  0  0  0  0  0  0  0  0  0
    5.6386   11.2850   24.2329 H   0  0  0  0  0  0  0  0  0  0  0  0
    6.8810    9.3870   23.2802 H   0  0  0  0  0  0  0  0  0  0  0  0
    8.4606    8.7707   24.9407 H   0  0  0  0  0  0  0  0  0  0  0  0
   10.4161   11.1984   22.1057 H   0  0  0  0  0  0  0  0  0  0  0  0
    9.0970   12.9987   25.7299 H   0  0  0  0  0  0  0  0  0  0  0  0
    7.3900   13.1040   23.4289 H   0  0  0  0  0  0  0  0  0  0  0  0
   10.8365    9.9435   24.4213 H   0  0  0  0  0  0  0  0  0  0  0  0
   12.6476   14.7849   23.9559 H   0  0  0  0  0  0  0  0  0  0  0  0
   13.7222   13.5901   23.1946 H   0  0  0  0  0  0  0  0  0  0  0  0
   13.8023   15.3066   22.7418 H   0  0  0  0  0  0  0  0  0  0  0  0
   12.0024   13.6860   19.8291 H   0  0  0  0  0  0  0  0  0  0  0  0
   13.2871   12.9031   20.7322 H   0  0  0  0  0  0  0  0  0  0  0  0
   13.4563   14.6103   20.2667 H   0  0  0  0  0  0  0  0  0  0  0  0
   10.4727   15.3477   20.9379 H   0  0  0  0  0  0  0  0  0  0  0  0
   10.7050   15.7994   22.6407 H   0  0  0  0  0  0  0  0  0  0  0  0
   11.8379   16.3548   21.3875 H   0  0  0  0  0  0  0  0  0  0  0  0
    7.1777   14.3891   25.2213 H   0  0  0  0  0  0  0  0  0  0  0  0
   10.9648    8.8004   22.4912 H   0  0  0  0  0  0  0  0  0  0  0  0
  1 16  1  0  0  0  0
  1 17  2  0  0  0  0
  1 20  1  0  0  0  0
  2  4  1  0  0  0  0
  2  5  1  0  0  0  0
  3  6  1  0  0  0  0
  3  8  1  0  0  0  0
  4  7  1  0  0  0  0
  4  9  1  0  0  0  0
  5  6  1  0  0  0  0
  5 10  1  0  0  0  0
  6  7  1  0  0  0  0
  7 11  1  0  0  0  0
  8 11  1  0  0  0  0
  8 16  1  0  0  0  0
  9 10  1  0  0  0  0
  9 16  1  0  0  0  0
 10 18  1  0  0  0  0
 11 19  1  0  0  0  0
 12 15  1  0  0  0  0
 13 15  1  0  0  0  0
 14 15  1  0  0  0  0
 15 20  1  0  0  0  0
  2 21  1  0  0  0  0
  2 22  1  0  0  0  0
  3 23  1  0  0  0  0
  3 24  1  0  0  0  0
  4 25  1  0  0  0  0
  5 26  1  0  0  0  0
  6 27  1  0  0  0  0
  7 28  1  0  0  0  0
  8 29  1  0  0  0  0
  9 30  1  0  0  0  0
 10 31  1  0  0  0  0
 11 32  1  0  0  0  0
 12 33  1  0  0  0  0
 12 34  1  0  0  0  0
 12 35  1  0  0  0  0
 13 36  1  0  0  0  0
 13 37  1  0  0  0  0
 13 38  1  0  0  0  0
 14 39  1  0  0  0  0
 14 40  1  0  0  0  0
 14 41  1  0  0  0  0
 18 42  1  0  0  0  0
 19 43  1  0  0  0  0
M  END
> <id>
EN300-28229091

> <smiles>
CC(C)(C)OC(=O)N1C2CC3C4CC(C3C2O)C1C4O

> <IUPAC Name>
tert-butyl 5,11-dihydroxy-7-azatetracyclo[6.2.1.0^{2,6}.0^{4,10}]undecane-7-carboxylate

> <CAS>
2639452-29-0

> <URL>
https://www.enaminestore.com/catalog/EN300-28229091

> <ROCS_ShapeQuery>
A71EV2A-x0451_0A_A71EV2A-x0310_0A_A71EV2A-x0416_0A_peptide

> <ROCS_TanimotoCombo>
0.594 

> <ROCS_ShapeTanimoto>
0.358 

> <ROCS_ColorTanimoto>
0.236 

> <ROCS_RefTversky>
0.311 

> <ROCS_RefColorTversky>
0.343 

> <ROCS_RefTverskyCombo>
0.654 

> <ROCS_FitTversky>
1.730 

> <ROCS_FitColorTversky>
0.432 

> <ROCS_FitTverskyCombo>
2.162 

> <ROCS_ColorScore>
-10.744

> <ROCS_Overlap>
2159.031

> <ROCS_Rank>
1                   

$$$$
untitled-dbase-45678_9
  -OEChem-11132313473D

 39 41  0     0  0  0  0  0  0999 V2000
    4.9109   12.0245   26.7669 C   0  0  0  0  0  0  0  0  0  0  0  0
   11.3019    9.3044   21.5343 C   0  0  0  0  0  0  0  0  0  0  0  0
   10.5432    8.1942   21.8794 C   0  0  0  0  0  0  0  0  0  0  0  0
    6.8393   13.1933   25.8261 C   0  0  0  0  0  0  0  0  0  0  0  0
   11.0234   10.5527   22.1032 C   0  0  0  0  0  0  0  0  0  0  0  0
    8.0145   13.1922   25.0645 C   0  0  0  0  0  0  0  0  0  0  0  0
    9.4911    8.3403   22.7744 C   0  0  0  0  0  0  0  0  0  0  0  0
    6.5626   10.8515   25.3996 C   0  0  0  0  0  0  0  0  0  0  0  0
    6.1084   12.0243   25.9881 C   0  0  0  0  0  0  0  0  0  0  0  0
    9.9950   10.7171   23.0492 C   0  0  0  0  0  0  0  0  0  0  0  0
    8.4781   12.0259   24.4302 C   0  0  0  0  0  0  0  0  0  0  0  0
    9.2132    9.5934   23.3372 C   0  0  0  0  0  0  0  0  0  0  0  0
    7.7385   10.8549   24.6369 C   0  0  0  0  0  0  0  0  0  0  0  0
   10.4940   13.1302   23.4778 C   0  0  0  0  0  0  0  0  0  0  0  0
   13.1304   14.2168   23.1830 C   0  0  0  0  0  0  0  0  0  0  0  0
   12.7592   13.9643   20.7117 C   0  0  0  0  0  0  0  0  0  0  0  0
   11.2823   15.4942   22.0483 C   0  0  0  0  0  0  0  0  0  0  0  0
   12.0897   14.1970   22.0644 C   0  0  0  0  0  0  0  0  0  0  0  0
    3.9380   12.0247   27.3996 N   0  0  0  0  0  0  0  0  0  0  0  0
    9.6870   11.9877   23.6512 N   0  0  0  0  0  0  0  0  0  0  0  0
   10.6273   14.0383   24.2955 O   0  0  0  0  0  0  0  0  0  0  0  0
    8.1159    9.6307   24.1539 O   0  0  0  0  0  0  0  0  0  0  0  0
   11.1925   13.1041   22.2956 O   0  0  0  0  0  0  0  0  0  0  0  0
   12.1069    9.2084   20.8112 H   0  0  0  0  0  0  0  0  0  0  0  0
   10.7560    7.2260   21.4370 H   0  0  0  0  0  0  0  0  0  0  0  0
    6.5157   14.1213   26.2924 H   0  0  0  0  0  0  0  0  0  0  0  0
   11.6214   11.3863   21.7487 H   0  0  0  0  0  0  0  0  0  0  0  0
    8.5448   14.1360   25.0085 H   0  0  0  0  0  0  0  0  0  0  0  0
    8.8768    7.4785   23.0228 H   0  0  0  0  0  0  0  0  0  0  0  0
    6.0142    9.9207   25.5341 H   0  0  0  0  0  0  0  0  0  0  0  0
   12.6538   14.3835   24.1557 H   0  0  0  0  0  0  0  0  0  0  0  0
   13.6926   13.2783   23.2276 H   0  0  0  0  0  0  0  0  0  0  0  0
   13.8407   15.0394   23.0418 H   0  0  0  0  0  0  0  0  0  0  0  0
   12.0162   13.9494   19.9061 H   0  0  0  0  0  0  0  0  0  0  0  0
   13.2609   12.9902   20.6869 H   0  0  0  0  0  0  0  0  0  0  0  0
   13.4979   14.7406   20.4876 H   0  0  0  0  0  0  0  0  0  0  0  0
   10.5358   15.4802   21.2460 H   0  0  0  0  0  0  0  0  0  0  0  0
   10.7649   15.6590   22.9990 H   0  0  0  0  0  0  0  0  0  0  0  0
   11.9317   16.3549   21.8515 H   0  0  0  0  0  0  0  0  0  0  0  0
  1  9  1  0  0  0  0
  1 19  3  0  0  0  0
  2  3  2  0  0  0  0
  2  5  1  0  0  0  0
  3  7  1  0  0  0  0
  4  6  1  0  0  0  0
  4  9  2  0  0  0  0
  5 10  2  0  0  0  0
  6 11  2  0  0  0  0
  7 12  2  0  0  0  0
  8  9  1  0  0  0  0
  8 13  2  0  0  0  0
 10 12  1  0  0  0  0
 10 20  1  0  0  0  0
 11 13  1  0  0  0  0
 11 20  1  0  0  0  0
 12 22  1  0  0  0  0
 13 22  1  0  0  0  0
 14 20  1  0  0  0  0
 14 21  2  0  0  0  0
 14 23  1  0  0  0  0
 15 18  1  0  0  0  0
 16 18  1  0  0  0  0
 17 18  1  0  0  0  0
 18 23  1  0  0  0  0
  2 24  1  0  0  0  0
  3 25  1  0  0  0  0
  4 26  1  0  0  0  0
  5 27  1  0  0  0  0
  6 28  1  0  0  0  0
  7 29  1  0  0  0  0
  8 30  1  0  0  0  0
 15 31  1  0  0  0  0
 15 32  1  0  0  0  0
 15 33  1  0  0  0  0
 16 34  1  0  0  0  0
 16 35  1  0  0  0  0
 16 36  1  0  0  0  0
 17 37  1  0  0  0  0
 17 38  1  0  0  0  0
 17 39  1  0  0  0  0
M  END
> <id>
EN300-28291826

> <smiles>
CC(C)(C)OC(=O)N1C=2C=CC=CC2OC=3C=C(C#N)C=CC13

> <IUPAC Name>
tert-butyl 3-cyano-10H-phenoxazine-10-carboxylate

> <CAS>
2680699-78-7

> <URL>
https://www.enaminestore.com/catalog/EN300-28291826

> <ROCS_ShapeQuery>
A71EV2A-x0451_0A_A71EV2A-x0310_0A_A71EV2A-x0416_0A_peptide

> <ROCS_TanimotoCombo>
0.564 

> <ROCS_ShapeTanimoto>
0.383 

> <ROCS_ColorTanimoto>
0.181 

> <ROCS_RefTversky>
0.332 

> <ROCS_RefColorTversky>
0.195 

> <ROCS_RefTverskyCombo>
0.527 

> <ROCS_FitTversky>
1.674 

> <ROCS_FitColorTversky>
0.721 

> <ROCS_FitTverskyCombo>
2.394 

> <ROCS_ColorScore>
-5.942

> <ROCS_Overlap>
2303.887

> <ROCS_Rank>
2                   

$$$$
untitled-dbase-34381_35
  -OEChem-11132313473D

 49 52  0     1  0  0  0  0  0999 V2000
    5.8080   10.9051   27.6261 C   0  0  0  0  0  0  0  0  0  0  0  0
    4.7281   11.3663   28.3501 C   0  0  0  0  0  0  0  0  0  0  0  0
    5.9956   11.8237   26.5615 C   0  0  0  0  0  0  0  0  0  0  0  0
    4.9994   12.7600   26.7218 C   0  0  0  0  0  0  0  0  0  0  0  0
   10.1174   13.2574   23.5509 C   0  0  0  0  0  0  0  0  0  0  0  0
    4.7486   13.9350   25.8697 C   0  0  0  0  0  0  0  0  0  0  0  0
    8.9992    9.8843   24.3477 C   0  0  0  0  0  0  0  0  0  0  0  0
    6.6620   10.7562   24.3666 C   0  0  0  0  0  0  0  0  0  0  0  0
    8.4506   11.7048   25.9539 C   0  0  0  0  0  0  0  0  0  0  0  0
    5.5277   13.7328   24.5568 C   0  0  0  0  0  0  0  0  0  0  0  0
    8.4807   11.5140   22.7109 C   0  0  0  0  0  0  0  0  0  0  0  0
    7.8405   10.3390   23.4576 C   0  0  1  0  0  0  0  0  0  0  0  0
    9.4599   11.2359   24.8861 C   0  0  2  0  0  0  0  0  0  0  0  0
    6.9862   11.8689   25.4195 C   0  0  2  0  0  0  0  0  0  0  0  0
   12.7944   13.4400   22.5687 C   0  0  0  0  0  0  0  0  0  0  0  0
   11.7704   14.4171   20.4937 C   0  0  0  0  0  0  0  0  0  0  0  0
   11.5155   15.6042   22.6923 C   0  0  0  0  0  0  0  0  0  0  0  0
   11.6244   14.2444   22.0040 C   0  0  0  0  0  0  0  0  0  0  0  0
    6.8971   13.2266   24.7828 N   0  0  0  0  0  0  0  0  0  0  0  0
    9.4024   12.0827   23.6947 N   0  0  0  0  0  0  0  0  0  0  0  0
   10.4464   13.9852   24.4845 O   0  0  0  0  0  0  0  0  0  0  0  0
    4.2264   12.5072   27.8005 O   0  0  0  0  0  0  0  0  0  0  0  0
   10.4146   13.5159   22.2399 O   0  0  0  0  0  0  0  0  0  0  0  0
    6.3857   10.0185   27.8447 H   0  0  0  0  0  0  0  0  0  0  0  0
    4.2219   11.0167   29.2380 H   0  0  0  0  0  0  0  0  0  0  0  0
    3.6754   14.0112   25.6613 H   0  0  0  0  0  0  0  0  0  0  0  0
    5.0685   14.8590   26.3612 H   0  0  0  0  0  0  0  0  0  0  0  0
    8.6941    9.1821   25.1302 H   0  0  0  0  0  0  0  0  0  0  0  0
    9.7888    9.4125   23.7500 H   0  0  0  0  0  0  0  0  0  0  0  0
    5.8099   11.0554   23.7394 H   0  0  0  0  0  0  0  0  0  0  0  0
    6.3232    9.8479   24.8847 H   0  0  0  0  0  0  0  0  0  0  0  0
    8.4586   10.9651   26.7667 H   0  0  0  0  0  0  0  0  0  0  0  0
    8.8113   12.6318   26.4141 H   0  0  0  0  0  0  0  0  0  0  0  0
    4.9877   13.0165   23.9269 H   0  0  0  0  0  0  0  0  0  0  0  0
    5.5599   14.6684   23.9871 H   0  0  0  0  0  0  0  0  0  0  0  0
    9.0829   11.1668   21.8634 H   0  0  0  0  0  0  0  0  0  0  0  0
    7.7695   12.2608   22.3480 H   0  0  0  0  0  0  0  0  0  0  0  0
    7.5223    9.5494   22.7691 H   0  0  0  0  0  0  0  0  0  0  0  0
   10.4737   11.2062   25.2969 H   0  0  0  0  0  0  0  0  0  0  0  0
   12.6933   13.3138   23.6526 H   0  0  0  0  0  0  0  0  0  0  0  0
   12.8622   12.4491   22.1081 H   0  0  0  0  0  0  0  0  0  0  0  0
   13.7435   13.9632   22.4057 H   0  0  0  0  0  0  0  0  0  0  0  0
   10.9331   14.9937   20.0842 H   0  0  0  0  0  0  0  0  0  0  0  0
   11.7536   13.4458   19.9863 H   0  0  0  0  0  0  0  0  0  0  0  0
   12.7031   14.9280   20.2337 H   0  0  0  0  0  0  0  0  0  0  0  0
   10.6763   16.1814   22.2874 H   0  0  0  0  0  0  0  0  0  0  0  0
   11.3732   15.4991   23.7727 H   0  0  0  0  0  0  0  0  0  0  0  0
   12.4163   16.2033   22.5163 H   0  0  0  0  0  0  0  0  0  0  0  0
    7.3755   13.2032   23.8814 H   0  0  0  0  0  0  0  0  0  0  0  0
  1  2  2  0  0  0  0
  1  3  1  0  0  0  0
  2 22  1  0  0  0  0
  3  4  2  0  0  0  0
  3 14  1  0  0  0  0
  4  6  1  0  0  0  0
  4 22  1  0  0  0  0
  5 20  1  0  0  0  0
  5 21  2  0  0  0  0
  5 23  1  0  0  0  0
  6 10  1  0  0  0  0
  7 12  1  0  0  0  0
  7 13  1  0  0  0  0
  8 12  1  0  0  0  0
  8 14  1  0  0  0  0
  9 13  1  0  0  0  0
  9 14  1  0  0  0  0
 10 19  1  0  0  0  0
 11 12  1  0  0  0  0
 11 20  1  0  0  0  0
 13 20  1  0  0  0  0
 14 19  1  0  0  0  0
 15 18  1  0  0  0  0
 16 18  1  0  0  0  0
 17 18  1  0  0  0  0
 18 23  1  0  0  0  0
  1 24  1  0  0  0  0
  2 25  1  0  0  0  0
  6 26  1  0  0  0  0
  6 27  1  0  0  0  0
  7 28  1  0  0  0  0
  7 29  1  0  0  0  0
  8 30  1  0  0  0  0
  8 31  1  0  0  0  0
  9 32  1  0  0  0  0
  9 33  1  0  0  0  0
 10 34  1  0  0  0  0
 10 35  1  0  0  0  0
 11 36  1  0  0  0  0
 11 37  1  0  0  0  0
 12 38  1  0  0  0  0
 13 39  1  0  0  0  0
 15 40  1  0  0  0  0
 15 41  1  0  0  0  0
 15 42  1  0  0  0  0
 16 43  1  0  0  0  0
 16 44  1  0  0  0  0
 16 45  1  0  0  0  0
 17 46  1  0  0  0  0
 17 47  1  0  0  0  0
 17 48  1  0  0  0  0
 19 49  1  0  0  0  0
M  END
> <id>
EN300-1074735

> <smiles>
CC(C)(C)OC(=O)N1CC2CC1CC3(C2)NCCC=4OC=CC43

> <IUPAC Name>
tert-butyl 6',7'-dihydro-5'H-6-azaspiro[bicyclo[3.2.1]octane-3,4'-furo[3,2-c]pyridine]-6-carboxylate

> <URL>
https://www.enaminestore.com/catalog/EN300-1074735

> <ROCS_ShapeQuery>
A71EV2A-x0451_0A_A71EV2A-x0310_0A_A71EV2A-x0416_0A_peptide

> <ROCS_TanimotoCombo>
0.546 

> <ROCS_ShapeTanimoto>
0.330 

> <ROCS_ColorTanimoto>
0.217 

> <ROCS_RefTversky>
0.297 

> <ROCS_RefColorTversky>
0.258 

> <ROCS_RefTverskyCombo>
0.555 

> <ROCS_FitTversky>
1.506 

> <ROCS_FitColorTversky>
0.576 

> <ROCS_FitTverskyCombo>
2.082 

> <ROCS_ColorScore>
-7.936

> <ROCS_Overlap>
2062.116

> <ROCS_Rank>
3                   

$$$$
untitled-dbase-50655_22
  -OEChem-11132313473D

 35 36  0     0  0  0  0  0  0999 V2000
    5.7771   13.5864   26.0419 C   0  0  0  0  0  0  0  0  0  0  0  0
    6.3007   11.2086   25.9075 C   0  0  0  0  0  0  0  0  0  0  0  0
    7.0937   10.1727   25.4254 C   0  0  0  0  0  0  0  0  0  0  0  0
    7.7183   12.8043   24.7693 C   0  0  0  0  0  0  0  0  0  0  0  0
    6.6073   12.5222   25.5710 C   0  0  0  0  0  0  0  0  0  0  0  0
    8.1977   10.4554   24.6107 C   0  0  0  0  0  0  0  0  0  0  0  0
    8.5480   11.7767   24.2957 C   0  0  0  0  0  0  0  0  0  0  0  0
    9.9936    9.5198   23.2485 C   0  0  0  0  0  0  0  0  0  0  0  0
   10.4032   13.2337   23.3858 C   0  0  0  0  0  0  0  0  0  0  0  0
   10.1815   10.9025   22.6696 C   0  0  0  0  0  0  0  0  0  0  0  0
   13.1759   13.6900   22.8277 C   0  0  0  0  0  0  0  0  0  0  0  0
   12.3994   14.4824   20.5742 C   0  0  0  0  0  0  0  0  0  0  0  0
   11.6727   15.7005   22.6470 C   0  0  0  0  0  0  0  0  0  0  0  0
   12.0330   14.3409   22.0500 C   0  0  0  0  0  0  0  0  0  0  0  0
    5.1038   14.4511   26.4237 N   0  0  0  0  0  0  0  0  0  0  0  0
    8.9617    9.3789   24.1416 N   0  0  0  0  0  0  0  0  0  0  0  0
    9.7120   12.0105   23.4970 N   0  0  0  0  0  0  0  0  0  0  0  0
   10.6431    8.5621   22.8262 O   0  0  0  0  0  0  0  0  0  0  0  0
   10.5098   14.0403   24.3103 O   0  0  0  0  0  0  0  0  0  0  0  0
   10.8842   13.4889   22.1296 O   0  0  0  0  0  0  0  0  0  0  0  0
    5.4450   10.9757   26.5374 H   0  0  0  0  0  0  0  0  0  0  0  0
    6.8410    9.1491   25.6867 H   0  0  0  0  0  0  0  0  0  0  0  0
    7.8859   13.8413   24.5097 H   0  0  0  0  0  0  0  0  0  0  0  0
   11.2436   11.0251   22.4914 H   0  0  0  0  0  0  0  0  0  0  0  0
    9.6444   10.9454   21.7292 H   0  0  0  0  0  0  0  0  0  0  0  0
   12.9169   13.5866   23.8875 H   0  0  0  0  0  0  0  0  0  0  0  0
   13.4206   12.6991   22.4313 H   0  0  0  0  0  0  0  0  0  0  0  0
   14.0784   14.3107   22.7892 H   0  0  0  0  0  0  0  0  0  0  0  0
   11.5822   14.9490   20.0123 H   0  0  0  0  0  0  0  0  0  0  0  0
   12.5664   13.5002   20.1176 H   0  0  0  0  0  0  0  0  0  0  0  0
   13.3025   15.0861   20.4382 H   0  0  0  0  0  0  0  0  0  0  0  0
   10.8530   16.1677   22.0893 H   0  0  0  0  0  0  0  0  0  0  0  0
   11.3715   15.6134   23.6959 H   0  0  0  0  0  0  0  0  0  0  0  0
   12.5218   16.3908   22.5847 H   0  0  0  0  0  0  0  0  0  0  0  0
    8.7424    8.4500   24.4777 H   0  0  0  0  0  0  0  0  0  0  0  0
  1  5  1  0  0  0  0
  1 15  3  0  0  0  0
  2  3  1  0  0  0  0
  2  5  2  0  0  0  0
  3  6  2  0  0  0  0
  4  5  1  0  0  0  0
  4  7  2  0  0  0  0
  6  7  1  0  0  0  0
  6 16  1  0  0  0  0
  7 17  1  0  0  0  0
  8 10  1  0  0  0  0
  8 16  1  0  0  0  0
  8 18  2  0  0  0  0
  9 17  1  0  0  0  0
  9 19  2  0  0  0  0
  9 20  1  0  0  0  0
 10 17  1  0  0  0  0
 11 14  1  0  0  0  0
 12 14  1  0  0  0  0
 13 14  1  0  0  0  0
 14 20  1  0  0  0  0
  2 21  1  0  0  0  0
  3 22  1  0  0  0  0
  4 23  1  0  0  0  0
 10 24  1  0  0  0  0
 10 25  1  0  0  0  0
 11 26  1  0  0  0  0
 11 27  1  0  0  0  0
 11 28  1  0  0  0  0
 12 29  1  0  0  0  0
 12 30  1  0  0  0  0
 12 31  1  0  0  0  0
 13 32  1  0  0  0  0
 13 33  1  0  0  0  0
 13 34  1  0  0  0  0
 16 35  1  0  0  0  0
M  END
> <id>
EN300-37396761

> <smiles>
CC(C)(C)OC(=O)N1CC(=O)NC=2C=CC(C#N)=CC12

> <IUPAC Name>
tert-butyl 7-cyano-3-oxo-1,2,3,4-tetrahydroquinoxaline-1-carboxylate

> <CAS>
2770533-61-2

> <URL>
https://www.enaminestore.com/catalog/EN300-37396761

> <ROCS_ShapeQuery>
A71EV2A-x0451_0A_A71EV2A-x0310_0A_A71EV2A-x0416_0A_peptide

> <ROCS_TanimotoCombo>
0.544 

> <ROCS_ShapeTanimoto>
0.366 

> <ROCS_ColorTanimoto>
0.178 

> <ROCS_RefTversky>
0.315 

> <ROCS_RefColorTversky>
0.192 

> <ROCS_RefTverskyCombo>
0.507 

> <ROCS_FitTversky>
1.789 

> <ROCS_FitColorTversky>
0.710 

> <ROCS_FitTverskyCombo>
2.498 

> <ROCS_ColorScore>
-5.849

> <ROCS_Overlap>
2186.322

> <ROCS_Rank>
4                   

$$$$
untitled-dbase-30666_22
  -OEChem-11132313473D

 38 40  0     1  0  0  0  0  0999 V2000
   10.4919   13.4651   23.3334 C   0  0  0  0  0  0  0  0  0  0  0  0
    7.6807   10.1802   23.0866 C   0  0  0  0  0  0  0  0  0  0  0  0
    7.4849   10.3187   25.4517 C   0  0  0  0  0  0  0  0  0  0  0  0
   10.1272   10.9809   23.0400 C   0  0  0  0  0  0  0  0  0  0  0  0
    6.9230   10.9571   24.1802 C   0  0  1  0  0  0  0  0  0  0  0  0
    9.1050   10.0456   23.6767 C   0  0  1  0  0  0  0  0  0  0  0  0
    8.9260   10.6344   25.0940 C   0  0  1  0  0  0  0  0  0  0  0  0
    8.9322   12.1455   24.7729 C   0  0  2  0  0  0  0  0  0  0  0  0
    7.4939   12.3859   24.2625 C   0  0  2  0  0  0  0  0  0  0  0  0
   12.7258   14.9045   22.2827 C   0  0  0  0  0  0  0  0  0  0  0  0
   11.6524   14.5665   20.0370 C   0  0  0  0  0  0  0  0  0  0  0  0
   10.4584   15.8884   21.8076 C   0  0  0  0  0  0  0  0  0  0  0  0
   11.4053   14.7203   21.5362 C   0  0  0  0  0  0  0  0  0  0  0  0
    9.8977   12.2667   23.6883 N   0  0  0  0  0  0  0  0  0  0  0  0
   10.7295   14.3782   24.1208 O   0  0  0  0  0  0  0  0  0  0  0  0
    6.7758   13.1601   25.2145 O   0  0  0  0  0  0  0  0  0  0  0  0
   10.7857   13.5145   21.9971 O   0  0  0  0  0  0  0  0  0  0  0  0
    7.2383    9.1845   22.9637 H   0  0  0  0  0  0  0  0  0  0  0  0
    7.6575   10.6837   22.1151 H   0  0  0  0  0  0  0  0  0  0  0  0
    7.1537   10.8108   26.3713 H   0  0  0  0  0  0  0  0  0  0  0  0
    7.2854    9.2440   25.5166 H   0  0  0  0  0  0  0  0  0  0  0  0
   11.1513   10.6730   23.2779 H   0  0  0  0  0  0  0  0  0  0  0  0
   10.0276   11.0710   21.9543 H   0  0  0  0  0  0  0  0  0  0  0  0
    5.8348   10.9113   24.1011 H   0  0  0  0  0  0  0  0  0  0  0  0
    9.4343    9.0021   23.6768 H   0  0  0  0  0  0  0  0  0  0  0  0
    9.6905   10.3216   25.8087 H   0  0  0  0  0  0  0  0  0  0  0  0
    9.1976   12.7819   25.6228 H   0  0  0  0  0  0  0  0  0  0  0  0
    7.4545   12.9117   23.3029 H   0  0  0  0  0  0  0  0  0  0  0  0
   12.5527   15.0153   23.3591 H   0  0  0  0  0  0  0  0  0  0  0  0
   13.4003   14.0568   22.1243 H   0  0  0  0  0  0  0  0  0  0  0  0
   13.2355   15.8181   21.9560 H   0  0  0  0  0  0  0  0  0  0  0  0
   10.7077   14.4341   19.4974 H   0  0  0  0  0  0  0  0  0  0  0  0
   12.2538   13.6739   19.8301 H   0  0  0  0  0  0  0  0  0  0  0  0
   12.1699   15.4372   19.6214 H   0  0  0  0  0  0  0  0  0  0  0  0
    9.5112   15.7565   21.2723 H   0  0  0  0  0  0  0  0  0  0  0  0
   10.2404   15.9910   22.8756 H   0  0  0  0  0  0  0  0  0  0  0  0
   10.8883   16.8302   21.4479 H   0  0  0  0  0  0  0  0  0  0  0  0
    7.1802   14.0426   25.2197 H   0  0  0  0  0  0  0  0  0  0  0  0
  1 14  1  0  0  0  0
  1 15  2  0  0  0  0
  1 17  1  0  0  0  0
  2  5  1  0  0  0  0
  2  6  1  0  0  0  0
  3  5  1  0  0  0  0
  3  7  1  0  0  0  0
  4  6  1  0  0  0  0
  4 14  1  0  0  0  0
  5  9  1  0  0  0  0
  6  7  1  0  0  0  0
  7  8  1  0  0  0  0
  8  9  1  0  0  0  0
  8 14  1  0  0  0  0
  9 16  1  0  0  0  0
 10 13  1  0  0  0  0
 11 13  1  0  0  0  0
 12 13  1  0  0  0  0
 13 17  1  0  0  0  0
  2 18  1  0  0  0  0
  2 19  1  0  0  0  0
  3 20  1  0  0  0  0
  3 21  1  0  0  0  0
  4 22  1  0  0  0  0
  4 23  1  0  0  0  0
  5 24  1  0  0  0  0
  6 25  1  0  0  0  0
  7 26  1  0  0  0  0
  8 27  1  0  0  0  0
  9 28  1  0  0  0  0
 10 29  1  0  0  0  0
 10 30  1  0  0  0  0
 10 31  1  0  0  0  0
 11 32  1  0  0  0  0
 11 33  1  0  0  0  0
 11 34  1  0  0  0  0
 12 35  1  0  0  0  0
 12 36  1  0  0  0  0
 12 37  1  0  0  0  0
 16 38  1  0  0  0  0
M  END
> <id>
EN300-209732

> <smiles>
CC(C)(C)OC(=O)N1CC2CC3CC2C1C3O

> <IUPAC Name>
tert-butyl 2-hydroxy-4-azatricyclo[4.2.1.0,3,7]nonane-4-carboxylate

> <CAS>
1699288-66-8

> <URL>
https://www.enaminestore.com/catalog/EN300-209732

> <ROCS_ShapeQuery>
A71EV2A-x0451_0A_A71EV2A-x0310_0A_A71EV2A-x0416_0A_peptide

> <ROCS_TanimotoCombo>
0.543 

> <ROCS_ShapeTanimoto>
0.314 

> <ROCS_ColorTanimoto>
0.229 

> <ROCS_RefTversky>
0.277 

> <ROCS_RefColorTversky>
0.290 

> <ROCS_RefTverskyCombo>
0.568 

> <ROCS_FitTversky>
1.745 

> <ROCS_FitColorTversky>
0.518 

> <ROCS_FitTverskyCombo>
2.263 

> <ROCS_ColorScore>
-8.990

> <ROCS_Overlap>
1921.925

> <ROCS_Rank>
5                   

$$$$
untitled-dbase-30817_24
  -OEChem-11132313473D

 40 41  0     1  0  0  0  0  0999 V2000
   10.4519   13.3818   23.3711 C   0  0  0  0  0  0  0  0  0  0  0  0
    6.8224   11.5309   24.1116 C   0  0  0  0  0  0  0  0  0  0  0  0
    7.5070   11.4148   25.4817 C   0  0  0  0  0  0  0  0  0  0  0  0
    8.8143   11.6476   22.5710 C   0  0  0  0  0  0  0  0  0  0  0  0
    9.9401   11.4518   24.8273 C   0  0  0  0  0  0  0  0  0  0  0  0
    7.7224   10.7304   23.1456 C   0  0  1  0  0  0  0  0  0  0  0  0
    8.7621   10.5512   25.2298 C   0  0  2  0  0  0  0  0  0  0  0  0
    8.3215    9.6537   24.0635 C   0  0  0  0  0  0  0  0  0  0  0  0
   12.9008   14.6149   22.5546 C   0  0  0  0  0  0  0  0  0  0  0  0
   11.9182   14.6091   20.2430 C   0  0  0  0  0  0  0  0  0  0  0  0
   10.7999   15.9148   22.0740 C   0  0  0  0  0  0  0  0  0  0  0  0
    9.4098    8.7796   23.4497 C   0  0  0  0  0  0  0  0  0  0  0  0
   11.6104   14.6639   21.7378 C   0  0  0  0  0  0  0  0  0  0  0  0
    9.6922   12.2273   23.6035 N   0  0  0  0  0  0  0  0  0  0  0  0
   10.7613   14.1927   24.2423 O   0  0  0  0  0  0  0  0  0  0  0  0
    7.2885    8.7726   24.5189 O   0  0  0  0  0  0  0  0  0  0  0  0
   10.8238   13.5110   22.0588 O   0  0  0  0  0  0  0  0  0  0  0  0
   10.4452    9.5384   23.0566 F   0  0  0  0  0  0  0  0  0  0  0  0
    9.8465    7.8847   24.3501 F   0  0  0  0  0  0  0  0  0  0  0  0
    8.9272    8.1209   22.3841 F   0  0  0  0  0  0  0  0  0  0  0  0
    5.8226   11.0833   24.1616 H   0  0  0  0  0  0  0  0  0  0  0  0
    6.6962   12.5745   23.8055 H   0  0  0  0  0  0  0  0  0  0  0  0
    7.7465   12.3966   25.9034 H   0  0  0  0  0  0  0  0  0  0  0  0
    6.8338   10.9125   26.1866 H   0  0  0  0  0  0  0  0  0  0  0  0
    9.4562   11.1019   21.8704 H   0  0  0  0  0  0  0  0  0  0  0  0
    8.3475   12.4585   22.0001 H   0  0  0  0  0  0  0  0  0  0  0  0
   10.1786   12.1449   25.6429 H   0  0  0  0  0  0  0  0  0  0  0  0
   10.8439   10.8563   24.6545 H   0  0  0  0  0  0  0  0  0  0  0  0
    7.1196   10.3021   22.3375 H   0  0  0  0  0  0  0  0  0  0  0  0
    9.0107    9.9774   26.1290 H   0  0  0  0  0  0  0  0  0  0  0  0
   12.6842   14.6540   23.6281 H   0  0  0  0  0  0  0  0  0  0  0  0
   13.4744   13.7053   22.3485 H   0  0  0  0  0  0  0  0  0  0  0  0
   13.5354   15.4813   22.3356 H   0  0  0  0  0  0  0  0  0  0  0  0
   10.9952   14.6440   19.6530 H   0  0  0  0  0  0  0  0  0  0  0  0
   12.4164   13.6686   19.9812 H   0  0  0  0  0  0  0  0  0  0  0  0
   12.5600   15.4397   19.9319 H   0  0  0  0  0  0  0  0  0  0  0  0
    9.8743   15.9502   21.4883 H   0  0  0  0  0  0  0  0  0  0  0  0
   10.5382   15.9523   23.1364 H   0  0  0  0  0  0  0  0  0  0  0  0
   11.3606   16.8220   21.8213 H   0  0  0  0  0  0  0  0  0  0  0  0
    7.7219    8.1209   25.0882 H   0  0  0  0  0  0  0  0  0  0  0  0
  1 14  1  0  0  0  0
  1 15  2  0  0  0  0
  1 17  1  0  0  0  0
  2  3  1  0  0  0  0
  2  6  1  0  0  0  0
  3  7  1  0  0  0  0
  4  6  1  0  0  0  0
  4 14  1  0  0  0  0
  5  7  1  0  0  0  0
  5 14  1  0  0  0  0
  6  8  1  0  0  0  0
  7  8  1  0  0  0  0
  8 12  1  0  0  0  0
  8 16  1  0  0  0  0
  9 13  1  0  0  0  0
 10 13  1  0  0  0  0
 11 13  1  0  0  0  0
 12 18  1  0  0  0  0
 12 19  1  0  0  0  0
 12 20  1  0  0  0  0
 13 17  1  0  0  0  0
  2 21  1  0  0  0  0
  2 22  1  0  0  0  0
  3 23  1  0  0  0  0
  3 24  1  0  0  0  0
  4 25  1  0  0  0  0
  4 26  1  0  0  0  0
  5 27  1  0  0  0  0
  5 28  1  0  0  0  0
  6 29  1  0  0  0  0
  7 30  1  0  0  0  0
  9 31  1  0  0  0  0
  9 32  1  0  0  0  0
  9 33  1  0  0  0  0
 10 34  1  0  0  0  0
 10 35  1  0  0  0  0
 10 36  1  0  0  0  0
 11 37  1  0  0  0  0
 11 38  1  0  0  0  0
 11 39  1  0  0  0  0
 16 40  1  0  0  0  0
M  END
> <id>
EN300-26665937

> <smiles>
CC(C)(C)OC(=O)N1CC2CCC(C1)C2(O)C(F)(F)F

> <IUPAC Name>
tert-butyl 8-hydroxy-8-(trifluoromethyl)-3-azabicyclo[3.2.1]octane-3-carboxylate

> <CAS>
2413886-80-1

> <URL>
https://www.enaminestore.com/catalog/EN300-26665937

> <ROCS_ShapeQuery>
A71EV2A-x0451_0A_A71EV2A-x0310_0A_A71EV2A-x0416_0A_peptide

> <ROCS_TanimotoCombo>
0.541 

> <ROCS_ShapeTanimoto>
0.338 

> <ROCS_ColorTanimoto>
0.203 

> <ROCS_RefTversky>
0.297 

> <ROCS_RefColorTversky>
0.229 

> <ROCS_RefTverskyCombo>
0.526 

> <ROCS_FitTversky>
1.680 

> <ROCS_FitColorTversky>
0.643 

> <ROCS_FitTverskyCombo>
2.323 

> <ROCS_ColorScore>
-7.013

> <ROCS_Overlap>
2063.499

> <ROCS_Rank>
6                   

$$$$
untitled-dbase-26701_19
  -OEChem-11132313473D

 39 41  0     1  0  0  0  0  0999 V2000
   10.8413   13.2274   23.6243 C   0  0  0  0  0  0  0  0  0  0  0  0
    8.6888    9.8843   25.2256 C   0  0  0  0  0  0  0  0  0  0  0  0
    6.7793   10.5712   23.9892 C   0  0  0  0  0  0  0  0  0  0  0  0
   10.3805   10.7800   23.5104 C   0  0  0  0  0  0  0  0  0  0  0  0
    7.4909   10.8539   25.3142 C   0  0  2  0  0  0  0  0  0  0  0  0
    9.1068    9.9769   23.7393 C   0  0  2  0  0  0  0  0  0  0  0  0
    8.0056   10.8870   23.1509 C   0  0  2  0  0  0  0  0  0  0  0  0
    8.4941   12.2686   23.6477 C   0  0  1  0  0  0  0  0  0  0  0  0
    8.0012   12.3018   25.1182 C   0  0  1  0  0  0  0  0  0  0  0  0
   12.4372   15.2404   22.3708 C   0  0  0  0  0  0  0  0  0  0  0  0
   13.6275   13.3354   21.2468 C   0  0  0  0  0  0  0  0  0  0  0  0
   11.1804   13.7068   20.8206 C   0  0  0  0  0  0  0  0  0  0  0  0
   12.3066   13.8105   21.8481 C   0  0  0  0  0  0  0  0  0  0  0  0
    9.9520   12.1672   23.5876 N   0  0  0  0  0  0  0  0  0  0  0  0
    6.9089   13.2611   25.2700 N   0  0  0  0  0  0  0  0  0  0  0  0
   10.6190   14.2950   24.1910 O   0  0  0  0  0  0  0  0  0  0  0  0
   11.9994   12.9490   22.9497 O   0  0  0  0  0  0  0  0  0  0  0  0
    9.4936   10.1401   25.9221 H   0  0  0  0  0  0  0  0  0  0  0  0
    8.3574    8.8635   25.4509 H   0  0  0  0  0  0  0  0  0  0  0  0
    6.4569    9.5289   23.8931 H   0  0  0  0  0  0  0  0  0  0  0  0
    5.9322   11.2293   23.7804 H   0  0  0  0  0  0  0  0  0  0  0  0
   11.1715   10.5784   24.2391 H   0  0  0  0  0  0  0  0  0  0  0  0
   10.7793   10.6167   22.5032 H   0  0  0  0  0  0  0  0  0  0  0  0
    6.8807   10.7071   26.2086 H   0  0  0  0  0  0  0  0  0  0  0  0
    9.1463    8.9857   23.2770 H   0  0  0  0  0  0  0  0  0  0  0  0
    7.8942   10.8094   22.0671 H   0  0  0  0  0  0  0  0  0  0  0  0
    8.1341   13.1085   23.0448 H   0  0  0  0  0  0  0  0  0  0  0  0
    8.7805   12.5545   25.8258 H   0  0  0  0  0  0  0  0  0  0  0  0
   11.4911   15.5851   22.8032 H   0  0  0  0  0  0  0  0  0  0  0  0
   13.2181   15.3211   23.1340 H   0  0  0  0  0  0  0  0  0  0  0  0
   12.6759   15.9341   21.5566 H   0  0  0  0  0  0  0  0  0  0  0  0
   13.5384   12.3099   20.8705 H   0  0  0  0  0  0  0  0  0  0  0  0
   14.4180   13.3180   22.0059 H   0  0  0  0  0  0  0  0  0  0  0  0
   13.9517   13.9799   20.4234 H   0  0  0  0  0  0  0  0  0  0  0  0
   11.0865   12.6812   20.4455 H   0  0  0  0  0  0  0  0  0  0  0  0
   10.2177   14.0088   21.2456 H   0  0  0  0  0  0  0  0  0  0  0  0
   11.3892   14.3371   19.9486 H   0  0  0  0  0  0  0  0  0  0  0  0
    6.5700   13.1988   26.2002 H   0  0  0  0  0  0  0  0  0  0  0  0
    7.2669   14.1677   25.0857 H   0  0  0  0  0  0  0  0  0  0  0  0
  1 14  1  0  0  0  0
  1 16  2  0  0  0  0
  1 17  1  0  0  0  0
  2  5  1  0  0  0  0
  2  6  1  0  0  0  0
  3  5  1  0  0  0  0
  3  7  1  0  0  0  0
  4  6  1  0  0  0  0
  4 14  1  0  0  0  0
  5  9  1  0  0  0  0
  6  7  1  0  0  0  0
  7  8  1  0  0  0  0
  8  9  1  0  0  0  0
  8 14  1  0  0  0  0
  9 15  1  0  0  0  0
 10 13  1  0  0  0  0
 11 13  1  0  0  0  0
 12 13  1  0  0  0  0
 13 17  1  0  0  0  0
  2 18  1  0  0  0  0
  2 19  1  0  0  0  0
  3 20  1  0  0  0  0
  3 21  1  0  0  0  0
  4 22  1  0  0  0  0
  4 23  1  0  0  0  0
  5 24  1  0  0  0  0
  6 25  1  0  0  0  0
  7 26  1  0  0  0  0
  8 27  1  0  0  0  0
  9 28  1  0  0  0  0
 10 29  1  0  0  0  0
 10 30  1  0  0  0  0
 10 31  1  0  0  0  0
 11 32  1  0  0  0  0
 11 33  1  0  0  0  0
 11 34  1  0  0  0  0
 12 35  1  0  0  0  0
 12 36  1  0  0  0  0
 12 37  1  0  0  0  0
 15 38  1  0  0  0  0
 15 39  1  0  0  0  0
M  END
> <id>
EN300-7426844

> <smiles>
Cl.CC(C)(C)OC(=O)N1CC2CC3CC2C1C3N

> <MDLNUMBER>
MFCD31924532

> <IUPAC Name>
tert-butyl 2-amino-4-azatricyclo[4.2.1.0,3,7]nonane-4-carboxylate hydrochloride

> <CAS>
2344680-16-4

> <Purity>
95

> <URL>
https://www.enaminestore.com/catalog/EN300-7426844

> <Saltdate>
Cl

> <ROCS_ShapeQuery>
A71EV2A-x0451_0A_A71EV2A-x0310_0A_A71EV2A-x0416_0A_peptide

> <ROCS_TanimotoCombo>
0.532 

> <ROCS_ShapeTanimoto>
0.306 

> <ROCS_ColorTanimoto>
0.226 

> <ROCS_RefTversky>
0.271 

> <ROCS_RefColorTversky>
0.287 

> <ROCS_RefTverskyCombo>
0.559 

> <ROCS_FitTversky>
1.712 

> <ROCS_FitColorTversky>
0.513 

> <ROCS_FitTverskyCombo>
2.225 

> <ROCS_ColorScore>
-8.898

> <ROCS_Overlap>
1881.958

> <ROCS_Rank>
7                   

$$$$
untitled-dbase-26532_19
  -OEChem-11132313473D

 39 41  0     1  0  0  0  0  0999 V2000
   10.8413   13.2274   23.6243 C   0  0  0  0  0  0  0  0  0  0  0  0
    8.6888    9.8843   25.2256 C   0  0  0  0  0  0  0  0  0  0  0  0
    6.7793   10.5712   23.9892 C   0  0  0  0  0  0  0  0  0  0  0  0
   10.3805   10.7800   23.5104 C   0  0  0  0  0  0  0  0  0  0  0  0
    7.4909   10.8539   25.3142 C   0  0  2  0  0  0  0  0  0  0  0  0
    9.1068    9.9769   23.7393 C   0  0  2  0  0  0  0  0  0  0  0  0
    8.0056   10.8870   23.1509 C   0  0  2  0  0  0  0  0  0  0  0  0
    8.4941   12.2686   23.6477 C   0  0  1  0  0  0  0  0  0  0  0  0
    8.0012   12.3018   25.1182 C   0  0  1  0  0  0  0  0  0  0  0  0
   12.4372   15.2404   22.3708 C   0  0  0  0  0  0  0  0  0  0  0  0
   13.6275   13.3354   21.2468 C   0  0  0  0  0  0  0  0  0  0  0  0
   11.1804   13.7068   20.8206 C   0  0  0  0  0  0  0  0  0  0  0  0
   12.3066   13.8105   21.8481 C   0  0  0  0  0  0  0  0  0  0  0  0
    9.9520   12.1672   23.5876 N   0  0  0  0  0  0  0  0  0  0  0  0
    6.9089   13.2611   25.2700 N   0  0  0  0  0  0  0  0  0  0  0  0
   10.6190   14.2950   24.1910 O   0  0  0  0  0  0  0  0  0  0  0  0
   11.9994   12.9490   22.9497 O   0  0  0  0  0  0  0  0  0  0  0  0
    9.4936   10.1401   25.9221 H   0  0  0  0  0  0  0  0  0  0  0  0
    8.3574    8.8635   25.4509 H   0  0  0  0  0  0  0  0  0  0  0  0
    6.4569    9.5289   23.8931 H   0  0  0  0  0  0  0  0  0  0  0  0
    5.9322   11.2293   23.7804 H   0  0  0  0  0  0  0  0  0  0  0  0
   11.1715   10.5784   24.2391 H   0  0  0  0  0  0  0  0  0  0  0  0
   10.7793   10.6167   22.5032 H   0  0  0  0  0  0  0  0  0  0  0  0
    6.8807   10.7071   26.2086 H   0  0  0  0  0  0  0  0  0  0  0  0
    9.1463    8.9857   23.2770 H   0  0  0  0  0  0  0  0  0  0  0  0
    7.8942   10.8094   22.0671 H   0  0  0  0  0  0  0  0  0  0  0  0
    8.1341   13.1085   23.0448 H   0  0  0  0  0  0  0  0  0  0  0  0
    8.7805   12.5545   25.8258 H   0  0  0  0  0  0  0  0  0  0  0  0
   11.4911   15.5851   22.8032 H   0  0  0  0  0  0  0  0  0  0  0  0
   13.2181   15.3211   23.1340 H   0  0  0  0  0  0  0  0  0  0  0  0
   12.6759   15.9341   21.5566 H   0  0  0  0  0  0  0  0  0  0  0  0
   13.5384   12.3099   20.8705 H   0  0  0  0  0  0  0  0  0  0  0  0
   14.4180   13.3180   22.0059 H   0  0  0  0  0  0  0  0  0  0  0  0
   13.9517   13.9799   20.4234 H   0  0  0  0  0  0  0  0  0  0  0  0
   11.0865   12.6812   20.4455 H   0  0  0  0  0  0  0  0  0  0  0  0
   10.2177   14.0088   21.2456 H   0  0  0  0  0  0  0  0  0  0  0  0
   11.3892   14.3371   19.9486 H   0  0  0  0  0  0  0  0  0  0  0  0
    6.5700   13.1988   26.2002 H   0  0  0  0  0  0  0  0  0  0  0  0
    7.2669   14.1677   25.0857 H   0  0  0  0  0  0  0  0  0  0  0  0
  1 14  1  0  0  0  0
  1 16  2  0  0  0  0
  1 17  1  0  0  0  0
  2  5  1  0  0  0  0
  2  6  1  0  0  0  0
  3  5  1  0  0  0  0
  3  7  1  0  0  0  0
  4  6  1  0  0  0  0
  4 14  1  0  0  0  0
  5  9  1  0  0  0  0
  6  7  1  0  0  0  0
  7  8  1  0  0  0  0
  8  9  1  0  0  0  0
  8 14  1  0  0  0  0
  9 15  1  0  0  0  0
 10 13  1  0  0  0  0
 11 13  1  0  0  0  0
 12 13  1  0  0  0  0
 13 17  1  0  0  0  0
  2 18  1  0  0  0  0
  2 19  1  0  0  0  0
  3 20  1  0  0  0  0
  3 21  1  0  0  0  0
  4 22  1  0  0  0  0
  4 23  1  0  0  0  0
  5 24  1  0  0  0  0
  6 25  1  0  0  0  0
  7 26  1  0  0  0  0
  8 27  1  0  0  0  0
  9 28  1  0  0  0  0
 10 29  1  0  0  0  0
 10 30  1  0  0  0  0
 10 31  1  0  0  0  0
 11 32  1  0  0  0  0
 11 33  1  0  0  0  0
 11 34  1  0  0  0  0
 12 35  1  0  0  0  0
 12 36  1  0  0  0  0
 12 37  1  0  0  0  0
 15 38  1  0  0  0  0
 15 39  1  0  0  0  0
M  END
> <id>
EN300-3150146

> <smiles>
CC(C)(C)OC(=O)N1CC2CC3CC2C1C3N

> <MDLNUMBER>
MFCD31924379

> <IUPAC Name>
tert-butyl 2-amino-4-azatricyclo[4.2.1.0,3,7]nonane-4-carboxylate

> <CAS>
1876006-33-5

> <URL>
https://www.enaminestore.com/catalog/EN300-3150146

> <ROCS_ShapeQuery>
A71EV2A-x0451_0A_A71EV2A-x0310_0A_A71EV2A-x0416_0A_peptide

> <ROCS_TanimotoCombo>
0.532 

> <ROCS_ShapeTanimoto>
0.306 

> <ROCS_ColorTanimoto>
0.226 

> <ROCS_RefTversky>
0.271 

> <ROCS_RefColorTversky>
0.287 

> <ROCS_RefTverskyCombo>
0.559 

> <ROCS_FitTversky>
1.712 

> <ROCS_FitColorTversky>
0.513 

> <ROCS_FitTverskyCombo>
2.225 

> <ROCS_ColorScore>
-8.898

> <ROCS_Overlap>
1881.958

> <ROCS_Rank>
8                   

$$$$
untitled-dbase-14791_3
  -OEChem-11132313473D

 38 40  0     0  0  0  0  0  0999 V2000
    7.9425   13.0422   25.2846 C   0  0  0  0  0  0  0  0  0  0  0  0
    6.8682   12.8814   26.1694 C   0  0  0  0  0  0  0  0  0  0  0  0
    6.7184   10.5606   25.5803 C   0  0  0  0  0  0  0  0  0  0  0  0
    8.4365   11.9648   24.5328 C   0  0  0  0  0  0  0  0  0  0  0  0
    7.7994   10.7194   24.7049 C   0  0  0  0  0  0  0  0  0  0  0  0
    6.2560   11.6431   26.3173 C   0  0  0  0  0  0  0  0  0  0  0  0
   10.2918   13.2577   23.4219 C   0  0  0  0  0  0  0  0  0  0  0  0
   10.0694    8.3577   22.9824 C   0  0  0  0  0  0  0  0  0  0  0  0
   10.5904    8.9709   24.2511 C   0  0  0  0  0  0  0  0  0  0  0  0
    9.7618   10.9166   22.7321 C   0  0  0  0  0  0  0  0  0  0  0  0
    9.4922    9.6576   23.4793 C   0  0  0  0  0  0  0  0  0  0  0  0
   12.7750   14.5062   22.7062 C   0  0  0  0  0  0  0  0  0  0  0  0
   11.8713   14.5395   20.3629 C   0  0  0  0  0  0  0  0  0  0  0  0
   10.6940   15.8185   22.1756 C   0  0  0  0  0  0  0  0  0  0  0  0
   11.5131   14.5712   21.8471 C   0  0  0  0  0  0  0  0  0  0  0  0
    9.5208   12.0887   23.5889 N   0  0  0  0  0  0  0  0  0  0  0  0
   10.5870   14.0682   24.2956 O   0  0  0  0  0  0  0  0  0  0  0  0
    8.1711    9.5790   24.0325 O   0  0  0  0  0  0  0  0  0  0  0  0
   10.7137   13.4147   22.1230 O   0  0  0  0  0  0  0  0  0  0  0  0
    5.2321   11.4935   27.1667 F   0  0  0  0  0  0  0  0  0  0  0  0
    8.3761   14.0338   25.2438 H   0  0  0  0  0  0  0  0  0  0  0  0
    6.5186   13.7296   26.7516 H   0  0  0  0  0  0  0  0  0  0  0  0
    6.2314    9.5946   25.6844 H   0  0  0  0  0  0  0  0  0  0  0  0
   10.7144    8.3770   22.1118 H   0  0  0  0  0  0  0  0  0  0  0  0
    9.4643    7.4625   23.0669 H   0  0  0  0  0  0  0  0  0  0  0  0
   10.3343    8.4870   25.1855 H   0  0  0  0  0  0  0  0  0  0  0  0
   11.5844    9.4000   24.2302 H   0  0  0  0  0  0  0  0  0  0  0  0
   10.8090   10.9580   22.4090 H   0  0  0  0  0  0  0  0  0  0  0  0
    9.1398   10.9654   21.8321 H   0  0  0  0  0  0  0  0  0  0  0  0
   12.5222   14.5287   23.7723 H   0  0  0  0  0  0  0  0  0  0  0  0
   13.3536   13.5987   22.5052 H   0  0  0  0  0  0  0  0  0  0  0  0
   13.4182   15.3745   22.5227 H   0  0  0  0  0  0  0  0  0  0  0  0
   10.9689   14.5860   19.7427 H   0  0  0  0  0  0  0  0  0  0  0  0
   12.3764   13.6021   20.1032 H   0  0  0  0  0  0  0  0  0  0  0  0
   12.5248   15.3734   20.0871 H   0  0  0  0  0  0  0  0  0  0  0  0
    9.7887   15.8654   21.5595 H   0  0  0  0  0  0  0  0  0  0  0  0
   10.3964   15.8397   23.2291 H   0  0  0  0  0  0  0  0  0  0  0  0
   11.2645   16.7283   21.9566 H   0  0  0  0  0  0  0  0  0  0  0  0
  1  2  1  0  0  0  0
  1  4  2  0  0  0  0
  2  6  2  0  0  0  0
  3  5  2  0  0  0  0
  3  6  1  0  0  0  0
  4  5  1  0  0  0  0
  4 16  1  0  0  0  0
  5 18  1  0  0  0  0
  6 20  1  0  0  0  0
  7 16  1  0  0  0  0
  7 17  2  0  0  0  0
  7 19  1  0  0  0  0
  8  9  1  0  0  0  0
  8 11  1  0  0  0  0
  9 11  1  0  0  0  0
 10 11  1  0  0  0  0
 10 16  1  0  0  0  0
 11 18  1  0  0  0  0
 12 15  1  0  0  0  0
 13 15  1  0  0  0  0
 14 15  1  0  0  0  0
 15 19  1  0  0  0  0
  1 21  1  0  0  0  0
  2 22  1  0  0  0  0
  3 23  1  0  0  0  0
  8 24  1  0  0  0  0
  8 25  1  0  0  0  0
  9 26  1  0  0  0  0
  9 27  1  0  0  0  0
 10 28  1  0  0  0  0
 10 29  1  0  0  0  0
 12 30  1  0  0  0  0
 12 31  1  0  0  0  0
 12 32  1  0  0  0  0
 13 33  1  0  0  0  0
 13 34  1  0  0  0  0
 13 35  1  0  0  0  0
 14 36  1  0  0  0  0
 14 37  1  0  0  0  0
 14 38  1  0  0  0  0
M  END
> <id>
EN300-1129115

> <smiles>
CC(C)(C)OC(=O)N1CC2(CC2)OC=3C=C(F)C=CC13

> <IUPAC Name>
tert-butyl 7-fluoro-3,4-dihydrospiro[1,4-benzoxazine-2,1'-cyclopropane]-4-carboxylate

> <CAS>
2138282-92-3

> <URL>
https://www.enaminestore.com/catalog/EN300-1129115

> <ROCS_ShapeQuery>
A71EV2A-x0451_0A_A71EV2A-x0310_0A_A71EV2A-x0416_0A_peptide

> <ROCS_TanimotoCombo>
0.531 

> <ROCS_ShapeTanimoto>
0.372 

> <ROCS_ColorTanimoto>
0.159 

> <ROCS_RefTversky>
0.319 

> <ROCS_RefColorTversky>
0.166 

> <ROCS_RefTverskyCombo>
0.485 

> <ROCS_FitTversky>
1.802 

> <ROCS_FitColorTversky>
0.796 

> <ROCS_FitTverskyCombo>
2.597 

> <ROCS_ColorScore>
-5.046

> <ROCS_Overlap>
2215.252

> <ROCS_Rank>
9                   

$$$$
untitled-dbase-14201_5
  -OEChem-11132313473D

 40 42  0     0  0  0  0  0  0999 V2000
    7.8030   13.1885   25.1455 C   0  0  0  0  0  0  0  0  0  0  0  0
    6.6495   13.1282   25.9385 C   0  0  0  0  0  0  0  0  0  0  0  0
    6.4660   10.7751   25.5086 C   0  0  0  0  0  0  0  0  0  0  0  0
    8.3210   12.0426   24.5220 C   0  0  0  0  0  0  0  0  0  0  0  0
    5.9810   11.9239   26.1199 C   0  0  0  0  0  0  0  0  0  0  0  0
    7.6252   10.8339   24.7256 C   0  0  0  0  0  0  0  0  0  0  0  0
   10.3139   13.1902   23.4930 C   0  0  0  0  0  0  0  0  0  0  0  0
    9.9487    8.2801   23.3927 C   0  0  0  0  0  0  0  0  0  0  0  0
   10.3782    8.9714   24.6555 C   0  0  0  0  0  0  0  0  0  0  0  0
    9.7600   10.8209   22.9300 C   0  0  0  0  0  0  0  0  0  0  0  0
    9.3788    9.6310   23.7393 C   0  0  0  0  0  0  0  0  0  0  0  0
   12.8954   14.3043   22.9168 C   0  0  0  0  0  0  0  0  0  0  0  0
   12.2038   14.1876   20.5049 C   0  0  0  0  0  0  0  0  0  0  0  0
   10.9196   15.6357   22.1054 C   0  0  0  0  0  0  0  0  0  0  0  0
   11.7175   14.3426   21.9442 C   0  0  0  0  0  0  0  0  0  0  0  0
    9.4882   12.0614   23.6739 N   0  0  0  0  0  0  0  0  0  0  0  0
    4.8236   11.8678   26.9215 N   0  0  0  0  0  0  0  0  0  0  0  0
   10.5608   14.0551   24.3286 O   0  0  0  0  0  0  0  0  0  0  0  0
    8.0120    9.6350   24.1746 O   0  0  0  0  0  0  0  0  0  0  0  0
   10.8543   13.2353   22.2298 O   0  0  0  0  0  0  0  0  0  0  0  0
    8.2750   14.1604   25.0719 H   0  0  0  0  0  0  0  0  0  0  0  0
    6.2901   14.0355   26.4185 H   0  0  0  0  0  0  0  0  0  0  0  0
    5.9434    9.8288   25.6312 H   0  0  0  0  0  0  0  0  0  0  0  0
   10.6685    8.2134   22.5853 H   0  0  0  0  0  0  0  0  0  0  0  0
    9.3059    7.4126   23.4869 H   0  0  0  0  0  0  0  0  0  0  0  0
   10.0228    8.5678   25.5957 H   0  0  0  0  0  0  0  0  0  0  0  0
   11.3855    9.3671   24.6933 H   0  0  0  0  0  0  0  0  0  0  0  0
   10.8325   10.8054   22.7014 H   0  0  0  0  0  0  0  0  0  0  0  0
    9.2225   10.8202   21.9759 H   0  0  0  0  0  0  0  0  0  0  0  0
   12.5505   14.4153   23.9510 H   0  0  0  0  0  0  0  0  0  0  0  0
   13.4553   13.3669   22.8356 H   0  0  0  0  0  0  0  0  0  0  0  0
   13.5842   15.1361   22.7297 H   0  0  0  0  0  0  0  0  0  0  0  0
   11.3620   14.2145   19.8036 H   0  0  0  0  0  0  0  0  0  0  0  0
   12.6946   13.2182   20.3609 H   0  0  0  0  0  0  0  0  0  0  0  0
   12.9098   14.9778   20.2296 H   0  0  0  0  0  0  0  0  0  0  0  0
   10.0747   15.6634   21.4079 H   0  0  0  0  0  0  0  0  0  0  0  0
   10.5313   15.7458   23.1231 H   0  0  0  0  0  0  0  0  0  0  0  0
   11.5408   16.5084   21.8734 H   0  0  0  0  0  0  0  0  0  0  0  0
    4.5165   12.6937   27.3957 H   0  0  0  0  0  0  0  0  0  0  0  0
    4.3811   10.9845   27.0803 H   0  0  0  0  0  0  0  0  0  0  0  0
  1  2  1  0  0  0  0
  1  4  2  0  0  0  0
  2  5  2  0  0  0  0
  3  5  1  0  0  0  0
  3  6  2  0  0  0  0
  4  6  1  0  0  0  0
  4 16  1  0  0  0  0
  5 17  1  0  0  0  0
  6 19  1  0  0  0  0
  7 16  1  0  0  0  0
  7 18  2  0  0  0  0
  7 20  1  0  0  0  0
  8  9  1  0  0  0  0
  8 11  1  0  0  0  0
  9 11  1  0  0  0  0
 10 11  1  0  0  0  0
 10 16  1  0  0  0  0
 11 19  1  0  0  0  0
 12 15  1  0  0  0  0
 13 15  1  0  0  0  0
 14 15  1  0  0  0  0
 15 20  1  0  0  0  0
  1 21  1  0  0  0  0
  2 22  1  0  0  0  0
  3 23  1  0  0  0  0
  8 24  1  0  0  0  0
  8 25  1  0  0  0  0
  9 26  1  0  0  0  0
  9 27  1  0  0  0  0
 10 28  1  0  0  0  0
 10 29  1  0  0  0  0
 12 30  1  0  0  0  0
 12 31  1  0  0  0  0
 12 32  1  0  0  0  0
 13 33  1  0  0  0  0
 13 34  1  0  0  0  0
 13 35  1  0  0  0  0
 14 36  1  0  0  0  0
 14 37  1  0  0  0  0
 14 38  1  0  0  0  0
 17 39  1  0  0  0  0
 17 40  1  0  0  0  0
M  END
> <id>
EN300-1129136

> <smiles>
CC(C)(C)OC(=O)N1CC2(CC2)OC=3C=C(N)C=CC13

> <IUPAC Name>
tert-butyl 7-amino-3,4-dihydrospiro[1,4-benzoxazine-2,1'-cyclopropane]-4-carboxylate

> <CAS>
2137885-93-7

> <URL>
https://www.enaminestore.com/catalog/EN300-1129136

> <ROCS_ShapeQuery>
A71EV2A-x0451_0A_A71EV2A-x0310_0A_A71EV2A-x0416_0A_peptide

> <ROCS_TanimotoCombo>
0.531 

> <ROCS_ShapeTanimoto>
0.371 

> <ROCS_ColorTanimoto>
0.160 

> <ROCS_RefTversky>
0.318 

> <ROCS_RefColorTversky>
0.175 

> <ROCS_RefTverskyCombo>
0.493 

> <ROCS_FitTversky>
1.801 

> <ROCS_FitColorTversky>
0.647 

> <ROCS_FitTverskyCombo>
2.448 

> <ROCS_ColorScore>
-5.333

> <ROCS_Overlap>
2210.523

> <ROCS_Rank>
10                  

$$$$
untitled-dbase-28248_3
  -OEChem-11132313473D

 38 40  0     0  0  0  0  0  0999 V2000
    7.9426   13.0424   25.2858 C   0  0  0  0  0  0  0  0  0  0  0  0
    6.8687   12.8813   26.1711 C   0  0  0  0  0  0  0  0  0  0  0  0
    6.7189   10.5606   25.5815 C   0  0  0  0  0  0  0  0  0  0  0  0
    8.4364   11.9652   24.5335 C   0  0  0  0  0  0  0  0  0  0  0  0
    7.7995   10.7197   24.7055 C   0  0  0  0  0  0  0  0  0  0  0  0
    6.2568   11.6428   26.3189 C   0  0  0  0  0  0  0  0  0  0  0  0
   10.2911   13.2586   23.4221 C   0  0  0  0  0  0  0  0  0  0  0  0
   10.0689    8.3586   22.9814 C   0  0  0  0  0  0  0  0  0  0  0  0
   10.5904    8.9716   24.2500 C   0  0  0  0  0  0  0  0  0  0  0  0
    9.7610   10.9176   22.7319 C   0  0  0  0  0  0  0  0  0  0  0  0
    9.4918    9.6584   23.4789 C   0  0  0  0  0  0  0  0  0  0  0  0
   12.7738   14.5075   22.7056 C   0  0  0  0  0  0  0  0  0  0  0  0
   11.8690   14.5413   20.3626 C   0  0  0  0  0  0  0  0  0  0  0  0
   10.6924   15.8197   22.1763 C   0  0  0  0  0  0  0  0  0  0  0  0
   11.5115   14.5726   21.8470 C   0  0  0  0  0  0  0  0  0  0  0  0
    9.5203   12.0895   23.5891 N   0  0  0  0  0  0  0  0  0  0  0  0
   10.5865   14.0688   24.2959 O   0  0  0  0  0  0  0  0  0  0  0  0
    8.1709    9.5795   24.0327 O   0  0  0  0  0  0  0  0  0  0  0  0
   10.7123   13.4159   22.1230 O   0  0  0  0  0  0  0  0  0  0  0  0
    4.9415   11.4502   27.4097 Cl  0  0  0  0  0  0  0  0  0  0  0  0
    8.3762   14.0340   25.2449 H   0  0  0  0  0  0  0  0  0  0  0  0
    6.5295   13.7394   26.7466 H   0  0  0  0  0  0  0  0  0  0  0  0
    6.2414    9.5877   25.6751 H   0  0  0  0  0  0  0  0  0  0  0  0
   10.7132    8.3786   22.1104 H   0  0  0  0  0  0  0  0  0  0  0  0
    9.4646    7.4631   23.0660 H   0  0  0  0  0  0  0  0  0  0  0  0
   10.3349    8.4876   25.1847 H   0  0  0  0  0  0  0  0  0  0  0  0
   11.5847    9.4001   24.2281 H   0  0  0  0  0  0  0  0  0  0  0  0
   10.8079   10.9595   22.4081 H   0  0  0  0  0  0  0  0  0  0  0  0
    9.1384   10.9666   21.8324 H   0  0  0  0  0  0  0  0  0  0  0  0
   12.5215   14.5297   23.7718 H   0  0  0  0  0  0  0  0  0  0  0  0
   13.3524   13.6001   22.5040 H   0  0  0  0  0  0  0  0  0  0  0  0
   13.4168   15.3759   22.5220 H   0  0  0  0  0  0  0  0  0  0  0  0
   10.9663   14.5878   19.7429 H   0  0  0  0  0  0  0  0  0  0  0  0
   12.3741   13.6041   20.1025 H   0  0  0  0  0  0  0  0  0  0  0  0
   12.5223   15.3754   20.0868 H   0  0  0  0  0  0  0  0  0  0  0  0
    9.7869   15.8667   21.5606 H   0  0  0  0  0  0  0  0  0  0  0  0
   10.3953   15.8406   23.2298 H   0  0  0  0  0  0  0  0  0  0  0  0
   11.2628   16.7296   21.9572 H   0  0  0  0  0  0  0  0  0  0  0  0
  1  2  1  0  0  0  0
  1  4  2  0  0  0  0
  2  6  2  0  0  0  0
  3  5  2  0  0  0  0
  3  6  1  0  0  0  0
  4  5  1  0  0  0  0
  4 16  1  0  0  0  0
  5 18  1  0  0  0  0
  6 20  1  0  0  0  0
  7 16  1  0  0  0  0
  7 17  2  0  0  0  0
  7 19  1  0  0  0  0
  8  9  1  0  0  0  0
  8 11  1  0  0  0  0
  9 11  1  0  0  0  0
 10 11  1  0  0  0  0
 10 16  1  0  0  0  0
 11 18  1  0  0  0  0
 12 15  1  0  0  0  0
 13 15  1  0  0  0  0
 14 15  1  0  0  0  0
 15 19  1  0  0  0  0
  1 21  1  0  0  0  0
  2 22  1  0  0  0  0
  3 23  1  0  0  0  0
  8 24  1  0  0  0  0
  8 25  1  0  0  0  0
  9 26  1  0  0  0  0
  9 27  1  0  0  0  0
 10 28  1  0  0  0  0
 10 29  1  0  0  0  0
 12 30  1  0  0  0  0
 12 31  1  0  0  0  0
 12 32  1  0  0  0  0
 13 33  1  0  0  0  0
 13 34  1  0  0  0  0
 13 35  1  0  0  0  0
 14 36  1  0  0  0  0
 14 37  1  0  0  0  0
 14 38  1  0  0  0  0
M  END
> <id>
EN300-1129118

> <smiles>
CC(C)(C)OC(=O)N1CC2(CC2)OC=3C=C(Cl)C=CC13

> <IUPAC Name>
tert-butyl 7-chloro-3,4-dihydrospiro[1,4-benzoxazine-2,1'-cyclopropane]-4-carboxylate

> <CAS>
2137702-09-9

> <URL>
https://www.enaminestore.com/catalog/EN300-1129118

> <ROCS_ShapeQuery>
A71EV2A-x0451_0A_A71EV2A-x0310_0A_A71EV2A-x0416_0A_peptide

> <ROCS_TanimotoCombo>
0.531 

> <ROCS_ShapeTanimoto>
0.371 

> <ROCS_ColorTanimoto>
0.159 

> <ROCS_RefTversky>
0.318 

> <ROCS_RefColorTversky>
0.166 

> <ROCS_RefTverskyCombo>
0.484 

> <ROCS_FitTversky>
1.813 

> <ROCS_FitColorTversky>
0.796 

> <ROCS_FitTverskyCombo>
2.608 

> <ROCS_ColorScore>
-5.046

> <ROCS_Overlap>
2209.220

> <ROCS_Rank>
11                  

$$$$
untitled-dbase-45535_3
  -OEChem-11132313473D

 34 35  0     0  0  0  0  0  0999 V2000
    7.9462   13.0382   25.2970 C   0  0  0  0  0  0  0  0  0  0  0  0
    6.8622   12.8743   26.1685 C   0  0  0  0  0  0  0  0  0  0  0  0
    6.7094   10.5598   25.5553 C   0  0  0  0  0  0  0  0  0  0  0  0
    8.4413   11.9650   24.5398 C   0  0  0  0  0  0  0  0  0  0  0  0
    7.8036   10.7173   24.6948 C   0  0  0  0  0  0  0  0  0  0  0  0
    6.2426   11.6379   26.2965 C   0  0  0  0  0  0  0  0  0  0  0  0
   10.2910   13.2619   23.4231 C   0  0  0  0  0  0  0  0  0  0  0  0
    9.7565   10.9167   22.7531 C   0  0  0  0  0  0  0  0  0  0  0  0
    9.4878    9.6417   23.5098 C   0  0  0  0  0  0  0  0  0  0  0  0
   12.7660   14.5132   22.6852 C   0  0  0  0  0  0  0  0  0  0  0  0
   11.8474   14.5320   20.3475 C   0  0  0  0  0  0  0  0  0  0  0  0
   10.6780   15.8171   22.1612 C   0  0  0  0  0  0  0  0  0  0  0  0
   11.4985   14.5703   21.8338 C   0  0  0  0  0  0  0  0  0  0  0  0
    9.5239   12.0935   23.5995 N   0  0  0  0  0  0  0  0  0  0  0  0
   10.5892   14.0772   24.2910 O   0  0  0  0  0  0  0  0  0  0  0  0
    8.1713    9.5764   24.0257 O   0  0  0  0  0  0  0  0  0  0  0  0
   10.7040   13.4130   22.1206 O   0  0  0  0  0  0  0  0  0  0  0  0
   10.3703    9.4841   24.5273 F   0  0  0  0  0  0  0  0  0  0  0  0
    9.6550    8.5802   22.6811 F   0  0  0  0  0  0  0  0  0  0  0  0
    4.7745   11.4255   27.4653 Br  0  0  0  0  0  0  0  0  0  0  0  0
    8.3509   14.0404   25.2284 H   0  0  0  0  0  0  0  0  0  0  0  0
    6.5096   13.7345   26.7326 H   0  0  0  0  0  0  0  0  0  0  0  0
    6.2348    9.5850   25.6442 H   0  0  0  0  0  0  0  0  0  0  0  0
   10.7877   10.9011   22.3867 H   0  0  0  0  0  0  0  0  0  0  0  0
    9.0942   11.0067   21.8838 H   0  0  0  0  0  0  0  0  0  0  0  0
   12.5199   14.5404   23.7528 H   0  0  0  0  0  0  0  0  0  0  0  0
   13.3458   13.6062   22.4851 H   0  0  0  0  0  0  0  0  0  0  0  0
   13.4056   15.3822   22.4932 H   0  0  0  0  0  0  0  0  0  0  0  0
   10.9409   14.5729   19.7328 H   0  0  0  0  0  0  0  0  0  0  0  0
   12.3534   13.5947   20.0894 H   0  0  0  0  0  0  0  0  0  0  0  0
   12.4968   15.3663   20.0633 H   0  0  0  0  0  0  0  0  0  0  0  0
    9.7688   15.8583   21.5506 H   0  0  0  0  0  0  0  0  0  0  0  0
   10.3871   15.8428   23.2164 H   0  0  0  0  0  0  0  0  0  0  0  0
   11.2447   16.7273   21.9339 H   0  0  0  0  0  0  0  0  0  0  0  0
  1  2  1  0  0  0  0
  1  4  2  0  0  0  0
  2  6  2  0  0  0  0
  3  5  2  0  0  0  0
  3  6  1  0  0  0  0
  4  5  1  0  0  0  0
  4 14  1  0  0  0  0
  5 16  1  0  0  0  0
  6 20  1  0  0  0  0
  7 14  1  0  0  0  0
  7 15  2  0  0  0  0
  7 17  1  0  0  0  0
  8  9  1  0  0  0  0
  8 14  1  0  0  0  0
  9 16  1  0  0  0  0
  9 18  1  0  0  0  0
  9 19  1  0  0  0  0
 10 13  1  0  0  0  0
 11 13  1  0  0  0  0
 12 13  1  0  0  0  0
 13 17  1  0  0  0  0
  1 21  1  0  0  0  0
  2 22  1  0  0  0  0
  3 23  1  0  0  0  0
  8 24  1  0  0  0  0
  8 25  1  0  0  0  0
 10 26  1  0  0  0  0
 10 27  1  0  0  0  0
 10 28  1  0  0  0  0
 11 29  1  0  0  0  0
 11 30  1  0  0  0  0
 11 31  1  0  0  0  0
 12 32  1  0  0  0  0
 12 33  1  0  0  0  0
 12 34  1  0  0  0  0
M  END
> <id>
EN300-28298446

> <smiles>
CC(C)(C)OC(=O)N1CC(F)(F)OC=2C=C(Br)C=CC12

> <IUPAC Name>
tert-butyl 7-bromo-2,2-difluoro-3,4-dihydro-2H-1,4-benzoxazine-4-carboxylate

> <CAS>
2680625-73-2

> <URL>
https://www.enaminestore.com/catalog/EN300-28298446

> <ROCS_ShapeQuery>
A71EV2A-x0451_0A_A71EV2A-x0310_0A_A71EV2A-x0416_0A_peptide

> <ROCS_TanimotoCombo>
0.530 

> <ROCS_ShapeTanimoto>
0.376 

> <ROCS_ColorTanimoto>
0.155 

> <ROCS_RefTversky>
0.321 

> <ROCS_RefColorTversky>
0.166 

> <ROCS_RefTverskyCombo>
0.487 

> <ROCS_FitTversky>
1.824 

> <ROCS_FitColorTversky>
0.692 

> <ROCS_FitTverskyCombo>
2.517 

> <ROCS_ColorScore>
-5.048

> <ROCS_Overlap>
2228.486

> <ROCS_Rank>
12                  

$$$$
untitled-dbase-34204_5
  -OEChem-11132313473D

 40 42  0     0  0  0  0  0  0999 V2000
    5.8705   11.7670   25.8023 C   0  0  0  0  0  0  0  0  0  0  0  0
    6.4764   10.6345   25.2741 C   0  0  0  0  0  0  0  0  0  0  0  0
    7.6866   13.1179   24.9392 C   0  0  0  0  0  0  0  0  0  0  0  0
    8.3262   11.9901   24.4014 C   0  0  0  0  0  0  0  0  0  0  0  0
    6.4757   13.0063   25.6351 C   0  0  0  0  0  0  0  0  0  0  0  0
    7.6922   10.7453   24.5887 C   0  0  0  0  0  0  0  0  0  0  0  0
   10.3242   13.2339   23.5022 C   0  0  0  0  0  0  0  0  0  0  0  0
   10.2754    8.3096   23.5439 C   0  0  0  0  0  0  0  0  0  0  0  0
   10.5518    9.0646   24.8131 C   0  0  0  0  0  0  0  0  0  0  0  0
    9.9690   10.8179   22.9785 C   0  0  0  0  0  0  0  0  0  0  0  0
    9.5950    9.6303   23.7944 C   0  0  0  0  0  0  0  0  0  0  0  0
   12.8710   14.4960   23.1041 C   0  0  0  0  0  0  0  0  0  0  0  0
   12.3962   14.2631   20.6486 C   0  0  0  0  0  0  0  0  0  0  0  0
   10.8925   15.6714   22.0851 C   0  0  0  0  0  0  0  0  0  0  0  0
   11.7802   14.4287   22.0362 C   0  0  0  0  0  0  0  0  0  0  0  0
    9.5580   12.0597   23.6532 N   0  0  0  0  0  0  0  0  0  0  0  0
    5.8705   14.1605   26.1790 N   0  0  0  0  0  0  0  0  0  0  0  0
   10.4446   14.1375   24.3247 O   0  0  0  0  0  0  0  0  0  0  0  0
    8.1985    9.5583   24.1140 O   0  0  0  0  0  0  0  0  0  0  0  0
   10.9665   13.2766   22.2875 O   0  0  0  0  0  0  0  0  0  0  0  0
    4.9330   11.6725   26.3433 H   0  0  0  0  0  0  0  0  0  0  0  0
    5.9970    9.6660   25.3912 H   0  0  0  0  0  0  0  0  0  0  0  0
    8.1123   14.1118   24.8653 H   0  0  0  0  0  0  0  0  0  0  0  0
   11.0633    8.2663   22.8015 H   0  0  0  0  0  0  0  0  0  0  0  0
    9.6820    7.4056   23.6145 H   0  0  0  0  0  0  0  0  0  0  0  0
   10.1429    8.6674   25.7339 H   0  0  0  0  0  0  0  0  0  0  0  0
   11.5254    9.5259   24.9210 H   0  0  0  0  0  0  0  0  0  0  0  0
   11.0559   10.8657   22.8403 H   0  0  0  0  0  0  0  0  0  0  0  0
    9.5156   10.7533   21.9838 H   0  0  0  0  0  0  0  0  0  0  0  0
   12.4329   14.6149   24.1016 H   0  0  0  0  0  0  0  0  0  0  0  0
   13.4930   13.5950   23.1027 H   0  0  0  0  0  0  0  0  0  0  0  0
   13.5200   15.3649   22.9460 H   0  0  0  0  0  0  0  0  0  0  0  0
   11.6172   14.2143   19.8792 H   0  0  0  0  0  0  0  0  0  0  0  0
   12.9569   13.3238   20.5801 H   0  0  0  0  0  0  0  0  0  0  0  0
   13.0724   15.0890   20.4055 H   0  0  0  0  0  0  0  0  0  0  0  0
   10.1100   15.6234   21.3191 H   0  0  0  0  0  0  0  0  0  0  0  0
   10.4127   15.7861   23.0625 H   0  0  0  0  0  0  0  0  0  0  0  0
   11.4756   16.5754   21.8752 H   0  0  0  0  0  0  0  0  0  0  0  0
    4.9874   14.0756   26.6383 H   0  0  0  0  0  0  0  0  0  0  0  0
    6.2888   15.0524   26.0130 H   0  0  0  0  0  0  0  0  0  0  0  0
  1  2  1  0  0  0  0
  1  5  2  0  0  0  0
  2  6  2  0  0  0  0
  3  4  2  0  0  0  0
  3  5  1  0  0  0  0
  4  6  1  0  0  0  0
  4 16  1  0  0  0  0
  5 17  1  0  0  0  0
  6 19  1  0  0  0  0
  7 16  1  0  0  0  0
  7 18  2  0  0  0  0
  7 20  1  0  0  0  0
  8  9  1  0  0  0  0
  8 11  1  0  0  0  0
  9 11  1  0  0  0  0
 10 11  1  0  0  0  0
 10 16  1  0  0  0  0
 11 19  1  0  0  0  0
 12 15  1  0  0  0  0
 13 15  1  0  0  0  0
 14 15  1  0  0  0  0
 15 20  1  0  0  0  0
  1 21  1  0  0  0  0
  2 22  1  0  0  0  0
  3 23  1  0  0  0  0
  8 24  1  0  0  0  0
  8 25  1  0  0  0  0
  9 26  1  0  0  0  0
  9 27  1  0  0  0  0
 10 28  1  0  0  0  0
 10 29  1  0  0  0  0
 12 30  1  0  0  0  0
 12 31  1  0  0  0  0
 12 32  1  0  0  0  0
 13 33  1  0  0  0  0
 13 34  1  0  0  0  0
 13 35  1  0  0  0  0
 14 36  1  0  0  0  0
 14 37  1  0  0  0  0
 14 38  1  0  0  0  0
 17 39  1  0  0  0  0
 17 40  1  0  0  0  0
M  END
> <id>
EN300-1129135

> <smiles>
CC(C)(C)OC(=O)N1CC2(CC2)OC=3C=CC(N)=CC13

> <IUPAC Name>
tert-butyl 6-amino-3,4-dihydrospiro[1,4-benzoxazine-2,1'-cyclopropane]-4-carboxylate

> <CAS>
2138160-18-4

> <URL>
https://www.enaminestore.com/catalog/EN300-1129135

> <ROCS_ShapeQuery>
A71EV2A-x0451_0A_A71EV2A-x0310_0A_A71EV2A-x0416_0A_peptide

> <ROCS_TanimotoCombo>
0.529 

> <ROCS_ShapeTanimoto>
0.365 

> <ROCS_ColorTanimoto>
0.164 

> <ROCS_RefTversky>
0.315 

> <ROCS_RefColorTversky>
0.179 

> <ROCS_RefTverskyCombo>
0.494 

> <ROCS_FitTversky>
1.779 

> <ROCS_FitColorTversky>
0.663 

> <ROCS_FitTverskyCombo>
2.443 

> <ROCS_ColorScore>
-5.467

> <ROCS_Overlap>
2183.921

> <ROCS_Rank>
13                  

$$$$
untitled-dbase-45670_3
  -OEChem-11132313473D

 39 40  0     1  0  0  0  0  0999 V2000
    8.0386   12.7922   25.2736 C   0  0  0  0  0  0  0  0  0  0  0  0
    6.9688   12.0356   25.7906 C   0  0  0  0  0  0  0  0  0  0  0  0
    8.6509   11.9648   24.3557 C   0  0  0  0  0  0  0  0  0  0  0  0
   10.4073   13.3309   23.4082 C   0  0  0  0  0  0  0  0  0  0  0  0
    9.6815    9.6223   23.1525 C   0  0  0  0  0  0  0  0  0  0  0  0
   10.0847   10.9815   22.5844 C   0  0  0  0  0  0  0  0  0  0  0  0
    8.2108    9.6138   23.5881 C   0  0  1  0  0  0  0  0  0  0  0  0
    5.9462   12.4236   26.7831 C   0  0  0  0  0  0  0  0  0  0  0  0
   12.7821   14.8373   22.8490 C   0  0  0  0  0  0  0  0  0  0  0  0
   11.9487   14.9239   20.4810 C   0  0  0  0  0  0  0  0  0  0  0  0
   10.6045   15.9828   22.3195 C   0  0  0  0  0  0  0  0  0  0  0  0
    7.8794    8.2928   24.2848 C   0  0  0  0  0  0  0  0  0  0  0  0
   11.5455   14.8366   21.9514 C   0  0  0  0  0  0  0  0  0  0  0  0
    6.8933   10.8171   25.2550 N   0  0  0  0  0  0  0  0  0  0  0  0
    7.9414   10.7869   24.4118 N   0  0  0  0  0  0  0  0  0  0  0  0
    9.7331   12.0990   23.4802 N   0  0  0  0  0  0  0  0  0  0  0  0
   10.5963   14.1085   24.3405 O   0  0  0  0  0  0  0  0  0  0  0  0
   10.8495   13.5981   22.1353 O   0  0  0  0  0  0  0  0  0  0  0  0
    8.1373    7.2638   23.4639 F   0  0  0  0  0  0  0  0  0  0  0  0
    8.6210    8.1607   25.3946 F   0  0  0  0  0  0  0  0  0  0  0  0
    6.5816    8.2652   24.6226 F   0  0  0  0  0  0  0  0  0  0  0  0
    8.2180   14.8019   25.7283 I   0  0  0  0  0  0  0  0  0  0  0  0
    9.8271    8.8642   22.3749 H   0  0  0  0  0  0  0  0  0  0  0  0
   10.3339    9.3526   23.9869 H   0  0  0  0  0  0  0  0  0  0  0  0
   11.1652   11.0279   22.4071 H   0  0  0  0  0  0  0  0  0  0  0  0
    9.5896   11.1149   21.6171 H   0  0  0  0  0  0  0  0  0  0  0  0
    7.5919    9.7004   22.6826 H   0  0  0  0  0  0  0  0  0  0  0  0
    5.0651   12.8677   26.2921 H   0  0  0  0  0  0  0  0  0  0  0  0
    5.5999   11.5618   27.3784 H   0  0  0  0  0  0  0  0  0  0  0  0
    6.3329   13.1597   27.5084 H   0  0  0  0  0  0  0  0  0  0  0  0
   12.4969   14.7748   23.9053 H   0  0  0  0  0  0  0  0  0  0  0  0
   13.4483   13.9996   22.6185 H   0  0  0  0  0  0  0  0  0  0  0  0
   13.3468   15.7698   22.7359 H   0  0  0  0  0  0  0  0  0  0  0  0
   11.0645   14.9237   19.8334 H   0  0  0  0  0  0  0  0  0  0  0  0
   12.5463   14.0532   20.1878 H   0  0  0  0  0  0  0  0  0  0  0  0
   12.5296   15.8286   20.2744 H   0  0  0  0  0  0  0  0  0  0  0  0
    9.7174   15.9826   21.6758 H   0  0  0  0  0  0  0  0  0  0  0  0
   10.2754   15.9157   23.3615 H   0  0  0  0  0  0  0  0  0  0  0  0
   11.0941   16.9521   22.1707 H   0  0  0  0  0  0  0  0  0  0  0  0
  1  2  1  0  0  0  0
  1  3  2  0  0  0  0
  1 22  1  0  0  0  0
  2  8  1  0  0  0  0
  2 14  2  0  0  0  0
  3 15  1  0  0  0  0
  3 16  1  0  0  0  0
  4 16  1  0  0  0  0
  4 17  2  0  0  0  0
  4 18  1  0  0  0  0
  5  6  1  0  0  0  0
  5  7  1  0  0  0  0
  6 16  1  0  0  0  0
  7 12  1  0  0  0  0
  7 15  1  0  0  0  0
  9 13  1  0  0  0  0
 10 13  1  0  0  0  0
 11 13  1  0  0  0  0
 12 19  1  0  0  0  0
 12 20  1  0  0  0  0
 12 21  1  0  0  0  0
 13 18  1  0  0  0  0
 14 15  1  0  0  0  0
  5 23  1  0  0  0  0
  5 24  1  0  0  0  0
  6 25  1  0  0  0  0
  6 26  1  0  0  0  0
  7 27  1  0  0  0  0
  8 28  1  0  0  0  0
  8 29  1  0  0  0  0
  8 30  1  0  0  0  0
  9 31  1  0  0  0  0
  9 32  1  0  0  0  0
  9 33  1  0  0  0  0
 10 34  1  0  0  0  0
 10 35  1  0  0  0  0
 10 36  1  0  0  0  0
 11 37  1  0  0  0  0
 11 38  1  0  0  0  0
 11 39  1  0  0  0  0
M  END
> <id>
EN300-28304155

> <smiles>
CC1=NN2C(CCN(C(=O)OC(C)(C)C)C2=C1I)C(F)(F)F

> <IUPAC Name>
tert-butyl 3-iodo-2-methyl-7-(trifluoromethyl)-4H,5H,6H,7H-pyrazolo[1,5-a]pyrimidine-4-carboxylate

> <CAS>
2680893-07-4

> <URL>
https://www.enaminestore.com/catalog/EN300-28304155

> <ROCS_ShapeQuery>
A71EV2A-x0451_0A_A71EV2A-x0310_0A_A71EV2A-x0416_0A_peptide

> <ROCS_TanimotoCombo>
0.528 

> <ROCS_ShapeTanimoto>
0.374 

> <ROCS_ColorTanimoto>
0.154 

> <ROCS_RefTversky>
0.324 

> <ROCS_RefColorTversky>
0.166 

> <ROCS_RefTverskyCombo>
0.489 

> <ROCS_FitTversky>
1.716 

> <ROCS_FitColorTversky>
0.689 

> <ROCS_FitTverskyCombo>
2.406 

> <ROCS_ColorScore>
-5.036

> <ROCS_Overlap>
2248.689

> <ROCS_Rank>
14                  

$$$$
untitled-dbase-14793_6
  -OEChem-11132313473D

 38 40  0     0  0  0  0  0  0999 V2000
    6.2540   11.5846   26.3553 C   0  0  0  0  0  0  0  0  0  0  0  0
    6.7811   10.5080   25.6518 C   0  0  0  0  0  0  0  0  0  0  0  0
    6.7546   12.8621   26.1313 C   0  0  0  0  0  0  0  0  0  0  0  0
    8.3583   11.9925   24.5099 C   0  0  0  0  0  0  0  0  0  0  0  0
    7.8208   10.7103   24.7372 C   0  0  0  0  0  0  0  0  0  0  0  0
    7.7903   13.0661   25.2121 C   0  0  0  0  0  0  0  0  0  0  0  0
   10.2481   13.2685   23.3883 C   0  0  0  0  0  0  0  0  0  0  0  0
   10.0605    8.4970   22.7544 C   0  0  0  0  0  0  0  0  0  0  0  0
   10.7126    9.1250   23.9533 C   0  0  0  0  0  0  0  0  0  0  0  0
    9.5685   11.0354   22.6066 C   0  0  0  0  0  0  0  0  0  0  0  0
    9.4783    9.7500   23.3548 C   0  0  0  0  0  0  0  0  0  0  0  0
   12.6917   14.5633   22.6375 C   0  0  0  0  0  0  0  0  0  0  0  0
   11.6403   14.8189   20.3707 C   0  0  0  0  0  0  0  0  0  0  0  0
   10.5954   15.9296   22.3663 C   0  0  0  0  0  0  0  0  0  0  0  0
   11.3782   14.7142   21.8715 C   0  0  0  0  0  0  0  0  0  0  0  0
    9.4051   12.1525   23.5397 N   0  0  0  0  0  0  0  0  0  0  0  0
   10.6012   13.9856   24.3251 O   0  0  0  0  0  0  0  0  0  0  0  0
    8.2543    9.5765   24.0885 O   0  0  0  0  0  0  0  0  0  0  0  0
   10.5854   13.5410   22.0904 O   0  0  0  0  0  0  0  0  0  0  0  0
    8.2675   14.3127   25.1335 F   0  0  0  0  0  0  0  0  0  0  0  0
    5.4614   11.4278   27.0812 H   0  0  0  0  0  0  0  0  0  0  0  0
    6.3762    9.5126   25.8147 H   0  0  0  0  0  0  0  0  0  0  0  0
    6.3563   13.7036   26.6905 H   0  0  0  0  0  0  0  0  0  0  0  0
   10.5763    8.5699   21.8042 H   0  0  0  0  0  0  0  0  0  0  0  0
    9.5294    7.5637   22.9006 H   0  0  0  0  0  0  0  0  0  0  0  0
   10.6183    8.6128   24.9030 H   0  0  0  0  0  0  0  0  0  0  0  0
   11.6660    9.6171   23.8060 H   0  0  0  0  0  0  0  0  0  0  0  0
   10.5502   11.1375   22.1389 H   0  0  0  0  0  0  0  0  0  0  0  0
    8.8134   11.0684   21.8204 H   0  0  0  0  0  0  0  0  0  0  0  0
   12.5078   14.4878   23.7152 H   0  0  0  0  0  0  0  0  0  0  0  0
   13.2462   13.6756   22.3163 H   0  0  0  0  0  0  0  0  0  0  0  0
   13.3312   15.4417   22.4938 H   0  0  0  0  0  0  0  0  0  0  0  0
   10.7006   14.9272   19.8171 H   0  0  0  0  0  0  0  0  0  0  0  0
   12.1174   13.9072   19.9932 H   0  0  0  0  0  0  0  0  0  0  0  0
   12.2839   15.6716   20.1314 H   0  0  0  0  0  0  0  0  0  0  0  0
    9.6532   16.0380   21.8170 H   0  0  0  0  0  0  0  0  0  0  0  0
   10.3661   15.8542   23.4342 H   0  0  0  0  0  0  0  0  0  0  0  0
   11.1607   16.8529   22.1958 H   0  0  0  0  0  0  0  0  0  0  0  0
  1  2  1  0  0  0  0
  1  3  2  0  0  0  0
  2  5  2  0  0  0  0
  3  6  1  0  0  0  0
  4  5  1  0  0  0  0
  4  6  2  0  0  0  0
  4 16  1  0  0  0  0
  5 18  1  0  0  0  0
  6 20  1  0  0  0  0
  7 16  1  0  0  0  0
  7 17  2  0  0  0  0
  7 19  1  0  0  0  0
  8  9  1  0  0  0  0
  8 11  1  0  0  0  0
  9 11  1  0  0  0  0
 10 11  1  0  0  0  0
 10 16  1  0  0  0  0
 11 18  1  0  0  0  0
 12 15  1  0  0  0  0
 13 15  1  0  0  0  0
 14 15  1  0  0  0  0
 15 19  1  0  0  0  0
  1 21  1  0  0  0  0
  2 22  1  0  0  0  0
  3 23  1  0  0  0  0
  8 24  1  0  0  0  0
  8 25  1  0  0  0  0
  9 26  1  0  0  0  0
  9 27  1  0  0  0  0
 10 28  1  0  0  0  0
 10 29  1  0  0  0  0
 12 30  1  0  0  0  0
 12 31  1  0  0  0  0
 12 32  1  0  0  0  0
 13 33  1  0  0  0  0
 13 34  1  0  0  0  0
 13 35  1  0  0  0  0
 14 36  1  0  0  0  0
 14 37  1  0  0  0  0
 14 38  1  0  0  0  0
M  END
> <id>
EN300-1129117

> <smiles>
CC(C)(C)OC(=O)N1CC2(CC2)OC=3C=CC=C(F)C13

> <IUPAC Name>
tert-butyl 5-fluoro-3,4-dihydrospiro[1,4-benzoxazine-2,1'-cyclopropane]-4-carboxylate

> <CAS>
2137819-81-7

> <URL>
https://www.enaminestore.com/catalog/EN300-1129117

> <ROCS_ShapeQuery>
A71EV2A-x0451_0A_A71EV2A-x0310_0A_A71EV2A-x0416_0A_peptide

> <ROCS_TanimotoCombo>
0.528 

> <ROCS_ShapeTanimoto>
0.368 

> <ROCS_ColorTanimoto>
0.160 

> <ROCS_RefTversky>
0.317 

> <ROCS_RefColorTversky>
0.167 

> <ROCS_RefTverskyCombo>
0.484 

> <ROCS_FitTversky>
1.780 

> <ROCS_FitColorTversky>
0.800 

> <ROCS_FitTverskyCombo>
2.580 

> <ROCS_ColorScore>
-5.072

> <ROCS_Overlap>
2199.204

> <ROCS_Rank>
15                  

$$$$
untitled-dbase-48689_5
  -OEChem-11132313473D

 38 40  0     0  0  0  0  0  0999 V2000
    6.7180   10.5567   25.5764 C   0  0  0  0  0  0  0  0  0  0  0  0
    6.2531   11.6388   26.3122 C   0  0  0  0  0  0  0  0  0  0  0  0
    7.9397   13.0396   25.2820 C   0  0  0  0  0  0  0  0  0  0  0  0
    8.4363   11.9625   24.5314 C   0  0  0  0  0  0  0  0  0  0  0  0
    7.8003   10.7164   24.7027 C   0  0  0  0  0  0  0  0  0  0  0  0
    6.8640   12.8778   26.1650 C   0  0  0  0  0  0  0  0  0  0  0  0
   10.2920   13.2572   23.4233 C   0  0  0  0  0  0  0  0  0  0  0  0
   10.0760    8.3568   22.9849 C   0  0  0  0  0  0  0  0  0  0  0  0
   10.5941    8.9710   24.2543 C   0  0  0  0  0  0  0  0  0  0  0  0
    9.7659   10.9153   22.7333 C   0  0  0  0  0  0  0  0  0  0  0  0
    9.4965    9.6562   23.4804 C   0  0  0  0  0  0  0  0  0  0  0  0
   12.7750   14.5084   22.7115 C   0  0  0  0  0  0  0  0  0  0  0  0
   11.8752   14.5399   20.3665 C   0  0  0  0  0  0  0  0  0  0  0  0
   10.6932   15.8181   22.1769 C   0  0  0  0  0  0  0  0  0  0  0  0
   11.5145   14.5717   21.8501 C   0  0  0  0  0  0  0  0  0  0  0  0
    9.5221   12.0874   23.5893 N   0  0  0  0  0  0  0  0  0  0  0  0
   10.5847   14.0683   24.2972 O   0  0  0  0  0  0  0  0  0  0  0  0
    8.1745    9.5762   24.0314 O   0  0  0  0  0  0  0  0  0  0  0  0
   10.7159   13.4143   22.1250 O   0  0  0  0  0  0  0  0  0  0  0  0
    6.4307   13.9233   26.8820 F   0  0  0  0  0  0  0  0  0  0  0  0
    6.2323    9.5898   25.6800 H   0  0  0  0  0  0  0  0  0  0  0  0
    5.4220   11.5172   26.9998 H   0  0  0  0  0  0  0  0  0  0  0  0
    8.3715   14.0318   25.2411 H   0  0  0  0  0  0  0  0  0  0  0  0
   10.7217    8.3768   22.1149 H   0  0  0  0  0  0  0  0  0  0  0  0
    9.4727    7.4605   23.0693 H   0  0  0  0  0  0  0  0  0  0  0  0
   10.3366    8.4876   25.1887 H   0  0  0  0  0  0  0  0  0  0  0  0
   11.5883    9.3998   24.2345 H   0  0  0  0  0  0  0  0  0  0  0  0
   10.8134   10.9579   22.4115 H   0  0  0  0  0  0  0  0  0  0  0  0
    9.1450   10.9631   21.8325 H   0  0  0  0  0  0  0  0  0  0  0  0
   12.5202   14.5310   23.7771 H   0  0  0  0  0  0  0  0  0  0  0  0
   13.3550   13.6015   22.5117 H   0  0  0  0  0  0  0  0  0  0  0  0
   13.4174   15.3774   22.5288 H   0  0  0  0  0  0  0  0  0  0  0  0
   10.9738   14.5851   19.7448 H   0  0  0  0  0  0  0  0  0  0  0  0
   12.3819   13.6031   20.1080 H   0  0  0  0  0  0  0  0  0  0  0  0
   12.5282   15.3745   20.0916 H   0  0  0  0  0  0  0  0  0  0  0  0
    9.7890   15.8637   21.5592 H   0  0  0  0  0  0  0  0  0  0  0  0
   10.3939   15.8393   23.2298 H   0  0  0  0  0  0  0  0  0  0  0  0
   11.2631   16.7285   21.9585 H   0  0  0  0  0  0  0  0  0  0  0  0
  1  2  1  0  0  0  0
  1  5  2  0  0  0  0
  2  6  2  0  0  0  0
  3  4  2  0  0  0  0
  3  6  1  0  0  0  0
  4  5  1  0  0  0  0
  4 16  1  0  0  0  0
  5 18  1  0  0  0  0
  6 20  1  0  0  0  0
  7 16  1  0  0  0  0
  7 17  2  0  0  0  0
  7 19  1  0  0  0  0
  8  9  1  0  0  0  0
  8 11  1  0  0  0  0
  9 11  1  0  0  0  0
 10 11  1  0  0  0  0
 10 16  1  0  0  0  0
 11 18  1  0  0  0  0
 12 15  1  0  0  0  0
 13 15  1  0  0  0  0
 14 15  1  0  0  0  0
 15 19  1  0  0  0  0
  1 21  1  0  0  0  0
  2 22  1  0  0  0  0
  3 23  1  0  0  0  0
  8 24  1  0  0  0  0
  8 25  1  0  0  0  0
  9 26  1  0  0  0  0
  9 27  1  0  0  0  0
 10 28  1  0  0  0  0
 10 29  1  0  0  0  0
 12 30  1  0  0  0  0
 12 31  1  0  0  0  0
 12 32  1  0  0  0  0
 13 33  1  0  0  0  0
 13 34  1  0  0  0  0
 13 35  1  0  0  0  0
 14 36  1  0  0  0  0
 14 37  1  0  0  0  0
 14 38  1  0  0  0  0
M  END
> <id>
EN300-1129116

> <smiles>
CC(C)(C)OC(=O)N1CC2(CC2)OC=3C=CC(F)=CC13

> <IUPAC Name>
tert-butyl 6-fluoro-3,4-dihydrospiro[1,4-benzoxazine-2,1'-cyclopropane]-4-carboxylate

> <CAS>
2138403-95-7

> <URL>
https://www.enaminestore.com/catalog/EN300-1129116

> <ROCS_ShapeQuery>
A71EV2A-x0451_0A_A71EV2A-x0310_0A_A71EV2A-x0416_0A_peptide

> <ROCS_TanimotoCombo>
0.528 

> <ROCS_ShapeTanimoto>
0.368 

> <ROCS_ColorTanimoto>
0.159 

> <ROCS_RefTversky>
0.317 

> <ROCS_RefColorTversky>
0.166 

> <ROCS_RefTverskyCombo>
0.483 

> <ROCS_FitTversky>
1.789 

> <ROCS_FitColorTversky>
0.796 

> <ROCS_FitTverskyCombo>
2.585 

> <ROCS_ColorScore>
-5.046

> <ROCS_Overlap>
2199.590

> <ROCS_Rank>
16                  

$$$$
untitled-dbase-9193_29
  -OEChem-11132313473D

 34 35  0     0  0  0  0  0  0999 V2000
    6.3840   11.0483   25.2849 C   0  0  0  0  0  0  0  0  0  0  0  0
    8.4078   10.4962   24.1443 C   0  0  0  0  0  0  0  0  0  0  0  0
    7.1896   10.0768   24.6944 C   0  0  0  0  0  0  0  0  0  0  0  0
    9.4979    9.9128   23.4782 C   0  0  0  0  0  0  0  0  0  0  0  0
    8.7338   11.8426   24.2212 C   0  0  0  0  0  0  0  0  0  0  0  0
    6.8250   12.3653   25.2972 C   0  0  0  0  0  0  0  0  0  0  0  0
   10.7083   13.1516   23.4439 C   0  0  0  0  0  0  0  0  0  0  0  0
    9.6874    8.4949   23.1238 C   0  0  0  0  0  0  0  0  0  0  0  0
   12.4672   15.2246   22.6420 C   0  0  0  0  0  0  0  0  0  0  0  0
   12.5747   14.0266   20.4370 C   0  0  0  0  0  0  0  0  0  0  0  0
   10.3837   14.9382   21.2594 C   0  0  0  0  0  0  0  0  0  0  0  0
   11.7184   14.3164   21.6678 C   0  0  0  0  0  0  0  0  0  0  0  0
   10.4420   10.7980   23.1537 N   0  0  0  0  0  0  0  0  0  0  0  0
    7.9909   12.8184   24.7802 N   0  0  0  0  0  0  0  0  0  0  0  0
    9.9655   11.9833   23.6134 N   0  0  0  0  0  0  0  0  0  0  0  0
   10.6289   14.0664   24.2477 O   0  0  0  0  0  0  0  0  0  0  0  0
    6.7868    8.7717   24.6654 O   0  0  0  0  0  0  0  0  0  0  0  0
    6.0152   13.3078   25.8838 O   0  0  0  0  0  0  0  0  0  0  0  0
   11.4597   13.0679   22.3165 O   0  0  0  0  0  0  0  0  0  0  0  0
    5.4291   10.7785   25.7264 H   0  0  0  0  0  0  0  0  0  0  0  0
    9.2747    8.2741   22.1248 H   0  0  0  0  0  0  0  0  0  0  0  0
   10.7534    8.2071   23.1149 H   0  0  0  0  0  0  0  0  0  0  0  0
    9.1969    7.8167   23.8443 H   0  0  0  0  0  0  0  0  0  0  0  0
   11.8559   15.4350   23.5269 H   0  0  0  0  0  0  0  0  0  0  0  0
   13.4099   14.7745   22.9697 H   0  0  0  0  0  0  0  0  0  0  0  0
   12.6884   16.1943   22.1815 H   0  0  0  0  0  0  0  0  0  0  0  0
   12.0414   13.3753   19.7352 H   0  0  0  0  0  0  0  0  0  0  0  0
   13.4916   13.4947   20.7158 H   0  0  0  0  0  0  0  0  0  0  0  0
   12.8533   14.9465   19.9129 H   0  0  0  0  0  0  0  0  0  0  0  0
    9.8464   14.2869   20.5606 H   0  0  0  0  0  0  0  0  0  0  0  0
    9.7409   15.1192   22.1270 H   0  0  0  0  0  0  0  0  0  0  0  0
   10.5403   15.8893   20.7377 H   0  0  0  0  0  0  0  0  0  0  0  0
    5.9226    8.6821   25.0939 H   0  0  0  0  0  0  0  0  0  0  0  0
    6.4350   14.1760   25.8256 H   0  0  0  0  0  0  0  0  0  0  0  0
  1  3  1  0  0  0  0
  1  6  2  0  0  0  0
  2  3  2  0  0  0  0
  2  4  1  0  0  0  0
  2  5  1  0  0  0  0
  3 17  1  0  0  0  0
  4  8  1  0  0  0  0
  4 13  2  0  0  0  0
  5 14  2  0  0  0  0
  5 15  1  0  0  0  0
  6 14  1  0  0  0  0
  6 18  1  0  0  0  0
  7 15  1  0  0  0  0
  7 16  2  0  0  0  0
  7 19  1  0  0  0  0
  9 12  1  0  0  0  0
 10 12  1  0  0  0  0
 11 12  1  0  0  0  0
 12 19  1  0  0  0  0
 13 15  1  0  0  0  0
  1 20  1  0  0  0  0
  8 21  1  0  0  0  0
  8 22  1  0  0  0  0
  8 23  1  0  0  0  0
  9 24  1  0  0  0  0
  9 25  1  0  0  0  0
  9 26  1  0  0  0  0
 10 27  1  0  0  0  0
 10 28  1  0  0  0  0
 10 29  1  0  0  0  0
 11 30  1  0  0  0  0
 11 31  1  0  0  0  0
 11 32  1  0  0  0  0
 17 33  1  0  0  0  0
 18 34  1  0  0  0  0
M  END
> <id>
EN300-319680

> <smiles>
CC1=NN(C(=O)OC(C)(C)C)C=2N=C(O)C=C(O)C12

> <MDLNUMBER>
MFCD30477277

> <IUPAC Name>
tert-butyl 4,6-dihydroxy-3-methyl-1H-pyrazolo[3,4-b]pyridine-1-carboxylate

> <CAS>
2060033-89-6

> <URL>
https://www.enaminestore.com/catalog/EN300-319680

> <ROCS_ShapeQuery>
A71EV2A-x0451_0A_A71EV2A-x0310_0A_A71EV2A-x0416_0A_peptide

> <ROCS_TanimotoCombo>
0.527 

> <ROCS_ShapeTanimoto>
0.370 

> <ROCS_ColorTanimoto>
0.157 

> <ROCS_RefTversky>
0.317 

> <ROCS_RefColorTversky>
0.185 

> <ROCS_RefTverskyCombo>
0.502 

> <ROCS_FitTversky>
1.833 

> <ROCS_FitColorTversky>
0.510 

> <ROCS_FitTverskyCombo>
2.342 

> <ROCS_ColorScore>
-5.664

> <ROCS_Overlap>
2197.490

> <ROCS_Rank>
17                  

$$$$
untitled-dbase-14795_5
  -OEChem-11132313473D

 38 40  0     0  0  0  0  0  0999 V2000
    6.7164   10.5566   25.5760 C   0  0  0  0  0  0  0  0  0  0  0  0
    6.2513   11.6385   26.3121 C   0  0  0  0  0  0  0  0  0  0  0  0
    7.9380   13.0397   25.2825 C   0  0  0  0  0  0  0  0  0  0  0  0
    8.4347   11.9629   24.5316 C   0  0  0  0  0  0  0  0  0  0  0  0
    7.7989   10.7167   24.7025 C   0  0  0  0  0  0  0  0  0  0  0  0
    6.8622   12.8776   26.1653 C   0  0  0  0  0  0  0  0  0  0  0  0
   10.2904   13.2581   23.4241 C   0  0  0  0  0  0  0  0  0  0  0  0
   10.0750    8.3578   22.9843 C   0  0  0  0  0  0  0  0  0  0  0  0
   10.5928    8.9717   24.2540 C   0  0  0  0  0  0  0  0  0  0  0  0
    9.7647   10.9163   22.7334 C   0  0  0  0  0  0  0  0  0  0  0  0
    9.4953    9.6570   23.4801 C   0  0  0  0  0  0  0  0  0  0  0  0
   12.7734   14.5097   22.7129 C   0  0  0  0  0  0  0  0  0  0  0  0
   11.8739   14.5418   20.3679 C   0  0  0  0  0  0  0  0  0  0  0  0
   10.6916   15.8194   22.1784 C   0  0  0  0  0  0  0  0  0  0  0  0
   11.5130   14.5731   21.8514 C   0  0  0  0  0  0  0  0  0  0  0  0
    9.5206   12.0882   23.5897 N   0  0  0  0  0  0  0  0  0  0  0  0
   10.5829   14.0690   24.2983 O   0  0  0  0  0  0  0  0  0  0  0  0
    8.1732    9.5767   24.0309 O   0  0  0  0  0  0  0  0  0  0  0  0
   10.7145   13.4156   22.1259 O   0  0  0  0  0  0  0  0  0  0  0  0
    6.2997   14.2203   27.0874 Cl  0  0  0  0  0  0  0  0  0  0  0  0
    6.2305    9.5898   25.6787 H   0  0  0  0  0  0  0  0  0  0  0  0
    5.4180   11.5007   26.9955 H   0  0  0  0  0  0  0  0  0  0  0  0
    8.3834   14.0262   25.2318 H   0  0  0  0  0  0  0  0  0  0  0  0
   10.7209    8.3777   22.1147 H   0  0  0  0  0  0  0  0  0  0  0  0
    9.4713    7.4616   23.0680 H   0  0  0  0  0  0  0  0  0  0  0  0
   10.3352    8.4881   25.1882 H   0  0  0  0  0  0  0  0  0  0  0  0
   11.5866    9.4016   24.2349 H   0  0  0  0  0  0  0  0  0  0  0  0
   10.8125   10.9592   22.4125 H   0  0  0  0  0  0  0  0  0  0  0  0
    9.1445   10.9641   21.8322 H   0  0  0  0  0  0  0  0  0  0  0  0
   12.5185   14.5320   23.7785 H   0  0  0  0  0  0  0  0  0  0  0  0
   13.3535   13.6029   22.5130 H   0  0  0  0  0  0  0  0  0  0  0  0
   13.4158   15.3788   22.5305 H   0  0  0  0  0  0  0  0  0  0  0  0
   10.9726   14.5871   19.7460 H   0  0  0  0  0  0  0  0  0  0  0  0
   12.3807   13.6050   20.1092 H   0  0  0  0  0  0  0  0  0  0  0  0
   12.5269   15.3765   20.0932 H   0  0  0  0  0  0  0  0  0  0  0  0
    9.7875   15.8651   21.5606 H   0  0  0  0  0  0  0  0  0  0  0  0
   10.3921   15.8402   23.2313 H   0  0  0  0  0  0  0  0  0  0  0  0
   11.2615   16.7299   21.9604 H   0  0  0  0  0  0  0  0  0  0  0  0
  1  2  1  0  0  0  0
  1  5  2  0  0  0  0
  2  6  2  0  0  0  0
  3  4  2  0  0  0  0
  3  6  1  0  0  0  0
  4  5  1  0  0  0  0
  4 16  1  0  0  0  0
  5 18  1  0  0  0  0
  6 20  1  0  0  0  0
  7 16  1  0  0  0  0
  7 17  2  0  0  0  0
  7 19  1  0  0  0  0
  8  9  1  0  0  0  0
  8 11  1  0  0  0  0
  9 11  1  0  0  0  0
 10 11  1  0  0  0  0
 10 16  1  0  0  0  0
 11 18  1  0  0  0  0
 12 15  1  0  0  0  0
 13 15  1  0  0  0  0
 14 15  1  0  0  0  0
 15 19  1  0  0  0  0
  1 21  1  0  0  0  0
  2 22  1  0  0  0  0
  3 23  1  0  0  0  0
  8 24  1  0  0  0  0
  8 25  1  0  0  0  0
  9 26  1  0  0  0  0
  9 27  1  0  0  0  0
 10 28  1  0  0  0  0
 10 29  1  0  0  0  0
 12 30  1  0  0  0  0
 12 31  1  0  0  0  0
 12 32  1  0  0  0  0
 13 33  1  0  0  0  0
 13 34  1  0  0  0  0
 13 35  1  0  0  0  0
 14 36  1  0  0  0  0
 14 37  1  0  0  0  0
 14 38  1  0  0  0  0
M  END
> <id>
EN300-1129120

> <smiles>
CC(C)(C)OC(=O)N1CC2(CC2)OC=3C=CC(Cl)=CC13

> <IUPAC Name>
tert-butyl 6-chloro-3,4-dihydrospiro[1,4-benzoxazine-2,1'-cyclopropane]-4-carboxylate

> <CAS>
2138001-62-2

> <URL>
https://www.enaminestore.com/catalog/EN300-1129120

> <ROCS_ShapeQuery>
A71EV2A-x0451_0A_A71EV2A-x0310_0A_A71EV2A-x0416_0A_peptide

> <ROCS_TanimotoCombo>
0.526 

> <ROCS_ShapeTanimoto>
0.367 

> <ROCS_ColorTanimoto>
0.159 

> <ROCS_RefTversky>
0.316 

> <ROCS_RefColorTversky>
0.166 

> <ROCS_RefTverskyCombo>
0.482 

> <ROCS_FitTversky>
1.797 

> <ROCS_FitColorTversky>
0.796 

> <ROCS_FitTverskyCombo>
2.593 

> <ROCS_ColorScore>
-5.046

> <ROCS_Overlap>
2190.245

> <ROCS_Rank>
18                  

$$$$
untitled-dbase-48532_30
  -OEChem-11132313473D

 40 42  0     0  0  0  0  0  0999 V2000
    6.8757   12.5214   26.0241 C   0  0  0  0  0  0  0  0  0  0  0  0
    7.9585   12.8344   25.1919 C   0  0  0  0  0  0  0  0  0  0  0  0
    6.3564   11.2331   26.0506 C   0  0  0  0  0  0  0  0  0  0  0  0
    8.5540   11.8628   24.3724 C   0  0  0  0  0  0  0  0  0  0  0  0
    6.9204   10.2529   25.2444 C   0  0  0  0  0  0  0  0  0  0  0  0
    8.0097   10.5636   24.4216 C   0  0  0  0  0  0  0  0  0  0  0  0
   10.3346   13.3775   23.4328 C   0  0  0  0  0  0  0  0  0  0  0  0
   10.5002    8.5281   22.5910 C   0  0  0  0  0  0  0  0  0  0  0  0
   10.9377    9.0705   23.9220 C   0  0  0  0  0  0  0  0  0  0  0  0
   10.0046   11.0691   22.5384 C   0  0  0  0  0  0  0  0  0  0  0  0
    9.8118    9.7359   23.1717 C   0  0  0  0  0  0  0  0  0  0  0  0
   13.1078   13.6882   22.7620 C   0  0  0  0  0  0  0  0  0  0  0  0
   12.2858   14.6518   20.5929 C   0  0  0  0  0  0  0  0  0  0  0  0
   11.7350   15.7977   22.7590 C   0  0  0  0  0  0  0  0  0  0  0  0
   11.9771   14.4528   22.0753 C   0  0  0  0  0  0  0  0  0  0  0  0
    9.6511   12.1449   23.4786 N   0  0  0  0  0  0  0  0  0  0  0  0
    6.3733    8.9498   25.2657 N   0  0  0  0  0  0  0  0  0  0  0  0
   10.5427   14.1321   24.3786 O   0  0  0  0  0  0  0  0  0  0  0  0
    8.4859    9.5138   23.6720 O   0  0  0  0  0  0  0  0  0  0  0  0
   10.7787   13.6729   22.1657 O   0  0  0  0  0  0  0  0  0  0  0  0
    6.4468   13.2905   26.6606 H   0  0  0  0  0  0  0  0  0  0  0  0
    8.3157   13.8553   25.2464 H   0  0  0  0  0  0  0  0  0  0  0  0
    5.5189   11.0053   26.7043 H   0  0  0  0  0  0  0  0  0  0  0  0
   11.1653    8.6679   21.7468 H   0  0  0  0  0  0  0  0  0  0  0  0
    9.9637    7.5867   22.5825 H   0  0  0  0  0  0  0  0  0  0  0  0
   10.6934    8.4934   24.8053 H   0  0  0  0  0  0  0  0  0  0  0  0
   11.8963    9.5722   23.9691 H   0  0  0  0  0  0  0  0  0  0  0  0
   11.0540   11.2145   22.2552 H   0  0  0  0  0  0  0  0  0  0  0  0
    9.4058   11.1463   21.6247 H   0  0  0  0  0  0  0  0  0  0  0  0
   12.8901   13.5434   23.8263 H   0  0  0  0  0  0  0  0  0  0  0  0
   13.2682   12.7071   22.3032 H   0  0  0  0  0  0  0  0  0  0  0  0
   14.0470   14.2511   22.7125 H   0  0  0  0  0  0  0  0  0  0  0  0
   11.4771   15.2000   20.0962 H   0  0  0  0  0  0  0  0  0  0  0  0
   12.3666   13.6876   20.0782 H   0  0  0  0  0  0  0  0  0  0  0  0
   13.2201   15.2030   20.4452 H   0  0  0  0  0  0  0  0  0  0  0  0
   10.9240   16.3464   22.2665 H   0  0  0  0  0  0  0  0  0  0  0  0
   11.4759   15.6723   23.8152 H   0  0  0  0  0  0  0  0  0  0  0  0
   12.6245   16.4347   22.6919 H   0  0  0  0  0  0  0  0  0  0  0  0
    5.6238    8.7488   25.8940 H   0  0  0  0  0  0  0  0  0  0  0  0
    6.8072    8.2332   24.7224 H   0  0  0  0  0  0  0  0  0  0  0  0
  1  2  1  0  0  0  0
  1  3  2  0  0  0  0
  2  4  2  0  0  0  0
  3  5  1  0  0  0  0
  4  6  1  0  0  0  0
  4 16  1  0  0  0  0
  5  6  2  0  0  0  0
  5 17  1  0  0  0  0
  6 19  1  0  0  0  0
  7 16  1  0  0  0  0
  7 18  2  0  0  0  0
  7 20  1  0  0  0  0
  8  9  1  0  0  0  0
  8 11  1  0  0  0  0
  9 11  1  0  0  0  0
 10 11  1  0  0  0  0
 10 16  1  0  0  0  0
 11 19  1  0  0  0  0
 12 15  1  0  0  0  0
 13 15  1  0  0  0  0
 14 15  1  0  0  0  0
 15 20  1  0  0  0  0
  1 21  1  0  0  0  0
  2 22  1  0  0  0  0
  3 23  1  0  0  0  0
  8 24  1  0  0  0  0
  8 25  1  0  0  0  0
  9 26  1  0  0  0  0
  9 27  1  0  0  0  0
 10 28  1  0  0  0  0
 10 29  1  0  0  0  0
 12 30  1  0  0  0  0
 12 31  1  0  0  0  0
 12 32  1  0  0  0  0
 13 33  1  0  0  0  0
 13 34  1  0  0  0  0
 13 35  1  0  0  0  0
 14 36  1  0  0  0  0
 14 37  1  0  0  0  0
 14 38  1  0  0  0  0
 17 39  1  0  0  0  0
 17 40  1  0  0  0  0
M  END
> <id>
EN300-1129137

> <smiles>
CC(C)(C)OC(=O)N1CC2(CC2)OC=3C(N)=CC=CC13

> <IUPAC Name>
tert-butyl 8-amino-3,4-dihydrospiro[1,4-benzoxazine-2,1'-cyclopropane]-4-carboxylate

> <CAS>
2137875-58-0

> <URL>
https://www.enaminestore.com/catalog/EN300-1129137

> <ROCS_ShapeQuery>
A71EV2A-x0451_0A_A71EV2A-x0310_0A_A71EV2A-x0416_0A_peptide

> <ROCS_TanimotoCombo>
0.526 

> <ROCS_ShapeTanimoto>
0.369 

> <ROCS_ColorTanimoto>
0.157 

> <ROCS_RefTversky>
0.317 

> <ROCS_RefColorTversky>
0.172 

> <ROCS_RefTverskyCombo>
0.490 

> <ROCS_FitTversky>
1.792 

> <ROCS_FitColorTversky>
0.637 

> <ROCS_FitTverskyCombo>
2.429 

> <ROCS_ColorScore>
-5.248

> <ROCS_Overlap>
2202.816

> <ROCS_Rank>
19                  

$$$$
untitled-dbase-30611_98
  -OEChem-11132313473D

 38 39  0     1  0  0  0  0  0999 V2000
    7.9293   13.0139   24.9918 C   0  0  0  0  0  0  0  0  0  0  0  0
    6.8647   12.8423   25.8805 C   0  0  0  0  0  0  0  0  0  0  0  0
    7.0464   10.4661   25.6239 C   0  0  0  0  0  0  0  0  0  0  0  0
    8.0986   10.6181   24.6960 C   0  0  0  0  0  0  0  0  0  0  0  0
    8.5925   11.9177   24.4084 C   0  0  0  0  0  0  0  0  0  0  0  0
    6.4334   11.5686   26.2097 C   0  0  0  0  0  0  0  0  0  0  0  0
   10.4702   13.3038   23.4514 C   0  0  0  0  0  0  0  0  0  0  0  0
    9.2723    9.7695   22.6920 C   0  0  0  0  0  0  0  0  0  0  0  0
   10.2525   10.9173   22.8234 C   0  0  0  0  0  0  0  0  0  0  0  0
    8.7328    9.3907   24.0650 C   0  0  2  0  0  0  0  0  0  0  0  0
   12.2159   15.4930   22.8144 C   0  0  0  0  0  0  0  0  0  0  0  0
   12.2003   14.5846   20.4726 C   0  0  0  0  0  0  0  0  0  0  0  0
   10.0628   15.3929   21.5147 C   0  0  0  0  0  0  0  0  0  0  0  0
   11.4098   14.7190   21.7723 C   0  0  0  0  0  0  0  0  0  0  0  0
    9.7378   12.0934   23.5391 N   0  0  0  0  0  0  0  0  0  0  0  0
    7.8151    8.2615   23.8754 N   0  0  0  0  0  0  0  0  0  0  0  0
   10.5349   14.1862   24.3024 O   0  0  0  0  0  0  0  0  0  0  0  0
   11.1705   13.3971   22.2707 O   0  0  0  0  0  0  0  0  0  0  0  0
    5.1449   11.3495   27.3282 Cl  0  0  0  0  0  0  0  0  0  0  0  0
    8.1947   14.0417   24.7837 H   0  0  0  0  0  0  0  0  0  0  0  0
    6.3825   13.7192   26.3025 H   0  0  0  0  0  0  0  0  0  0  0  0
    6.7068    9.4628   25.8840 H   0  0  0  0  0  0  0  0  0  0  0  0
    8.4574   10.0461   22.0182 H   0  0  0  0  0  0  0  0  0  0  0  0
    9.7786    8.9103   22.2406 H   0  0  0  0  0  0  0  0  0  0  0  0
   11.1446   10.5316   23.3417 H   0  0  0  0  0  0  0  0  0  0  0  0
   10.6000   11.2658   21.8368 H   0  0  0  0  0  0  0  0  0  0  0  0
    9.5864    9.0527   24.6582 H   0  0  0  0  0  0  0  0  0  0  0  0
   11.6518   15.5916   23.7488 H   0  0  0  0  0  0  0  0  0  0  0  0
   13.1691   15.0011   23.0339 H   0  0  0  0  0  0  0  0  0  0  0  0
   12.4237   16.5124   22.4698 H   0  0  0  0  0  0  0  0  0  0  0  0
   11.6257   14.0299   19.7221 H   0  0  0  0  0  0  0  0  0  0  0  0
   13.1244   14.0179   20.6347 H   0  0  0  0  0  0  0  0  0  0  0  0
   12.4619   15.5626   20.0559 H   0  0  0  0  0  0  0  0  0  0  0  0
    9.4844   14.8379   20.7673 H   0  0  0  0  0  0  0  0  0  0  0  0
    9.4662   15.4647   22.4299 H   0  0  0  0  0  0  0  0  0  0  0  0
   10.2030   16.4020   21.1104 H   0  0  0  0  0  0  0  0  0  0  0  0
    6.9407    8.5087   24.2706 H   0  0  0  0  0  0  0  0  0  0  0  0
    7.7304    8.0976   22.9017 H   0  0  0  0  0  0  0  0  0  0  0  0
  1  2  1  0  0  0  0
  1  5  2  0  0  0  0
  2  6  2  0  0  0  0
  3  4  2  0  0  0  0
  3  6  1  0  0  0  0
  4  5  1  0  0  0  0
  4 10  1  0  0  0  0
  5 15  1  0  0  0  0
  6 19  1  0  0  0  0
  7 15  1  0  0  0  0
  7 17  2  0  0  0  0
  7 18  1  0  0  0  0
  8  9  1  0  0  0  0
  8 10  1  0  0  0  0
  9 15  1  0  0  0  0
 10 16  1  0  0  0  0
 11 14  1  0  0  0  0
 12 14  1  0  0  0  0
 13 14  1  0  0  0  0
 14 18  1  0  0  0  0
  1 20  1  0  0  0  0
  2 21  1  0  0  0  0
  3 22  1  0  0  0  0
  8 23  1  0  0  0  0
  8 24  1  0  0  0  0
  9 25  1  0  0  0  0
  9 26  1  0  0  0  0
 10 27  1  0  0  0  0
 11 28  1  0  0  0  0
 11 29  1  0  0  0  0
 11 30  1  0  0  0  0
 12 31  1  0  0  0  0
 12 32  1  0  0  0  0
 12 33  1  0  0  0  0
 13 34  1  0  0  0  0
 13 35  1  0  0  0  0
 13 36  1  0  0  0  0
 16 37  1  0  0  0  0
 16 38  1  0  0  0  0
M  END
> <id>
EN300-180995

> <smiles>
CC(C)(C)OC(=O)N1CCC(N)C=2C=C(Cl)C=CC12

> <MDLNUMBER>
MFCD28126831

> <IUPAC Name>
tert-butyl 4-amino-6-chloro-1,2,3,4-tetrahydroquinoline-1-carboxylate

> <CAS>
1823485-35-3

> <Purity>
95

> <URL>
https://www.enaminestore.com/catalog/EN300-180995

> <ROCS_ShapeQuery>
A71EV2A-x0451_0A_A71EV2A-x0310_0A_A71EV2A-x0416_0A_peptide

> <ROCS_TanimotoCombo>
0.526 

> <ROCS_ShapeTanimoto>
0.357 

> <ROCS_ColorTanimoto>
0.168 

> <ROCS_RefTversky>
0.307 

> <ROCS_RefColorTversky>
0.179 

> <ROCS_RefTverskyCombo>
0.486 

> <ROCS_FitTversky>
1.842 

> <ROCS_FitColorTversky>
0.746 

> <ROCS_FitTverskyCombo>
2.588 

> <ROCS_ColorScore>
-5.436

> <ROCS_Overlap>
2131.196

> <ROCS_Rank>
20                  

$$$$
untitled-dbase-14200_3
  -OEChem-11132313473D

 38 40  0     0  0  0  0  0  0999 V2000
    7.9429   13.0434   25.2835 C   0  0  0  0  0  0  0  0  0  0  0  0
    6.8680   12.8830   26.1677 C   0  0  0  0  0  0  0  0  0  0  0  0
    6.7182   10.5621   25.5793 C   0  0  0  0  0  0  0  0  0  0  0  0
    8.4371   11.9656   24.5323 C   0  0  0  0  0  0  0  0  0  0  0  0
    7.7997   10.7204   24.7044 C   0  0  0  0  0  0  0  0  0  0  0  0
    6.2556   11.6448   26.3156 C   0  0  0  0  0  0  0  0  0  0  0  0
   10.2932   13.2579   23.4220 C   0  0  0  0  0  0  0  0  0  0  0  0
   10.0702    8.3578   22.9839 C   0  0  0  0  0  0  0  0  0  0  0  0
   10.5906    8.9713   24.2527 C   0  0  0  0  0  0  0  0  0  0  0  0
    9.7633   10.9166   22.7326 C   0  0  0  0  0  0  0  0  0  0  0  0
    9.4930    9.6579   23.4800 C   0  0  0  0  0  0  0  0  0  0  0  0
   12.7771   14.5058   22.7074 C   0  0  0  0  0  0  0  0  0  0  0  0
   11.8746   14.5385   20.3635 C   0  0  0  0  0  0  0  0  0  0  0  0
   10.6965   15.8183   22.1752 C   0  0  0  0  0  0  0  0  0  0  0  0
   11.5156   14.5707   21.8475 C   0  0  0  0  0  0  0  0  0  0  0  0
    9.5220   12.0891   23.5889 N   0  0  0  0  0  0  0  0  0  0  0  0
   10.5880   14.0686   24.2956 O   0  0  0  0  0  0  0  0  0  0  0  0
    8.1715    9.5797   24.0326 O   0  0  0  0  0  0  0  0  0  0  0  0
   10.7159   13.4144   22.1233 O   0  0  0  0  0  0  0  0  0  0  0  0
    4.8102   11.4348   27.5126 Br  0  0  0  0  0  0  0  0  0  0  0  0
    8.3768   14.0349   25.2425 H   0  0  0  0  0  0  0  0  0  0  0  0
    6.5300   13.7429   26.7414 H   0  0  0  0  0  0  0  0  0  0  0  0
    6.2415    9.5887   25.6715 H   0  0  0  0  0  0  0  0  0  0  0  0
   10.7152    8.3771   22.1133 H   0  0  0  0  0  0  0  0  0  0  0  0
    9.4655    7.4625   23.0684 H   0  0  0  0  0  0  0  0  0  0  0  0
   10.3338    8.4882   25.1874 H   0  0  0  0  0  0  0  0  0  0  0  0
   11.5851    9.3996   24.2317 H   0  0  0  0  0  0  0  0  0  0  0  0
   10.8106   10.9582   22.4099 H   0  0  0  0  0  0  0  0  0  0  0  0
    9.1415   10.9652   21.8325 H   0  0  0  0  0  0  0  0  0  0  0  0
   12.5236   14.5287   23.7733 H   0  0  0  0  0  0  0  0  0  0  0  0
   13.3556   13.5981   22.5069 H   0  0  0  0  0  0  0  0  0  0  0  0
   13.4205   15.3739   22.5239 H   0  0  0  0  0  0  0  0  0  0  0  0
   10.9726   14.5849   19.7428 H   0  0  0  0  0  0  0  0  0  0  0  0
   12.3797   13.6010   20.1044 H   0  0  0  0  0  0  0  0  0  0  0  0
   12.5284   15.3722   20.0878 H   0  0  0  0  0  0  0  0  0  0  0  0
    9.7916   15.8651   21.5585 H   0  0  0  0  0  0  0  0  0  0  0  0
   10.3984   15.8398   23.2284 H   0  0  0  0  0  0  0  0  0  0  0  0
   11.2673   16.7279   21.9561 H   0  0  0  0  0  0  0  0  0  0  0  0
  1  2  1  0  0  0  0
  1  4  2  0  0  0  0
  2  6  2  0  0  0  0
  3  5  2  0  0  0  0
  3  6  1  0  0  0  0
  4  5  1  0  0  0  0
  4 16  1  0  0  0  0
  5 18  1  0  0  0  0
  6 20  1  0  0  0  0
  7 16  1  0  0  0  0
  7 17  2  0  0  0  0
  7 19  1  0  0  0  0
  8  9  1  0  0  0  0
  8 11  1  0  0  0  0
  9 11  1  0  0  0  0
 10 11  1  0  0  0  0
 10 16  1  0  0  0  0
 11 18  1  0  0  0  0
 12 15  1  0  0  0  0
 13 15  1  0  0  0  0
 14 15  1  0  0  0  0
 15 19  1  0  0  0  0
  1 21  1  0  0  0  0
  2 22  1  0  0  0  0
  3 23  1  0  0  0  0
  8 24  1  0  0  0  0
  8 25  1  0  0  0  0
  9 26  1  0  0  0  0
  9 27  1  0  0  0  0
 10 28  1  0  0  0  0
 10 29  1  0  0  0  0
 12 30  1  0  0  0  0
 12 31  1  0  0  0  0
 12 32  1  0  0  0  0
 13 33  1  0  0  0  0
 13 34  1  0  0  0  0
 13 35  1  0  0  0  0
 14 36  1  0  0  0  0
 14 37  1  0  0  0  0
 14 38  1  0  0  0  0
M  END
> <id>
EN300-1129121

> <smiles>
CC(C)(C)OC(=O)N1CC2(CC2)OC=3C=C(Br)C=CC13

> <IUPAC Name>
tert-butyl 7-bromo-3,4-dihydrospiro[1,4-benzoxazine-2,1'-cyclopropane]-4-carboxylate

> <CAS>
2138220-87-6

> <URL>
https://www.enaminestore.com/catalog/EN300-1129121

> <ROCS_ShapeQuery>
A71EV2A-x0451_0A_A71EV2A-x0310_0A_A71EV2A-x0416_0A_peptide

> <ROCS_TanimotoCombo>
0.526 

> <ROCS_ShapeTanimoto>
0.371 

> <ROCS_ColorTanimoto>
0.154 

> <ROCS_RefTversky>
0.318 

> <ROCS_RefColorTversky>
0.166 

> <ROCS_RefTverskyCombo>
0.484 

> <ROCS_FitTversky>
1.816 

> <ROCS_FitColorTversky>
0.692 

> <ROCS_FitTverskyCombo>
2.509 

> <ROCS_ColorScore>
-5.046

> <ROCS_Overlap>
2207.222

> <ROCS_Rank>
21                  

$$$$
untitled-dbase-31208_95
  -OEChem-11132313473D

 38 39  0     1  0  0  0  0  0999 V2000
    7.0525   10.4651   25.6282 C   0  0  0  0  0  0  0  0  0  0  0  0
    6.4368   11.5673   26.2117 C   0  0  0  0  0  0  0  0  0  0  0  0
    7.9255   13.0139   24.9865 C   0  0  0  0  0  0  0  0  0  0  0  0
    8.1026   10.6178   24.6980 C   0  0  0  0  0  0  0  0  0  0  0  0
    8.5915   11.9182   24.4054 C   0  0  0  0  0  0  0  0  0  0  0  0
    6.8631   12.8415   25.8777 C   0  0  0  0  0  0  0  0  0  0  0  0
   10.4626   13.3076   23.4406 C   0  0  0  0  0  0  0  0  0  0  0  0
    9.2756    9.7668   22.6946 C   0  0  0  0  0  0  0  0  0  0  0  0
   10.2521   10.9185   22.8207 C   0  0  0  0  0  0  0  0  0  0  0  0
    8.7398    9.3906   24.0698 C   0  0  2  0  0  0  0  0  0  0  0  0
   12.1996   15.5008   22.7936 C   0  0  0  0  0  0  0  0  0  0  0  0
   12.1830   14.5849   20.4548 C   0  0  0  0  0  0  0  0  0  0  0  0
   10.0446   15.3892   21.4981 C   0  0  0  0  0  0  0  0  0  0  0  0
   11.3943   14.7207   21.7554 C   0  0  0  0  0  0  0  0  0  0  0  0
    9.7346   12.0950   23.5335 N   0  0  0  0  0  0  0  0  0  0  0  0
    7.8257    8.2576   23.8854 N   0  0  0  0  0  0  0  0  0  0  0  0
   10.5258   14.1930   24.2887 O   0  0  0  0  0  0  0  0  0  0  0  0
   11.1605   13.3996   22.2584 O   0  0  0  0  0  0  0  0  0  0  0  0
    6.2543   13.9100   26.4056 F   0  0  0  0  0  0  0  0  0  0  0  0
    6.7070    9.4685   25.9022 H   0  0  0  0  0  0  0  0  0  0  0  0
    5.6247   11.4276   26.9200 H   0  0  0  0  0  0  0  0  0  0  0  0
    8.1873   14.0420   24.7761 H   0  0  0  0  0  0  0  0  0  0  0  0
    8.4585   10.0383   22.0213 H   0  0  0  0  0  0  0  0  0  0  0  0
    9.7842    8.9080   22.2452 H   0  0  0  0  0  0  0  0  0  0  0  0
   11.1462   10.5374   23.3388 H   0  0  0  0  0  0  0  0  0  0  0  0
   10.5969   11.2648   21.8324 H   0  0  0  0  0  0  0  0  0  0  0  0
    9.5958    9.0573   24.6624 H   0  0  0  0  0  0  0  0  0  0  0  0
   11.6369   15.6004   23.7287 H   0  0  0  0  0  0  0  0  0  0  0  0
   13.1549   15.0129   23.0129 H   0  0  0  0  0  0  0  0  0  0  0  0
   12.4034   16.5198   22.4454 H   0  0  0  0  0  0  0  0  0  0  0  0
   11.6090   14.0258   19.7070 H   0  0  0  0  0  0  0  0  0  0  0  0
   13.1093   14.0220   20.6170 H   0  0  0  0  0  0  0  0  0  0  0  0
   12.4405   15.5625   20.0344 H   0  0  0  0  0  0  0  0  0  0  0  0
    9.4668   14.8298   20.7535 H   0  0  0  0  0  0  0  0  0  0  0  0
    9.4494   15.4618   22.4141 H   0  0  0  0  0  0  0  0  0  0  0  0
   10.1806   16.3974   21.0903 H   0  0  0  0  0  0  0  0  0  0  0  0
    6.9512    8.5030   24.2815 H   0  0  0  0  0  0  0  0  0  0  0  0
    7.7398    8.0904   22.9124 H   0  0  0  0  0  0  0  0  0  0  0  0
  1  2  1  0  0  0  0
  1  4  2  0  0  0  0
  2  6  2  0  0  0  0
  3  5  2  0  0  0  0
  3  6  1  0  0  0  0
  4  5  1  0  0  0  0
  4 10  1  0  0  0  0
  5 15  1  0  0  0  0
  6 19  1  0  0  0  0
  7 15  1  0  0  0  0
  7 17  2  0  0  0  0
  7 18  1  0  0  0  0
  8  9  1  0  0  0  0
  8 10  1  0  0  0  0
  9 15  1  0  0  0  0
 10 16  1  0  0  0  0
 11 14  1  0  0  0  0
 12 14  1  0  0  0  0
 13 14  1  0  0  0  0
 14 18  1  0  0  0  0
  1 20  1  0  0  0  0
  2 21  1  0  0  0  0
  3 22  1  0  0  0  0
  8 23  1  0  0  0  0
  8 24  1  0  0  0  0
  9 25  1  0  0  0  0
  9 26  1  0  0  0  0
 10 27  1  0  0  0  0
 11 28  1  0  0  0  0
 11 29  1  0  0  0  0
 11 30  1  0  0  0  0
 12 31  1  0  0  0  0
 12 32  1  0  0  0  0
 12 33  1  0  0  0  0
 13 34  1  0  0  0  0
 13 35  1  0  0  0  0
 13 36  1  0  0  0  0
 16 37  1  0  0  0  0
 16 38  1  0  0  0  0
M  END
> <id>
EN300-12450171

> <smiles>
CC(C)(C)OC(=O)N1CCC(N)C=2C=CC(F)=CC12

> <MDLNUMBER>
MFCD11046300

> <IUPAC Name>
tert-butyl 4-amino-7-fluoro-1,2,3,4-tetrahydroquinoline-1-carboxylate

> <CAS>
1211594-30-7

> <Purity>
95

> <URL>
https://www.enaminestore.com/catalog/EN300-12450171

> <ROCS_ShapeQuery>
A71EV2A-x0451_0A_A71EV2A-x0310_0A_A71EV2A-x0416_0A_peptide

> <ROCS_TanimotoCombo>
0.525 

> <ROCS_ShapeTanimoto>
0.357 

> <ROCS_ColorTanimoto>
0.168 

> <ROCS_RefTversky>
0.307 

> <ROCS_RefColorTversky>
0.179 

> <ROCS_RefTverskyCombo>
0.486 

> <ROCS_FitTversky>
1.825 

> <ROCS_FitColorTversky>
0.746 

> <ROCS_FitTverskyCombo>
2.571 

> <ROCS_ColorScore>
-5.437

> <ROCS_Overlap>
2132.146

> <ROCS_Rank>
22                  

$$$$
untitled-dbase-51975_43
  -OEChem-11132313473D

 45 47  0     0  0  0  0  0  0999 V2000
    8.1816   12.7357   25.4293 C   0  0  0  0  0  0  0  0  0  0  0  0
    7.0676   12.3025   26.1513 C   0  0  0  0  0  0  0  0  0  0  0  0
    7.0125   10.2273   24.8948 C   0  0  0  0  0  0  0  0  0  0  0  0
    8.1270   10.6521   24.1802 C   0  0  0  0  0  0  0  0  0  0  0  0
    8.6946   11.9053   24.4419 C   0  0  0  0  0  0  0  0  0  0  0  0
    6.4834   11.0593   25.8827 C   0  0  0  0  0  0  0  0  0  0  0  0
   10.6021   13.2518   23.5571 C   0  0  0  0  0  0  0  0  0  0  0  0
    9.7814    8.7961   23.7492 C   0  0  0  0  0  0  0  0  0  0  0  0
    8.0188    9.3156   21.9899 C   0  0  0  0  0  0  0  0  0  0  0  0
    8.9894    7.5478   24.1593 C   0  0  0  0  0  0  0  0  0  0  0  0
    8.0228    7.7826   21.9434 C   0  0  0  0  0  0  0  0  0  0  0  0
    9.8145   11.0454   22.5831 C   0  0  0  0  0  0  0  0  0  0  0  0
    8.9072    9.8996   23.1142 C   0  0  0  0  0  0  0  0  0  0  0  0
   12.5986   15.2516   23.0950 C   0  0  0  0  0  0  0  0  0  0  0  0
   12.8832   14.1844   20.8391 C   0  0  0  0  0  0  0  0  0  0  0  0
   10.6804   15.2153   21.4660 C   0  0  0  0  0  0  0  0  0  0  0  0
   11.9087   14.4662   21.9806 C   0  0  0  0  0  0  0  0  0  0  0  0
    7.8755    7.2130   23.2733 N   0  0  0  0  0  0  0  0  0  0  0  0
    9.7699   12.1411   23.5675 N   0  0  0  0  0  0  0  0  0  0  0  0
   10.5811   14.1744   24.3669 O   0  0  0  0  0  0  0  0  0  0  0  0
   11.4851   13.2036   22.5079 O   0  0  0  0  0  0  0  0  0  0  0  0
    5.4082   10.6654   26.5796 F   0  0  0  0  0  0  0  0  0  0  0  0
    8.6097   13.7029   25.6606 H   0  0  0  0  0  0  0  0  0  0  0  0
    6.6496   12.9357   26.9290 H   0  0  0  0  0  0  0  0  0  0  0  0
    6.5526    9.2638   24.6954 H   0  0  0  0  0  0  0  0  0  0  0  0
   10.2906    9.1912   24.6461 H   0  0  0  0  0  0  0  0  0  0  0  0
   10.5934    8.5022   23.0619 H   0  0  0  0  0  0  0  0  0  0  0  0
    8.3296    9.7111   21.0082 H   0  0  0  0  0  0  0  0  0  0  0  0
    6.9769    9.6546   22.1231 H   0  0  0  0  0  0  0  0  0  0  0  0
    9.6687    6.6742   24.2539 H   0  0  0  0  0  0  0  0  0  0  0  0
    8.5876    7.7062   25.1808 H   0  0  0  0  0  0  0  0  0  0  0  0
    7.1872    7.4481   21.3186 H   0  0  0  0  0  0  0  0  0  0  0  0
    8.9392    7.4133   21.4681 H   0  0  0  0  0  0  0  0  0  0  0  0
   10.8609   10.7429   22.4668 H   0  0  0  0  0  0  0  0  0  0  0  0
    9.4768   11.4467   21.6213 H   0  0  0  0  0  0  0  0  0  0  0  0
   11.9025   15.4558   23.9164 H   0  0  0  0  0  0  0  0  0  0  0  0
   13.4608   14.7092   23.4967 H   0  0  0  0  0  0  0  0  0  0  0  0
   12.9421   16.2267   22.7312 H   0  0  0  0  0  0  0  0  0  0  0  0
   12.3924   13.6210   20.0372 H   0  0  0  0  0  0  0  0  0  0  0  0
   13.7196   13.5657   21.1837 H   0  0  0  0  0  0  0  0  0  0  0  0
   13.2876   15.1094   20.4155 H   0  0  0  0  0  0  0  0  0  0  0  0
   10.1853   14.6521   20.6667 H   0  0  0  0  0  0  0  0  0  0  0  0
    9.9530   15.3938   22.2646 H   0  0  0  0  0  0  0  0  0  0  0  0
   10.9660   16.1808   21.0329 H   0  0  0  0  0  0  0  0  0  0  0  0
    7.8030    6.1925   23.1994 H   0  0  0  0  0  0  0  0  0  0  0  0
  1  2  1  0  0  0  0
  1  5  2  0  0  0  0
  2  6  2  0  0  0  0
  3  4  2  0  0  0  0
  3  6  1  0  0  0  0
  4  5  1  0  0  0  0
  4 13  1  0  0  0  0
  5 19  1  0  0  0  0
  6 22  1  0  0  0  0
  7 19  1  0  0  0  0
  7 20  2  0  0  0  0
  7 21  1  0  0  0  0
  8 10  1  0  0  0  0
  8 13  1  0  0  0  0
  9 11  1  0  0  0  0
  9 13  1  0  0  0  0
 10 18  1  0  0  0  0
 11 18  1  0  0  0  0
 12 13  1  0  0  0  0
 12 19  1  0  0  0  0
 14 17  1  0  0  0  0
 15 17  1  0  0  0  0
 16 17  1  0  0  0  0
 17 21  1  0  0  0  0
  1 23  1  0  0  0  0
  2 24  1  0  0  0  0
  3 25  1  0  0  0  0
  8 26  1  0  0  0  0
  8 27  1  0  0  0  0
  9 28  1  0  0  0  0
  9 29  1  0  0  0  0
 10 30  1  0  0  0  0
 10 31  1  0  0  0  0
 11 32  1  0  0  0  0
 11 33  1  0  0  0  0
 12 34  1  0  0  0  0
 12 35  1  0  0  0  0
 14 36  1  0  0  0  0
 14 37  1  0  0  0  0
 14 38  1  0  0  0  0
 15 39  1  0  0  0  0
 15 40  1  0  0  0  0
 15 41  1  0  0  0  0
 16 42  1  0  0  0  0
 16 43  1  0  0  0  0
 16 44  1  0  0  0  0
 18 45  1  0  0  0  0
M  END
> <id>
EN300-268948

> <smiles>
CC(C)(C)OC(=O)N1CC2(CCNCC2)C=3C=C(F)C=CC13

> <MDLNUMBER>
MFCD12198575

> <IUPAC Name>
tert-butyl 5-fluoro-1,2-dihydrospiro[indole-3,4'-piperidine]-1-carboxylate

> <URL>
https://www.enaminestore.com/catalog/EN300-268948

> <ROCS_ShapeQuery>
A71EV2A-x0451_0A_A71EV2A-x0310_0A_A71EV2A-x0416_0A_peptide

> <ROCS_TanimotoCombo>
0.524 

> <ROCS_ShapeTanimoto>
0.363 

> <ROCS_ColorTanimoto>
0.160 

> <ROCS_RefTversky>
0.317 

> <ROCS_RefColorTversky>
0.176 

> <ROCS_RefTverskyCombo>
0.492 

> <ROCS_FitTversky>
1.681 

> <ROCS_FitColorTversky>
0.649 

> <ROCS_FitTverskyCombo>
2.330 

> <ROCS_ColorScore>
-5.354

> <ROCS_Overlap>
2199.625

> <ROCS_Rank>
23                  

$$$$
untitled-dbase-52271_43
  -OEChem-11132313473D

 45 47  0     0  0  0  0  0  0999 V2000
    8.1816   12.7357   25.4293 C   0  0  0  0  0  0  0  0  0  0  0  0
    7.0676   12.3025   26.1513 C   0  0  0  0  0  0  0  0  0  0  0  0
    7.0125   10.2273   24.8948 C   0  0  0  0  0  0  0  0  0  0  0  0
    8.1270   10.6521   24.1802 C   0  0  0  0  0  0  0  0  0  0  0  0
    8.6946   11.9053   24.4419 C   0  0  0  0  0  0  0  0  0  0  0  0
    6.4834   11.0593   25.8827 C   0  0  0  0  0  0  0  0  0  0  0  0
   10.6021   13.2518   23.5571 C   0  0  0  0  0  0  0  0  0  0  0  0
    9.7814    8.7961   23.7492 C   0  0  0  0  0  0  0  0  0  0  0  0
    8.0188    9.3156   21.9899 C   0  0  0  0  0  0  0  0  0  0  0  0
    8.9894    7.5478   24.1593 C   0  0  0  0  0  0  0  0  0  0  0  0
    8.0228    7.7826   21.9434 C   0  0  0  0  0  0  0  0  0  0  0  0
    9.8145   11.0454   22.5831 C   0  0  0  0  0  0  0  0  0  0  0  0
    8.9072    9.8996   23.1142 C   0  0  0  0  0  0  0  0  0  0  0  0
   12.5986   15.2516   23.0950 C   0  0  0  0  0  0  0  0  0  0  0  0
   12.8832   14.1844   20.8391 C   0  0  0  0  0  0  0  0  0  0  0  0
   10.6804   15.2153   21.4660 C   0  0  0  0  0  0  0  0  0  0  0  0
   11.9087   14.4662   21.9806 C   0  0  0  0  0  0  0  0  0  0  0  0
    7.8755    7.2130   23.2733 N   0  0  0  0  0  0  0  0  0  0  0  0
    9.7699   12.1411   23.5675 N   0  0  0  0  0  0  0  0  0  0  0  0
   10.5811   14.1744   24.3669 O   0  0  0  0  0  0  0  0  0  0  0  0
   11.4851   13.2036   22.5079 O   0  0  0  0  0  0  0  0  0  0  0  0
    5.4082   10.6654   26.5796 F   0  0  0  0  0  0  0  0  0  0  0  0
    8.6097   13.7029   25.6606 H   0  0  0  0  0  0  0  0  0  0  0  0
    6.6496   12.9357   26.9290 H   0  0  0  0  0  0  0  0  0  0  0  0
    6.5526    9.2638   24.6954 H   0  0  0  0  0  0  0  0  0  0  0  0
   10.2906    9.1912   24.6461 H   0  0  0  0  0  0  0  0  0  0  0  0
   10.5934    8.5022   23.0619 H   0  0  0  0  0  0  0  0  0  0  0  0
    8.3296    9.7111   21.0082 H   0  0  0  0  0  0  0  0  0  0  0  0
    6.9769    9.6546   22.1231 H   0  0  0  0  0  0  0  0  0  0  0  0
    9.6687    6.6742   24.2539 H   0  0  0  0  0  0  0  0  0  0  0  0
    8.5876    7.7062   25.1808 H   0  0  0  0  0  0  0  0  0  0  0  0
    7.1872    7.4481   21.3186 H   0  0  0  0  0  0  0  0  0  0  0  0
    8.9392    7.4133   21.4681 H   0  0  0  0  0  0  0  0  0  0  0  0
   10.8609   10.7429   22.4668 H   0  0  0  0  0  0  0  0  0  0  0  0
    9.4768   11.4467   21.6213 H   0  0  0  0  0  0  0  0  0  0  0  0
   11.9025   15.4558   23.9164 H   0  0  0  0  0  0  0  0  0  0  0  0
   13.4608   14.7092   23.4967 H   0  0  0  0  0  0  0  0  0  0  0  0
   12.9421   16.2267   22.7312 H   0  0  0  0  0  0  0  0  0  0  0  0
   12.3924   13.6210   20.0372 H   0  0  0  0  0  0  0  0  0  0  0  0
   13.7196   13.5657   21.1837 H   0  0  0  0  0  0  0  0  0  0  0  0
   13.2876   15.1094   20.4155 H   0  0  0  0  0  0  0  0  0  0  0  0
   10.1853   14.6521   20.6667 H   0  0  0  0  0  0  0  0  0  0  0  0
    9.9530   15.3938   22.2646 H   0  0  0  0  0  0  0  0  0  0  0  0
   10.9660   16.1808   21.0329 H   0  0  0  0  0  0  0  0  0  0  0  0
    7.8030    6.1925   23.1994 H   0  0  0  0  0  0  0  0  0  0  0  0
  1  2  1  0  0  0  0
  1  5  2  0  0  0  0
  2  6  2  0  0  0  0
  3  4  2  0  0  0  0
  3  6  1  0  0  0  0
  4  5  1  0  0  0  0
  4 13  1  0  0  0  0
  5 19  1  0  0  0  0
  6 22  1  0  0  0  0
  7 19  1  0  0  0  0
  7 20  2  0  0  0  0
  7 21  1  0  0  0  0
  8 10  1  0  0  0  0
  8 13  1  0  0  0  0
  9 11  1  0  0  0  0
  9 13  1  0  0  0  0
 10 18  1  0  0  0  0
 11 18  1  0  0  0  0
 12 13  1  0  0  0  0
 12 19  1  0  0  0  0
 14 17  1  0  0  0  0
 15 17  1  0  0  0  0
 16 17  1  0  0  0  0
 17 21  1  0  0  0  0
  1 23  1  0  0  0  0
  2 24  1  0  0  0  0
  3 25  1  0  0  0  0
  8 26  1  0  0  0  0
  8 27  1  0  0  0  0
  9 28  1  0  0  0  0
  9 29  1  0  0  0  0
 10 30  1  0  0  0  0
 10 31  1  0  0  0  0
 11 32  1  0  0  0  0
 11 33  1  0  0  0  0
 12 34  1  0  0  0  0
 12 35  1  0  0  0  0
 14 36  1  0  0  0  0
 14 37  1  0  0  0  0
 14 38  1  0  0  0  0
 15 39  1  0  0  0  0
 15 40  1  0  0  0  0
 15 41  1  0  0  0  0
 16 42  1  0  0  0  0
 16 43  1  0  0  0  0
 16 44  1  0  0  0  0
 18 45  1  0  0  0  0
M  END
> <id>
EN300-18800220

> <smiles>
Cl.CC(C)(C)OC(=O)N1CC2(CCNCC2)C=3C=C(F)C=CC13

> <MDLNUMBER>
MFCD15071698

> <IUPAC Name>
tert-butyl 5-fluoro-1,2-dihydrospiro[indole-3,4'-piperidine]-1-carboxylate hydrochloride

> <CAS>
858351-44-7

> <Purity>
95

> <URL>
https://www.enaminestore.com/catalog/EN300-18800220

> <Saltdate>
Cl

> <ROCS_ShapeQuery>
A71EV2A-x0451_0A_A71EV2A-x0310_0A_A71EV2A-x0416_0A_peptide

> <ROCS_TanimotoCombo>
0.524 

> <ROCS_ShapeTanimoto>
0.363 

> <ROCS_ColorTanimoto>
0.160 

> <ROCS_RefTversky>
0.317 

> <ROCS_RefColorTversky>
0.176 

> <ROCS_RefTverskyCombo>
0.492 

> <ROCS_FitTversky>
1.681 

> <ROCS_FitColorTversky>
0.649 

> <ROCS_FitTverskyCombo>
2.330 

> <ROCS_ColorScore>
-5.354

> <ROCS_Overlap>
2199.625

> <ROCS_Rank>
24                  

$$$$
untitled-dbase-49777_11
  -OEChem-11132313473D

 39 41  0     1  0  0  0  0  0999 V2000
    9.8350   13.2387   23.5983 C   0  0  0  0  0  0  0  0  0  0  0  0
    6.7300   11.7818   24.7458 C   0  0  0  0  0  0  0  0  0  0  0  0
    7.6875   11.6705   25.9513 C   0  0  0  0  0  0  0  0  0  0  0  0
   10.1725    9.7462   23.7349 C   0  0  0  0  0  0  0  0  0  0  0  0
    7.8838   10.5960   22.8082 C   0  0  0  0  0  0  0  0  0  0  0  0
    9.3501   10.1372   24.9318 C   0  0  1  0  0  0  0  0  0  0  0  0
    7.6433   11.9460   23.5176 C   0  0  2  0  0  0  0  0  0  0  0  0
    9.0806   11.5746   25.3221 C   0  0  1  0  0  0  0  0  0  0  0  0
    8.6597    9.5999   23.6791 C   0  0  2  0  0  0  0  0  0  0  0  0
   12.1990   13.7114   22.0638 C   0  0  0  0  0  0  0  0  0  0  0  0
   10.6556   13.9197   20.0930 C   0  0  0  0  0  0  0  0  0  0  0  0
   10.4651   15.5349   22.0069 C   0  0  0  0  0  0  0  0  0  0  0  0
   10.7944   14.0984   21.6033 C   0  0  0  0  0  0  0  0  0  0  0  0
    8.9024   12.3614   24.1155 N   0  0  0  0  0  0  0  0  0  0  0  0
    8.0875    8.2376   23.7173 N   0  0  0  0  0  0  0  0  0  0  0  0
   10.5684   13.9494   24.2818 O   0  0  0  0  0  0  0  0  0  0  0  0
    9.8517   13.2214   22.2299 O   0  0  0  0  0  0  0  0  0  0  0  0
    6.0776   10.9054   24.6720 H   0  0  0  0  0  0  0  0  0  0  0  0
    6.0917   12.6639   24.8722 H   0  0  0  0  0  0  0  0  0  0  0  0
    7.6093   12.5791   26.5600 H   0  0  0  0  0  0  0  0  0  0  0  0
    7.4358   10.8135   26.5845 H   0  0  0  0  0  0  0  0  0  0  0  0
   10.6471   10.5167   23.1404 H   0  0  0  0  0  0  0  0  0  0  0  0
   10.7731    8.8461   23.8164 H   0  0  0  0  0  0  0  0  0  0  0  0
    6.9168   10.1704   22.5127 H   0  0  0  0  0  0  0  0  0  0  0  0
    8.4459   10.7639   21.8807 H   0  0  0  0  0  0  0  0  0  0  0  0
    9.4225    9.4920   25.8011 H   0  0  0  0  0  0  0  0  0  0  0  0
    7.2507   12.6849   22.8128 H   0  0  0  0  0  0  0  0  0  0  0  0
    9.8753   11.9666   25.9630 H   0  0  0  0  0  0  0  0  0  0  0  0
   12.3026   13.8383   23.1474 H   0  0  0  0  0  0  0  0  0  0  0  0
   12.4343   12.6723   21.8113 H   0  0  0  0  0  0  0  0  0  0  0  0
   12.9538   14.3590   21.6032 H   0  0  0  0  0  0  0  0  0  0  0  0
    9.6493   14.1962   19.7583 H   0  0  0  0  0  0  0  0  0  0  0  0
   10.7979   12.8706   19.8095 H   0  0  0  0  0  0  0  0  0  0  0  0
   11.3826   14.5284   19.5457 H   0  0  0  0  0  0  0  0  0  0  0  0
    9.4577   15.8127   21.6768 H   0  0  0  0  0  0  0  0  0  0  0  0
   10.5236   15.6726   23.0915 H   0  0  0  0  0  0  0  0  0  0  0  0
   11.1531   16.2414   21.5286 H   0  0  0  0  0  0  0  0  0  0  0  0
    8.4418    7.7477   22.9365 H   0  0  0  0  0  0  0  0  0  0  0  0
    8.3739    7.8225   24.5663 H   0  0  0  0  0  0  0  0  0  0  0  0
  1 14  1  0  0  0  0
  1 16  2  0  0  0  0
  1 17  1  0  0  0  0
  2  3  1  0  0  0  0
  2  7  1  6  0  0  0
  3  8  1  6  0  0  0
  4  6  1  1  0  0  0
  4  9  1  0  0  0  0
  5  7  1  0  0  0  0
  5  9  1  0  0  0  0
  6  8  1  0  0  0  0
  6  9  1  0  0  0  0
  7 14  1  0  0  0  0
  8 14  1  0  0  0  0
  9 15  1  6  0  0  0
 10 13  1  0  0  0  0
 11 13  1  0  0  0  0
 12 13  1  0  0  0  0
 13 17  1  0  0  0  0
  2 18  1  0  0  0  0
  2 19  1  0  0  0  0
  3 20  1  0  0  0  0
  3 21  1  0  0  0  0
  4 22  1  0  0  0  0
  4 23  1  0  0  0  0
  5 24  1  0  0  0  0
  5 25  1  0  0  0  0
  6 26  1  0  0  0  0
  7 27  1  0  0  0  0
  8 28  1  0  0  0  0
 10 29  1  0  0  0  0
 10 30  1  0  0  0  0
 10 31  1  0  0  0  0
 11 32  1  0  0  0  0
 11 33  1  0  0  0  0
 11 34  1  0  0  0  0
 12 35  1  0  0  0  0
 12 36  1  0  0  0  0
 12 37  1  0  0  0  0
 15 38  1  0  0  0  0
 15 39  1  0  0  0  0
M  END
> <id>
EN300-6738471

> <smiles>
CC(C)(C)OC(=O)N1[C@@H]2CC[C@H]1[C@@H]3C[C@]3(N)C2 |&1:8,11,12,14,r|

> <IUPAC Name>
rac-tert-butyl (1R,2R,4R,6S)-4-amino-9-azatricyclo[4.2.1.0,2,4]nonane-9-carboxylate

> <CAS>
2287239-08-9

> <Purity>
95

> <URL>
https://www.enaminestore.com/catalog/EN300-6738471

> <ROCS_ShapeQuery>
A71EV2A-x0451_0A_A71EV2A-x0310_0A_A71EV2A-x0416_0A_peptide

> <ROCS_TanimotoCombo>
0.524 

> <ROCS_ShapeTanimoto>
0.286 

> <ROCS_ColorTanimoto>
0.237 

> <ROCS_RefTversky>
0.257 

> <ROCS_RefColorTversky>
0.284 

> <ROCS_RefTverskyCombo>
0.541 

> <ROCS_FitTversky>
1.641 

> <ROCS_FitColorTversky>
0.591 

> <ROCS_FitTverskyCombo>
2.232 

> <ROCS_ColorScore>
-8.752

> <ROCS_Overlap>
1785.486

> <ROCS_Rank>
25                  

$$$$
untitled-dbase-15034_11
  -OEChem-11132313473D

 38 40  0     1  0  0  0  0  0999 V2000
   10.7251   13.3392   23.4602 C   0  0  0  0  0  0  0  0  0  0  0  0
    7.5763   10.4204   22.9798 C   0  0  0  0  0  0  0  0  0  0  0  0
    7.5462   10.1634   25.3362 C   0  0  0  0  0  0  0  0  0  0  0  0
   10.0854   11.0022   22.8717 C   0  0  0  0  0  0  0  0  0  0  0  0
    6.9656   11.0658   24.2463 C   0  0  1  0  0  0  0  0  0  0  0  0
    9.0162   10.0672   23.4244 C   0  0  1  0  0  0  0  0  0  0  0  0
    8.9841   10.4225   24.9267 C   0  0  1  0  0  0  0  0  0  0  0  0
    9.1154   11.9628   24.8560 C   0  0  2  0  0  0  0  0  0  0  0  0
    7.6807   12.4156   24.4837 C   0  0  2  0  0  0  0  0  0  0  0  0
   12.4081   15.4416   22.5027 C   0  0  0  0  0  0  0  0  0  0  0  0
   12.5190   14.1286   20.3642 C   0  0  0  0  0  0  0  0  0  0  0  0
   10.3132   15.0155   21.1743 C   0  0  0  0  0  0  0  0  0  0  0  0
   11.6734   14.4586   21.5923 C   0  0  0  0  0  0  0  0  0  0  0  0
   10.0254   12.1757   23.7297 N   0  0  0  0  0  0  0  0  0  0  0  0
   10.6919   14.3435   24.1677 O   0  0  0  0  0  0  0  0  0  0  0  0
   11.4648   13.2391   22.3128 O   0  0  0  0  0  0  0  0  0  0  0  0
    6.9030   13.4084   25.8026 S   0  0  0  0  0  0  0  0  0  0  0  0
    7.0318    9.5009   22.7330 H   0  0  0  0  0  0  0  0  0  0  0  0
    7.5400   11.0793   22.1065 H   0  0  0  0  0  0  0  0  0  0  0  0
    7.3242   10.4957   26.3541 H   0  0  0  0  0  0  0  0  0  0  0  0
    7.2532    9.1141   25.2256 H   0  0  0  0  0  0  0  0  0  0  0  0
   11.0867   10.5704   22.9788 H   0  0  0  0  0  0  0  0  0  0  0  0
    9.9334   11.2817   21.8249 H   0  0  0  0  0  0  0  0  0  0  0  0
    5.8749   11.1207   24.2131 H   0  0  0  0  0  0  0  0  0  0  0  0
    9.2405    9.0140   23.2307 H   0  0  0  0  0  0  0  0  0  0  0  0
    9.7592    9.9300   25.5185 H   0  0  0  0  0  0  0  0  0  0  0  0
    9.5113   12.4139   25.7710 H   0  0  0  0  0  0  0  0  0  0  0  0
    7.6666   13.0403   23.5718 H   0  0  0  0  0  0  0  0  0  0  0  0
   11.8044   15.6810   23.3854 H   0  0  0  0  0  0  0  0  0  0  0  0
   13.3698   15.0395   22.8377 H   0  0  0  0  0  0  0  0  0  0  0  0
   12.5909   16.3910   21.9864 H   0  0  0  0  0  0  0  0  0  0  0  0
   11.9957   13.4237   19.7082 H   0  0  0  0  0  0  0  0  0  0  0  0
   13.4567   13.6416   20.6554 H   0  0  0  0  0  0  0  0  0  0  0  0
   12.7597   15.0267   19.7863 H   0  0  0  0  0  0  0  0  0  0  0  0
    9.7860   14.3106   20.5213 H   0  0  0  0  0  0  0  0  0  0  0  0
    9.6787   15.2236   22.0419 H   0  0  0  0  0  0  0  0  0  0  0  0
   10.4311   15.9409   20.5991 H   0  0  0  0  0  0  0  0  0  0  0  0
    7.7549   14.4378   25.7146 H   0  0  0  0  0  0  0  0  0  0  0  0
  1 14  1  0  0  0  0
  1 15  2  0  0  0  0
  1 16  1  0  0  0  0
  2  5  1  0  0  0  0
  2  6  1  0  0  0  0
  3  5  1  0  0  0  0
  3  7  1  0  0  0  0
  4  6  1  0  0  0  0
  4 14  1  0  0  0  0
  5  9  1  0  0  0  0
  6  7  1  0  0  0  0
  7  8  1  0  0  0  0
  8  9  1  0  0  0  0
  8 14  1  0  0  0  0
  9 17  1  0  0  0  0
 10 13  1  0  0  0  0
 11 13  1  0  0  0  0
 12 13  1  0  0  0  0
 13 16  1  0  0  0  0
  2 18  1  0  0  0  0
  2 19  1  0  0  0  0
  3 20  1  0  0  0  0
  3 21  1  0  0  0  0
  4 22  1  0  0  0  0
  4 23  1  0  0  0  0
  5 24  1  0  0  0  0
  6 25  1  0  0  0  0
  7 26  1  0  0  0  0
  8 27  1  0  0  0  0
  9 28  1  0  0  0  0
 10 29  1  0  0  0  0
 10 30  1  0  0  0  0
 10 31  1  0  0  0  0
 11 32  1  0  0  0  0
 11 33  1  0  0  0  0
 11 34  1  0  0  0  0
 12 35  1  0  0  0  0
 12 36  1  0  0  0  0
 12 37  1  0  0  0  0
 17 38  1  0  0  0  0
M  END
> <id>
EN300-1289473

> <smiles>
CC(C)(C)OC(=O)N1CC2CC3CC2C1C3S

> <IUPAC Name>
tert-butyl 2-sulfanyl-4-azatricyclo[4.2.1.0,3,7]nonane-4-carboxylate

> <CAS>
2172173-81-6

> <URL>
https://www.enaminestore.com/catalog/EN300-1289473

> <ROCS_ShapeQuery>
A71EV2A-x0451_0A_A71EV2A-x0310_0A_A71EV2A-x0416_0A_peptide

> <ROCS_TanimotoCombo>
0.523 

> <ROCS_ShapeTanimoto>
0.313 

> <ROCS_ColorTanimoto>
0.211 

> <ROCS_RefTversky>
0.276 

> <ROCS_RefColorTversky>
0.261 

> <ROCS_RefTverskyCombo>
0.537 

> <ROCS_FitTversky>
1.756 

> <ROCS_FitColorTversky>
0.521 

> <ROCS_FitTverskyCombo>
2.277 

> <ROCS_ColorScore>
-8.049

> <ROCS_Overlap>
1912.043

> <ROCS_Rank>
26                  

$$$$
untitled-dbase-14547_34
  -OEChem-11132313473D

 49 52  0     1  0  0  0  0  0999 V2000
    4.4841   12.7442   28.3970 C   0  0  0  0  0  0  0  0  0  0  0  0
    5.0610   11.5363   28.7302 C   0  0  0  0  0  0  0  0  0  0  0  0
    5.1003   13.1458   27.1930 C   0  0  0  0  0  0  0  0  0  0  0  0
    6.0132   12.1631   26.8843 C   0  0  0  0  0  0  0  0  0  0  0  0
   10.0085   13.1436   23.5637 C   0  0  0  0  0  0  0  0  0  0  0  0
    4.9302   14.3316   26.3216 C   0  0  0  0  0  0  0  0  0  0  0  0
    8.6809    9.9098   24.5878 C   0  0  0  0  0  0  0  0  0  0  0  0
    6.4273   10.9738   24.7112 C   0  0  0  0  0  0  0  0  0  0  0  0
    8.3898   11.8367   26.1366 C   0  0  0  0  0  0  0  0  0  0  0  0
    5.5287   14.0420   24.9278 C   0  0  0  0  0  0  0  0  0  0  0  0
    8.1872   11.5062   22.9110 C   0  0  0  0  0  0  0  0  0  0  0  0
    7.5056   10.4210   23.7513 C   0  0  1  0  0  0  0  0  0  0  0  0
    9.2841   11.2400   25.0310 C   0  0  2  0  0  0  0  0  0  0  0  0
    6.9139   12.0956   25.6860 C   0  0  2  0  0  0  0  0  0  0  0  0
   12.6195   13.0680   22.4058 C   0  0  0  0  0  0  0  0  0  0  0  0
   11.5383   14.0397   20.3573 C   0  0  0  0  0  0  0  0  0  0  0  0
   11.5253   15.3321   22.5108 C   0  0  0  0  0  0  0  0  0  0  0  0
   11.4809   13.9410   21.8802 C   0  0  0  0  0  0  0  0  0  0  0  0
    6.8722   13.4272   24.9952 N   0  0  0  0  0  0  0  0  0  0  0  0
    9.2147   12.0378   23.8068 N   0  0  0  0  0  0  0  0  0  0  0  0
   10.4556   13.8798   24.4399 O   0  0  0  0  0  0  0  0  0  0  0  0
    5.9940   11.1693   27.8072 O   0  0  0  0  0  0  0  0  0  0  0  0
   10.2363   13.3234   22.2258 O   0  0  0  0  0  0  0  0  0  0  0  0
    3.7208   13.2633   28.9585 H   0  0  0  0  0  0  0  0  0  0  0  0
    4.9257   10.8477   29.5515 H   0  0  0  0  0  0  0  0  0  0  0  0
    3.8612   14.5560   26.2251 H   0  0  0  0  0  0  0  0  0  0  0  0
    5.4190   15.2086   26.7593 H   0  0  0  0  0  0  0  0  0  0  0  0
    8.3726    9.2699   25.4208 H   0  0  0  0  0  0  0  0  0  0  0  0
    9.3881    9.3484   23.9651 H   0  0  0  0  0  0  0  0  0  0  0  0
    5.5638   11.3192   24.1257 H   0  0  0  0  0  0  0  0  0  0  0  0
    6.0486   10.1202   25.2916 H   0  0  0  0  0  0  0  0  0  0  0  0
    8.3959   11.1364   26.9837 H   0  0  0  0  0  0  0  0  0  0  0  0
    8.8516   12.7527   26.5238 H   0  0  0  0  0  0  0  0  0  0  0  0
    4.8605   13.3626   24.3864 H   0  0  0  0  0  0  0  0  0  0  0  0
    5.5682   14.9635   24.3355 H   0  0  0  0  0  0  0  0  0  0  0  0
    8.7022   11.0746   22.0451 H   0  0  0  0  0  0  0  0  0  0  0  0
    7.5151   12.2936   22.5587 H   0  0  0  0  0  0  0  0  0  0  0  0
    7.0802    9.6320   23.1228 H   0  0  0  0  0  0  0  0  0  0  0  0
   10.3177   11.1436   25.3773 H   0  0  0  0  0  0  0  0  0  0  0  0
   12.5818   12.9947   23.4986 H   0  0  0  0  0  0  0  0  0  0  0  0
   12.5784   12.0568   21.9878 H   0  0  0  0  0  0  0  0  0  0  0  0
   13.5936   13.5053   22.1588 H   0  0  0  0  0  0  0  0  0  0  0  0
   10.7232   14.6652   19.9759 H   0  0  0  0  0  0  0  0  0  0  0  0
   11.4115   13.0530   19.8973 H   0  0  0  0  0  0  0  0  0  0  0  0
   12.4887   14.4621   20.0154 H   0  0  0  0  0  0  0  0  0  0  0  0
   10.7088   15.9586   22.1340 H   0  0  0  0  0  0  0  0  0  0  0  0
   11.4480   15.2830   23.6018 H   0  0  0  0  0  0  0  0  0  0  0  0
   12.4565   15.8484   22.2506 H   0  0  0  0  0  0  0  0  0  0  0  0
    7.2093   13.3150   24.0383 H   0  0  0  0  0  0  0  0  0  0  0  0
  1  2  2  0  0  0  0
  1  3  1  0  0  0  0
  2 22  1  0  0  0  0
  3  4  2  0  0  0  0
  3  6  1  0  0  0  0
  4 14  1  0  0  0  0
  4 22  1  0  0  0  0
  5 20  1  0  0  0  0
  5 21  2  0  0  0  0
  5 23  1  0  0  0  0
  6 10  1  0  0  0  0
  7 12  1  0  0  0  0
  7 13  1  0  0  0  0
  8 12  1  0  0  0  0
  8 14  1  0  0  0  0
  9 13  1  0  0  0  0
  9 14  1  0  0  0  0
 10 19  1  0  0  0  0
 11 12  1  0  0  0  0
 11 20  1  0  0  0  0
 13 20  1  0  0  0  0
 14 19  1  0  0  0  0
 15 18  1  0  0  0  0
 16 18  1  0  0  0  0
 17 18  1  0  0  0  0
 18 23  1  0  0  0  0
  1 24  1  0  0  0  0
  2 25  1  0  0  0  0
  6 26  1  0  0  0  0
  6 27  1  0  0  0  0
  7 28  1  0  0  0  0
  7 29  1  0  0  0  0
  8 30  1  0  0  0  0
  8 31  1  0  0  0  0
  9 32  1  0  0  0  0
  9 33  1  0  0  0  0
 10 34  1  0  0  0  0
 10 35  1  0  0  0  0
 11 36  1  0  0  0  0
 11 37  1  0  0  0  0
 12 38  1  0  0  0  0
 13 39  1  0  0  0  0
 15 40  1  0  0  0  0
 15 41  1  0  0  0  0
 15 42  1  0  0  0  0
 16 43  1  0  0  0  0
 16 44  1  0  0  0  0
 16 45  1  0  0  0  0
 17 46  1  0  0  0  0
 17 47  1  0  0  0  0
 17 48  1  0  0  0  0
 19 49  1  0  0  0  0
M  END
> <id>
EN300-1074736

> <smiles>
CC(C)(C)OC(=O)N1CC2CC1CC3(C2)NCCC=4C=COC43

> <IUPAC Name>
tert-butyl 5',6'-dihydro-4'H-6-azaspiro[bicyclo[3.2.1]octane-3,7'-furo[2,3-c]pyridine]-6-carboxylate

> <URL>
https://www.enaminestore.com/catalog/EN300-1074736

> <ROCS_ShapeQuery>
A71EV2A-x0451_0A_A71EV2A-x0310_0A_A71EV2A-x0416_0A_peptide

> <ROCS_TanimotoCombo>
0.523 

> <ROCS_ShapeTanimoto>
0.320 

> <ROCS_ColorTanimoto>
0.204 

> <ROCS_RefTversky>
0.290 

> <ROCS_RefColorTversky>
0.245 

> <ROCS_RefTverskyCombo>
0.535 

> <ROCS_FitTversky>
1.471 

> <ROCS_FitColorTversky>
0.547 

> <ROCS_FitTverskyCombo>
2.018 

> <ROCS_ColorScore>
-7.531

> <ROCS_Overlap>
2015.244

> <ROCS_Rank>
27                  

$$$$
untitled-dbase-19650_0
  -OEChem-11132313473D

 32 34  0     1  0  0  0  0  0999 V2000
   10.4621   13.3375   23.3338 C   0  0  0  0  0  0  0  0  0  0  0  0
    9.4521   10.1701   24.7001 C   0  0  0  0  0  0  0  0  0  0  0  0
    9.5057   11.1135   22.5326 C   0  0  0  0  0  0  0  0  0  0  0  0
    8.6664   10.1191   23.3684 C   0  0  2  0  0  0  0  0  0  0  0  0
    9.2705   11.6928   24.8375 C   0  0  2  0  0  0  0  0  0  0  0  0
    7.3584   10.8225   23.7214 C   0  0  2  0  0  0  0  0  0  0  0  0
    7.7647   11.8745   24.7110 C   0  0  1  0  0  0  0  0  0  0  0  0
   12.7799   14.7868   22.5025 C   0  0  0  0  0  0  0  0  0  0  0  0
   11.7789   14.7050   20.2002 C   0  0  0  0  0  0  0  0  0  0  0  0
   10.5659   15.8948   22.0499 C   0  0  0  0  0  0  0  0  0  0  0  0
   11.4823   14.7238   21.6982 C   0  0  0  0  0  0  0  0  0  0  0  0
    9.8184   12.1370   23.5456 N   0  0  0  0  0  0  0  0  0  0  0  0
   10.7002   14.1599   24.2148 O   0  0  0  0  0  0  0  0  0  0  0  0
    6.9190   10.7821   25.0817 O   0  0  0  0  0  0  0  0  0  0  0  0
   10.8059   13.5032   22.0194 O   0  0  0  0  0  0  0  0  0  0  0  0
    8.9807    9.5978   25.5056 H   0  0  0  0  0  0  0  0  0  0  0  0
   10.4994    9.8639   24.6013 H   0  0  0  0  0  0  0  0  0  0  0  0
   10.4458   10.6789   22.1781 H   0  0  0  0  0  0  0  0  0  0  0  0
    8.9602   11.5658   21.6989 H   0  0  0  0  0  0  0  0  0  0  0  0
    8.5467    9.1276   22.9297 H   0  0  0  0  0  0  0  0  0  0  0  0
    9.7277   12.1729   25.7041 H   0  0  0  0  0  0  0  0  0  0  0  0
    6.6783   11.0569   22.9201 H   0  0  0  0  0  0  0  0  0  0  0  0
    7.3802   12.8776   24.6320 H   0  0  0  0  0  0  0  0  0  0  0  0
   12.5713   14.8004   23.5783 H   0  0  0  0  0  0  0  0  0  0  0  0
   13.4309   13.9336   22.2853 H   0  0  0  0  0  0  0  0  0  0  0  0
   13.3317   15.7079   22.2829 H   0  0  0  0  0  0  0  0  0  0  0  0
   10.8506   14.6598   19.6193 H   0  0  0  0  0  0  0  0  0  0  0  0
   12.3570   13.8146   19.9279 H   0  0  0  0  0  0  0  0  0  0  0  0
   12.3402   15.5916   19.8884 H   0  0  0  0  0  0  0  0  0  0  0  0
    9.6350   15.8498   21.4731 H   0  0  0  0  0  0  0  0  0  0  0  0
   10.3124   15.9028   23.1149 H   0  0  0  0  0  0  0  0  0  0  0  0
   11.0401   16.8501   21.7975 H   0  0  0  0  0  0  0  0  0  0  0  0
  1 12  1  0  0  0  0
  1 13  2  0  0  0  0
  1 15  1  0  0  0  0
  2  4  1  0  0  0  0
  2  5  1  0  0  0  0
  3  4  1  0  0  0  0
  3 12  1  0  0  0  0
  4  6  1  0  0  0  0
  5  7  1  0  0  0  0
  5 12  1  0  0  0  0
  6  7  1  0  0  0  0
  6 14  1  0  0  0  0
  7 14  1  0  0  0  0
  8 11  1  0  0  0  0
  9 11  1  0  0  0  0
 10 11  1  0  0  0  0
 11 15  1  0  0  0  0
  2 16  1  0  0  0  0
  2 17  1  0  0  0  0
  3 18  1  0  0  0  0
  3 19  1  0  0  0  0
  4 20  1  0  0  0  0
  5 21  1  0  0  0  0
  6 22  1  0  0  0  0
  7 23  1  0  0  0  0
  8 24  1  0  0  0  0
  8 25  1  0  0  0  0
  8 26  1  0  0  0  0
  9 27  1  0  0  0  0
  9 28  1  0  0  0  0
  9 29  1  0  0  0  0
 10 30  1  0  0  0  0
 10 31  1  0  0  0  0
 10 32  1  0  0  0  0
M  END
> <id>
EN300-1708259

> <smiles>
CC(C)(C)OC(=O)N1CC2CC1C3OC32

> <MDLNUMBER>
MFCD32762338

> <IUPAC Name>
tert-butyl 3-oxa-6-azatricyclo[3.2.1.0,2,4]octane-6-carboxylate

> <CAS>
2219371-15-8

> <URL>
https://www.enaminestore.com/catalog/EN300-1708259

> <ROCS_ShapeQuery>
A71EV2A-x0451_0A_A71EV2A-x0310_0A_A71EV2A-x0416_0A_peptide

> <ROCS_TanimotoCombo>
0.523 

> <ROCS_ShapeTanimoto>
0.283 

> <ROCS_ColorTanimoto>
0.240 

> <ROCS_RefTversky>
0.253 

> <ROCS_RefColorTversky>
0.323 

> <ROCS_RefTverskyCombo>
0.576 

> <ROCS_FitTversky>
1.728 

> <ROCS_FitColorTversky>
0.481 

> <ROCS_FitTverskyCombo>
2.209 

> <ROCS_ColorScore>
-10.061

> <ROCS_Overlap>
1755.166

> <ROCS_Rank>
28                  

$$$$
untitled-dbase-14199_3
  -OEChem-11132313473D

 38 40  0     0  0  0  0  0  0999 V2000
    6.8675   12.8806   26.1669 C   0  0  0  0  0  0  0  0  0  0  0  0
    6.2555   11.6421   26.3148 C   0  0  0  0  0  0  0  0  0  0  0  0
    7.9424   13.0413   25.2828 C   0  0  0  0  0  0  0  0  0  0  0  0
    6.7185   10.5596   25.5784 C   0  0  0  0  0  0  0  0  0  0  0  0
    8.4370   11.9637   24.5315 C   0  0  0  0  0  0  0  0  0  0  0  0
    7.8000   10.7183   24.7035 C   0  0  0  0  0  0  0  0  0  0  0  0
   10.2928   13.2566   23.4214 C   0  0  0  0  0  0  0  0  0  0  0  0
   10.0714    8.3564   22.9830 C   0  0  0  0  0  0  0  0  0  0  0  0
   10.5915    8.9700   24.2519 C   0  0  0  0  0  0  0  0  0  0  0  0
    9.7636   10.9152   22.7319 C   0  0  0  0  0  0  0  0  0  0  0  0
    9.4937    9.6564   23.4792 C   0  0  0  0  0  0  0  0  0  0  0  0
   12.7763   14.5053   22.7069 C   0  0  0  0  0  0  0  0  0  0  0  0
   11.8739   14.5379   20.3630 C   0  0  0  0  0  0  0  0  0  0  0  0
   10.6953   15.8172   22.1747 C   0  0  0  0  0  0  0  0  0  0  0  0
   11.5149   14.5699   21.8469 C   0  0  0  0  0  0  0  0  0  0  0  0
    9.5219   12.0876   23.5882 N   0  0  0  0  0  0  0  0  0  0  0  0
   10.5873   14.0674   24.2951 O   0  0  0  0  0  0  0  0  0  0  0  0
    8.1723    9.5777   24.0317 O   0  0  0  0  0  0  0  0  0  0  0  0
   10.7154   13.4133   22.1227 O   0  0  0  0  0  0  0  0  0  0  0  0
    6.5176   13.7288   26.7490 H   0  0  0  0  0  0  0  0  0  0  0  0
    5.4250   11.5214   27.0034 H   0  0  0  0  0  0  0  0  0  0  0  0
    8.3752   14.0332   25.2414 H   0  0  0  0  0  0  0  0  0  0  0  0
    6.2320    9.5932   25.6825 H   0  0  0  0  0  0  0  0  0  0  0  0
   10.7161    8.3759   22.1123 H   0  0  0  0  0  0  0  0  0  0  0  0
    9.4673    7.4607   23.0682 H   0  0  0  0  0  0  0  0  0  0  0  0
   10.3346    8.4869   25.1866 H   0  0  0  0  0  0  0  0  0  0  0  0
   11.5861    9.3977   24.2310 H   0  0  0  0  0  0  0  0  0  0  0  0
   10.8108   10.9568   22.4089 H   0  0  0  0  0  0  0  0  0  0  0  0
    9.1417   10.9637   21.8318 H   0  0  0  0  0  0  0  0  0  0  0  0
   12.5228   14.5281   23.7728 H   0  0  0  0  0  0  0  0  0  0  0  0
   13.3551   13.5979   22.5064 H   0  0  0  0  0  0  0  0  0  0  0  0
   13.4194   15.3737   22.5235 H   0  0  0  0  0  0  0  0  0  0  0  0
   10.9719   14.5840   19.7422 H   0  0  0  0  0  0  0  0  0  0  0  0
   12.3793   13.6005   20.1038 H   0  0  0  0  0  0  0  0  0  0  0  0
   12.5275   15.3718   20.0873 H   0  0  0  0  0  0  0  0  0  0  0  0
    9.7904   15.8637   21.5580 H   0  0  0  0  0  0  0  0  0  0  0  0
   10.3971   15.8386   23.2279 H   0  0  0  0  0  0  0  0  0  0  0  0
   11.2659   16.7270   21.9557 H   0  0  0  0  0  0  0  0  0  0  0  0
  1  2  2  0  0  0  0
  1  3  1  0  0  0  0
  2  4  1  0  0  0  0
  3  5  2  0  0  0  0
  4  6  2  0  0  0  0
  5  6  1  0  0  0  0
  5 16  1  0  0  0  0
  6 18  1  0  0  0  0
  7 16  1  0  0  0  0
  7 17  2  0  0  0  0
  7 19  1  0  0  0  0
  8  9  1  0  0  0  0
  8 11  1  0  0  0  0
  9 11  1  0  0  0  0
 10 11  1  0  0  0  0
 10 16  1  0  0  0  0
 11 18  1  0  0  0  0
 12 15  1  0  0  0  0
 13 15  1  0  0  0  0
 14 15  1  0  0  0  0
 15 19  1  0  0  0  0
  1 20  1  0  0  0  0
  2 21  1  0  0  0  0
  3 22  1  0  0  0  0
  4 23  1  0  0  0  0
  8 24  1  0  0  0  0
  8 25  1  0  0  0  0
  9 26  1  0  0  0  0
  9 27  1  0  0  0  0
 10 28  1  0  0  0  0
 10 29  1  0  0  0  0
 12 30  1  0  0  0  0
 12 31  1  0  0  0  0
 12 32  1  0  0  0  0
 13 33  1  0  0  0  0
 13 34  1  0  0  0  0
 13 35  1  0  0  0  0
 14 36  1  0  0  0  0
 14 37  1  0  0  0  0
 14 38  1  0  0  0  0
M  END
> <id>
EN300-1129114

> <smiles>
CC(C)(C)OC(=O)N1CC2(CC2)OC=3C=CC=CC13

> <IUPAC Name>
tert-butyl 3,4-dihydrospiro[1,4-benzoxazine-2,1'-cyclopropane]-4-carboxylate

> <CAS>
2137668-06-3

> <URL>
https://www.enaminestore.com/catalog/EN300-1129114

> <ROCS_ShapeQuery>
A71EV2A-x0451_0A_A71EV2A-x0310_0A_A71EV2A-x0416_0A_peptide

> <ROCS_TanimotoCombo>
0.522 

> <ROCS_ShapeTanimoto>
0.362 

> <ROCS_ColorTanimoto>
0.159 

> <ROCS_RefTversky>
0.311 

> <ROCS_RefColorTversky>
0.166 

> <ROCS_RefTverskyCombo>
0.478 

> <ROCS_FitTversky>
1.824 

> <ROCS_FitColorTversky>
0.796 

> <ROCS_FitTverskyCombo>
2.619 

> <ROCS_ColorScore>
-5.046

> <ROCS_Overlap>
2160.674

> <ROCS_Rank>
29                  

$$$$
untitled-dbase-45656_16
  -OEChem-11132313473D

 33 34  0     0  0  0  0  0  0999 V2000
    8.0256   13.1108   25.1207 C   0  0  0  0  0  0  0  0  0  0  0  0
    6.8667   12.9914   25.8867 C   0  0  0  0  0  0  0  0  0  0  0  0
    8.5655   12.0027   24.4584 C   0  0  0  0  0  0  0  0  0  0  0  0
    7.8656   10.7964   24.6122 C   0  0  0  0  0  0  0  0  0  0  0  0
    6.2720   11.7507   25.9791 C   0  0  0  0  0  0  0  0  0  0  0  0
   10.5633   13.1891   23.4841 C   0  0  0  0  0  0  0  0  0  0  0  0
   10.2112   10.7417   23.1423 C   0  0  0  0  0  0  0  0  0  0  0  0
    9.0286    9.8483   22.8413 C   0  0  0  0  0  0  0  0  0  0  0  0
   12.3868   15.2357   22.6322 C   0  0  0  0  0  0  0  0  0  0  0  0
   12.3725   14.0664   20.4092 C   0  0  0  0  0  0  0  0  0  0  0  0
   10.2489   15.0538   21.3165 C   0  0  0  0  0  0  0  0  0  0  0  0
   11.5698   14.3727   21.6717 C   0  0  0  0  0  0  0  0  0  0  0  0
    6.7466   10.6511   25.3645 N   0  0  0  0  0  0  0  0  0  0  0  0
    9.7748   12.0379   23.6807 N   0  0  0  0  0  0  0  0  0  0  0  0
   10.6425   14.1588   24.2326 O   0  0  0  0  0  0  0  0  0  0  0  0
    8.2702    9.6233   24.0231 O   0  0  0  0  0  0  0  0  0  0  0  0
   11.2813   13.1245   22.3133 O   0  0  0  0  0  0  0  0  0  0  0  0
    4.8505   11.5078   26.9059 Cl  0  0  0  0  0  0  0  0  0  0  0  0
    8.4735   14.0955   25.0843 H   0  0  0  0  0  0  0  0  0  0  0  0
    6.4599   13.8588   26.3966 H   0  0  0  0  0  0  0  0  0  0  0  0
   10.8610   10.2902   23.9020 H   0  0  0  0  0  0  0  0  0  0  0  0
   10.7993   10.8806   22.2297 H   0  0  0  0  0  0  0  0  0  0  0  0
    8.3861   10.2659   22.0553 H   0  0  0  0  0  0  0  0  0  0  0  0
    9.3820    8.8744   22.4863 H   0  0  0  0  0  0  0  0  0  0  0  0
   11.8140   15.4578   23.5397 H   0  0  0  0  0  0  0  0  0  0  0  0
   13.3206   14.7431   22.9222 H   0  0  0  0  0  0  0  0  0  0  0  0
   12.6321   16.2022   22.1773 H   0  0  0  0  0  0  0  0  0  0  0  0
   11.7902   13.4474   19.7172 H   0  0  0  0  0  0  0  0  0  0  0  0
   13.2756   13.4939   20.6502 H   0  0  0  0  0  0  0  0  0  0  0  0
   12.6711   14.9818   19.8882 H   0  0  0  0  0  0  0  0  0  0  0  0
    9.6627   14.4350   20.6276 H   0  0  0  0  0  0  0  0  0  0  0  0
    9.6429   15.2481   22.2074 H   0  0  0  0  0  0  0  0  0  0  0  0
   10.4270   16.0052   20.8023 H   0  0  0  0  0  0  0  0  0  0  0  0
  1  2  1  0  0  0  0
  1  3  2  0  0  0  0
  2  5  2  0  0  0  0
  3  4  1  0  0  0  0
  3 14  1  0  0  0  0
  4 13  2  0  0  0  0
  4 16  1  0  0  0  0
  5 13  1  0  0  0  0
  5 18  1  0  0  0  0
  6 14  1  0  0  0  0
  6 15  2  0  0  0  0
  6 17  1  0  0  0  0
  7  8  1  0  0  0  0
  7 14  1  0  0  0  0
  8 16  1  0  0  0  0
  9 12  1  0  0  0  0
 10 12  1  0  0  0  0
 11 12  1  0  0  0  0
 12 17  1  0  0  0  0
  1 19  1  0  0  0  0
  2 20  1  0  0  0  0
  7 21  1  0  0  0  0
  7 22  1  0  0  0  0
  8 23  1  0  0  0  0
  8 24  1  0  0  0  0
  9 25  1  0  0  0  0
  9 26  1  0  0  0  0
  9 27  1  0  0  0  0
 10 28  1  0  0  0  0
 10 29  1  0  0  0  0
 10 30  1  0  0  0  0
 11 31  1  0  0  0  0
 11 32  1  0  0  0  0
 11 33  1  0  0  0  0
M  END
> <id>
EN300-21836239

> <smiles>
CC(C)(C)OC(=O)N1CCOC=2N=C(Cl)C=CC12

> <MDLNUMBER>
MFCD29913941

> <IUPAC Name>
tert-butyl 6-chloro-1H,2H,3H-pyrido[2,3-b][1,4]oxazine-1-carboxylate

> <CAS>
2385941-31-9

> <URL>
https://www.enaminestore.com/catalog/EN300-21836239

> <ROCS_ShapeQuery>
A71EV2A-x0451_0A_A71EV2A-x0310_0A_A71EV2A-x0416_0A_peptide

> <ROCS_TanimotoCombo>
0.521 

> <ROCS_ShapeTanimoto>
0.343 

> <ROCS_ColorTanimoto>
0.178 

> <ROCS_RefTversky>
0.297 

> <ROCS_RefColorTversky>
0.188 

> <ROCS_RefTverskyCombo>
0.485 

> <ROCS_FitTversky>
1.822 

> <ROCS_FitColorTversky>
0.782 

> <ROCS_FitTverskyCombo>
2.604 

> <ROCS_ColorScore>
-5.712

> <ROCS_Overlap>
2060.232

> <ROCS_Rank>
30                  

$$$$
untitled-dbase-30668_15
  -OEChem-11132313473D

 38 39  0     0  0  0  0  0  0999 V2000
    8.7269   10.3358   23.8135 C   0  0  0  0  0  0  0  0  0  0  0  0
    9.1689   11.6567   23.8984 C   0  0  0  0  0  0  0  0  0  0  0  0
    7.5705   10.0223   24.5172 C   0  0  0  0  0  0  0  0  0  0  0  0
    7.3592   12.1516   25.2400 C   0  0  0  0  0  0  0  0  0  0  0  0
   10.8716   13.3693   23.3379 C   0  0  0  0  0  0  0  0  0  0  0  0
    9.4606    9.2756   23.0549 C   0  0  0  0  0  0  0  0  0  0  0  0
   10.2841    9.9021   21.9453 C   0  0  0  0  0  0  0  0  0  0  0  0
   11.1463   11.0224   22.5038 C   0  0  0  0  0  0  0  0  0  0  0  0
    6.6060   13.1744   26.0205 C   0  0  0  0  0  0  0  0  0  0  0  0
   12.1768   15.9117   23.1143 C   0  0  0  0  0  0  0  0  0  0  0  0
   12.5914   15.2816   20.7185 C   0  0  0  0  0  0  0  0  0  0  0  0
   10.2369   15.5318   21.5563 C   0  0  0  0  0  0  0  0  0  0  0  0
   11.6613   15.1132   21.9179 C   0  0  0  0  0  0  0  0  0  0  0  0
    8.4735   12.5755   24.6133 N   0  0  0  0  0  0  0  0  0  0  0  0
    6.8588   10.9081   25.2378 N   0  0  0  0  0  0  0  0  0  0  0  0
   10.3819   12.0519   23.2265 N   0  0  0  0  0  0  0  0  0  0  0  0
   10.6530   14.1386   24.2715 O   0  0  0  0  0  0  0  0  0  0  0  0
    7.0901    8.7383   24.5114 O   0  0  0  0  0  0  0  0  0  0  0  0
   11.6538   13.7237   22.2664 O   0  0  0  0  0  0  0  0  0  0  0  0
   10.1105    8.7275   23.7477 H   0  0  0  0  0  0  0  0  0  0  0  0
    8.7656    8.5570   22.6055 H   0  0  0  0  0  0  0  0  0  0  0  0
   10.9162    9.1412   21.4739 H   0  0  0  0  0  0  0  0  0  0  0  0
    9.6263   10.3021   21.1628 H   0  0  0  0  0  0  0  0  0  0  0  0
   11.8912   10.6268   23.2054 H   0  0  0  0  0  0  0  0  0  0  0  0
   11.6965   11.4839   21.6763 H   0  0  0  0  0  0  0  0  0  0  0  0
    5.8569   13.6643   25.3862 H   0  0  0  0  0  0  0  0  0  0  0  0
    6.0923   12.7225   26.8791 H   0  0  0  0  0  0  0  0  0  0  0  0
    7.2781   13.9442   26.4223 H   0  0  0  0  0  0  0  0  0  0  0  0
   11.5119   15.7934   23.9774 H   0  0  0  0  0  0  0  0  0  0  0  0
   13.1841   15.5969   23.4057 H   0  0  0  0  0  0  0  0  0  0  0  0
   12.2012   16.9838   22.8877 H   0  0  0  0  0  0  0  0  0  0  0  0
   12.2254   14.7104   19.8577 H   0  0  0  0  0  0  0  0  0  0  0  0
   13.5919   14.8945   20.9430 H   0  0  0  0  0  0  0  0  0  0  0  0
   12.6841   16.3318   20.4235 H   0  0  0  0  0  0  0  0  0  0  0  0
    9.8670   14.9591   20.6982 H   0  0  0  0  0  0  0  0  0  0  0  0
    9.5479   15.3830   22.3940 H   0  0  0  0  0  0  0  0  0  0  0  0
   10.2039   16.5868   21.2614 H   0  0  0  0  0  0  0  0  0  0  0  0
    6.2849    8.6885   25.0449 H   0  0  0  0  0  0  0  0  0  0  0  0
  1  2  1  0  0  0  0
  1  3  2  0  0  0  0
  1  6  1  0  0  0  0
  2 14  2  0  0  0  0
  2 16  1  0  0  0  0
  3 15  1  0  0  0  0
  3 18  1  0  0  0  0
  4  9  1  0  0  0  0
  4 14  1  0  0  0  0
  4 15  2  0  0  0  0
  5 16  1  0  0  0  0
  5 17  2  0  0  0  0
  5 19  1  0  0  0  0
  6  7  1  0  0  0  0
  7  8  1  0  0  0  0
  8 16  1  0  0  0  0
 10 13  1  0  0  0  0
 11 13  1  0  0  0  0
 12 13  1  0  0  0  0
 13 19  1  0  0  0  0
  6 20  1  0  0  0  0
  6 21  1  0  0  0  0
  7 22  1  0  0  0  0
  7 23  1  0  0  0  0
  8 24  1  0  0  0  0
  8 25  1  0  0  0  0
  9 26  1  0  0  0  0
  9 27  1  0  0  0  0
  9 28  1  0  0  0  0
 10 29  1  0  0  0  0
 10 30  1  0  0  0  0
 10 31  1  0  0  0  0
 11 32  1  0  0  0  0
 11 33  1  0  0  0  0
 11 34  1  0  0  0  0
 12 35  1  0  0  0  0
 12 36  1  0  0  0  0
 12 37  1  0  0  0  0
 18 38  1  0  0  0  0
M  END
> <id>
EN300-26664835

> <smiles>
CC=1N=C(O)C=2CCCN(C(=O)OC(C)(C)C)C2N1

> <IUPAC Name>
tert-butyl 4-hydroxy-2-methyl-5H,6H,7H,8H-pyrido[2,3-d]pyrimidine-8-carboxylate

> <CAS>
2413904-64-8

> <URL>
https://www.enaminestore.com/catalog/EN300-26664835

> <ROCS_ShapeQuery>
A71EV2A-x0451_0A_A71EV2A-x0310_0A_A71EV2A-x0416_0A_peptide

> <ROCS_TanimotoCombo>
0.521 

> <ROCS_ShapeTanimoto>
0.362 

> <ROCS_ColorTanimoto>
0.159 

> <ROCS_RefTversky>
0.311 

> <ROCS_RefColorTversky>
0.179 

> <ROCS_RefTverskyCombo>
0.490 

> <ROCS_FitTversky>
1.829 

> <ROCS_FitColorTversky>
0.592 

> <ROCS_FitTverskyCombo>
2.421 

> <ROCS_ColorScore>
-5.453

> <ROCS_Overlap>
2157.937

> <ROCS_Rank>
31                  

$$$$
untitled-dbase-9619_2
  -OEChem-11132313473D

 41 42  0     1  0  0  0  0  0999 V2000
    6.1516   11.5862   26.1660 C   0  0  0  0  0  0  0  0  0  0  0  0
    6.8710   12.7851   26.2207 C   0  0  0  0  0  0  0  0  0  0  0  0
    6.5615   10.5588   25.3179 C   0  0  0  0  0  0  0  0  0  0  0  0
    8.0090   12.9722   25.4297 C   0  0  0  0  0  0  0  0  0  0  0  0
    7.7023   10.7444   24.5457 C   0  0  0  0  0  0  0  0  0  0  0  0
    8.4188   11.9428   24.5910 C   0  0  0  0  0  0  0  0  0  0  0  0
   10.4258   12.9518   23.5227 C   0  0  0  0  0  0  0  0  0  0  0  0
    8.2636    9.8191   23.5057 C   0  0  1  0  0  0  0  0  0  0  0  0
    9.6578   10.4775   23.1874 C   0  0  0  0  0  0  0  0  0  0  0  0
    9.8770   10.4247   21.6643 C   0  0  0  0  0  0  0  0  0  0  0  0
   10.8311    9.7731   23.9026 C   0  0  0  0  0  0  0  0  0  0  0  0
   13.0903   13.9246   23.1021 C   0  0  0  0  0  0  0  0  0  0  0  0
   12.6134   13.6202   20.6548 C   0  0  0  0  0  0  0  0  0  0  0  0
   11.2522   15.2455   22.0016 C   0  0  0  0  0  0  0  0  0  0  0  0
   12.0069   13.9171   22.0246 C   0  0  0  0  0  0  0  0  0  0  0  0
    9.5400   11.8914   23.7212 N   0  0  0  0  0  0  0  0  0  0  0  0
    8.3014    8.4113   23.8787 N   0  0  0  0  0  0  0  0  0  0  0  0
   10.6257   13.8742   24.3092 O   0  0  0  0  0  0  0  0  0  0  0  0
   11.0764   12.8689   22.3210 O   0  0  0  0  0  0  0  0  0  0  0  0
    5.2647   11.4601   26.7805 H   0  0  0  0  0  0  0  0  0  0  0  0
    6.5407   13.5798   26.8844 H   0  0  0  0  0  0  0  0  0  0  0  0
    5.9873    9.6399   25.2599 H   0  0  0  0  0  0  0  0  0  0  0  0
    8.5393   13.9129   25.5088 H   0  0  0  0  0  0  0  0  0  0  0  0
    7.6111    9.9124   22.6301 H   0  0  0  0  0  0  0  0  0  0  0  0
   10.8346   10.8748   21.4255 H   0  0  0  0  0  0  0  0  0  0  0  0
    9.0818   10.9723   21.1700 H   0  0  0  0  0  0  0  0  0  0  0  0
    9.8670    9.3902   21.3378 H   0  0  0  0  0  0  0  0  0  0  0  0
   11.7552   10.2742   23.6411 H   0  0  0  0  0  0  0  0  0  0  0  0
   10.8685    8.7387   23.5834 H   0  0  0  0  0  0  0  0  0  0  0  0
   10.6731    9.8242   24.9731 H   0  0  0  0  0  0  0  0  0  0  0  0
   12.6590   14.1373   24.0868 H   0  0  0  0  0  0  0  0  0  0  0  0
   13.6157   12.9653   23.1525 H   0  0  0  0  0  0  0  0  0  0  0  0
   13.8270   14.7131   22.9104 H   0  0  0  0  0  0  0  0  0  0  0  0
   11.8396   13.6138   19.8786 H   0  0  0  0  0  0  0  0  0  0  0  0
   13.0743   12.6259   20.6392 H   0  0  0  0  0  0  0  0  0  0  0  0
   13.3733   14.3590   20.3807 H   0  0  0  0  0  0  0  0  0  0  0  0
   10.4750   15.2404   21.2288 H   0  0  0  0  0  0  0  0  0  0  0  0
   10.7792   15.4574   22.9659 H   0  0  0  0  0  0  0  0  0  0  0  0
   11.9274   16.0730   21.7556 H   0  0  0  0  0  0  0  0  0  0  0  0
    7.3764    8.1176   24.0929 H   0  0  0  0  0  0  0  0  0  0  0  0
    8.6620    7.8926   23.1115 H   0  0  0  0  0  0  0  0  0  0  0  0
  1  2  2  0  0  0  0
  1  3  1  0  0  0  0
  2  4  1  0  0  0  0
  3  5  2  0  0  0  0
  4  6  2  0  0  0  0
  5  6  1  0  0  0  0
  5  8  1  0  0  0  0
  6 16  1  0  0  0  0
  7 16  1  0  0  0  0
  7 18  2  0  0  0  0
  7 19  1  0  0  0  0
  8  9  1  0  0  0  0
  8 17  1  0  0  0  0
  9 10  1  0  0  0  0
  9 11  1  0  0  0  0
  9 16  1  0  0  0  0
 12 15  1  0  0  0  0
 13 15  1  0  0  0  0
 14 15  1  0  0  0  0
 15 19  1  0  0  0  0
  1 20  1  0  0  0  0
  2 21  1  0  0  0  0
  3 22  1  0  0  0  0
  4 23  1  0  0  0  0
  8 24  1  0  0  0  0
 10 25  1  0  0  0  0
 10 26  1  0  0  0  0
 10 27  1  0  0  0  0
 11 28  1  0  0  0  0
 11 29  1  0  0  0  0
 11 30  1  0  0  0  0
 12 31  1  0  0  0  0
 12 32  1  0  0  0  0
 12 33  1  0  0  0  0
 13 34  1  0  0  0  0
 13 35  1  0  0  0  0
 13 36  1  0  0  0  0
 14 37  1  0  0  0  0
 14 38  1  0  0  0  0
 14 39  1  0  0  0  0
 17 40  1  0  0  0  0
 17 41  1  0  0  0  0
M  END
> <id>
EN300-328407

> <smiles>
CC(C)(C)OC(=O)N1C=2C=CC=CC2C(N)C1(C)C

> <MDLNUMBER>
MFCD30488382

> <IUPAC Name>
tert-butyl 3-amino-2,2-dimethyl-2,3-dihydro-1H-indole-1-carboxylate

> <CAS>
2060000-01-1

> <Purity>
95

> <URL>
https://www.enaminestore.com/catalog/EN300-328407

> <ROCS_ShapeQuery>
A71EV2A-x0451_0A_A71EV2A-x0310_0A_A71EV2A-x0416_0A_peptide

> <ROCS_TanimotoCombo>
0.521 

> <ROCS_ShapeTanimoto>
0.351 

> <ROCS_ColorTanimoto>
0.170 

> <ROCS_RefTversky>
0.303 

> <ROCS_RefColorTversky>
0.185 

> <ROCS_RefTverskyCombo>
0.488 

> <ROCS_FitTversky>
1.799 

> <ROCS_FitColorTversky>
0.683 

> <ROCS_FitTverskyCombo>
2.482 

> <ROCS_ColorScore>
-5.637

> <ROCS_Overlap>
2104.519

> <ROCS_Rank>
32                  

$$$$
untitled-dbase-14794_5
  -OEChem-11132313473D

 38 40  0     0  0  0  0  0  0999 V2000
    6.7155   10.5582   25.5731 C   0  0  0  0  0  0  0  0  0  0  0  0
    6.2498   11.6412   26.3071 C   0  0  0  0  0  0  0  0  0  0  0  0
    7.9381   13.0405   25.2778 C   0  0  0  0  0  0  0  0  0  0  0  0
    8.4355   11.9626   24.5290 C   0  0  0  0  0  0  0  0  0  0  0  0
    7.7991   10.7168   24.7008 C   0  0  0  0  0  0  0  0  0  0  0  0
    6.8612   12.8799   26.1595 C   0  0  0  0  0  0  0  0  0  0  0  0
   10.2931   13.2558   23.4222 C   0  0  0  0  0  0  0  0  0  0  0  0
   10.0767    8.3550   22.9886 C   0  0  0  0  0  0  0  0  0  0  0  0
   10.5931    8.9704   24.2581 C   0  0  0  0  0  0  0  0  0  0  0  0
    9.7675   10.9132   22.7339 C   0  0  0  0  0  0  0  0  0  0  0  0
    9.4967    9.6550   23.4819 C   0  0  0  0  0  0  0  0  0  0  0  0
   12.7773   14.5057   22.7126 C   0  0  0  0  0  0  0  0  0  0  0  0
   11.8809   14.5350   20.3664 C   0  0  0  0  0  0  0  0  0  0  0  0
   10.6966   15.8153   22.1737 C   0  0  0  0  0  0  0  0  0  0  0  0
   11.5180   14.5683   21.8494 C   0  0  0  0  0  0  0  0  0  0  0  0
    9.5227   12.0863   23.5883 N   0  0  0  0  0  0  0  0  0  0  0  0
   10.5847   14.0677   24.2957 O   0  0  0  0  0  0  0  0  0  0  0  0
    8.1739    9.5758   24.0311 O   0  0  0  0  0  0  0  0  0  0  0  0
   10.7188   13.4114   22.1244 O   0  0  0  0  0  0  0  0  0  0  0  0
    6.2427   14.3557   27.1700 Br  0  0  0  0  0  0  0  0  0  0  0  0
    6.2295    9.5915   25.6767 H   0  0  0  0  0  0  0  0  0  0  0  0
    5.4158   11.5024   26.9895 H   0  0  0  0  0  0  0  0  0  0  0  0
    8.3853   14.0260   25.2252 H   0  0  0  0  0  0  0  0  0  0  0  0
   10.7240    8.3738   22.1198 H   0  0  0  0  0  0  0  0  0  0  0  0
    9.4723    7.4593   23.0724 H   0  0  0  0  0  0  0  0  0  0  0  0
   10.3344    8.4878   25.1926 H   0  0  0  0  0  0  0  0  0  0  0  0
   11.5868    9.4005   24.2396 H   0  0  0  0  0  0  0  0  0  0  0  0
   10.8157   10.9553   22.4143 H   0  0  0  0  0  0  0  0  0  0  0  0
    9.1484   10.9600   21.8318 H   0  0  0  0  0  0  0  0  0  0  0  0
   12.5211   14.5294   23.7778 H   0  0  0  0  0  0  0  0  0  0  0  0
   13.3574   13.5985   22.5146 H   0  0  0  0  0  0  0  0  0  0  0  0
   13.4202   15.3744   22.5299 H   0  0  0  0  0  0  0  0  0  0  0  0
   10.9803   14.5797   19.7433 H   0  0  0  0  0  0  0  0  0  0  0  0
   12.3877   13.5977   20.1095 H   0  0  0  0  0  0  0  0  0  0  0  0
   12.5344   15.3692   20.0915 H   0  0  0  0  0  0  0  0  0  0  0  0
    9.7933   15.8604   21.5547 H   0  0  0  0  0  0  0  0  0  0  0  0
   10.3958   15.8376   23.2261 H   0  0  0  0  0  0  0  0  0  0  0  0
   11.2670   16.7253   21.9552 H   0  0  0  0  0  0  0  0  0  0  0  0
  1  2  1  0  0  0  0
  1  5  2  0  0  0  0
  2  6  2  0  0  0  0
  3  4  2  0  0  0  0
  3  6  1  0  0  0  0
  4  5  1  0  0  0  0
  4 16  1  0  0  0  0
  5 18  1  0  0  0  0
  6 20  1  0  0  0  0
  7 16  1  0  0  0  0
  7 17  2  0  0  0  0
  7 19  1  0  0  0  0
  8  9  1  0  0  0  0
  8 11  1  0  0  0  0
  9 11  1  0  0  0  0
 10 11  1  0  0  0  0
 10 16  1  0  0  0  0
 11 18  1  0  0  0  0
 12 15  1  0  0  0  0
 13 15  1  0  0  0  0
 14 15  1  0  0  0  0
 15 19  1  0  0  0  0
  1 21  1  0  0  0  0
  2 22  1  0  0  0  0
  3 23  1  0  0  0  0
  8 24  1  0  0  0  0
  8 25  1  0  0  0  0
  9 26  1  0  0  0  0
  9 27  1  0  0  0  0
 10 28  1  0  0  0  0
 10 29  1  0  0  0  0
 12 30  1  0  0  0  0
 12 31  1  0  0  0  0
 12 32  1  0  0  0  0
 13 33  1  0  0  0  0
 13 34  1  0  0  0  0
 13 35  1  0  0  0  0
 14 36  1  0  0  0  0
 14 37  1  0  0  0  0
 14 38  1  0  0  0  0
M  END
> <id>
EN300-1129119

> <smiles>
CC(C)(C)OC(=O)N1CC2(CC2)OC=3C=CC(Br)=CC13

> <IUPAC Name>
tert-butyl 6-bromo-3,4-dihydrospiro[1,4-benzoxazine-2,1'-cyclopropane]-4-carboxylate

> <CAS>
2137602-84-5

> <URL>
https://www.enaminestore.com/catalog/EN300-1129119

> <ROCS_ShapeQuery>
A71EV2A-x0451_0A_A71EV2A-x0310_0A_A71EV2A-x0416_0A_peptide

> <ROCS_TanimotoCombo>
0.521 

> <ROCS_ShapeTanimoto>
0.366 

> <ROCS_ColorTanimoto>
0.154 

> <ROCS_RefTversky>
0.315 

> <ROCS_RefColorTversky>
0.166 

> <ROCS_RefTverskyCombo>
0.481 

> <ROCS_FitTversky>
1.800 

> <ROCS_FitColorTversky>
0.692 

> <ROCS_FitTverskyCombo>
2.492 

> <ROCS_ColorScore>
-5.046

> <ROCS_Overlap>
2186.996

> <ROCS_Rank>
33                  

$$$$
untitled-dbase-14546_9
  -OEChem-11132313473D

 49 52  0     1  0  0  0  0  0999 V2000
    4.7753   11.5192   28.4911 C   0  0  0  0  0  0  0  0  0  0  0  0
    5.3642   13.1285   27.2486 C   0  0  0  0  0  0  0  0  0  0  0  0
    6.0024   12.0222   26.7361 C   0  0  0  0  0  0  0  0  0  0  0  0
   10.0641   13.1918   23.5791 C   0  0  0  0  0  0  0  0  0  0  0  0
    5.5176   14.4741   26.6582 C   0  0  0  0  0  0  0  0  0  0  0  0
    8.8090    9.8890   24.4742 C   0  0  0  0  0  0  0  0  0  0  0  0
    6.5236   10.8830   24.5461 C   0  0  0  0  0  0  0  0  0  0  0  0
    8.4100   11.7709   26.0566 C   0  0  0  0  0  0  0  0  0  0  0  0
    6.7668   14.4952   25.7519 C   0  0  0  0  0  0  0  0  0  0  0  0
    8.3290   11.5083   22.8167 C   0  0  0  0  0  0  0  0  0  0  0  0
    7.6487   10.3864   23.6085 C   0  0  1  0  0  0  0  0  0  0  0  0
    9.3567   11.2249   24.9688 C   0  0  2  0  0  0  0  0  0  0  0  0
    6.9440   11.9986   25.5638 C   0  0  2  0  0  0  0  0  0  0  0  0
   12.4617   14.4513   22.6695 C   0  0  0  0  0  0  0  0  0  0  0  0
   11.2985   14.6478   20.4519 C   0  0  0  0  0  0  0  0  0  0  0  0
   10.3554   15.8139   22.4666 C   0  0  0  0  0  0  0  0  0  0  0  0
   11.1117   14.5841   21.9662 C   0  0  0  0  0  0  0  0  0  0  0  0
    4.5966   12.8151   28.3339 N   0  0  0  0  0  0  0  0  0  0  0  0
    5.6250   10.9933   27.5513 N   0  0  0  0  0  0  0  0  0  0  0  0
    6.8461   13.3204   24.8569 N   0  0  0  0  0  0  0  0  0  0  0  0
    9.3045   12.0511   23.7626 N   0  0  0  0  0  0  0  0  0  0  0  0
   10.4526   13.9176   24.4913 O   0  0  0  0  0  0  0  0  0  0  0  0
   10.3307   13.4195   22.2559 O   0  0  0  0  0  0  0  0  0  0  0  0
    4.3270   10.9057   29.2596 H   0  0  0  0  0  0  0  0  0  0  0  0
    4.6254   14.7105   26.0667 H   0  0  0  0  0  0  0  0  0  0  0  0
    5.6126   15.2329   27.4418 H   0  0  0  0  0  0  0  0  0  0  0  0
    8.4912    9.2207   25.2810 H   0  0  0  0  0  0  0  0  0  0  0  0
    9.5539    9.3633   23.8643 H   0  0  0  0  0  0  0  0  0  0  0  0
    5.6689   11.2161   23.9417 H   0  0  0  0  0  0  0  0  0  0  0  0
    6.1553   10.0041   25.0930 H   0  0  0  0  0  0  0  0  0  0  0  0
    8.4109   11.0514   26.8876 H   0  0  0  0  0  0  0  0  0  0  0  0
    8.8336   12.6899   26.4794 H   0  0  0  0  0  0  0  0  0  0  0  0
    6.7475   15.4025   25.1376 H   0  0  0  0  0  0  0  0  0  0  0  0
    7.6745   14.5626   26.3623 H   0  0  0  0  0  0  0  0  0  0  0  0
    8.8900   11.1098   21.9638 H   0  0  0  0  0  0  0  0  0  0  0  0
    7.6479   12.2830   22.4540 H   0  0  0  0  0  0  0  0  0  0  0  0
    7.2682    9.6001   22.9490 H   0  0  0  0  0  0  0  0  0  0  0  0
   10.3810   11.1506   25.3475 H   0  0  0  0  0  0  0  0  0  0  0  0
   12.3319   14.4052   23.7567 H   0  0  0  0  0  0  0  0  0  0  0  0
   12.9990   13.5542   22.3451 H   0  0  0  0  0  0  0  0  0  0  0  0
   13.0939   15.3243   22.4704 H   0  0  0  0  0  0  0  0  0  0  0  0
   10.3324   14.7431   19.9433 H   0  0  0  0  0  0  0  0  0  0  0  0
   11.7557   13.7254   20.0759 H   0  0  0  0  0  0  0  0  0  0  0  0
   11.9299   15.4925   20.1579 H   0  0  0  0  0  0  0  0  0  0  0  0
    9.3869   15.9093   21.9623 H   0  0  0  0  0  0  0  0  0  0  0  0
   10.1797   15.7677   23.5462 H   0  0  0  0  0  0  0  0  0  0  0  0
   10.9120   16.7312   22.2432 H   0  0  0  0  0  0  0  0  0  0  0  0
    5.9167   10.0273   27.4824 H   0  0  0  0  0  0  0  0  0  0  0  0
    6.0108   13.3213   24.2701 H   0  0  0  0  0  0  0  0  0  0  0  0
  1 18  2  0  0  0  0
  1 19  1  0  0  0  0
  2  3  2  0  0  0  0
  2  5  1  0  0  0  0
  2 18  1  0  0  0  0
  3 13  1  0  0  0  0
  3 19  1  0  0  0  0
  4 21  1  0  0  0  0
  4 22  2  0  0  0  0
  4 23  1  0  0  0  0
  5  9  1  0  0  0  0
  6 11  1  0  0  0  0
  6 12  1  0  0  0  0
  7 11  1  0  0  0  0
  7 13  1  0  0  0  0
  8 12  1  0  0  0  0
  8 13  1  0  0  0  0
  9 20  1  0  0  0  0
 10 11  1  0  0  0  0
 10 21  1  0  0  0  0
 12 21  1  0  0  0  0
 13 20  1  0  0  0  0
 14 17  1  0  0  0  0
 15 17  1  0  0  0  0
 16 17  1  0  0  0  0
 17 23  1  0  0  0  0
  1 24  1  0  0  0  0
  5 25  1  0  0  0  0
  5 26  1  0  0  0  0
  6 27  1  0  0  0  0
  6 28  1  0  0  0  0
  7 29  1  0  0  0  0
  7 30  1  0  0  0  0
  8 31  1  0  0  0  0
  8 32  1  0  0  0  0
  9 33  1  0  0  0  0
  9 34  1  0  0  0  0
 10 35  1  0  0  0  0
 10 36  1  0  0  0  0
 11 37  1  0  0  0  0
 12 38  1  0  0  0  0
 14 39  1  0  0  0  0
 14 40  1  0  0  0  0
 14 41  1  0  0  0  0
 15 42  1  0  0  0  0
 15 43  1  0  0  0  0
 15 44  1  0  0  0  0
 16 45  1  0  0  0  0
 16 46  1  0  0  0  0
 16 47  1  0  0  0  0
 19 48  1  0  0  0  0
 20 49  1  0  0  0  0
M  END
> <id>
EN300-1074732

> <smiles>
CC(C)(C)OC(=O)N1CC2CC1CC3(C2)NCCC=4N=CNC43

> <IUPAC Name>
tert-butyl 3',5',6',7'-tetrahydro-6-azaspiro[bicyclo[3.2.1]octane-3,4'-imidazo[4,5-c]pyridine]-6-carboxylate

> <URL>
https://www.enaminestore.com/catalog/EN300-1074732

> <ROCS_ShapeQuery>
A71EV2A-x0451_0A_A71EV2A-x0310_0A_A71EV2A-x0416_0A_peptide

> <ROCS_TanimotoCombo>
0.521 

> <ROCS_ShapeTanimoto>
0.324 

> <ROCS_ColorTanimoto>
0.196 

> <ROCS_RefTversky>
0.293 

> <ROCS_RefColorTversky>
0.248 

> <ROCS_RefTverskyCombo>
0.541 

> <ROCS_FitTversky>
1.484 

> <ROCS_FitColorTversky>
0.488 

> <ROCS_FitTverskyCombo>
1.972 

> <ROCS_ColorScore>
-7.640

> <ROCS_Overlap>
2037.411

> <ROCS_Rank>
34                  

$$$$
untitled-dbase-45679_2
  -OEChem-11132313473D

 41 43  0     0  0  0  0  0  0999 V2000
    6.7432   10.5499   25.6220 C   0  0  0  0  0  0  0  0  0  0  0  0
    6.2645   11.6361   26.3440 C   0  0  0  0  0  0  0  0  0  0  0  0
    7.8861   13.0623   25.2451 C   0  0  0  0  0  0  0  0  0  0  0  0
    8.3933   11.9803   24.5107 C   0  0  0  0  0  0  0  0  0  0  0  0
    7.7993   10.7246   24.7227 C   0  0  0  0  0  0  0  0  0  0  0  0
    6.8353   12.8900   26.1550 C   0  0  0  0  0  0  0  0  0  0  0  0
   10.2526   13.2562   23.4103 C   0  0  0  0  0  0  0  0  0  0  0  0
   11.3403    8.5171   23.2884 C   0  0  0  0  0  0  0  0  0  0  0  0
    9.9350    8.3981   22.6753 C   0  0  0  0  0  0  0  0  0  0  0  0
   10.7240    9.3683   24.4106 C   0  0  0  0  0  0  0  0  0  0  0  0
    9.6291   10.9572   22.6328 C   0  0  0  0  0  0  0  0  0  0  0  0
    9.5258    9.6824   23.4588 C   0  0  0  0  0  0  0  0  0  0  0  0
   12.7663   14.4524   22.7158 C   0  0  0  0  0  0  0  0  0  0  0  0
   11.8322   14.6249   20.3905 C   0  0  0  0  0  0  0  0  0  0  0  0
   10.7241   15.8567   22.2780 C   0  0  0  0  0  0  0  0  0  0  0  0
   11.4957   14.5994   21.8799 C   0  0  0  0  0  0  0  0  0  0  0  0
    9.4505   12.1045   23.5409 N   0  0  0  0  0  0  0  0  0  0  0  0
   10.5860   14.0138   24.3177 O   0  0  0  0  0  0  0  0  0  0  0  0
    8.2174    9.5939   24.0643 O   0  0  0  0  0  0  0  0  0  0  0  0
   10.6612   13.4587   22.1144 O   0  0  0  0  0  0  0  0  0  0  0  0
    6.1736   14.3761   27.1219 Br  0  0  0  0  0  0  0  0  0  0  0  0
    6.2989    9.5689   25.7668 H   0  0  0  0  0  0  0  0  0  0  0  0
    5.4463   11.4900   27.0440 H   0  0  0  0  0  0  0  0  0  0  0  0
    8.2619   14.0695   25.1039 H   0  0  0  0  0  0  0  0  0  0  0  0
   11.8000    7.5773   23.6050 H   0  0  0  0  0  0  0  0  0  0  0  0
   12.0514    9.0646   22.6597 H   0  0  0  0  0  0  0  0  0  0  0  0
    9.8978    8.4610   21.5839 H   0  0  0  0  0  0  0  0  0  0  0  0
    9.3940    7.4976   22.9896 H   0  0  0  0  0  0  0  0  0  0  0  0
   10.4428    8.7886   25.2979 H   0  0  0  0  0  0  0  0  0  0  0  0
   11.3317   10.2196   24.7303 H   0  0  0  0  0  0  0  0  0  0  0  0
   10.5919   11.0088   22.1163 H   0  0  0  0  0  0  0  0  0  0  0  0
    8.8415   11.0081   21.8710 H   0  0  0  0  0  0  0  0  0  0  0  0
   12.5290   14.4337   23.7855 H   0  0  0  0  0  0  0  0  0  0  0  0
   13.3108   13.5364   22.4643 H   0  0  0  0  0  0  0  0  0  0  0  0
   13.4361   15.3063   22.5627 H   0  0  0  0  0  0  0  0  0  0  0  0
   10.9235   14.7303   19.7869 H   0  0  0  0  0  0  0  0  0  0  0  0
   12.3015   13.6843   20.0802 H   0  0  0  0  0  0  0  0  0  0  0  0
   12.5099   15.4485   20.1435 H   0  0  0  0  0  0  0  0  0  0  0  0
    9.8126   15.9624   21.6786 H   0  0  0  0  0  0  0  0  0  0  0  0
   10.4419   15.8388   23.3357 H   0  0  0  0  0  0  0  0  0  0  0  0
   11.3222   16.7562   22.0924 H   0  0  0  0  0  0  0  0  0  0  0  0
  1  2  1  0  0  0  0
  1  5  2  0  0  0  0
  2  6  2  0  0  0  0
  3  4  2  0  0  0  0
  3  6  1  0  0  0  0
  4  5  1  0  0  0  0
  4 17  1  0  0  0  0
  5 19  1  0  0  0  0
  6 21  1  0  0  0  0
  7 17  1  0  0  0  0
  7 18  2  0  0  0  0
  7 20  1  0  0  0  0
  8  9  1  0  0  0  0
  8 10  1  0  0  0  0
  9 12  1  0  0  0  0
 10 12  1  0  0  0  0
 11 12  1  0  0  0  0
 11 17  1  0  0  0  0
 12 19  1  0  0  0  0
 13 16  1  0  0  0  0
 14 16  1  0  0  0  0
 15 16  1  0  0  0  0
 16 20  1  0  0  0  0
  1 22  1  0  0  0  0
  2 23  1  0  0  0  0
  3 24  1  0  0  0  0
  8 25  1  0  0  0  0
  8 26  1  0  0  0  0
  9 27  1  0  0  0  0
  9 28  1  0  0  0  0
 10 29  1  0  0  0  0
 10 30  1  0  0  0  0
 11 31  1  0  0  0  0
 11 32  1  0  0  0  0
 13 33  1  0  0  0  0
 13 34  1  0  0  0  0
 13 35  1  0  0  0  0
 14 36  1  0  0  0  0
 14 37  1  0  0  0  0
 14 38  1  0  0  0  0
 15 39  1  0  0  0  0
 15 40  1  0  0  0  0
 15 41  1  0  0  0  0
M  END
> <id>
EN300-28298988

> <smiles>
CC(C)(C)OC(=O)N1CC2(CCC2)OC=3C=CC(Br)=CC13

> <IUPAC Name>
tert-butyl 6-bromo-3,4-dihydrospiro[1,4-benzoxazine-2,1'-cyclobutane]-4-carboxylate

> <CAS>
2680795-22-4

> <URL>
https://www.enaminestore.com/catalog/EN300-28298988

> <ROCS_ShapeQuery>
A71EV2A-x0451_0A_A71EV2A-x0310_0A_A71EV2A-x0416_0A_peptide

> <ROCS_TanimotoCombo>
0.520 

> <ROCS_ShapeTanimoto>
0.370 

> <ROCS_ColorTanimoto>
0.150 

> <ROCS_RefTversky>
0.319 

> <ROCS_RefColorTversky>
0.166 

> <ROCS_RefTverskyCombo>
0.485 

> <ROCS_FitTversky>
1.761 

> <ROCS_FitColorTversky>
0.613 

> <ROCS_FitTverskyCombo>
2.375 

> <ROCS_ColorScore>
-5.057

> <ROCS_Overlap>
2215.994

> <ROCS_Rank>
35                  

$$$$
untitled-dbase-14796_7
  -OEChem-11132313473D

 38 40  0     0  0  0  0  0  0999 V2000
    6.8697   12.8779   26.1727 C   0  0  0  0  0  0  0  0  0  0  0  0
    7.9429   13.0406   25.2870 C   0  0  0  0  0  0  0  0  0  0  0  0
    6.2585   11.6389   26.3196 C   0  0  0  0  0  0  0  0  0  0  0  0
    8.4368   11.9645   24.5331 C   0  0  0  0  0  0  0  0  0  0  0  0
    7.8007   10.7185   24.7041 C   0  0  0  0  0  0  0  0  0  0  0  0
    6.7208   10.5578   25.5806 C   0  0  0  0  0  0  0  0  0  0  0  0
   10.2900   13.2602   23.4219 C   0  0  0  0  0  0  0  0  0  0  0  0
   10.0702    8.3606   22.9758 C   0  0  0  0  0  0  0  0  0  0  0  0
   10.5922    8.9724   24.2448 C   0  0  0  0  0  0  0  0  0  0  0  0
    9.7607   10.9197   22.7294 C   0  0  0  0  0  0  0  0  0  0  0  0
    9.4928    9.6595   23.4751 C   0  0  0  0  0  0  0  0  0  0  0  0
   12.7716   14.5113   22.7051 C   0  0  0  0  0  0  0  0  0  0  0  0
   11.8651   14.5473   20.3628 C   0  0  0  0  0  0  0  0  0  0  0  0
   10.6890   15.8230   22.1787 C   0  0  0  0  0  0  0  0  0  0  0  0
   11.5086   14.5767   21.8475 C   0  0  0  0  0  0  0  0  0  0  0  0
    9.5199   12.0905   23.5881 N   0  0  0  0  0  0  0  0  0  0  0  0
   10.5856   14.0696   24.2964 O   0  0  0  0  0  0  0  0  0  0  0  0
    8.1723    9.5792   24.0298 O   0  0  0  0  0  0  0  0  0  0  0  0
   10.7103   13.4192   22.1227 O   0  0  0  0  0  0  0  0  0  0  0  0
    5.8370    8.8893   25.7945 Br  0  0  0  0  0  0  0  0  0  0  0  0
    6.5204   13.7255   26.7562 H   0  0  0  0  0  0  0  0  0  0  0  0
    8.3754   14.0327   25.2469 H   0  0  0  0  0  0  0  0  0  0  0  0
    5.4300   11.5364   27.0150 H   0  0  0  0  0  0  0  0  0  0  0  0
   10.7134    8.3817   22.1040 H   0  0  0  0  0  0  0  0  0  0  0  0
    9.4651    7.4654   23.0599 H   0  0  0  0  0  0  0  0  0  0  0  0
   10.3372    8.4872   25.1788 H   0  0  0  0  0  0  0  0  0  0  0  0
   11.5859    9.4025   24.2234 H   0  0  0  0  0  0  0  0  0  0  0  0
   10.8077   10.9624   22.4061 H   0  0  0  0  0  0  0  0  0  0  0  0
    9.1378   10.9700   21.8301 H   0  0  0  0  0  0  0  0  0  0  0  0
   12.5199   14.5322   23.7715 H   0  0  0  0  0  0  0  0  0  0  0  0
   13.3505   13.6045   22.5021 H   0  0  0  0  0  0  0  0  0  0  0  0
   13.4140   15.3803   22.5220 H   0  0  0  0  0  0  0  0  0  0  0  0
   10.9620   14.5940   19.7437 H   0  0  0  0  0  0  0  0  0  0  0  0
   12.3706   13.6106   20.1012 H   0  0  0  0  0  0  0  0  0  0  0  0
   12.5178   15.3820   20.0874 H   0  0  0  0  0  0  0  0  0  0  0  0
    9.7831   15.8701   21.5636 H   0  0  0  0  0  0  0  0  0  0  0  0
   10.3927   15.8425   23.2325 H   0  0  0  0  0  0  0  0  0  0  0  0
   11.2588   16.7334   21.9602 H   0  0  0  0  0  0  0  0  0  0  0  0
  1  2  1  0  0  0  0
  1  3  2  0  0  0  0
  2  4  2  0  0  0  0
  3  6  1  0  0  0  0
  4  5  1  0  0  0  0
  4 16  1  0  0  0  0
  5  6  2  0  0  0  0
  5 18  1  0  0  0  0
  6 20  1  0  0  0  0
  7 16  1  0  0  0  0
  7 17  2  0  0  0  0
  7 19  1  0  0  0  0
  8  9  1  0  0  0  0
  8 11  1  0  0  0  0
  9 11  1  0  0  0  0
 10 11  1  0  0  0  0
 10 16  1  0  0  0  0
 11 18  1  0  0  0  0
 12 15  1  0  0  0  0
 13 15  1  0  0  0  0
 14 15  1  0  0  0  0
 15 19  1  0  0  0  0
  1 21  1  0  0  0  0
  2 22  1  0  0  0  0
  3 23  1  0  0  0  0
  8 24  1  0  0  0  0
  8 25  1  0  0  0  0
  9 26  1  0  0  0  0
  9 27  1  0  0  0  0
 10 28  1  0  0  0  0
 10 29  1  0  0  0  0
 12 30  1  0  0  0  0
 12 31  1  0  0  0  0
 12 32  1  0  0  0  0
 13 33  1  0  0  0  0
 13 34  1  0  0  0  0
 13 35  1  0  0  0  0
 14 36  1  0  0  0  0
 14 37  1  0  0  0  0
 14 38  1  0  0  0  0
M  END
> <id>
EN300-1129122

> <smiles>
CC(C)(C)OC(=O)N1CC2(CC2)OC=3C(Br)=CC=CC13

> <IUPAC Name>
tert-butyl 8-bromo-3,4-dihydrospiro[1,4-benzoxazine-2,1'-cyclopropane]-4-carboxylate

> <CAS>
2138001-71-3

> <URL>
https://www.enaminestore.com/catalog/EN300-1129122

> <ROCS_ShapeQuery>
A71EV2A-x0451_0A_A71EV2A-x0310_0A_A71EV2A-x0416_0A_peptide

> <ROCS_TanimotoCombo>
0.520 

> <ROCS_ShapeTanimoto>
0.366 

> <ROCS_ColorTanimoto>
0.154 

> <ROCS_RefTversky>
0.315 

> <ROCS_RefColorTversky>
0.166 

> <ROCS_RefTverskyCombo>
0.481 

> <ROCS_FitTversky>
1.797 

> <ROCS_FitColorTversky>
0.692 

> <ROCS_FitTverskyCombo>
2.489 

> <ROCS_ColorScore>
-5.046

> <ROCS_Overlap>
2185.312

> <ROCS_Rank>
36                  

$$$$
untitled-dbase-45532_2
  -OEChem-11132313473D

 40 41  0     0  0  0  0  0  0999 V2000
    7.8982   13.0609   25.2556 C   0  0  0  0  0  0  0  0  0  0  0  0
    6.8362   12.8877   26.1509 C   0  0  0  0  0  0  0  0  0  0  0  0
    6.7408   10.5548   25.5940 C   0  0  0  0  0  0  0  0  0  0  0  0
    8.4080   11.9824   24.5161 C   0  0  0  0  0  0  0  0  0  0  0  0
    7.8117   10.7226   24.7069 C   0  0  0  0  0  0  0  0  0  0  0  0
    6.2566   11.6365   26.3196 C   0  0  0  0  0  0  0  0  0  0  0  0
   10.2611   13.2717   23.4130 C   0  0  0  0  0  0  0  0  0  0  0  0
    9.6415   10.9607   22.6692 C   0  0  0  0  0  0  0  0  0  0  0  0
    9.4821    9.6373   23.4189 C   0  0  0  0  0  0  0  0  0  0  0  0
   10.6011    9.4018   24.4453 C   0  0  0  0  0  0  0  0  0  0  0  0
    9.4961    8.4839   22.4058 C   0  0  0  0  0  0  0  0  0  0  0  0
   12.7615   14.4787   22.6902 C   0  0  0  0  0  0  0  0  0  0  0  0
   11.8121   14.6194   20.3690 C   0  0  0  0  0  0  0  0  0  0  0  0
   10.7064   15.8633   22.2500 C   0  0  0  0  0  0  0  0  0  0  0  0
   11.4848   14.6074   21.8606 C   0  0  0  0  0  0  0  0  0  0  0  0
    9.4687   12.1177   23.5581 N   0  0  0  0  0  0  0  0  0  0  0  0
   10.5940   14.0410   24.3106 O   0  0  0  0  0  0  0  0  0  0  0  0
    8.2067    9.5752   24.0679 O   0  0  0  0  0  0  0  0  0  0  0  0
   10.6602   13.4632   22.1124 O   0  0  0  0  0  0  0  0  0  0  0  0
    4.8181   11.4088   27.5223 Br  0  0  0  0  0  0  0  0  0  0  0  0
    8.2705   14.0725   25.1444 H   0  0  0  0  0  0  0  0  0  0  0  0
    6.4674   13.7508   26.7001 H   0  0  0  0  0  0  0  0  0  0  0  0
    6.2975    9.5688   25.7171 H   0  0  0  0  0  0  0  0  0  0  0  0
   10.6181   10.9889   22.1747 H   0  0  0  0  0  0  0  0  0  0  0  0
    8.8756   11.0646   21.8889 H   0  0  0  0  0  0  0  0  0  0  0  0
   10.4371    8.4519   24.9448 H   0  0  0  0  0  0  0  0  0  0  0  0
   10.5929   10.2038   25.1769 H   0  0  0  0  0  0  0  0  0  0  0  0
   11.5593    9.3841   23.9352 H   0  0  0  0  0  0  0  0  0  0  0  0
    9.3833    7.5401   22.9314 H   0  0  0  0  0  0  0  0  0  0  0  0
   10.4389    8.4883   21.8665 H   0  0  0  0  0  0  0  0  0  0  0  0
    8.6762    8.6091   21.7045 H   0  0  0  0  0  0  0  0  0  0  0  0
   12.5309   14.4697   23.7615 H   0  0  0  0  0  0  0  0  0  0  0  0
   13.3113   13.5641   22.4452 H   0  0  0  0  0  0  0  0  0  0  0  0
   13.4241   15.3358   22.5238 H   0  0  0  0  0  0  0  0  0  0  0  0
   10.8989   14.7117   19.7699 H   0  0  0  0  0  0  0  0  0  0  0  0
   12.2864   13.6790   20.0659 H   0  0  0  0  0  0  0  0  0  0  0  0
   12.4822   15.4452   20.1090 H   0  0  0  0  0  0  0  0  0  0  0  0
    9.7905   15.9559   21.6551 H   0  0  0  0  0  0  0  0  0  0  0  0
   10.4308   15.8546   23.3096 H   0  0  0  0  0  0  0  0  0  0  0  0
   11.2967   16.7650   22.0512 H   0  0  0  0  0  0  0  0  0  0  0  0
  1  2  1  0  0  0  0
  1  4  2  0  0  0  0
  2  6  2  0  0  0  0
  3  5  2  0  0  0  0
  3  6  1  0  0  0  0
  4  5  1  0  0  0  0
  4 16  1  0  0  0  0
  5 18  1  0  0  0  0
  6 20  1  0  0  0  0
  7 16  1  0  0  0  0
  7 17  2  0  0  0  0
  7 19  1  0  0  0  0
  8  9  1  0  0  0  0
  8 16  1  0  0  0  0
  9 10  1  0  0  0  0
  9 11  1  0  0  0  0
  9 18  1  0  0  0  0
 12 15  1  0  0  0  0
 13 15  1  0  0  0  0
 14 15  1  0  0  0  0
 15 19  1  0  0  0  0
  1 21  1  0  0  0  0
  2 22  1  0  0  0  0
  3 23  1  0  0  0  0
  8 24  1  0  0  0  0
  8 25  1  0  0  0  0
 10 26  1  0  0  0  0
 10 27  1  0  0  0  0
 10 28  1  0  0  0  0
 11 29  1  0  0  0  0
 11 30  1  0  0  0  0
 11 31  1  0  0  0  0
 12 32  1  0  0  0  0
 12 33  1  0  0  0  0
 12 34  1  0  0  0  0
 13 35  1  0  0  0  0
 13 36  1  0  0  0  0
 13 37  1  0  0  0  0
 14 38  1  0  0  0  0
 14 39  1  0  0  0  0
 14 40  1  0  0  0  0
M  END
> <id>
EN300-28297353

> <smiles>
CC(C)(C)OC(=O)N1CC(C)(C)OC=2C=C(Br)C=CC12

> <IUPAC Name>
tert-butyl 7-bromo-2,2-dimethyl-3,4-dihydro-2H-1,4-benzoxazine-4-carboxylate

> <CAS>
2680783-07-5

> <URL>
https://www.enaminestore.com/catalog/EN300-28297353

> <ROCS_ShapeQuery>
A71EV2A-x0451_0A_A71EV2A-x0310_0A_A71EV2A-x0416_0A_peptide

> <ROCS_TanimotoCombo>
0.520 

> <ROCS_ShapeTanimoto>
0.370 

> <ROCS_ColorTanimoto>
0.150 

> <ROCS_RefTversky>
0.317 

> <ROCS_RefColorTversky>
0.166 

> <ROCS_RefTverskyCombo>
0.483 

> <ROCS_FitTversky>
1.825 

> <ROCS_FitColorTversky>
0.614 

> <ROCS_FitTverskyCombo>
2.439 

> <ROCS_ColorScore>
-5.059

> <ROCS_Overlap>
2199.300

> <ROCS_Rank>
37                  

$$$$
untitled-dbase-30834_99
  -OEChem-11132313473D

 38 39  0     1  0  0  0  0  0999 V2000
    7.9275   13.0189   24.9875 C   0  0  0  0  0  0  0  0  0  0  0  0
    6.8655   12.8488   25.8797 C   0  0  0  0  0  0  0  0  0  0  0  0
    7.0514   10.4719   25.6320 C   0  0  0  0  0  0  0  0  0  0  0  0
    8.1009   10.6223   24.7008 C   0  0  0  0  0  0  0  0  0  0  0  0
    8.5914   11.9217   24.4067 C   0  0  0  0  0  0  0  0  0  0  0  0
    6.4377   11.5755   26.2150 C   0  0  0  0  0  0  0  0  0  0  0  0
   10.4638   13.3077   23.4393 C   0  0  0  0  0  0  0  0  0  0  0  0
    9.2711    9.7680   22.6972 C   0  0  0  0  0  0  0  0  0  0  0  0
   10.2493   10.9183   22.8215 C   0  0  0  0  0  0  0  0  0  0  0  0
    8.7358    9.3937   24.0731 C   0  0  2  0  0  0  0  0  0  0  0  0
   12.2034   15.4978   22.7890 C   0  0  0  0  0  0  0  0  0  0  0  0
   12.1836   14.5800   20.4510 C   0  0  0  0  0  0  0  0  0  0  0  0
   10.0472   15.3883   21.4954 C   0  0  0  0  0  0  0  0  0  0  0  0
   11.3961   14.7180   21.7522 C   0  0  0  0  0  0  0  0  0  0  0  0
    9.7340   12.0962   23.5337 N   0  0  0  0  0  0  0  0  0  0  0  0
    7.8200    8.2619   23.8903 N   0  0  0  0  0  0  0  0  0  0  0  0
   10.5289   14.1937   24.2866 O   0  0  0  0  0  0  0  0  0  0  0  0
   11.1609   13.3977   22.2564 O   0  0  0  0  0  0  0  0  0  0  0  0
    5.0263   11.3370   27.4480 Br  0  0  0  0  0  0  0  0  0  0  0  0
    8.1903   14.0464   24.7746 H   0  0  0  0  0  0  0  0  0  0  0  0
    6.3838   13.7273   26.2984 H   0  0  0  0  0  0  0  0  0  0  0  0
    6.7157    9.4684   25.8960 H   0  0  0  0  0  0  0  0  0  0  0  0
    8.4539   10.0403   22.0244 H   0  0  0  0  0  0  0  0  0  0  0  0
    9.7778    8.9081   22.2479 H   0  0  0  0  0  0  0  0  0  0  0  0
   11.1435   10.5365   23.3389 H   0  0  0  0  0  0  0  0  0  0  0  0
   10.5934   11.2636   21.8326 H   0  0  0  0  0  0  0  0  0  0  0  0
    9.5917    9.0597   24.6653 H   0  0  0  0  0  0  0  0  0  0  0  0
   11.6416   15.5990   23.7245 H   0  0  0  0  0  0  0  0  0  0  0  0
   13.1582   15.0087   23.0080 H   0  0  0  0  0  0  0  0  0  0  0  0
   12.4083   16.5163   22.4398 H   0  0  0  0  0  0  0  0  0  0  0  0
   11.6082   14.0212   19.7041 H   0  0  0  0  0  0  0  0  0  0  0  0
   13.1092   14.0159   20.6129 H   0  0  0  0  0  0  0  0  0  0  0  0
   12.4421   15.5569   20.0296 H   0  0  0  0  0  0  0  0  0  0  0  0
    9.4680   14.8291   20.7517 H   0  0  0  0  0  0  0  0  0  0  0  0
    9.4528   15.4625   22.4118 H   0  0  0  0  0  0  0  0  0  0  0  0
   10.1843   16.3959   21.0867 H   0  0  0  0  0  0  0  0  0  0  0  0
    6.9461    8.5089   24.2869 H   0  0  0  0  0  0  0  0  0  0  0  0
    7.7330    8.0939   22.9176 H   0  0  0  0  0  0  0  0  0  0  0  0
  1  2  1  0  0  0  0
  1  5  2  0  0  0  0
  2  6  2  0  0  0  0
  3  4  2  0  0  0  0
  3  6  1  0  0  0  0
  4  5  1  0  0  0  0
  4 10  1  0  0  0  0
  5 15  1  0  0  0  0
  6 19  1  0  0  0  0
  7 15  1  0  0  0  0
  7 17  2  0  0  0  0
  7 18  1  0  0  0  0
  8  9  1  0  0  0  0
  8 10  1  0  0  0  0
  9 15  1  0  0  0  0
 10 16  1  0  0  0  0
 11 14  1  0  0  0  0
 12 14  1  0  0  0  0
 13 14  1  0  0  0  0
 14 18  1  0  0  0  0
  1 20  1  0  0  0  0
  2 21  1  0  0  0  0
  3 22  1  0  0  0  0
  8 23  1  0  0  0  0
  8 24  1  0  0  0  0
  9 25  1  0  0  0  0
  9 26  1  0  0  0  0
 10 27  1  0  0  0  0
 11 28  1  0  0  0  0
 11 29  1  0  0  0  0
 11 30  1  0  0  0  0
 12 31  1  0  0  0  0
 12 32  1  0  0  0  0
 12 33  1  0  0  0  0
 13 34  1  0  0  0  0
 13 35  1  0  0  0  0
 13 36  1  0  0  0  0
 16 37  1  0  0  0  0
 16 38  1  0  0  0  0
M  END
> <id>
EN300-631694

> <smiles>
CC(C)(C)OC(=O)N1CCC(N)C=2C=C(Br)C=CC12

> <MDLNUMBER>
MFCD20923672

> <IUPAC Name>
tert-butyl 4-amino-6-bromo-1,2,3,4-tetrahydroquinoline-1-carboxylate

> <CAS>
1824468-65-6

> <Purity>
95

> <URL>
https://www.enaminestore.com/catalog/EN300-631694

> <ROCS_ShapeQuery>
A71EV2A-x0451_0A_A71EV2A-x0310_0A_A71EV2A-x0416_0A_peptide

> <ROCS_TanimotoCombo>
0.520 

> <ROCS_ShapeTanimoto>
0.357 

> <ROCS_ColorTanimoto>
0.163 

> <ROCS_RefTversky>
0.307 

> <ROCS_RefColorTversky>
0.178 

> <ROCS_RefTverskyCombo>
0.485 

> <ROCS_FitTversky>
1.844 

> <ROCS_FitColorTversky>
0.660 

> <ROCS_FitTverskyCombo>
2.504 

> <ROCS_ColorScore>
-5.437

> <ROCS_Overlap>
2127.550

> <ROCS_Rank>
38                  

$$$$
untitled-dbase-27958_25
  -OEChem-11132313473D

 42 45  0     1  0  0  0  0  0999 V2000
   10.4815   14.4222   22.7115 C   0  0  0  0  0  0  0  0  0  0  0  0
    8.3456    9.6117   24.1163 C   0  0  0  0  0  0  0  0  0  0  0  0
    9.6760   12.2537   21.7957 C   0  0  0  0  0  0  0  0  0  0  0  0
   11.0714   12.2008   23.7591 C   0  0  0  0  0  0  0  0  0  0  0  0
    8.0073   10.6900   23.0651 C   0  0  2  0  0  0  0  0  0  0  0  0
    9.3494   10.5337   24.8542 C   0  0  2  0  0  0  0  0  0  0  0  0
    9.4216   10.9044   22.4494 C   0  0  2  0  0  0  0  0  0  0  0  0
    7.6234   11.8837   23.9280 C   0  0  2  0  0  0  0  0  0  0  0  0
    8.5037   11.7755   25.1244 C   0  0  1  0  0  0  0  0  0  0  0  0
   10.3696   10.8354   23.7008 C   0  0  1  0  0  0  0  0  0  0  0  0
   11.4164    9.7204   23.5772 C   0  0  0  0  0  0  0  0  0  0  0  0
   12.8288   15.0934   21.7602 C   0  0  0  0  0  0  0  0  0  0  0  0
   11.7839   15.3566   19.4913 C   0  0  0  0  0  0  0  0  0  0  0  0
   11.3750   17.0873   21.2649 C   0  0  0  0  0  0  0  0  0  0  0  0
   11.6126   15.6034   20.9886 C   0  0  0  0  0  0  0  0  0  0  0  0
   10.3856   13.0415   22.7870 N   0  0  0  0  0  0  0  0  0  0  0  0
   10.5729   15.1626   23.6882 O   0  0  0  0  0  0  0  0  0  0  0  0
    7.0838   11.6131   25.2263 O   0  0  0  0  0  0  0  0  0  0  0  0
   10.4603   14.8696   21.4176 O   0  0  0  0  0  0  0  0  0  0  0  0
    7.4888    9.3229   24.7343 H   0  0  0  0  0  0  0  0  0  0  0  0
    8.7843    8.7061   23.6882 H   0  0  0  0  0  0  0  0  0  0  0  0
   10.3541   12.1409   20.9417 H   0  0  0  0  0  0  0  0  0  0  0  0
    8.7753   12.7646   21.4427 H   0  0  0  0  0  0  0  0  0  0  0  0
   11.0746   12.6594   24.7520 H   0  0  0  0  0  0  0  0  0  0  0  0
   12.1157   12.1421   23.4291 H   0  0  0  0  0  0  0  0  0  0  0  0
    7.2401   10.4044   22.3429 H   0  0  0  0  0  0  0  0  0  0  0  0
    9.7888   10.1021   25.7561 H   0  0  0  0  0  0  0  0  0  0  0  0
    9.6328   10.0923   21.7421 H   0  0  0  0  0  0  0  0  0  0  0  0
    7.4344   12.8279   23.4483 H   0  0  0  0  0  0  0  0  0  0  0  0
    8.9737   12.6363   25.5655 H   0  0  0  0  0  0  0  0  0  0  0  0
   10.9161    8.7570   23.5363 H   0  0  0  0  0  0  0  0  0  0  0  0
   12.0784    9.7484   24.4381 H   0  0  0  0  0  0  0  0  0  0  0  0
   11.9956    9.8667   22.6697 H   0  0  0  0  0  0  0  0  0  0  0  0
   12.7097   15.2687   22.8354 H   0  0  0  0  0  0  0  0  0  0  0  0
   12.9894   14.0226   21.5982 H   0  0  0  0  0  0  0  0  0  0  0  0
   13.7362   15.6291   21.4583 H   0  0  0  0  0  0  0  0  0  0  0  0
   10.9135   15.7210   18.9337 H   0  0  0  0  0  0  0  0  0  0  0  0
   11.8598   14.2841   19.2786 H   0  0  0  0  0  0  0  0  0  0  0  0
   12.6784   15.8518   19.0999 H   0  0  0  0  0  0  0  0  0  0  0  0
   10.5026   17.4534   20.7115 H   0  0  0  0  0  0  0  0  0  0  0  0
   11.2131   17.2783   22.3307 H   0  0  0  0  0  0  0  0  0  0  0  0
   12.2283   17.6877   20.9292 H   0  0  0  0  0  0  0  0  0  0  0  0
  1 16  1  0  0  0  0
  1 17  2  0  0  0  0
  1 19  1  0  0  0  0
  2  5  1  0  0  0  0
  2  6  1  0  0  0  0
  3  7  1  1  0  0  0
  3 16  1  0  0  0  0
  4 10  1  0  0  0  0
  4 16  1  0  0  0  0
  5  7  1  0  0  0  0
  5  8  1  1  0  0  0
  6  9  1  1  0  0  0
  6 10  1  0  0  0  0
  7 10  1  0  0  0  0
  8  9  1  0  0  0  0
  8 18  1  0  0  0  0
  9 18  1  0  0  0  0
 10 11  1  6  0  0  0
 12 15  1  0  0  0  0
 13 15  1  0  0  0  0
 14 15  1  0  0  0  0
 15 19  1  0  0  0  0
  2 20  1  0  0  0  0
  2 21  1  0  0  0  0
  3 22  1  0  0  0  0
  3 23  1  0  0  0  0
  4 24  1  0  0  0  0
  4 25  1  0  0  0  0
  5 26  1  0  0  0  0
  6 27  1  0  0  0  0
  7 28  1  0  0  0  0
  8 29  1  0  0  0  0
  9 30  1  0  0  0  0
 11 31  1  0  0  0  0
 11 32  1  0  0  0  0
 11 33  1  0  0  0  0
 12 34  1  0  0  0  0
 12 35  1  0  0  0  0
 12 36  1  0  0  0  0
 13 37  1  0  0  0  0
 13 38  1  0  0  0  0
 13 39  1  0  0  0  0
 14 40  1  0  0  0  0
 14 41  1  0  0  0  0
 14 42  1  0  0  0  0
M  END
> <id>
EN300-1708372

> <smiles>
CC(C)(C)OC(=O)N1C[C@@H]2[C@H]3C[C@H](C4OC43)[C@]2(C)C1 |&1:9,10,12,16,r|

> <IUPAC Name>
rac-tert-butyl (1R,2S,6S,7S)-2-methyl-9-oxa-4-azatetracyclo[5.3.1.0^{2,6}.0^{8,10}]undecane-4-carboxylate

> <CAS>
2219360-80-0

> <URL>
https://www.enaminestore.com/catalog/EN300-1708372

> <ROCS_ShapeQuery>
A71EV2A-x0451_0A_A71EV2A-x0310_0A_A71EV2A-x0416_0A_peptide

> <ROCS_TanimotoCombo>
0.520 

> <ROCS_ShapeTanimoto>
0.306 

> <ROCS_ColorTanimoto>
0.214 

> <ROCS_RefTversky>
0.275 

> <ROCS_RefColorTversky>
0.299 

> <ROCS_RefTverskyCombo>
0.574 

> <ROCS_FitTversky>
1.596 

> <ROCS_FitColorTversky>
0.428 

> <ROCS_FitTverskyCombo>
2.024 

> <ROCS_ColorScore>
-9.333

> <ROCS_Overlap>
1906.505

> <ROCS_Rank>
39                  

$$$$
untitled-dbase-45751_2
  -OEChem-11132313473D

 40 41  0     1  0  0  0  0  0999 V2000
    8.2460   14.1704   25.5729 C   0  0  0  0  0  0  0  0  0  0  0  0
    6.9560   12.0512   25.7684 C   0  0  0  0  0  0  0  0  0  0  0  0
    8.0102   12.8123   25.2277 C   0  0  0  0  0  0  0  0  0  0  0  0
    8.6343   11.9731   24.3279 C   0  0  0  0  0  0  0  0  0  0  0  0
   10.4052   13.3348   23.3998 C   0  0  0  0  0  0  0  0  0  0  0  0
    9.7054    9.6318   23.1614 C   0  0  0  0  0  0  0  0  0  0  0  0
    8.2566    9.5744   23.6665 C   0  0  1  0  0  0  0  0  0  0  0  0
   10.0526   10.9894   22.5293 C   0  0  1  0  0  0  0  0  0  0  0  0
    9.3677   11.1783   21.1715 C   0  0  0  0  0  0  0  0  0  0  0  0
   12.8201   14.8020   22.9080 C   0  0  0  0  0  0  0  0  0  0  0  0
   12.0303   14.9457   20.5280 C   0  0  0  0  0  0  0  0  0  0  0  0
   10.6760   16.0011   22.3610 C   0  0  0  0  0  0  0  0  0  0  0  0
    8.0362    8.2876   24.4658 C   0  0  0  0  0  0  0  0  0  0  0  0
   11.5997   14.8420   21.9895 C   0  0  0  0  0  0  0  0  0  0  0  0
    8.4386   15.2796   25.8549 N   0  0  0  0  0  0  0  0  0  0  0  0
    6.9038   10.8168   25.2687 N   0  0  0  0  0  0  0  0  0  0  0  0
    7.9529   10.7811   24.4263 N   0  0  0  0  0  0  0  0  0  0  0  0
    9.7111   12.1104   23.4428 N   0  0  0  0  0  0  0  0  0  0  0  0
   10.5944   14.0935   24.3477 O   0  0  0  0  0  0  0  0  0  0  0  0
   10.8754   13.6153   22.1400 O   0  0  0  0  0  0  0  0  0  0  0  0
    8.2674    7.2214   23.6869 F   0  0  0  0  0  0  0  0  0  0  0  0
    8.8710    8.2528   25.5139 F   0  0  0  0  0  0  0  0  0  0  0  0
    6.7728    8.2380   24.9111 F   0  0  0  0  0  0  0  0  0  0  0  0
    6.2148   12.3443   26.4989 H   0  0  0  0  0  0  0  0  0  0  0  0
   10.3942    9.4588   24.0003 H   0  0  0  0  0  0  0  0  0  0  0  0
    9.8840    8.8225   22.4427 H   0  0  0  0  0  0  0  0  0  0  0  0
    7.5645    9.5818   22.8156 H   0  0  0  0  0  0  0  0  0  0  0  0
   11.1371   10.9873   22.3593 H   0  0  0  0  0  0  0  0  0  0  0  0
    8.2893   11.1848   21.3065 H   0  0  0  0  0  0  0  0  0  0  0  0
    9.6439   10.3625   20.5089 H   0  0  0  0  0  0  0  0  0  0  0  0
    9.6828   12.1219   20.7340 H   0  0  0  0  0  0  0  0  0  0  0  0
   12.5153   14.7276   23.9580 H   0  0  0  0  0  0  0  0  0  0  0  0
   13.4730   13.9546   22.6746 H   0  0  0  0  0  0  0  0  0  0  0  0
   13.4057   15.7243   22.8208 H   0  0  0  0  0  0  0  0  0  0  0  0
   11.1578   14.9747   19.8653 H   0  0  0  0  0  0  0  0  0  0  0  0
   12.6150   14.0678   20.2301 H   0  0  0  0  0  0  0  0  0  0  0  0
   12.6331   15.8414   20.3469 H   0  0  0  0  0  0  0  0  0  0  0  0
    9.8005   16.0301   21.7023 H   0  0  0  0  0  0  0  0  0  0  0  0
   10.3273   15.9232   23.3959 H   0  0  0  0  0  0  0  0  0  0  0  0
   11.1879   16.9623   22.2374 H   0  0  0  0  0  0  0  0  0  0  0  0
  1  3  1  0  0  0  0
  1 15  3  0  0  0  0
  2  3  1  0  0  0  0
  2 16  2  0  0  0  0
  3  4  2  0  0  0  0
  4 17  1  0  0  0  0
  4 18  1  0  0  0  0
  5 18  1  0  0  0  0
  5 19  2  0  0  0  0
  5 20  1  0  0  0  0
  6  7  1  0  0  0  0
  6  8  1  0  0  0  0
  7 13  1  0  0  0  0
  7 17  1  0  0  0  0
  8  9  1  0  0  0  0
  8 18  1  0  0  0  0
 10 14  1  0  0  0  0
 11 14  1  0  0  0  0
 12 14  1  0  0  0  0
 13 21  1  0  0  0  0
 13 22  1  0  0  0  0
 13 23  1  0  0  0  0
 14 20  1  0  0  0  0
 16 17  1  0  0  0  0
  2 24  1  0  0  0  0
  6 25  1  0  0  0  0
  6 26  1  0  0  0  0
  7 27  1  0  0  0  0
  8 28  1  0  0  0  0
  9 29  1  0  0  0  0
  9 30  1  0  0  0  0
  9 31  1  0  0  0  0
 10 32  1  0  0  0  0
 10 33  1  0  0  0  0
 10 34  1  0  0  0  0
 11 35  1  0  0  0  0
 11 36  1  0  0  0  0
 11 37  1  0  0  0  0
 12 38  1  0  0  0  0
 12 39  1  0  0  0  0
 12 40  1  0  0  0  0
M  END
> <id>
EN300-28295601

> <smiles>
CC1CC(N2N=CC(C#N)=C2N1C(=O)OC(C)(C)C)C(F)(F)F

> <IUPAC Name>
tert-butyl 3-cyano-5-methyl-7-(trifluoromethyl)-4H,5H,6H,7H-pyrazolo[1,5-a]pyrimidine-4-carboxylate

> <CAS>
2680670-41-9

> <URL>
https://www.enaminestore.com/catalog/EN300-28295601

> <ROCS_ShapeQuery>
A71EV2A-x0451_0A_A71EV2A-x0310_0A_A71EV2A-x0416_0A_peptide

> <ROCS_TanimotoCombo>
0.518 

> <ROCS_ShapeTanimoto>
0.365 

> <ROCS_ColorTanimoto>
0.154 

> <ROCS_RefTversky>
0.320 

> <ROCS_RefColorTversky>
0.165 

> <ROCS_RefTverskyCombo>
0.485 

> <ROCS_FitTversky>
1.621 

> <ROCS_FitColorTversky>
0.688 

> <ROCS_FitTverskyCombo>
2.309 

> <ROCS_ColorScore>
-5.029

> <ROCS_Overlap>
2223.092

> <ROCS_Rank>
40                  

$$$$
untitled-dbase-45493_7
  -OEChem-11132313473D

 39 40  0     0  0  0  0  0  0999 V2000
    6.7230   10.6497   25.5453 C   0  0  0  0  0  0  0  0  0  0  0  0
    7.0491   12.9286   26.0884 C   0  0  0  0  0  0  0  0  0  0  0  0
    7.8151   10.7323   24.6805 C   0  0  0  0  0  0  0  0  0  0  0  0
    6.3279   11.7654   26.2673 C   0  0  0  0  0  0  0  0  0  0  0  0
    8.4769   11.9517   24.5337 C   0  0  0  0  0  0  0  0  0  0  0  0
   10.2739   13.2425   23.4225 C   0  0  0  0  0  0  0  0  0  0  0  0
    9.7672   10.8769   22.7411 C   0  0  0  0  0  0  0  0  0  0  0  0
    9.4754    9.5644   23.4722 C   0  0  0  0  0  0  0  0  0  0  0  0
    9.4909    8.4125   22.4574 C   0  0  0  0  0  0  0  0  0  0  0  0
   10.5077    9.2618   24.5703 C   0  0  0  0  0  0  0  0  0  0  0  0
   12.6735   14.6073   22.6532 C   0  0  0  0  0  0  0  0  0  0  0  0
   11.6871   14.6545   20.3436 C   0  0  0  0  0  0  0  0  0  0  0  0
   10.5220   15.8414   22.2256 C   0  0  0  0  0  0  0  0  0  0  0  0
   11.3805   14.6377   21.8396 C   0  0  0  0  0  0  0  0  0  0  0  0
    8.1017   13.0437   25.2473 N   0  0  0  0  0  0  0  0  0  0  0  0
    9.5524   12.0494   23.5937 N   0  0  0  0  0  0  0  0  0  0  0  0
   10.5598   14.0384   24.3147 O   0  0  0  0  0  0  0  0  0  0  0  0
    8.1549    9.5782   24.0322 O   0  0  0  0  0  0  0  0  0  0  0  0
   10.6404   13.4425   22.1151 O   0  0  0  0  0  0  0  0  0  0  0  0
    4.8582   11.6981   27.4405 Br  0  0  0  0  0  0  0  0  0  0  0  0
    6.1805    9.7116   25.6373 H   0  0  0  0  0  0  0  0  0  0  0  0
    6.8074   13.8381   26.6303 H   0  0  0  0  0  0  0  0  0  0  0  0
   10.8201   10.9246   22.4323 H   0  0  0  0  0  0  0  0  0  0  0  0
    9.1580   10.9462   21.8332 H   0  0  0  0  0  0  0  0  0  0  0  0
    9.2844    7.4786   22.9708 H   0  0  0  0  0  0  0  0  0  0  0  0
   10.4677    8.3613   21.9870 H   0  0  0  0  0  0  0  0  0  0  0  0
    8.7314    8.5889   21.7022 H   0  0  0  0  0  0  0  0  0  0  0  0
   10.2544    8.3236   25.0552 H   0  0  0  0  0  0  0  0  0  0  0  0
   10.5001   10.0630   25.3035 H   0  0  0  0  0  0  0  0  0  0  0  0
   11.4957    9.1857   24.1258 H   0  0  0  0  0  0  0  0  0  0  0  0
   12.4577   14.5952   23.7275 H   0  0  0  0  0  0  0  0  0  0  0  0
   13.2821   13.7300   22.4109 H   0  0  0  0  0  0  0  0  0  0  0  0
   13.2730   15.5061   22.4684 H   0  0  0  0  0  0  0  0  0  0  0  0
   10.7622   14.6763   19.7560 H   0  0  0  0  0  0  0  0  0  0  0  0
   12.2215   13.7455   20.0445 H   0  0  0  0  0  0  0  0  0  0  0  0
   12.2951   15.5214   20.0655 H   0  0  0  0  0  0  0  0  0  0  0  0
    9.5945   15.8634   21.6422 H   0  0  0  0  0  0  0  0  0  0  0  0
   10.2612   15.8263   23.2889 H   0  0  0  0  0  0  0  0  0  0  0  0
   11.0460   16.7793   22.0088 H   0  0  0  0  0  0  0  0  0  0  0  0
  1  3  2  0  0  0  0
  1  4  1  0  0  0  0
  2  4  2  0  0  0  0
  2 15  1  0  0  0  0
  3  5  1  0  0  0  0
  3 18  1  0  0  0  0
  4 20  1  0  0  0  0
  5 15  2  0  0  0  0
  5 16  1  0  0  0  0
  6 16  1  0  0  0  0
  6 17  2  0  0  0  0
  6 19  1  0  0  0  0
  7  8  1  0  0  0  0
  7 16  1  0  0  0  0
  8  9  1  0  0  0  0
  8 10  1  0  0  0  0
  8 18  1  0  0  0  0
 11 14  1  0  0  0  0
 12 14  1  0  0  0  0
 13 14  1  0  0  0  0
 14 19  1  0  0  0  0
  1 21  1  0  0  0  0
  2 22  1  0  0  0  0
  7 23  1  0  0  0  0
  7 24  1  0  0  0  0
  9 25  1  0  0  0  0
  9 26  1  0  0  0  0
  9 27  1  0  0  0  0
 10 28  1  0  0  0  0
 10 29  1  0  0  0  0
 10 30  1  0  0  0  0
 11 31  1  0  0  0  0
 11 32  1  0  0  0  0
 11 33  1  0  0  0  0
 12 34  1  0  0  0  0
 12 35  1  0  0  0  0
 12 36  1  0  0  0  0
 13 37  1  0  0  0  0
 13 38  1  0  0  0  0
 13 39  1  0  0  0  0
M  END
> <id>
EN300-28297461

> <smiles>
CC(C)(C)OC(=O)N1CC(C)(C)OC=2C=C(Br)C=NC12

> <IUPAC Name>
tert-butyl 7-bromo-2,2-dimethyl-2H,3H,4H-pyrido[3,2-b][1,4]oxazine-4-carboxylate

> <CAS>
2454542-20-0

> <URL>
https://www.enaminestore.com/catalog/EN300-28297461

> <ROCS_ShapeQuery>
A71EV2A-x0451_0A_A71EV2A-x0310_0A_A71EV2A-x0416_0A_peptide

> <ROCS_TanimotoCombo>
0.518 

> <ROCS_ShapeTanimoto>
0.372 

> <ROCS_ColorTanimoto>
0.145 

> <ROCS_RefTversky>
0.319 

> <ROCS_RefColorTversky>
0.165 

> <ROCS_RefTverskyCombo>
0.484 

> <ROCS_FitTversky>
1.825 

> <ROCS_FitColorTversky>
0.548 

> <ROCS_FitTverskyCombo>
2.373 

> <ROCS_ColorScore>
-5.042

> <ROCS_Overlap>
2211.009

> <ROCS_Rank>
41                  

$$$$
untitled-dbase-53247_9
  -OEChem-11132313473D

 33 34  0     0  0  0  0  0  0999 V2000
    6.6577   12.7498   25.5074 C   0  0  0  0  0  0  0  0  0  0  0  0
    7.7841   12.9869   24.7241 C   0  0  0  0  0  0  0  0  0  0  0  0
    6.3358   11.4405   25.7976 C   0  0  0  0  0  0  0  0  0  0  0  0
    8.5663   11.9242   24.2567 C   0  0  0  0  0  0  0  0  0  0  0  0
    8.1262   10.6382   24.5770 C   0  0  0  0  0  0  0  0  0  0  0  0
    9.8876    9.5920   23.2375 C   0  0  0  0  0  0  0  0  0  0  0  0
   10.4996   13.2796   23.3557 C   0  0  0  0  0  0  0  0  0  0  0  0
   10.1719   10.9568   22.6585 C   0  0  0  0  0  0  0  0  0  0  0  0
   12.8997   14.7668   22.8699 C   0  0  0  0  0  0  0  0  0  0  0  0
   12.1915   14.7634   20.4600 C   0  0  0  0  0  0  0  0  0  0  0  0
   10.7535   15.8887   22.1845 C   0  0  0  0  0  0  0  0  0  0  0  0
   11.7118   14.7308   21.9095 C   0  0  0  0  0  0  0  0  0  0  0  0
    7.0409   10.3825   25.3506 N   0  0  0  0  0  0  0  0  0  0  0  0
    8.8372    9.5219   24.1154 N   0  0  0  0  0  0  0  0  0  0  0  0
    9.7479   12.0928   23.4708 N   0  0  0  0  0  0  0  0  0  0  0  0
   10.4821    8.5936   22.8291 O   0  0  0  0  0  0  0  0  0  0  0  0
   10.6360   14.0888   24.2741 O   0  0  0  0  0  0  0  0  0  0  0  0
   11.0064   13.4990   22.1030 O   0  0  0  0  0  0  0  0  0  0  0  0
    6.0556   13.5696   25.8816 H   0  0  0  0  0  0  0  0  0  0  0  0
    8.0183   14.0231   24.5276 H   0  0  0  0  0  0  0  0  0  0  0  0
    5.4798   11.1996   26.4199 H   0  0  0  0  0  0  0  0  0  0  0  0
   11.2423   11.0385   22.5115 H   0  0  0  0  0  0  0  0  0  0  0  0
    9.6642   11.0048   21.7023 H   0  0  0  0  0  0  0  0  0  0  0  0
   12.5596   14.7435   23.9114 H   0  0  0  0  0  0  0  0  0  0  0  0
   13.5766   13.9219   22.7062 H   0  0  0  0  0  0  0  0  0  0  0  0
   13.4701   15.6952   22.7517 H   0  0  0  0  0  0  0  0  0  0  0  0
   11.3425   14.7377   19.7674 H   0  0  0  0  0  0  0  0  0  0  0  0
   12.8031   13.8831   20.2313 H   0  0  0  0  0  0  0  0  0  0  0  0
   12.7830   15.6604   20.2502 H   0  0  0  0  0  0  0  0  0  0  0  0
    9.9014   15.8630   21.4957 H   0  0  0  0  0  0  0  0  0  0  0  0
   10.3702   15.8602   23.2096 H   0  0  0  0  0  0  0  0  0  0  0  0
   11.2508   16.8523   22.0253 H   0  0  0  0  0  0  0  0  0  0  0  0
    8.5491    8.6174   24.4632 H   0  0  0  0  0  0  0  0  0  0  0  0
  1  2  1  0  0  0  0
  1  3  2  0  0  0  0
  2  4  2  0  0  0  0
  3 13  1  0  0  0  0
  4  5  1  0  0  0  0
  4 15  1  0  0  0  0
  5 13  2  0  0  0  0
  5 14  1  0  0  0  0
  6  8  1  0  0  0  0
  6 14  1  0  0  0  0
  6 16  2  0  0  0  0
  7 15  1  0  0  0  0
  7 17  2  0  0  0  0
  7 18  1  0  0  0  0
  8 15  1  0  0  0  0
  9 12  1  0  0  0  0
 10 12  1  0  0  0  0
 11 12  1  0  0  0  0
 12 18  1  0  0  0  0
  1 19  1  0  0  0  0
  2 20  1  0  0  0  0
  3 21  1  0  0  0  0
  8 22  1  0  0  0  0
  8 23  1  0  0  0  0
  9 24  1  0  0  0  0
  9 25  1  0  0  0  0
  9 26  1  0  0  0  0
 10 27  1  0  0  0  0
 10 28  1  0  0  0  0
 10 29  1  0  0  0  0
 11 30  1  0  0  0  0
 11 31  1  0  0  0  0
 11 32  1  0  0  0  0
 14 33  1  0  0  0  0
M  END
> <id>
EN300-37456680

> <smiles>
CC(C)(C)OC(=O)N1CC(=O)NC=2N=CC=CC12

> <IUPAC Name>
tert-butyl 3-oxo-1H,2H,3H,4H-pyrido[2,3-b]pyrazine-1-carboxylate

> <URL>
https://www.enaminestore.com/catalog/EN300-37456680

> <ROCS_ShapeQuery>
A71EV2A-x0451_0A_A71EV2A-x0310_0A_A71EV2A-x0416_0A_peptide

> <ROCS_TanimotoCombo>
0.517 

> <ROCS_ShapeTanimoto>
0.353 

> <ROCS_ColorTanimoto>
0.164 

> <ROCS_RefTversky>
0.304 

> <ROCS_RefColorTversky>
0.179 

> <ROCS_RefTverskyCombo>
0.483 

> <ROCS_FitTversky>
1.845 

> <ROCS_FitColorTversky>
0.664 

> <ROCS_FitTverskyCombo>
2.509 

> <ROCS_ColorScore>
-5.468

> <ROCS_Overlap>
2107.449

> <ROCS_Rank>
42                  

$$$$
untitled-dbase-45612_6
  -OEChem-11132313473D

 37 38  0     1  0  0  0  0  0999 V2000
    8.3197   14.1239   25.6785 C   0  0  0  0  0  0  0  0  0  0  0  0
    6.9697   12.0335   25.7926 C   0  0  0  0  0  0  0  0  0  0  0  0
    8.0390   12.7905   25.2750 C   0  0  0  0  0  0  0  0  0  0  0  0
    8.6506   11.9637   24.3561 C   0  0  0  0  0  0  0  0  0  0  0  0
   10.4060   13.3307   23.4079 C   0  0  0  0  0  0  0  0  0  0  0  0
    9.6805    9.6222   23.1505 C   0  0  0  0  0  0  0  0  0  0  0  0
   10.0830   10.9817   22.5829 C   0  0  0  0  0  0  0  0  0  0  0  0
    8.2101    9.6132   23.5875 C   0  0  1  0  0  0  0  0  0  0  0  0
   12.7801   14.8378   22.8475 C   0  0  0  0  0  0  0  0  0  0  0  0
   11.9445   14.9257   20.4803 C   0  0  0  0  0  0  0  0  0  0  0  0
   10.6018   15.9833   22.3206 C   0  0  0  0  0  0  0  0  0  0  0  0
    7.8796    8.2917   24.2836 C   0  0  0  0  0  0  0  0  0  0  0  0
   11.5427   14.8375   21.9510 C   0  0  0  0  0  0  0  0  0  0  0  0
    8.5488   15.2127   26.0083 N   0  0  0  0  0  0  0  0  0  0  0  0
    6.8939   10.8153   25.2562 N   0  0  0  0  0  0  0  0  0  0  0  0
    7.9413   10.7857   24.4121 N   0  0  0  0  0  0  0  0  0  0  0  0
    9.7320   12.0987   23.4797 N   0  0  0  0  0  0  0  0  0  0  0  0
   10.5957   14.1078   24.3405 O   0  0  0  0  0  0  0  0  0  0  0  0
   10.8470   13.5988   22.1347 O   0  0  0  0  0  0  0  0  0  0  0  0
    8.1368    7.2632   23.4618 F   0  0  0  0  0  0  0  0  0  0  0  0
    8.6221    8.1590   25.3927 F   0  0  0  0  0  0  0  0  0  0  0  0
    6.5820    8.2638   24.6226 F   0  0  0  0  0  0  0  0  0  0  0  0
    6.2383   12.3162   26.5375 H   0  0  0  0  0  0  0  0  0  0  0  0
    9.8255    8.8644   22.3725 H   0  0  0  0  0  0  0  0  0  0  0  0
   10.3334    9.3522   23.9844 H   0  0  0  0  0  0  0  0  0  0  0  0
   11.1641   11.0309   22.4123 H   0  0  0  0  0  0  0  0  0  0  0  0
    9.5904   11.1125   21.6138 H   0  0  0  0  0  0  0  0  0  0  0  0
    7.5905    9.7002   22.6828 H   0  0  0  0  0  0  0  0  0  0  0  0
   12.4959   14.7746   23.9040 H   0  0  0  0  0  0  0  0  0  0  0  0
   13.4462   14.0003   22.6158 H   0  0  0  0  0  0  0  0  0  0  0  0
   13.3446   15.7704   22.7345 H   0  0  0  0  0  0  0  0  0  0  0  0
   11.0598   14.9258   19.8334 H   0  0  0  0  0  0  0  0  0  0  0  0
   12.5420   14.0552   20.1860 H   0  0  0  0  0  0  0  0  0  0  0  0
   12.5251   15.8306   20.2737 H   0  0  0  0  0  0  0  0  0  0  0  0
    9.7142   15.9833   21.6777 H   0  0  0  0  0  0  0  0  0  0  0  0
   10.2736   15.9155   23.3629 H   0  0  0  0  0  0  0  0  0  0  0  0
   11.0912   16.9527   22.1720 H   0  0  0  0  0  0  0  0  0  0  0  0
  1  3  1  0  0  0  0
  1 14  3  0  0  0  0
  2  3  1  0  0  0  0
  2 15  2  0  0  0  0
  3  4  2  0  0  0  0
  4 16  1  0  0  0  0
  4 17  1  0  0  0  0
  5 17  1  0  0  0  0
  5 18  2  0  0  0  0
  5 19  1  0  0  0  0
  6  7  1  0  0  0  0
  6  8  1  0  0  0  0
  7 17  1  0  0  0  0
  8 12  1  0  0  0  0
  8 16  1  0  0  0  0
  9 13  1  0  0  0  0
 10 13  1  0  0  0  0
 11 13  1  0  0  0  0
 12 20  1  0  0  0  0
 12 21  1  0  0  0  0
 12 22  1  0  0  0  0
 13 19  1  0  0  0  0
 15 16  1  0  0  0  0
  2 23  1  0  0  0  0
  6 24  1  0  0  0  0
  6 25  1  0  0  0  0
  7 26  1  0  0  0  0
  7 27  1  0  0  0  0
  8 28  1  0  0  0  0
  9 29  1  0  0  0  0
  9 30  1  0  0  0  0
  9 31  1  0  0  0  0
 10 32  1  0  0  0  0
 10 33  1  0  0  0  0
 10 34  1  0  0  0  0
 11 35  1  0  0  0  0
 11 36  1  0  0  0  0
 11 37  1  0  0  0  0
M  END
> <id>
EN300-28293201

> <smiles>
CC(C)(C)OC(=O)N1CCC(N2N=CC(C#N)=C12)C(F)(F)F

> <IUPAC Name>
tert-butyl 3-cyano-7-(trifluoromethyl)-4H,5H,6H,7H-pyrazolo[1,5-a]pyrimidine-4-carboxylate

> <CAS>
2680902-62-7

> <URL>
https://www.enaminestore.com/catalog/EN300-28293201

> <ROCS_ShapeQuery>
A71EV2A-x0451_0A_A71EV2A-x0310_0A_A71EV2A-x0416_0A_peptide

> <ROCS_TanimotoCombo>
0.517 

> <ROCS_ShapeTanimoto>
0.363 

> <ROCS_ColorTanimoto>
0.154 

> <ROCS_RefTversky>
0.318 

> <ROCS_RefColorTversky>
0.166 

> <ROCS_RefTverskyCombo>
0.483 

> <ROCS_FitTversky>
1.656 

> <ROCS_FitColorTversky>
0.689 

> <ROCS_FitTverskyCombo>
2.345 

> <ROCS_ColorScore>
-5.036

> <ROCS_Overlap>
2205.932

> <ROCS_Rank>
43                  

$$$$
untitled-dbase-45527_3
  -OEChem-11132313473D

 45 47  0     0  0  0  0  0  0999 V2000
    6.7417   10.5496   25.5923 C   0  0  0  0  0  0  0  0  0  0  0  0
    6.2600   11.6277   26.3247 C   0  0  0  0  0  0  0  0  0  0  0  0
    7.8996   13.0571   25.2641 C   0  0  0  0  0  0  0  0  0  0  0  0
    8.4070   11.9822   24.5181 C   0  0  0  0  0  0  0  0  0  0  0  0
    7.8106   10.7221   24.7041 C   0  0  0  0  0  0  0  0  0  0  0  0
    6.8397   12.8796   26.1610 C   0  0  0  0  0  0  0  0  0  0  0  0
   10.2572   13.2741   23.4137 C   0  0  0  0  0  0  0  0  0  0  0  0
    9.5276    8.4740   22.4097 C   0  0  0  0  0  0  0  0  0  0  0  0
   10.6128    9.4157   24.4591 C   0  0  0  0  0  0  0  0  0  0  0  0
    9.6375   10.9628   22.6685 C   0  0  0  0  0  0  0  0  0  0  0  0
    9.5303    7.1190   23.1127 C   0  0  0  0  0  0  0  0  0  0  0  0
   10.5521    8.0102   25.0513 C   0  0  0  0  0  0  0  0  0  0  0  0
    9.4901    9.6386   23.4216 C   0  0  0  0  0  0  0  0  0  0  0  0
   12.7566   14.4832   22.6904 C   0  0  0  0  0  0  0  0  0  0  0  0
   11.8053   14.6257   20.3700 C   0  0  0  0  0  0  0  0  0  0  0  0
   10.7003   15.8671   22.2531 C   0  0  0  0  0  0  0  0  0  0  0  0
   11.4792   14.6121   21.8619 C   0  0  0  0  0  0  0  0  0  0  0  0
    9.4655   12.1196   23.5583 N   0  0  0  0  0  0  0  0  0  0  0  0
   10.5905   14.0427   24.3116 O   0  0  0  0  0  0  0  0  0  0  0  0
    8.2050    9.5791   24.0576 O   0  0  0  0  0  0  0  0  0  0  0  0
   10.6238    7.0249   24.0229 O   0  0  0  0  0  0  0  0  0  0  0  0
   10.6553   13.4672   22.1131 O   0  0  0  0  0  0  0  0  0  0  0  0
    6.1789   14.3548   27.1444 Br  0  0  0  0  0  0  0  0  0  0  0  0
    6.2887    9.5699   25.7224 H   0  0  0  0  0  0  0  0  0  0  0  0
    5.4332   11.4756   27.0132 H   0  0  0  0  0  0  0  0  0  0  0  0
    8.2841   14.0634   25.1431 H   0  0  0  0  0  0  0  0  0  0  0  0
   10.4366    8.5538   21.7996 H   0  0  0  0  0  0  0  0  0  0  0  0
    8.6631    8.5199   21.7367 H   0  0  0  0  0  0  0  0  0  0  0  0
   10.5555   10.1391   25.2794 H   0  0  0  0  0  0  0  0  0  0  0  0
   11.5844    9.5480   23.9660 H   0  0  0  0  0  0  0  0  0  0  0  0
   10.6103   10.9962   22.1671 H   0  0  0  0  0  0  0  0  0  0  0  0
    8.8656   11.0604   21.8935 H   0  0  0  0  0  0  0  0  0  0  0  0
    8.5912    6.9382   23.6483 H   0  0  0  0  0  0  0  0  0  0  0  0
    9.6439    6.3199   22.3733 H   0  0  0  0  0  0  0  0  0  0  0  0
   11.4051    7.8546   25.7195 H   0  0  0  0  0  0  0  0  0  0  0  0
    9.6411    7.8590   25.6420 H   0  0  0  0  0  0  0  0  0  0  0  0
   12.5267   14.4730   23.7619 H   0  0  0  0  0  0  0  0  0  0  0  0
   13.3066   13.5691   22.4441 H   0  0  0  0  0  0  0  0  0  0  0  0
   13.4185   15.3408   22.5244 H   0  0  0  0  0  0  0  0  0  0  0  0
   10.8917   14.7181   19.7717 H   0  0  0  0  0  0  0  0  0  0  0  0
   12.2799   13.6859   20.0656 H   0  0  0  0  0  0  0  0  0  0  0  0
   12.4748   15.4522   20.1104 H   0  0  0  0  0  0  0  0  0  0  0  0
    9.7840   15.9598   21.6590 H   0  0  0  0  0  0  0  0  0  0  0  0
   10.4255   15.8573   23.3128 H   0  0  0  0  0  0  0  0  0  0  0  0
   11.2901   16.7694   22.0547 H   0  0  0  0  0  0  0  0  0  0  0  0
  1  2  1  0  0  0  0
  1  5  2  0  0  0  0
  2  6  2  0  0  0  0
  3  4  2  0  0  0  0
  3  6  1  0  0  0  0
  4  5  1  0  0  0  0
  4 18  1  0  0  0  0
  5 20  1  0  0  0  0
  6 23  1  0  0  0  0
  7 18  1  0  0  0  0
  7 19  2  0  0  0  0
  7 22  1  0  0  0  0
  8 11  1  0  0  0  0
  8 13  1  0  0  0  0
  9 12  1  0  0  0  0
  9 13  1  0  0  0  0
 10 13  1  0  0  0  0
 10 18  1  0  0  0  0
 11 21  1  0  0  0  0
 12 21  1  0  0  0  0
 13 20  1  0  0  0  0
 14 17  1  0  0  0  0
 15 17  1  0  0  0  0
 16 17  1  0  0  0  0
 17 22  1  0  0  0  0
  1 24  1  0  0  0  0
  2 25  1  0  0  0  0
  3 26  1  0  0  0  0
  8 27  1  0  0  0  0
  8 28  1  0  0  0  0
  9 29  1  0  0  0  0
  9 30  1  0  0  0  0
 10 31  1  0  0  0  0
 10 32  1  0  0  0  0
 11 33  1  0  0  0  0
 11 34  1  0  0  0  0
 12 35  1  0  0  0  0
 12 36  1  0  0  0  0
 14 37  1  0  0  0  0
 14 38  1  0  0  0  0
 14 39  1  0  0  0  0
 15 40  1  0  0  0  0
 15 41  1  0  0  0  0
 15 42  1  0  0  0  0
 16 43  1  0  0  0  0
 16 44  1  0  0  0  0
 16 45  1  0  0  0  0
M  END
> <id>
EN300-28302150

> <smiles>
CC(C)(C)OC(=O)N1CC2(CCOCC2)OC=3C=CC(Br)=CC13

> <IUPAC Name>
tert-butyl 6-bromo-3,4-dihydrospiro[1,4-benzoxazine-2,4'-oxane]-4-carboxylate

> <CAS>
2680683-51-4

> <URL>
https://www.enaminestore.com/catalog/EN300-28302150

> <ROCS_ShapeQuery>
A71EV2A-x0451_0A_A71EV2A-x0310_0A_A71EV2A-x0416_0A_peptide

> <ROCS_TanimotoCombo>
0.517 

> <ROCS_ShapeTanimoto>
0.371 

> <ROCS_ColorTanimoto>
0.146 

> <ROCS_RefTversky>
0.323 

> <ROCS_RefColorTversky>
0.166 

> <ROCS_RefTverskyCombo>
0.489 

> <ROCS_FitTversky>
1.670 

> <ROCS_FitColorTversky>
0.550 

> <ROCS_FitTverskyCombo>
2.220 

> <ROCS_ColorScore>
-5.058

> <ROCS_Overlap>
2244.847

> <ROCS_Rank>
44                  

$$$$
untitled-dbase-49670_48
  -OEChem-11132313473D

 45 47  0     0  0  0  0  0  0999 V2000
    6.4834   11.0579   25.8828 C   0  0  0  0  0  0  0  0  0  0  0  0
    7.0674   12.3011   26.1520 C   0  0  0  0  0  0  0  0  0  0  0  0
    7.0124   10.2264   24.8944 C   0  0  0  0  0  0  0  0  0  0  0  0
    8.1811   12.7348   25.4299 C   0  0  0  0  0  0  0  0  0  0  0  0
    8.1267   10.6519   24.1798 C   0  0  0  0  0  0  0  0  0  0  0  0
    8.6941   11.9051   24.4421 C   0  0  0  0  0  0  0  0  0  0  0  0
   10.6012   13.2523   23.5576 C   0  0  0  0  0  0  0  0  0  0  0  0
    9.7814    8.7964   23.7476 C   0  0  0  0  0  0  0  0  0  0  0  0
    8.0184    9.3164   21.9888 C   0  0  0  0  0  0  0  0  0  0  0  0
    8.9898    7.5478   24.1572 C   0  0  0  0  0  0  0  0  0  0  0  0
    8.0227    7.7835   21.9416 C   0  0  0  0  0  0  0  0  0  0  0  0
    9.8139   11.0463   22.5826 C   0  0  0  0  0  0  0  0  0  0  0  0
    8.9069    9.9001   23.1133 C   0  0  0  0  0  0  0  0  0  0  0  0
   12.5972   15.2528   23.0962 C   0  0  0  0  0  0  0  0  0  0  0  0
   12.8816   14.1868   20.8396 C   0  0  0  0  0  0  0  0  0  0  0  0
   10.6787   15.2170   21.4675 C   0  0  0  0  0  0  0  0  0  0  0  0
   11.9073   14.4678   21.9815 C   0  0  0  0  0  0  0  0  0  0  0  0
    7.8758    7.2132   23.2712 N   0  0  0  0  0  0  0  0  0  0  0  0
    9.7692   12.1415   23.5676 N   0  0  0  0  0  0  0  0  0  0  0  0
   10.5802   14.1745   24.3679 O   0  0  0  0  0  0  0  0  0  0  0  0
   11.4840   13.2049   22.5082 O   0  0  0  0  0  0  0  0  0  0  0  0
    5.6116   10.7379   26.4479 H   0  0  0  0  0  0  0  0  0  0  0  0
    6.6494   12.9338   26.9301 H   0  0  0  0  0  0  0  0  0  0  0  0
    6.5527    9.2629   24.6946 H   0  0  0  0  0  0  0  0  0  0  0  0
    8.6091   13.7020   25.6617 H   0  0  0  0  0  0  0  0  0  0  0  0
   10.2907    9.1911   24.6446 H   0  0  0  0  0  0  0  0  0  0  0  0
   10.5934    8.5031   23.0600 H   0  0  0  0  0  0  0  0  0  0  0  0
    8.3289    9.7126   21.0073 H   0  0  0  0  0  0  0  0  0  0  0  0
    6.9765    9.6551   22.1224 H   0  0  0  0  0  0  0  0  0  0  0  0
    9.6693    6.6743   24.2511 H   0  0  0  0  0  0  0  0  0  0  0  0
    8.5881    7.7056   25.1787 H   0  0  0  0  0  0  0  0  0  0  0  0
    7.1870    7.4491   21.3167 H   0  0  0  0  0  0  0  0  0  0  0  0
    8.9391    7.4147   21.4660 H   0  0  0  0  0  0  0  0  0  0  0  0
   10.8604   10.7440   22.4659 H   0  0  0  0  0  0  0  0  0  0  0  0
    9.4760   11.4480   21.6212 H   0  0  0  0  0  0  0  0  0  0  0  0
   11.9012   15.4565   23.9178 H   0  0  0  0  0  0  0  0  0  0  0  0
   13.4595   14.7104   23.4974 H   0  0  0  0  0  0  0  0  0  0  0  0
   12.9405   16.2282   22.7328 H   0  0  0  0  0  0  0  0  0  0  0  0
   12.3907   13.6237   20.0376 H   0  0  0  0  0  0  0  0  0  0  0  0
   13.7182   13.5681   21.1838 H   0  0  0  0  0  0  0  0  0  0  0  0
   13.2857   15.1121   20.4165 H   0  0  0  0  0  0  0  0  0  0  0  0
   10.1836   14.6541   20.6680 H   0  0  0  0  0  0  0  0  0  0  0  0
    9.9514   15.3949   22.2663 H   0  0  0  0  0  0  0  0  0  0  0  0
   10.9640   16.1827   21.0348 H   0  0  0  0  0  0  0  0  0  0  0  0
    7.8034    6.1927   23.1968 H   0  0  0  0  0  0  0  0  0  0  0  0
  1  2  2  0  0  0  0
  1  3  1  0  0  0  0
  2  4  1  0  0  0  0
  3  5  2  0  0  0  0
  4  6  2  0  0  0  0
  5  6  1  0  0  0  0
  5 13  1  0  0  0  0
  6 19  1  0  0  0  0
  7 19  1  0  0  0  0
  7 20  2  0  0  0  0
  7 21  1  0  0  0  0
  8 10  1  0  0  0  0
  8 13  1  0  0  0  0
  9 11  1  0  0  0  0
  9 13  1  0  0  0  0
 10 18  1  0  0  0  0
 11 18  1  0  0  0  0
 12 13  1  0  0  0  0
 12 19  1  0  0  0  0
 14 17  1  0  0  0  0
 15 17  1  0  0  0  0
 16 17  1  0  0  0  0
 17 21  1  0  0  0  0
  1 22  1  0  0  0  0
  2 23  1  0  0  0  0
  3 24  1  0  0  0  0
  4 25  1  0  0  0  0
  8 26  1  0  0  0  0
  8 27  1  0  0  0  0
  9 28  1  0  0  0  0
  9 29  1  0  0  0  0
 10 30  1  0  0  0  0
 10 31  1  0  0  0  0
 11 32  1  0  0  0  0
 11 33  1  0  0  0  0
 12 34  1  0  0  0  0
 12 35  1  0  0  0  0
 14 36  1  0  0  0  0
 14 37  1  0  0  0  0
 14 38  1  0  0  0  0
 15 39  1  0  0  0  0
 15 40  1  0  0  0  0
 15 41  1  0  0  0  0
 16 42  1  0  0  0  0
 16 43  1  0  0  0  0
 16 44  1  0  0  0  0
 18 45  1  0  0  0  0
M  END
> <id>
EN300-3351736

> <smiles>
CC(C)(C)OC(=O)N1CC2(CCNCC2)C=3C=CC=CC13

> <MDLNUMBER>
MFCD09266212

> <IUPAC Name>
tert-butyl 1,2-dihydrospiro[indole-3,4'-piperidine]-1-carboxylate

> <CAS>
676607-31-1

> <URL>
https://www.enaminestore.com/catalog/EN300-3351736

> <ROCS_ShapeQuery>
A71EV2A-x0451_0A_A71EV2A-x0310_0A_A71EV2A-x0416_0A_peptide

> <ROCS_TanimotoCombo>
0.517 

> <ROCS_ShapeTanimoto>
0.356 

> <ROCS_ColorTanimoto>
0.160 

> <ROCS_RefTversky>
0.311 

> <ROCS_RefColorTversky>
0.176 

> <ROCS_RefTverskyCombo>
0.486 

> <ROCS_FitTversky>
1.706 

> <ROCS_FitColorTversky>
0.649 

> <ROCS_FitTverskyCombo>
2.355 

> <ROCS_ColorScore>
-5.354

> <ROCS_Overlap>
2156.100

> <ROCS_Rank>
45                  

$$$$
untitled-dbase-26190_48
  -OEChem-11132313473D

 45 47  0     0  0  0  0  0  0999 V2000
    6.4834   11.0579   25.8828 C   0  0  0  0  0  0  0  0  0  0  0  0
    7.0674   12.3011   26.1520 C   0  0  0  0  0  0  0  0  0  0  0  0
    7.0124   10.2264   24.8944 C   0  0  0  0  0  0  0  0  0  0  0  0
    8.1811   12.7348   25.4299 C   0  0  0  0  0  0  0  0  0  0  0  0
    8.1267   10.6519   24.1798 C   0  0  0  0  0  0  0  0  0  0  0  0
    8.6941   11.9051   24.4421 C   0  0  0  0  0  0  0  0  0  0  0  0
   10.6012   13.2523   23.5576 C   0  0  0  0  0  0  0  0  0  0  0  0
    9.7814    8.7964   23.7476 C   0  0  0  0  0  0  0  0  0  0  0  0
    8.0184    9.3164   21.9888 C   0  0  0  0  0  0  0  0  0  0  0  0
    8.9898    7.5478   24.1572 C   0  0  0  0  0  0  0  0  0  0  0  0
    8.0227    7.7835   21.9416 C   0  0  0  0  0  0  0  0  0  0  0  0
    9.8139   11.0463   22.5826 C   0  0  0  0  0  0  0  0  0  0  0  0
    8.9069    9.9001   23.1133 C   0  0  0  0  0  0  0  0  0  0  0  0
   12.5972   15.2528   23.0962 C   0  0  0  0  0  0  0  0  0  0  0  0
   12.8816   14.1868   20.8396 C   0  0  0  0  0  0  0  0  0  0  0  0
   10.6787   15.2170   21.4675 C   0  0  0  0  0  0  0  0  0  0  0  0
   11.9073   14.4678   21.9815 C   0  0  0  0  0  0  0  0  0  0  0  0
    7.8758    7.2132   23.2712 N   0  0  0  0  0  0  0  0  0  0  0  0
    9.7692   12.1415   23.5676 N   0  0  0  0  0  0  0  0  0  0  0  0
   10.5802   14.1745   24.3679 O   0  0  0  0  0  0  0  0  0  0  0  0
   11.4840   13.2049   22.5082 O   0  0  0  0  0  0  0  0  0  0  0  0
    5.6116   10.7379   26.4479 H   0  0  0  0  0  0  0  0  0  0  0  0
    6.6494   12.9338   26.9301 H   0  0  0  0  0  0  0  0  0  0  0  0
    6.5527    9.2629   24.6946 H   0  0  0  0  0  0  0  0  0  0  0  0
    8.6091   13.7020   25.6617 H   0  0  0  0  0  0  0  0  0  0  0  0
   10.2907    9.1911   24.6446 H   0  0  0  0  0  0  0  0  0  0  0  0
   10.5934    8.5031   23.0600 H   0  0  0  0  0  0  0  0  0  0  0  0
    8.3289    9.7126   21.0073 H   0  0  0  0  0  0  0  0  0  0  0  0
    6.9765    9.6551   22.1224 H   0  0  0  0  0  0  0  0  0  0  0  0
    9.6693    6.6743   24.2511 H   0  0  0  0  0  0  0  0  0  0  0  0
    8.5881    7.7056   25.1787 H   0  0  0  0  0  0  0  0  0  0  0  0
    7.1870    7.4491   21.3167 H   0  0  0  0  0  0  0  0  0  0  0  0
    8.9391    7.4147   21.4660 H   0  0  0  0  0  0  0  0  0  0  0  0
   10.8604   10.7440   22.4659 H   0  0  0  0  0  0  0  0  0  0  0  0
    9.4760   11.4480   21.6212 H   0  0  0  0  0  0  0  0  0  0  0  0
   11.9012   15.4565   23.9178 H   0  0  0  0  0  0  0  0  0  0  0  0
   13.4595   14.7104   23.4974 H   0  0  0  0  0  0  0  0  0  0  0  0
   12.9405   16.2282   22.7328 H   0  0  0  0  0  0  0  0  0  0  0  0
   12.3907   13.6237   20.0376 H   0  0  0  0  0  0  0  0  0  0  0  0
   13.7182   13.5681   21.1838 H   0  0  0  0  0  0  0  0  0  0  0  0
   13.2857   15.1121   20.4165 H   0  0  0  0  0  0  0  0  0  0  0  0
   10.1836   14.6541   20.6680 H   0  0  0  0  0  0  0  0  0  0  0  0
    9.9514   15.3949   22.2663 H   0  0  0  0  0  0  0  0  0  0  0  0
   10.9640   16.1827   21.0348 H   0  0  0  0  0  0  0  0  0  0  0  0
    7.8034    6.1927   23.1968 H   0  0  0  0  0  0  0  0  0  0  0  0
  1  2  2  0  0  0  0
  1  3  1  0  0  0  0
  2  4  1  0  0  0  0
  3  5  2  0  0  0  0
  4  6  2  0  0  0  0
  5  6  1  0  0  0  0
  5 13  1  0  0  0  0
  6 19  1  0  0  0  0
  7 19  1  0  0  0  0
  7 20  2  0  0  0  0
  7 21  1  0  0  0  0
  8 10  1  0  0  0  0
  8 13  1  0  0  0  0
  9 11  1  0  0  0  0
  9 13  1  0  0  0  0
 10 18  1  0  0  0  0
 11 18  1  0  0  0  0
 12 13  1  0  0  0  0
 12 19  1  0  0  0  0
 14 17  1  0  0  0  0
 15 17  1  0  0  0  0
 16 17  1  0  0  0  0
 17 21  1  0  0  0  0
  1 22  1  0  0  0  0
  2 23  1  0  0  0  0
  3 24  1  0  0  0  0
  4 25  1  0  0  0  0
  8 26  1  0  0  0  0
  8 27  1  0  0  0  0
  9 28  1  0  0  0  0
  9 29  1  0  0  0  0
 10 30  1  0  0  0  0
 10 31  1  0  0  0  0
 11 32  1  0  0  0  0
 11 33  1  0  0  0  0
 12 34  1  0  0  0  0
 12 35  1  0  0  0  0
 14 36  1  0  0  0  0
 14 37  1  0  0  0  0
 14 38  1  0  0  0  0
 15 39  1  0  0  0  0
 15 40  1  0  0  0  0
 15 41  1  0  0  0  0
 16 42  1  0  0  0  0
 16 43  1  0  0  0  0
 16 44  1  0  0  0  0
 18 45  1  0  0  0  0
M  END
> <id>
EN300-6738758

> <smiles>
Cl.CC(C)(C)OC(=O)N1CC2(CCNCC2)C=3C=CC=CC13

> <MDLNUMBER>
MFCD15071705

> <IUPAC Name>
tert-butyl 1,2-dihydrospiro[indole-3,4'-piperidine]-1-carboxylate hydrochloride

> <CAS>
1243474-66-9

> <Purity>
95

> <URL>
https://www.enaminestore.com/catalog/EN300-6738758

> <Saltdate>
Cl

> <ROCS_ShapeQuery>
A71EV2A-x0451_0A_A71EV2A-x0310_0A_A71EV2A-x0416_0A_peptide

> <ROCS_TanimotoCombo>
0.517 

> <ROCS_ShapeTanimoto>
0.356 

> <ROCS_ColorTanimoto>
0.160 

> <ROCS_RefTversky>
0.311 

> <ROCS_RefColorTversky>
0.176 

> <ROCS_RefTverskyCombo>
0.486 

> <ROCS_FitTversky>
1.706 

> <ROCS_FitColorTversky>
0.649 

> <ROCS_FitTverskyCombo>
2.355 

> <ROCS_ColorScore>
-5.354

> <ROCS_Overlap>
2156.100

> <ROCS_Rank>
46                  

$$$$
untitled-dbase-17290_56
  -OEChem-11132313473D

 35 36  0     0  0  0  0  0  0999 V2000
    7.0164   10.3130   25.4496 C   0  0  0  0  0  0  0  0  0  0  0  0
    6.2587   11.3842   25.9112 C   0  0  0  0  0  0  0  0  0  0  0  0
    7.7375   12.9098   24.7548 C   0  0  0  0  0  0  0  0  0  0  0  0
    8.1334   10.5431   24.6362 C   0  0  0  0  0  0  0  0  0  0  0  0
    8.5321   11.8457   24.3020 C   0  0  0  0  0  0  0  0  0  0  0  0
    6.6135   12.6804   25.5553 C   0  0  0  0  0  0  0  0  0  0  0  0
    9.9009    9.5221   23.2982 C   0  0  0  0  0  0  0  0  0  0  0  0
   10.4422   13.2208   23.3783 C   0  0  0  0  0  0  0  0  0  0  0  0
   10.1406   10.8878   22.6983 C   0  0  0  0  0  0  0  0  0  0  0  0
   11.9203   15.5663   22.6560 C   0  0  0  0  0  0  0  0  0  0  0  0
   11.5925   14.8142   20.2820 C   0  0  0  0  0  0  0  0  0  0  0  0
    9.5996   15.3908   21.6977 C   0  0  0  0  0  0  0  0  0  0  0  0
   11.0105   14.8040   21.6938 C   0  0  0  0  0  0  0  0  0  0  0  0
    8.8606    9.4326   24.1882 N   0  0  0  0  0  0  0  0  0  0  0  0
    9.7073   12.0250   23.5055 N   0  0  0  0  0  0  0  0  0  0  0  0
   10.5176    8.5353   22.8945 O   0  0  0  0  0  0  0  0  0  0  0  0
   10.5733   14.0380   24.2903 O   0  0  0  0  0  0  0  0  0  0  0  0
    5.8590   13.7301   25.9832 O   0  0  0  0  0  0  0  0  0  0  0  0
   10.9376   13.4385   22.1207 O   0  0  0  0  0  0  0  0  0  0  0  0
    6.7265    9.3036   25.7261 H   0  0  0  0  0  0  0  0  0  0  0  0
    5.3908   11.2019   26.5398 H   0  0  0  0  0  0  0  0  0  0  0  0
    7.9368   13.9385   24.4880 H   0  0  0  0  0  0  0  0  0  0  0  0
   11.2070   10.9699   22.5217 H   0  0  0  0  0  0  0  0  0  0  0  0
    9.6079   10.9343   21.7554 H   0  0  0  0  0  0  0  0  0  0  0  0
   11.5060   15.5613   23.6706 H   0  0  0  0  0  0  0  0  0  0  0  0
   12.9256   15.1337   22.6887 H   0  0  0  0  0  0  0  0  0  0  0  0
   12.0058   16.6188   22.3623 H   0  0  0  0  0  0  0  0  0  0  0  0
   10.9429   14.2684   19.5882 H   0  0  0  0  0  0  0  0  0  0  0  0
   12.5647   14.3088   20.2569 H   0  0  0  0  0  0  0  0  0  0  0  0
   11.7221   15.8341   19.9058 H   0  0  0  0  0  0  0  0  0  0  0  0
    8.9468   14.8442   21.0076 H   0  0  0  0  0  0  0  0  0  0  0  0
    9.1519   15.3578   22.6963 H   0  0  0  0  0  0  0  0  0  0  0  0
    9.6097   16.4317   21.3548 H   0  0  0  0  0  0  0  0  0  0  0  0
    8.6067    8.5176   24.5380 H   0  0  0  0  0  0  0  0  0  0  0  0
    5.1167   13.4120   26.5208 H   0  0  0  0  0  0  0  0  0  0  0  0
  1  2  1  0  0  0  0
  1  4  2  0  0  0  0
  2  6  2  0  0  0  0
  3  5  2  0  0  0  0
  3  6  1  0  0  0  0
  4  5  1  0  0  0  0
  4 14  1  0  0  0  0
  5 15  1  0  0  0  0
  6 18  1  0  0  0  0
  7  9  1  0  0  0  0
  7 14  1  0  0  0  0
  7 16  2  0  0  0  0
  8 15  1  0  0  0  0
  8 17  2  0  0  0  0
  8 19  1  0  0  0  0
  9 15  1  0  0  0  0
 10 13  1  0  0  0  0
 11 13  1  0  0  0  0
 12 13  1  0  0  0  0
 13 19  1  0  0  0  0
  1 20  1  0  0  0  0
  2 21  1  0  0  0  0
  3 22  1  0  0  0  0
  9 23  1  0  0  0  0
  9 24  1  0  0  0  0
 10 25  1  0  0  0  0
 10 26  1  0  0  0  0
 10 27  1  0  0  0  0
 11 28  1  0  0  0  0
 11 29  1  0  0  0  0
 11 30  1  0  0  0  0
 12 31  1  0  0  0  0
 12 32  1  0  0  0  0
 12 33  1  0  0  0  0
 14 34  1  0  0  0  0
 18 35  1  0  0  0  0
M  END
> <id>
EN300-1716509

> <smiles>
CC(C)(C)OC(=O)N1CC(=O)NC=2C=CC(O)=CC12

> <MDLNUMBER>
MFCD17170839

> <IUPAC Name>
tert-butyl 7-hydroxy-3-oxo-1,2,3,4-tetrahydroquinoxaline-1-carboxylate

> <CAS>
1824074-89-6

> <Purity>
95

> <URL>
https://www.enaminestore.com/catalog/EN300-1716509

> <ROCS_ShapeQuery>
A71EV2A-x0451_0A_A71EV2A-x0310_0A_A71EV2A-x0416_0A_peptide

> <ROCS_TanimotoCombo>
0.516 

> <ROCS_ShapeTanimoto>
0.360 

> <ROCS_ColorTanimoto>
0.156 

> <ROCS_RefTversky>
0.310 

> <ROCS_RefColorTversky>
0.176 

> <ROCS_RefTverskyCombo>
0.486 

> <ROCS_FitTversky>
1.819 

> <ROCS_FitColorTversky>
0.584 

> <ROCS_FitTverskyCombo>
2.403 

> <ROCS_ColorScore>
-5.371

> <ROCS_Overlap>
2148.791

> <ROCS_Rank>
47                  

$$$$
untitled-dbase-5924_2
  -OEChem-11132313473D

 36 38  0     1  0  0  0  0  0999 V2000
    7.7572   12.3574   24.4262 C   0  0  0  0  0  0  0  0  0  0  0  0
   10.7236   13.3347   23.4497 C   0  0  0  0  0  0  0  0  0  0  0  0
    7.5241   10.3953   23.0150 C   0  0  0  0  0  0  0  0  0  0  0  0
    7.5404   10.2617   25.3963 C   0  0  0  0  0  0  0  0  0  0  0  0
   10.0391   10.9721   22.8460 C   0  0  0  0  0  0  0  0  0  0  0  0
    6.9456   11.0876   24.2588 C   0  0  1  0  0  0  0  0  0  0  0  0
    9.1695   11.9714   24.8415 C   0  0  1  0  0  0  0  0  0  0  0  0
    8.9765   10.0496   23.4485 C   0  0  1  0  0  0  0  0  0  0  0  0
    8.9822   10.4460   24.9461 C   0  0  2  0  0  0  0  0  0  0  0  0
   12.4060   15.4574   22.5380 C   0  0  0  0  0  0  0  0  0  0  0  0
   12.5196   14.1901   20.3723 C   0  0  0  0  0  0  0  0  0  0  0  0
   10.3125   15.0578   21.1992 C   0  0  0  0  0  0  0  0  0  0  0  0
   11.6728   14.4934   21.6064 C   0  0  0  0  0  0  0  0  0  0  0  0
   10.0218   12.1668   23.6894 N   0  0  0  0  0  0  0  0  0  0  0  0
    7.3772   13.4818   24.1403 O   0  0  0  0  0  0  0  0  0  0  0  0
   10.6891   14.3239   24.1778 O   0  0  0  0  0  0  0  0  0  0  0  0
   11.4646   13.2585   22.3008 O   0  0  0  0  0  0  0  0  0  0  0  0
    6.9712    9.4714   22.8098 H   0  0  0  0  0  0  0  0  0  0  0  0
    7.4886   11.0255   22.1203 H   0  0  0  0  0  0  0  0  0  0  0  0
    7.3528   10.6916   26.3861 H   0  0  0  0  0  0  0  0  0  0  0  0
    7.2186    9.2157   25.3767 H   0  0  0  0  0  0  0  0  0  0  0  0
   11.0384   10.5304   22.9286 H   0  0  0  0  0  0  0  0  0  0  0  0
    9.8540   11.2347   21.8003 H   0  0  0  0  0  0  0  0  0  0  0  0
    5.8673   11.2370   24.2846 H   0  0  0  0  0  0  0  0  0  0  0  0
    9.4826   12.4879   25.7506 H   0  0  0  0  0  0  0  0  0  0  0  0
    9.1950    8.9913   23.2779 H   0  0  0  0  0  0  0  0  0  0  0  0
    9.7487    9.9409   25.5382 H   0  0  0  0  0  0  0  0  0  0  0  0
   11.8014   15.6776   23.4251 H   0  0  0  0  0  0  0  0  0  0  0  0
   13.3677   15.0491   22.8652 H   0  0  0  0  0  0  0  0  0  0  0  0
   12.5883   16.4177   22.0421 H   0  0  0  0  0  0  0  0  0  0  0  0
   11.9974   13.4987   19.7011 H   0  0  0  0  0  0  0  0  0  0  0  0
   13.4574   13.6977   20.6538 H   0  0  0  0  0  0  0  0  0  0  0  0
   12.7601   15.1004   19.8136 H   0  0  0  0  0  0  0  0  0  0  0  0
    9.7864   14.3665   20.5310 H   0  0  0  0  0  0  0  0  0  0  0  0
    9.6771   15.2470   22.0705 H   0  0  0  0  0  0  0  0  0  0  0  0
   10.4300   15.9953   20.6438 H   0  0  0  0  0  0  0  0  0  0  0  0
  1  6  1  0  0  0  0
  1  7  1  0  0  0  0
  1 15  2  0  0  0  0
  2 14  1  0  0  0  0
  2 16  2  0  0  0  0
  2 17  1  0  0  0  0
  3  6  1  0  0  0  0
  3  8  1  0  0  0  0
  4  6  1  0  0  0  0
  4  9  1  0  0  0  0
  5  8  1  0  0  0  0
  5 14  1  0  0  0  0
  7  9  1  0  0  0  0
  7 14  1  0  0  0  0
  8  9  1  0  0  0  0
 10 13  1  0  0  0  0
 11 13  1  0  0  0  0
 12 13  1  0  0  0  0
 13 17  1  0  0  0  0
  3 18  1  0  0  0  0
  3 19  1  0  0  0  0
  4 20  1  0  0  0  0
  4 21  1  0  0  0  0
  5 22  1  0  0  0  0
  5 23  1  0  0  0  0
  6 24  1  0  0  0  0
  7 25  1  0  0  0  0
  8 26  1  0  0  0  0
  9 27  1  0  0  0  0
 10 28  1  0  0  0  0
 10 29  1  0  0  0  0
 10 30  1  0  0  0  0
 11 31  1  0  0  0  0
 11 32  1  0  0  0  0
 11 33  1  0  0  0  0
 12 34  1  0  0  0  0
 12 35  1  0  0  0  0
 12 36  1  0  0  0  0
M  END
> <id>
EN300-223283

> <smiles>
CC(C)(C)OC(=O)N1CC2CC3CC2C1C3=O

> <MDLNUMBER>
MFCD29033889

> <IUPAC Name>
tert-butyl 2-oxo-4-azatricyclo[4.2.1.0,3,7]nonane-4-carboxylate

> <CAS>
1808838-62-1

> <Purity>
95

> <URL>
https://www.enaminestore.com/catalog/EN300-223283

> <ROCS_ShapeQuery>
A71EV2A-x0451_0A_A71EV2A-x0310_0A_A71EV2A-x0416_0A_peptide

> <ROCS_TanimotoCombo>
0.516 

> <ROCS_ShapeTanimoto>
0.310 

> <ROCS_ColorTanimoto>
0.206 

> <ROCS_RefTversky>
0.275 

> <ROCS_RefColorTversky>
0.261 

> <ROCS_RefTverskyCombo>
0.536 

> <ROCS_FitTversky>
1.718 

> <ROCS_FitColorTversky>
0.491 

> <ROCS_FitTverskyCombo>
2.209 

> <ROCS_ColorScore>
-8.081

> <ROCS_Overlap>
1904.068

> <ROCS_Rank>
48                  

$$$$
untitled-dbase-11369_51
  -OEChem-11132313473D

 38 39  0     1  0  0  0  0  0999 V2000
    6.3988   11.5611   26.1642 C   0  0  0  0  0  0  0  0  0  0  0  0
    6.8557   12.8308   25.8561 C   0  0  0  0  0  0  0  0  0  0  0  0
    7.0228   10.4570   25.5964 C   0  0  0  0  0  0  0  0  0  0  0  0
    7.9537   12.9969   25.0057 C   0  0  0  0  0  0  0  0  0  0  0  0
    8.1084   10.6053   24.7058 C   0  0  0  0  0  0  0  0  0  0  0  0
    8.6262   11.8995   24.4355 C   0  0  0  0  0  0  0  0  0  0  0  0
   10.5021   13.2890   23.4597 C   0  0  0  0  0  0  0  0  0  0  0  0
    9.4117    9.7217   22.7863 C   0  0  0  0  0  0  0  0  0  0  0  0
   10.3939   10.8536   23.0049 C   0  0  0  0  0  0  0  0  0  0  0  0
    8.7405    9.3634   24.1039 C   0  0  2  0  0  0  0  0  0  0  0  0
   12.1827   15.4982   22.7184 C   0  0  0  0  0  0  0  0  0  0  0  0
   12.2914   14.4178   20.4535 C   0  0  0  0  0  0  0  0  0  0  0  0
   10.0859   15.2106   21.3563 C   0  0  0  0  0  0  0  0  0  0  0  0
   11.4477   14.6152   21.7110 C   0  0  0  0  0  0  0  0  0  0  0  0
    9.8083   12.0611   23.6088 N   0  0  0  0  0  0  0  0  0  0  0  0
    7.7886    8.2755   23.8502 N   0  0  0  0  0  0  0  0  0  0  0  0
   10.5025   14.2358   24.2403 O   0  0  0  0  0  0  0  0  0  0  0  0
   11.2422   13.3251   22.3000 O   0  0  0  0  0  0  0  0  0  0  0  0
    5.5583   11.4276   26.8389 H   0  0  0  0  0  0  0  0  0  0  0  0
    6.3588   13.7020   26.2720 H   0  0  0  0  0  0  0  0  0  0  0  0
    6.6571    9.4622   25.8490 H   0  0  0  0  0  0  0  0  0  0  0  0
    8.2368   14.0244   24.8164 H   0  0  0  0  0  0  0  0  0  0  0  0
    8.6692   10.0075   22.0375 H   0  0  0  0  0  0  0  0  0  0  0  0
    9.9437    8.8516   22.3897 H   0  0  0  0  0  0  0  0  0  0  0  0
   11.1992   10.4732   23.6493 H   0  0  0  0  0  0  0  0  0  0  0  0
   10.8708   11.1626   22.0627 H   0  0  0  0  0  0  0  0  0  0  0  0
    9.5291    8.9820   24.7687 H   0  0  0  0  0  0  0  0  0  0  0  0
   11.5804   15.6423   23.6225 H   0  0  0  0  0  0  0  0  0  0  0  0
   13.1456   15.0647   23.0076 H   0  0  0  0  0  0  0  0  0  0  0  0
   12.3630   16.4969   22.3046 H   0  0  0  0  0  0  0  0  0  0  0  0
   11.7679   13.7848   19.7278 H   0  0  0  0  0  0  0  0  0  0  0  0
   13.2304   13.9043   20.6901 H   0  0  0  0  0  0  0  0  0  0  0  0
   12.5297   15.3721   19.9728 H   0  0  0  0  0  0  0  0  0  0  0  0
    9.5585   14.5774   20.6337 H   0  0  0  0  0  0  0  0  0  0  0  0
    9.4528   15.3251   22.2422 H   0  0  0  0  0  0  0  0  0  0  0  0
   10.2012   16.1916   20.8815 H   0  0  0  0  0  0  0  0  0  0  0  0
    8.2824    7.5313   23.4209 H   0  0  0  0  0  0  0  0  0  0  0  0
    7.4090    7.9932   24.7209 H   0  0  0  0  0  0  0  0  0  0  0  0
  1  2  2  0  0  0  0
  1  3  1  0  0  0  0
  2  4  1  0  0  0  0
  3  5  2  0  0  0  0
  4  6  2  0  0  0  0
  5  6  1  0  0  0  0
  5 10  1  0  0  0  0
  6 15  1  0  0  0  0
  7 15  1  0  0  0  0
  7 17  2  0  0  0  0
  7 18  1  0  0  0  0
  8  9  1  0  0  0  0
  8 10  1  0  0  0  0
  9 15  1  0  0  0  0
 10 16  1  0  0  0  0
 11 14  1  0  0  0  0
 12 14  1  0  0  0  0
 13 14  1  0  0  0  0
 14 18  1  0  0  0  0
  1 19  1  0  0  0  0
  2 20  1  0  0  0  0
  3 21  1  0  0  0  0
  4 22  1  0  0  0  0
  8 23  1  0  0  0  0
  8 24  1  0  0  0  0
  9 25  1  0  0  0  0
  9 26  1  0  0  0  0
 10 27  1  0  0  0  0
 11 28  1  0  0  0  0
 11 29  1  0  0  0  0
 11 30  1  0  0  0  0
 12 31  1  0  0  0  0
 12 32  1  0  0  0  0
 12 33  1  0  0  0  0
 13 34  1  0  0  0  0
 13 35  1  0  0  0  0
 13 36  1  0  0  0  0
 16 37  1  0  0  0  0
 16 38  1  0  0  0  0
M  END
> <id>
EN300-396498

> <smiles>
CC(C)(C)OC(=O)N1CCC(N)C=2C=CC=CC12

> <MDLNUMBER>
MFCD10697725

> <IUPAC Name>
tert-butyl 4-amino-1,2,3,4-tetrahydroquinoline-1-carboxylate

> <CAS>
944906-95-0

> <Purity>
95

> <URL>
https://www.enaminestore.com/catalog/EN300-396498

> <ROCS_ShapeQuery>
A71EV2A-x0451_0A_A71EV2A-x0310_0A_A71EV2A-x0416_0A_peptide

> <ROCS_TanimotoCombo>
0.516 

> <ROCS_ShapeTanimoto>
0.350 

> <ROCS_ColorTanimoto>
0.166 

> <ROCS_RefTversky>
0.301 

> <ROCS_RefColorTversky>
0.176 

> <ROCS_RefTverskyCombo>
0.477 

> <ROCS_FitTversky>
1.860 

> <ROCS_FitColorTversky>
0.736 

> <ROCS_FitTverskyCombo>
2.596 

> <ROCS_ColorScore>
-5.363

> <ROCS_Overlap>
2088.938

> <ROCS_Rank>
49                  

$$$$
untitled-dbase-19817_4
  -OEChem-11132313473D

 41 43  0     1  0  0  0  0  0999 V2000
    6.1248   12.6125   26.3524 C   0  0  0  0  0  0  0  0  0  0  0  0
    6.6641   13.7501   25.7737 C   0  0  0  0  0  0  0  0  0  0  0  0
    6.6696   11.3690   26.0493 C   0  0  0  0  0  0  0  0  0  0  0  0
    7.7534   13.6419   24.9064 C   0  0  0  0  0  0  0  0  0  0  0  0
    7.7692   11.2380   25.1774 C   0  0  0  0  0  0  0  0  0  0  0  0
    8.3409   12.3949   24.6103 C   0  0  0  0  0  0  0  0  0  0  0  0
   10.2302   13.4264   23.3555 C   0  0  0  0  0  0  0  0  0  0  0  0
    8.3061    9.8859   24.8704 C   0  0  2  0  0  0  0  0  0  0  0  0
    9.2752    9.7696   23.7369 C   0  0  2  0  0  0  0  0  0  0  0  0
    9.6432   10.9984   22.9110 C   0  0  0  0  0  0  0  0  0  0  0  0
   11.1294   10.7843   22.5015 C   0  0  0  0  0  0  0  0  0  0  0  0
    8.8053   11.0667   21.6180 C   0  0  0  0  0  0  0  0  0  0  0  0
   12.5303   14.7401   22.2621 C   0  0  0  0  0  0  0  0  0  0  0  0
   11.3444   14.5810   20.0536 C   0  0  0  0  0  0  0  0  0  0  0  0
   10.3299   15.9144   21.9247 C   0  0  0  0  0  0  0  0  0  0  0  0
   11.1705   14.6896   21.5669 C   0  0  0  0  0  0  0  0  0  0  0  0
    9.4655   12.2848   23.6919 N   0  0  0  0  0  0  0  0  0  0  0  0
   10.5810   14.2988   24.1468 O   0  0  0  0  0  0  0  0  0  0  0  0
    7.9206    9.3085   23.6155 O   0  0  0  0  0  0  0  0  0  0  0  0
   10.4769   13.5160   22.0070 O   0  0  0  0  0  0  0  0  0  0  0  0
    5.2950   12.6911   27.0474 H   0  0  0  0  0  0  0  0  0  0  0  0
    6.2485   14.7272   26.0023 H   0  0  0  0  0  0  0  0  0  0  0  0
    6.2342   10.4818   26.5042 H   0  0  0  0  0  0  0  0  0  0  0  0
    8.1513   14.5706   24.5060 H   0  0  0  0  0  0  0  0  0  0  0  0
    8.4452    9.1921   25.6940 H   0  0  0  0  0  0  0  0  0  0  0  0
   10.0535    9.0214   23.7969 H   0  0  0  0  0  0  0  0  0  0  0  0
   11.4583   11.6286   21.9068 H   0  0  0  0  0  0  0  0  0  0  0  0
   11.2093    9.8722   21.9215 H   0  0  0  0  0  0  0  0  0  0  0  0
   11.7357   10.7059   23.3966 H   0  0  0  0  0  0  0  0  0  0  0  0
    9.0965   11.9483   21.0650 H   0  0  0  0  0  0  0  0  0  0  0  0
    7.7601   11.1206   21.8874 H   0  0  0  0  0  0  0  0  0  0  0  0
    8.9978   10.1771   21.0354 H   0  0  0  0  0  0  0  0  0  0  0  0
   12.4099   14.8181   23.3485 H   0  0  0  0  0  0  0  0  0  0  0  0
   13.1294   13.8506   22.0416 H   0  0  0  0  0  0  0  0  0  0  0  0
   13.0966   15.6249   21.9496 H   0  0  0  0  0  0  0  0  0  0  0  0
   10.3712   14.5445   19.5507 H   0  0  0  0  0  0  0  0  0  0  0  0
   11.8650   13.6545   19.7860 H   0  0  0  0  0  0  0  0  0  0  0  0
   11.9115   15.4262   19.6503 H   0  0  0  0  0  0  0  0  0  0  0  0
    9.3545   15.8784   21.4262 H   0  0  0  0  0  0  0  0  0  0  0  0
   10.1637   15.9881   23.0043 H   0  0  0  0  0  0  0  0  0  0  0  0
   10.8176   16.8349   21.5838 H   0  0  0  0  0  0  0  0  0  0  0  0
  1  2  2  0  0  0  0
  1  3  1  0  0  0  0
  2  4  1  0  0  0  0
  3  5  2  0  0  0  0
  4  6  2  0  0  0  0
  5  6  1  0  0  0  0
  5  8  1  0  0  0  0
  6 17  1  0  0  0  0
  7 17  1  0  0  0  0
  7 18  2  0  0  0  0
  7 20  1  0  0  0  0
  8  9  1  0  0  0  0
  8 19  1  0  0  0  0
  9 10  1  0  0  0  0
  9 19  1  0  0  0  0
 10 11  1  0  0  0  0
 10 12  1  0  0  0  0
 10 17  1  0  0  0  0
 13 16  1  0  0  0  0
 14 16  1  0  0  0  0
 15 16  1  0  0  0  0
 16 20  1  0  0  0  0
  1 21  1  0  0  0  0
  2 22  1  0  0  0  0
  3 23  1  0  0  0  0
  4 24  1  0  0  0  0
  8 25  1  0  0  0  0
  9 26  1  0  0  0  0
 11 27  1  0  0  0  0
 11 28  1  0  0  0  0
 11 29  1  0  0  0  0
 12 30  1  0  0  0  0
 12 31  1  0  0  0  0
 12 32  1  0  0  0  0
 13 33  1  0  0  0  0
 13 34  1  0  0  0  0
 13 35  1  0  0  0  0
 14 36  1  0  0  0  0
 14 37  1  0  0  0  0
 14 38  1  0  0  0  0
 15 39  1  0  0  0  0
 15 40  1  0  0  0  0
 15 41  1  0  0  0  0
M  END
> <id>
EN300-1708355

> <smiles>
CC(C)(C)OC(=O)N1C=2C=CC=CC2C3OC3C1(C)C

> <IUPAC Name>
tert-butyl 2,2-dimethyl-1aH,2H,3H,7bH-oxireno[2,3-c]quinoline-3-carboxylate

> <CAS>
2219374-72-6

> <URL>
https://www.enaminestore.com/catalog/EN300-1708355

> <ROCS_ShapeQuery>
A71EV2A-x0451_0A_A71EV2A-x0310_0A_A71EV2A-x0416_0A_peptide

> <ROCS_TanimotoCombo>
0.516 

> <ROCS_ShapeTanimoto>
0.350 

> <ROCS_ColorTanimoto>
0.166 

> <ROCS_RefTversky>
0.305 

> <ROCS_RefColorTversky>
0.189 

> <ROCS_RefTverskyCombo>
0.494 

> <ROCS_FitTversky>
1.729 

> <ROCS_FitColorTversky>
0.577 

> <ROCS_FitTverskyCombo>
2.306 

> <ROCS_ColorScore>
-5.775

> <ROCS_Overlap>
2114.741

> <ROCS_Rank>
50                  

$$$$
untitled-dbase-45533_2
  -OEChem-11132313473D

 40 41  0     0  0  0  0  0  0999 V2000
    6.8365   12.8842   26.1520 C   0  0  0  0  0  0  0  0  0  0  0  0
    7.8982   13.0590   25.2567 C   0  0  0  0  0  0  0  0  0  0  0  0
    6.2577   11.6325   26.3196 C   0  0  0  0  0  0  0  0  0  0  0  0
    8.4086   11.9816   24.5161 C   0  0  0  0  0  0  0  0  0  0  0  0
    7.8132   10.7211   24.7058 C   0  0  0  0  0  0  0  0  0  0  0  0
    6.7425   10.5518   25.5929 C   0  0  0  0  0  0  0  0  0  0  0  0
   10.2606   13.2731   23.4139 C   0  0  0  0  0  0  0  0  0  0  0  0
    9.6424   10.9624   22.6680 C   0  0  0  0  0  0  0  0  0  0  0  0
    9.4840    9.6382   23.4165 C   0  0  0  0  0  0  0  0  0  0  0  0
   10.6034    9.4024   24.4424 C   0  0  0  0  0  0  0  0  0  0  0  0
    9.4987    8.4858   22.4023 C   0  0  0  0  0  0  0  0  0  0  0  0
   12.7601   14.4825   22.6918 C   0  0  0  0  0  0  0  0  0  0  0  0
   11.8102   14.6248   20.3709 C   0  0  0  0  0  0  0  0  0  0  0  0
   10.7039   15.8661   22.2533 C   0  0  0  0  0  0  0  0  0  0  0  0
   11.4832   14.6111   21.8625 C   0  0  0  0  0  0  0  0  0  0  0  0
    9.4690   12.1184   23.5581 N   0  0  0  0  0  0  0  0  0  0  0  0
   10.5932   14.0417   24.3121 O   0  0  0  0  0  0  0  0  0  0  0  0
    8.2088    9.5746   24.0656 O   0  0  0  0  0  0  0  0  0  0  0  0
   10.6594   13.4661   22.1134 O   0  0  0  0  0  0  0  0  0  0  0  0
    5.9159    8.8608   25.8614 Br  0  0  0  0  0  0  0  0  0  0  0  0
    6.4557   13.7360   26.7089 H   0  0  0  0  0  0  0  0  0  0  0  0
    8.2694   14.0710   25.1466 H   0  0  0  0  0  0  0  0  0  0  0  0
    5.4310   11.5210   27.0159 H   0  0  0  0  0  0  0  0  0  0  0  0
   10.6187   10.9912   22.1730 H   0  0  0  0  0  0  0  0  0  0  0  0
    8.8762   11.0668   21.8883 H   0  0  0  0  0  0  0  0  0  0  0  0
   10.4402    8.4520   24.9412 H   0  0  0  0  0  0  0  0  0  0  0  0
   10.5949   10.2038   25.1749 H   0  0  0  0  0  0  0  0  0  0  0  0
   11.5616    9.3859   23.9322 H   0  0  0  0  0  0  0  0  0  0  0  0
    9.3866    7.5413   22.9269 H   0  0  0  0  0  0  0  0  0  0  0  0
   10.4413    8.4913   21.8628 H   0  0  0  0  0  0  0  0  0  0  0  0
    8.6785    8.6110   21.7012 H   0  0  0  0  0  0  0  0  0  0  0  0
   12.5297   14.4723   23.7631 H   0  0  0  0  0  0  0  0  0  0  0  0
   13.3104   13.5684   22.4458 H   0  0  0  0  0  0  0  0  0  0  0  0
   13.4220   15.3402   22.5261 H   0  0  0  0  0  0  0  0  0  0  0  0
   10.8968   14.7170   19.7721 H   0  0  0  0  0  0  0  0  0  0  0  0
   12.2850   13.6850   20.0668 H   0  0  0  0  0  0  0  0  0  0  0  0
   12.4796   15.4513   20.1116 H   0  0  0  0  0  0  0  0  0  0  0  0
    9.7879   15.9586   21.6587 H   0  0  0  0  0  0  0  0  0  0  0  0
   10.4285   15.8562   23.3129 H   0  0  0  0  0  0  0  0  0  0  0  0
   11.2937   16.7684   22.0552 H   0  0  0  0  0  0  0  0  0  0  0  0
  1  2  1  0  0  0  0
  1  3  2  0  0  0  0
  2  4  2  0  0  0  0
  3  6  1  0  0  0  0
  4  5  1  0  0  0  0
  4 16  1  0  0  0  0
  5  6  2  0  0  0  0
  5 18  1  0  0  0  0
  6 20  1  0  0  0  0
  7 16  1  0  0  0  0
  7 17  2  0  0  0  0
  7 19  1  0  0  0  0
  8  9  1  0  0  0  0
  8 16  1  0  0  0  0
  9 10  1  0  0  0  0
  9 11  1  0  0  0  0
  9 18  1  0  0  0  0
 12 15  1  0  0  0  0
 13 15  1  0  0  0  0
 14 15  1  0  0  0  0
 15 19  1  0  0  0  0
  1 21  1  0  0  0  0
  2 22  1  0  0  0  0
  3 23  1  0  0  0  0
  8 24  1  0  0  0  0
  8 25  1  0  0  0  0
 10 26  1  0  0  0  0
 10 27  1  0  0  0  0
 10 28  1  0  0  0  0
 11 29  1  0  0  0  0
 11 30  1  0  0  0  0
 11 31  1  0  0  0  0
 12 32  1  0  0  0  0
 12 33  1  0  0  0  0
 12 34  1  0  0  0  0
 13 35  1  0  0  0  0
 13 36  1  0  0  0  0
 13 37  1  0  0  0  0
 14 38  1  0  0  0  0
 14 39  1  0  0  0  0
 14 40  1  0  0  0  0
M  END
> <id>
EN300-28297366

> <smiles>
CC(C)(C)OC(=O)N1CC(C)(C)OC=2C(Br)=CC=CC12

> <IUPAC Name>
tert-butyl 8-bromo-2,2-dimethyl-3,4-dihydro-2H-1,4-benzoxazine-4-carboxylate

> <CAS>
2680892-89-9

> <URL>
https://www.enaminestore.com/catalog/EN300-28297366

> <ROCS_ShapeQuery>
A71EV2A-x0451_0A_A71EV2A-x0310_0A_A71EV2A-x0416_0A_peptide

> <ROCS_TanimotoCombo>
0.515 

> <ROCS_ShapeTanimoto>
0.365 

> <ROCS_ColorTanimoto>
0.150 

> <ROCS_RefTversky>
0.314 

> <ROCS_RefColorTversky>
0.166 

> <ROCS_RefTverskyCombo>
0.480 

> <ROCS_FitTversky>
1.807 

> <ROCS_FitColorTversky>
0.614 

> <ROCS_FitTverskyCombo>
2.421 

> <ROCS_ColorScore>
-5.059

> <ROCS_Overlap>
2178.269

> <ROCS_Rank>
51                  

$$$$
untitled-dbase-45183_13
  -OEChem-11132313473D

 33 34  0     0  0  0  0  0  0999 V2000
    7.8225   13.1350   25.0414 C   0  0  0  0  0  0  0  0  0  0  0  0
    6.2240   11.6609   26.0040 C   0  0  0  0  0  0  0  0  0  0  0  0
    8.4371   12.0518   24.4038 C   0  0  0  0  0  0  0  0  0  0  0  0
    6.7104   12.9433   25.8588 C   0  0  0  0  0  0  0  0  0  0  0  0
    7.8485   10.7953   24.6112 C   0  0  0  0  0  0  0  0  0  0  0  0
   10.4066   13.2840   23.3649 C   0  0  0  0  0  0  0  0  0  0  0  0
    9.8151   10.9925   22.6947 C   0  0  0  0  0  0  0  0  0  0  0  0
    9.6371    9.7390   23.5230 C   0  0  0  0  0  0  0  0  0  0  0  0
   12.9048   14.5457   22.7495 C   0  0  0  0  0  0  0  0  0  0  0  0
   12.0662   14.6250   20.3831 C   0  0  0  0  0  0  0  0  0  0  0  0
   10.8380   15.8675   22.1876 C   0  0  0  0  0  0  0  0  0  0  0  0
   11.6671   14.6272   21.8572 C   0  0  0  0  0  0  0  0  0  0  0  0
    6.7602   10.5868   25.3931 N   0  0  0  0  0  0  0  0  0  0  0  0
    9.5623   12.1709   23.5245 N   0  0  0  0  0  0  0  0  0  0  0  0
   10.6695   14.0710   24.2750 O   0  0  0  0  0  0  0  0  0  0  0  0
    8.3038    9.6446   24.0145 O   0  0  0  0  0  0  0  0  0  0  0  0
   10.8614   13.4652   22.0879 O   0  0  0  0  0  0  0  0  0  0  0  0
    5.8988   14.3911   26.7513 Br  0  0  0  0  0  0  0  0  0  0  0  0
    8.1878   14.1481   24.9347 H   0  0  0  0  0  0  0  0  0  0  0  0
    5.3656   11.4416   26.6316 H   0  0  0  0  0  0  0  0  0  0  0  0
   10.8397   11.0765   22.3288 H   0  0  0  0  0  0  0  0  0  0  0  0
    9.1364   10.9600   21.8442 H   0  0  0  0  0  0  0  0  0  0  0  0
    9.8932    8.8310   22.9576 H   0  0  0  0  0  0  0  0  0  0  0  0
   10.3056    9.7723   24.3922 H   0  0  0  0  0  0  0  0  0  0  0  0
   12.6226   14.5470   23.8084 H   0  0  0  0  0  0  0  0  0  0  0  0
   13.4895   13.6425   22.5466 H   0  0  0  0  0  0  0  0  0  0  0  0
   13.5520   15.4176   22.6010 H   0  0  0  0  0  0  0  0  0  0  0  0
   11.1812   14.6834   19.7393 H   0  0  0  0  0  0  0  0  0  0  0  0
   12.5791   13.6932   20.1190 H   0  0  0  0  0  0  0  0  0  0  0  0
   12.7263   15.4645   20.1421 H   0  0  0  0  0  0  0  0  0  0  0  0
    9.9501   15.9262   21.5477 H   0  0  0  0  0  0  0  0  0  0  0  0
   10.5115   15.8677   23.2326 H   0  0  0  0  0  0  0  0  0  0  0  0
   11.4136   16.7816   22.0024 H   0  0  0  0  0  0  0  0  0  0  0  0
  1  3  2  0  0  0  0
  1  4  1  0  0  0  0
  2  4  2  0  0  0  0
  2 13  1  0  0  0  0
  3  5  1  0  0  0  0
  3 14  1  0  0  0  0
  4 18  1  0  0  0  0
  5 13  2  0  0  0  0
  5 16  1  0  0  0  0
  6 14  1  0  0  0  0
  6 15  2  0  0  0  0
  6 17  1  0  0  0  0
  7  8  1  0  0  0  0
  7 14  1  0  0  0  0
  8 16  1  0  0  0  0
  9 12  1  0  0  0  0
 10 12  1  0  0  0  0
 11 12  1  0  0  0  0
 12 17  1  0  0  0  0
  1 19  1  0  0  0  0
  2 20  1  0  0  0  0
  7 21  1  0  0  0  0
  7 22  1  0  0  0  0
  8 23  1  0  0  0  0
  8 24  1  0  0  0  0
  9 25  1  0  0  0  0
  9 26  1  0  0  0  0
  9 27  1  0  0  0  0
 10 28  1  0  0  0  0
 10 29  1  0  0  0  0
 10 30  1  0  0  0  0
 11 31  1  0  0  0  0
 11 32  1  0  0  0  0
 11 33  1  0  0  0  0
M  END
> <id>
EN300-1590555

> <smiles>
CC(C)(C)OC(=O)N1CCOC=2N=CC(Br)=CC12

> <MDLNUMBER>
MFCD29913870

> <IUPAC Name>
tert-butyl 7-bromo-1H,2H,3H-pyrido[2,3-b][1,4]oxazine-1-carboxylate

> <CAS>
2168945-54-6

> <URL>
https://www.enaminestore.com/catalog/EN300-1590555

> <ROCS_ShapeQuery>
A71EV2A-x0451_0A_A71EV2A-x0310_0A_A71EV2A-x0416_0A_peptide

> <ROCS_TanimotoCombo>
0.515 

> <ROCS_ShapeTanimoto>
0.342 

> <ROCS_ColorTanimoto>
0.173 

> <ROCS_RefTversky>
0.296 

> <ROCS_RefColorTversky>
0.187 

> <ROCS_RefTverskyCombo>
0.483 

> <ROCS_FitTversky>
1.824 

> <ROCS_FitColorTversky>
0.691 

> <ROCS_FitTverskyCombo>
2.515 

> <ROCS_ColorScore>
-5.704

> <ROCS_Overlap>
2054.825

> <ROCS_Rank>
52                  

$$$$
untitled-dbase-46263_4
  -OEChem-11132313473D

 37 38  0     0  0  0  0  0  0999 V2000
    6.8108   12.6015   25.7970 C   0  0  0  0  0  0  0  0  0  0  0  0
    7.9273   12.8401   24.9864 C   0  0  0  0  0  0  0  0  0  0  0  0
    7.0572   10.2432   25.4422 C   0  0  0  0  0  0  0  0  0  0  0  0
    6.3784   11.3034   26.0299 C   0  0  0  0  0  0  0  0  0  0  0  0
    8.6417   11.7854   24.3935 C   0  0  0  0  0  0  0  0  0  0  0  0
    8.1722   10.4835   24.6250 C   0  0  0  0  0  0  0  0  0  0  0  0
    9.8678    9.4518   23.2082 C   0  0  0  0  0  0  0  0  0  0  0  0
   10.4520   13.2322   23.4247 C   0  0  0  0  0  0  0  0  0  0  0  0
   10.3132   10.8385   22.8191 C   0  0  0  0  0  0  0  0  0  0  0  0
   12.8617   14.7189   22.9557 C   0  0  0  0  0  0  0  0  0  0  0  0
   12.2926   14.5206   20.5172 C   0  0  0  0  0  0  0  0  0  0  0  0
   10.7450   15.7505   22.0666 C   0  0  0  0  0  0  0  0  0  0  0  0
    5.1917   11.0494   26.8952 C   0  0  0  0  0  0  0  0  0  0  0  0
   11.7312   14.5906   21.9357 C   0  0  0  0  0  0  0  0  0  0  0  0
    8.8047    9.3699   24.0628 N   0  0  0  0  0  0  0  0  0  0  0  0
    9.8007   11.9854   23.5706 N   0  0  0  0  0  0  0  0  0  0  0  0
   10.4011    8.4576   22.7129 O   0  0  0  0  0  0  0  0  0  0  0  0
   10.5348   14.1177   24.2710 O   0  0  0  0  0  0  0  0  0  0  0  0
   11.0303   13.3659   22.1835 O   0  0  0  0  0  0  0  0  0  0  0  0
    4.6239   12.1872   27.3952 F   0  0  0  0  0  0  0  0  0  0  0  0
    4.1760   10.3978   26.2545 F   0  0  0  0  0  0  0  0  0  0  0  0
    5.4892   10.2811   27.9838 F   0  0  0  0  0  0  0  0  0  0  0  0
    6.2845   13.4447   26.2377 H   0  0  0  0  0  0  0  0  0  0  0  0
    8.1822   13.8811   24.8286 H   0  0  0  0  0  0  0  0  0  0  0  0
    6.7165    9.2245   25.6170 H   0  0  0  0  0  0  0  0  0  0  0  0
   11.4081   10.8451   22.8857 H   0  0  0  0  0  0  0  0  0  0  0  0
   10.0390   10.9937   21.7682 H   0  0  0  0  0  0  0  0  0  0  0  0
   12.4628   14.7695   23.9751 H   0  0  0  0  0  0  0  0  0  0  0  0
   13.5567   13.8751   22.8957 H   0  0  0  0  0  0  0  0  0  0  0  0
   13.4269   15.6447   22.7986 H   0  0  0  0  0  0  0  0  0  0  0  0
   11.4849   14.4285   19.7821 H   0  0  0  0  0  0  0  0  0  0  0  0
   12.9266   13.6354   20.3917 H   0  0  0  0  0  0  0  0  0  0  0  0
   12.8845   15.4085   20.2726 H   0  0  0  0  0  0  0  0  0  0  0  0
    9.9341   15.6587   21.3351 H   0  0  0  0  0  0  0  0  0  0  0  0
   10.3041   15.7939   23.0677 H   0  0  0  0  0  0  0  0  0  0  0  0
   11.2393   16.7071   21.8620 H   0  0  0  0  0  0  0  0  0  0  0  0
    8.4536    8.4471   24.3037 H   0  0  0  0  0  0  0  0  0  0  0  0
  1  2  1  0  0  0  0
  1  4  2  0  0  0  0
  2  5  2  0  0  0  0
  3  4  1  0  0  0  0
  3  6  2  0  0  0  0
  4 13  1  0  0  0  0
  5  6  1  0  0  0  0
  5 16  1  0  0  0  0
  6 15  1  0  0  0  0
  7  9  1  0  0  0  0
  7 15  1  0  0  0  0
  7 17  2  0  0  0  0
  8 16  1  0  0  0  0
  8 18  2  0  0  0  0
  8 19  1  0  0  0  0
  9 16  1  0  0  0  0
 10 14  1  0  0  0  0
 11 14  1  0  0  0  0
 12 14  1  0  0  0  0
 13 20  1  0  0  0  0
 13 21  1  0  0  0  0
 13 22  1  0  0  0  0
 14 19  1  0  0  0  0
  1 23  1  0  0  0  0
  2 24  1  0  0  0  0
  3 25  1  0  0  0  0
  9 26  1  0  0  0  0
  9 27  1  0  0  0  0
 10 28  1  0  0  0  0
 10 29  1  0  0  0  0
 10 30  1  0  0  0  0
 11 31  1  0  0  0  0
 11 32  1  0  0  0  0
 11 33  1  0  0  0  0
 12 34  1  0  0  0  0
 12 35  1  0  0  0  0
 12 36  1  0  0  0  0
 15 37  1  0  0  0  0
M  END
> <id>
EN300-33050756

> <smiles>
CC(C)(C)OC(=O)N1CC(=O)NC=2C=C(C=CC12)C(F)(F)F

> <IUPAC Name>
tert-butyl 3-oxo-6-(trifluoromethyl)-1,2,3,4-tetrahydroquinoxaline-1-carboxylate

> <CAS>
2694722-66-0

> <URL>
https://www.enaminestore.com/catalog/EN300-33050756

> <ROCS_ShapeQuery>
A71EV2A-x0451_0A_A71EV2A-x0310_0A_A71EV2A-x0416_0A_peptide

> <ROCS_TanimotoCombo>
0.515 

> <ROCS_ShapeTanimoto>
0.370 

> <ROCS_ColorTanimoto>
0.145 

> <ROCS_RefTversky>
0.321 

> <ROCS_RefColorTversky>
0.157 

> <ROCS_RefTverskyCombo>
0.478 

> <ROCS_FitTversky>
1.693 

> <ROCS_FitColorTversky>
0.655 

> <ROCS_FitTverskyCombo>
2.348 

> <ROCS_ColorScore>
-4.777

> <ROCS_Overlap>
2230.703

> <ROCS_Rank>
53                  

$$$$
untitled-dbase-44640_34
  -OEChem-11132313473D

 36 37  0     0  0  0  0  0  0999 V2000
    5.0176   11.9344   26.7107 C   0  0  0  0  0  0  0  0  0  0  0  0
    7.0263   13.1636   26.0476 C   0  0  0  0  0  0  0  0  0  0  0  0
    8.1995   13.1909   25.2950 C   0  0  0  0  0  0  0  0  0  0  0  0
    6.2405   12.0336   25.9852 C   0  0  0  0  0  0  0  0  0  0  0  0
    8.5698   12.1040   24.4925 C   0  0  0  0  0  0  0  0  0  0  0  0
    7.7042   10.9981   24.5251 C   0  0  0  0  0  0  0  0  0  0  0  0
   10.5518   13.2274   23.4218 C   0  0  0  0  0  0  0  0  0  0  0  0
    7.9890    9.7664   23.7169 C   0  0  0  0  0  0  0  0  0  0  0  0
    9.4849    9.5707   23.6060 C   0  0  0  0  0  0  0  0  0  0  0  0
   10.1174   10.8154   23.0081 C   0  0  0  0  0  0  0  0  0  0  0  0
   12.2315   15.3087   22.3767 C   0  0  0  0  0  0  0  0  0  0  0  0
   11.8339   14.2510   20.1334 C   0  0  0  0  0  0  0  0  0  0  0  0
    9.9024   15.1991   21.4290 C   0  0  0  0  0  0  0  0  0  0  0  0
   11.2561   14.4970   21.5255 C   0  0  0  0  0  0  0  0  0  0  0  0
    4.0219   11.8536   27.3014 N   0  0  0  0  0  0  0  0  0  0  0  0
    6.5509   10.9540   25.2443 N   0  0  0  0  0  0  0  0  0  0  0  0
    9.7667   12.0794   23.6833 N   0  0  0  0  0  0  0  0  0  0  0  0
   10.7673   14.1597   24.1906 O   0  0  0  0  0  0  0  0  0  0  0  0
   11.0643   13.2193   22.1451 O   0  0  0  0  0  0  0  0  0  0  0  0
    6.7521   14.0192   26.6571 H   0  0  0  0  0  0  0  0  0  0  0  0
    8.7794   14.1034   25.3533 H   0  0  0  0  0  0  0  0  0  0  0  0
    7.5189    8.9043   24.2048 H   0  0  0  0  0  0  0  0  0  0  0  0
    7.5548    9.8606   22.7151 H   0  0  0  0  0  0  0  0  0  0  0  0
    9.9119    9.3739   24.5956 H   0  0  0  0  0  0  0  0  0  0  0  0
    9.7145    8.7003   22.9777 H   0  0  0  0  0  0  0  0  0  0  0  0
   11.2119   10.7370   23.0320 H   0  0  0  0  0  0  0  0  0  0  0  0
    9.8241   10.8768   21.9535 H   0  0  0  0  0  0  0  0  0  0  0  0
   11.8204   15.4873   23.3768 H   0  0  0  0  0  0  0  0  0  0  0  0
   13.1948   14.7993   22.4826 H   0  0  0  0  0  0  0  0  0  0  0  0
   12.4086   16.2957   21.9345 H   0  0  0  0  0  0  0  0  0  0  0  0
   11.1374   13.6690   19.5191 H   0  0  0  0  0  0  0  0  0  0  0  0
   12.7578   13.6644   20.1923 H   0  0  0  0  0  0  0  0  0  0  0  0
   12.0519   15.1902   19.6147 H   0  0  0  0  0  0  0  0  0  0  0  0
    9.2026   14.6170   20.8185 H   0  0  0  0  0  0  0  0  0  0  0  0
    9.4555   15.3508   22.4169 H   0  0  0  0  0  0  0  0  0  0  0  0
   10.0032   16.1742   20.9389 H   0  0  0  0  0  0  0  0  0  0  0  0
  1  4  1  0  0  0  0
  1 15  3  0  0  0  0
  2  3  1  0  0  0  0
  2  4  2  0  0  0  0
  3  5  2  0  0  0  0
  4 16  1  0  0  0  0
  5  6  1  0  0  0  0
  5 17  1  0  0  0  0
  6  8  1  0  0  0  0
  6 16  2  0  0  0  0
  7 17  1  0  0  0  0
  7 18  2  0  0  0  0
  7 19  1  0  0  0  0
  8  9  1  0  0  0  0
  9 10  1  0  0  0  0
 10 17  1  0  0  0  0
 11 14  1  0  0  0  0
 12 14  1  0  0  0  0
 13 14  1  0  0  0  0
 14 19  1  0  0  0  0
  2 20  1  0  0  0  0
  3 21  1  0  0  0  0
  8 22  1  0  0  0  0
  8 23  1  0  0  0  0
  9 24  1  0  0  0  0
  9 25  1  0  0  0  0
 10 26  1  0  0  0  0
 10 27  1  0  0  0  0
 11 28  1  0  0  0  0
 11 29  1  0  0  0  0
 11 30  1  0  0  0  0
 12 31  1  0  0  0  0
 12 32  1  0  0  0  0
 12 33  1  0  0  0  0
 13 34  1  0  0  0  0
 13 35  1  0  0  0  0
 13 36  1  0  0  0  0
M  END
> <id>
EN300-28280658

> <smiles>
CC(C)(C)OC(=O)N1CCCC=2N=C(C#N)C=CC12

> <MDLNUMBER>
MFCD32671023

> <IUPAC Name>
tert-butyl 6-cyano-1,2,3,4-tetrahydro-1,5-naphthyridine-1-carboxylate

> <CAS>
2314394-09-5

> <URL>
https://www.enaminestore.com/catalog/EN300-28280658

> <ROCS_ShapeQuery>
A71EV2A-x0451_0A_A71EV2A-x0310_0A_A71EV2A-x0416_0A_peptide

> <ROCS_TanimotoCombo>
0.515 

> <ROCS_ShapeTanimoto>
0.345 

> <ROCS_ColorTanimoto>
0.170 

> <ROCS_RefTversky>
0.300 

> <ROCS_RefColorTversky>
0.180 

> <ROCS_RefTverskyCombo>
0.480 

> <ROCS_FitTversky>
1.772 

> <ROCS_FitColorTversky>
0.751 

> <ROCS_FitTverskyCombo>
2.524 

> <ROCS_ColorScore>
-5.479

> <ROCS_Overlap>
2078.713

> <ROCS_Rank>
54                  

$$$$
untitled-dbase-45524_4
  -OEChem-11132313473D

 36 37  0     1  0  0  0  0  0999 V2000
    6.9675   12.0368   25.7916 C   0  0  0  0  0  0  0  0  0  0  0  0
    8.0376   12.7926   25.2738 C   0  0  0  0  0  0  0  0  0  0  0  0
    8.6494   11.9642   24.3565 C   0  0  0  0  0  0  0  0  0  0  0  0
   10.4061   13.3289   23.4076 C   0  0  0  0  0  0  0  0  0  0  0  0
    9.6790    9.6204   23.1550 C   0  0  0  0  0  0  0  0  0  0  0  0
   10.0826   10.9789   22.5858 C   0  0  0  0  0  0  0  0  0  0  0  0
    8.2084    9.6128   23.5909 C   0  0  1  0  0  0  0  0  0  0  0  0
   12.7813   14.8341   22.8467 C   0  0  0  0  0  0  0  0  0  0  0  0
   11.9475   14.9191   20.4789 C   0  0  0  0  0  0  0  0  0  0  0  0
   10.6040   15.9799   22.3167 C   0  0  0  0  0  0  0  0  0  0  0  0
    7.8767    8.2924   24.2887 C   0  0  0  0  0  0  0  0  0  0  0  0
   11.5446   14.8331   21.9494 C   0  0  0  0  0  0  0  0  0  0  0  0
    6.8916   10.8179   25.2570 N   0  0  0  0  0  0  0  0  0  0  0  0
    7.9395   10.7866   24.4137 N   0  0  0  0  0  0  0  0  0  0  0  0
    9.7315   12.0974   23.4807 N   0  0  0  0  0  0  0  0  0  0  0  0
   10.5955   14.1073   24.3392 O   0  0  0  0  0  0  0  0  0  0  0  0
   10.8482   13.5950   22.1344 O   0  0  0  0  0  0  0  0  0  0  0  0
    8.1341    7.2626   23.4686 F   0  0  0  0  0  0  0  0  0  0  0  0
    8.6183    8.1610   25.3986 F   0  0  0  0  0  0  0  0  0  0  0  0
    6.5789    8.2655   24.6267 F   0  0  0  0  0  0  0  0  0  0  0  0
    8.1875   14.7819   25.7821 I   0  0  0  0  0  0  0  0  0  0  0  0
    6.2176   12.3223   26.5172 H   0  0  0  0  0  0  0  0  0  0  0  0
    9.8243    8.8615   22.3781 H   0  0  0  0  0  0  0  0  0  0  0  0
   10.3314    9.3512   23.9896 H   0  0  0  0  0  0  0  0  0  0  0  0
   11.1631   11.0254   22.4089 H   0  0  0  0  0  0  0  0  0  0  0  0
    9.5874   11.1099   21.6182 H   0  0  0  0  0  0  0  0  0  0  0  0
    7.5894    9.6988   22.6855 H   0  0  0  0  0  0  0  0  0  0  0  0
   12.4963   14.7725   23.9031 H   0  0  0  0  0  0  0  0  0  0  0  0
   13.4472   13.9960   22.6168 H   0  0  0  0  0  0  0  0  0  0  0  0
   13.3463   15.7663   22.7328 H   0  0  0  0  0  0  0  0  0  0  0  0
   11.0633   14.9186   19.8314 H   0  0  0  0  0  0  0  0  0  0  0  0
   12.5448   14.0479   20.1863 H   0  0  0  0  0  0  0  0  0  0  0  0
   12.5287   15.8234   20.2714 H   0  0  0  0  0  0  0  0  0  0  0  0
    9.7168   15.9794   21.6732 H   0  0  0  0  0  0  0  0  0  0  0  0
   10.2750   15.9137   23.3588 H   0  0  0  0  0  0  0  0  0  0  0  0
   11.0940   16.9489   22.1671 H   0  0  0  0  0  0  0  0  0  0  0  0
  1  2  1  0  0  0  0
  1 13  2  0  0  0  0
  2  3  2  0  0  0  0
  2 21  1  0  0  0  0
  3 14  1  0  0  0  0
  3 15  1  0  0  0  0
  4 15  1  0  0  0  0
  4 16  2  0  0  0  0
  4 17  1  0  0  0  0
  5  6  1  0  0  0  0
  5  7  1  0  0  0  0
  6 15  1  0  0  0  0
  7 11  1  0  0  0  0
  7 14  1  0  0  0  0
  8 12  1  0  0  0  0
  9 12  1  0  0  0  0
 10 12  1  0  0  0  0
 11 18  1  0  0  0  0
 11 19  1  0  0  0  0
 11 20  1  0  0  0  0
 12 17  1  0  0  0  0
 13 14  1  0  0  0  0
  1 22  1  0  0  0  0
  5 23  1  0  0  0  0
  5 24  1  0  0  0  0
  6 25  1  0  0  0  0
  6 26  1  0  0  0  0
  7 27  1  0  0  0  0
  8 28  1  0  0  0  0
  8 29  1  0  0  0  0
  8 30  1  0  0  0  0
  9 31  1  0  0  0  0
  9 32  1  0  0  0  0
  9 33  1  0  0  0  0
 10 34  1  0  0  0  0
 10 35  1  0  0  0  0
 10 36  1  0  0  0  0
M  END
> <id>
EN300-28303826

> <smiles>
CC(C)(C)OC(=O)N1CCC(N2N=CC(I)=C12)C(F)(F)F

> <IUPAC Name>
tert-butyl 3-iodo-7-(trifluoromethyl)-4H,5H,6H,7H-pyrazolo[1,5-a]pyrimidine-4-carboxylate

> <CAS>
2680668-86-2

> <URL>
https://www.enaminestore.com/catalog/EN300-28303826

> <ROCS_ShapeQuery>
A71EV2A-x0451_0A_A71EV2A-x0310_0A_A71EV2A-x0416_0A_peptide

> <ROCS_TanimotoCombo>
0.514 

> <ROCS_ShapeTanimoto>
0.360 

> <ROCS_ColorTanimoto>
0.154 

> <ROCS_RefTversky>
0.313 

> <ROCS_RefColorTversky>
0.166 

> <ROCS_RefTverskyCombo>
0.479 

> <ROCS_FitTversky>
1.714 

> <ROCS_FitColorTversky>
0.689 

> <ROCS_FitTverskyCombo>
2.403 

> <ROCS_ColorScore>
-5.036

> <ROCS_Overlap>
2175.683

> <ROCS_Rank>
55                  

$$$$
untitled-dbase-45467_13
  -OEChem-11132313473D

 40 41  0     1  0  0  0  0  0999 V2000
    6.6937   10.5604   25.5376 C   0  0  0  0  0  0  0  0  0  0  0  0
    7.9519   13.0321   25.3117 C   0  0  0  0  0  0  0  0  0  0  0  0
    6.2285   11.6356   26.2837 C   0  0  0  0  0  0  0  0  0  0  0  0
    8.4445   11.9621   24.5491 C   0  0  0  0  0  0  0  0  0  0  0  0
    7.7978   10.7181   24.6907 C   0  0  0  0  0  0  0  0  0  0  0  0
    6.8593   12.8683   26.1725 C   0  0  0  0  0  0  0  0  0  0  0  0
   10.2920   13.2582   23.4273 C   0  0  0  0  0  0  0  0  0  0  0  0
    9.7776   10.8980   22.7822 C   0  0  0  0  0  0  0  0  0  0  0  0
    9.5229    9.6228   23.5688 C   0  0  2  0  0  0  0  0  0  0  0  0
    5.0556   11.4199   27.1833 C   0  0  0  0  0  0  0  0  0  0  0  0
    9.7568    8.3918   22.7014 C   0  0  0  0  0  0  0  0  0  0  0  0
   13.0528   13.3211   22.6450 C   0  0  0  0  0  0  0  0  0  0  0  0
   12.2128   14.1189   20.4163 C   0  0  0  0  0  0  0  0  0  0  0  0
   11.8134   15.5048   22.4726 C   0  0  0  0  0  0  0  0  0  0  0  0
   11.9470   14.0866   21.9198 C   0  0  0  0  0  0  0  0  0  0  0  0
    9.5327   12.0862   23.6146 N   0  0  0  0  0  0  0  0  0  0  0  0
   10.5806   14.0865   24.2860 O   0  0  0  0  0  0  0  0  0  0  0  0
    8.1669    9.5839   24.0107 O   0  0  0  0  0  0  0  0  0  0  0  0
   10.7068   13.3987   22.1242 O   0  0  0  0  0  0  0  0  0  0  0  0
    6.2591   14.3736   27.1633 Br  0  0  0  0  0  0  0  0  0  0  0  0
    6.2075    9.5904   25.6166 H   0  0  0  0  0  0  0  0  0  0  0  0
    8.3805   14.0245   25.2428 H   0  0  0  0  0  0  0  0  0  0  0  0
   10.8065   10.8956   22.4080 H   0  0  0  0  0  0  0  0  0  0  0  0
    9.1030   10.9784   21.9203 H   0  0  0  0  0  0  0  0  0  0  0  0
   10.1887    9.5619   24.4410 H   0  0  0  0  0  0  0  0  0  0  0  0
    5.3928   11.1080   28.1785 H   0  0  0  0  0  0  0  0  0  0  0  0
    4.4617   12.3363   27.2864 H   0  0  0  0  0  0  0  0  0  0  0  0
    4.3861   10.6486   26.7830 H   0  0  0  0  0  0  0  0  0  0  0  0
    9.1084    8.4244   21.8260 H   0  0  0  0  0  0  0  0  0  0  0  0
    9.5382    7.4884   23.2705 H   0  0  0  0  0  0  0  0  0  0  0  0
   10.7952    8.3604   22.3720 H   0  0  0  0  0  0  0  0  0  0  0  0
   12.8657   13.2956   23.7245 H   0  0  0  0  0  0  0  0  0  0  0  0
   13.1355   12.2914   22.2820 H   0  0  0  0  0  0  0  0  0  0  0  0
   14.0224   13.8142   22.5109 H   0  0  0  0  0  0  0  0  0  0  0  0
   11.4217   14.6672   19.8920 H   0  0  0  0  0  0  0  0  0  0  0  0
   12.2151   13.1057   19.9985 H   0  0  0  0  0  0  0  0  0  0  0  0
   13.1732   14.5912   20.1859 H   0  0  0  0  0  0  0  0  0  0  0  0
   11.0203   16.0541   21.9526 H   0  0  0  0  0  0  0  0  0  0  0  0
   11.5859   15.5006   23.5435 H   0  0  0  0  0  0  0  0  0  0  0  0
   12.7374   16.0730   22.3151 H   0  0  0  0  0  0  0  0  0  0  0  0
  1  3  1  0  0  0  0
  1  5  2  0  0  0  0
  2  4  2  0  0  0  0
  2  6  1  0  0  0  0
  3  6  2  0  0  0  0
  3 10  1  0  0  0  0
  4  5  1  0  0  0  0
  4 16  1  0  0  0  0
  5 18  1  0  0  0  0
  6 20  1  0  0  0  0
  7 16  1  0  0  0  0
  7 17  2  0  0  0  0
  7 19  1  0  0  0  0
  8  9  1  0  0  0  0
  8 16  1  0  0  0  0
  9 11  1  0  0  0  0
  9 18  1  0  0  0  0
 12 15  1  0  0  0  0
 13 15  1  0  0  0  0
 14 15  1  0  0  0  0
 15 19  1  0  0  0  0
  1 21  1  0  0  0  0
  2 22  1  0  0  0  0
  8 23  1  0  0  0  0
  8 24  1  0  0  0  0
  9 25  1  0  0  0  0
 10 26  1  0  0  0  0
 10 27  1  0  0  0  0
 10 28  1  0  0  0  0
 11 29  1  0  0  0  0
 11 30  1  0  0  0  0
 11 31  1  0  0  0  0
 12 32  1  0  0  0  0
 12 33  1  0  0  0  0
 12 34  1  0  0  0  0
 13 35  1  0  0  0  0
 13 36  1  0  0  0  0
 13 37  1  0  0  0  0
 14 38  1  0  0  0  0
 14 39  1  0  0  0  0
 14 40  1  0  0  0  0
M  END
> <id>
EN300-28297367

> <smiles>
CC1CN(C(=O)OC(C)(C)C)C=2C=C(Br)C(C)=CC2O1

> <IUPAC Name>
tert-butyl 6-bromo-2,7-dimethyl-3,4-dihydro-2H-1,4-benzoxazine-4-carboxylate

> <CAS>
2680888-91-7

> <URL>
https://www.enaminestore.com/catalog/EN300-28297367

> <ROCS_ShapeQuery>
A71EV2A-x0451_0A_A71EV2A-x0310_0A_A71EV2A-x0416_0A_peptide

> <ROCS_TanimotoCombo>
0.514 

> <ROCS_ShapeTanimoto>
0.360 

> <ROCS_ColorTanimoto>
0.154 

> <ROCS_RefTversky>
0.311 

> <ROCS_RefColorTversky>
0.166 

> <ROCS_RefTverskyCombo>
0.476 

> <ROCS_FitTversky>
1.794 

> <ROCS_FitColorTversky>
0.691 

> <ROCS_FitTverskyCombo>
2.484 

> <ROCS_ColorScore>
-5.037

> <ROCS_Overlap>
2155.287

> <ROCS_Rank>
56                  

$$$$
untitled-dbase-42506_6
  -OEChem-11132313473D

 41 43  0     1  0  0  0  0  0999 V2000
    6.2245   11.5182   26.1451 C   0  0  0  0  0  0  0  0  0  0  0  0
    6.8635   12.7608   26.2197 C   0  0  0  0  0  0  0  0  0  0  0  0
    6.6905   10.5424   25.2667 C   0  0  0  0  0  0  0  0  0  0  0  0
    7.9740   13.0431   25.4169 C   0  0  0  0  0  0  0  0  0  0  0  0
    7.7960   10.8297   24.4748 C   0  0  0  0  0  0  0  0  0  0  0  0
    8.4355   12.0666   24.5426 C   0  0  0  0  0  0  0  0  0  0  0  0
   10.3385   13.2371   23.4547 C   0  0  0  0  0  0  0  0  0  0  0  0
   10.6065    9.7206   21.3320 C   0  0  0  0  0  0  0  0  0  0  0  0
   10.9994   10.1228   22.7679 C   0  0  0  0  0  0  0  0  0  0  0  0
    9.5668   10.8595   21.3461 C   0  0  0  0  0  0  0  0  0  0  0  0
    8.4368    9.9158   23.4817 C   0  0  1  0  0  0  0  0  0  0  0  0
    9.5891   10.7804   22.9033 C   0  0  0  0  0  0  0  0  0  0  0  0
   12.8802   14.3958   22.8013 C   0  0  0  0  0  0  0  0  0  0  0  0
   12.0578   14.3956   20.4279 C   0  0  0  0  0  0  0  0  0  0  0  0
   10.8587   15.7543   22.1669 C   0  0  0  0  0  0  0  0  0  0  0  0
   11.6507   14.4756   21.8976 C   0  0  0  0  0  0  0  0  0  0  0  0
    9.5199   12.1133   23.6308 N   0  0  0  0  0  0  0  0  0  0  0  0
   10.6238   14.0571   24.3241 O   0  0  0  0  0  0  0  0  0  0  0  0
    8.9270    8.7717   24.1641 O   0  0  0  0  0  0  0  0  0  0  0  0
   10.8080   13.3504   22.1740 O   0  0  0  0  0  0  0  0  0  0  0  0
    5.3627   11.3149   26.7743 H   0  0  0  0  0  0  0  0  0  0  0  0
    6.4918   13.5155   26.9078 H   0  0  0  0  0  0  0  0  0  0  0  0
    6.1963    9.5782   25.2070 H   0  0  0  0  0  0  0  0  0  0  0  0
    8.4338   14.0191   25.5067 H   0  0  0  0  0  0  0  0  0  0  0  0
   11.3968    9.8105   20.5825 H   0  0  0  0  0  0  0  0  0  0  0  0
   10.1630    8.7209   21.2606 H   0  0  0  0  0  0  0  0  0  0  0  0
   11.2298    9.2875   23.4350 H   0  0  0  0  0  0  0  0  0  0  0  0
   11.8595   10.7975   22.8038 H   0  0  0  0  0  0  0  0  0  0  0  0
    9.9370   11.7892   20.9032 H   0  0  0  0  0  0  0  0  0  0  0  0
    8.6174   10.6209   20.8567 H   0  0  0  0  0  0  0  0  0  0  0  0
    7.7097    9.6111   22.7212 H   0  0  0  0  0  0  0  0  0  0  0  0
   12.5922   14.4529   23.8571 H   0  0  0  0  0  0  0  0  0  0  0  0
   13.4378   13.4670   22.6427 H   0  0  0  0  0  0  0  0  0  0  0  0
   13.5550   15.2400   22.6189 H   0  0  0  0  0  0  0  0  0  0  0  0
   11.1787   14.4525   19.7759 H   0  0  0  0  0  0  0  0  0  0  0  0
   12.5430   13.4375   20.2090 H   0  0  0  0  0  0  0  0  0  0  0  0
   12.7450   15.2028   20.1545 H   0  0  0  0  0  0  0  0  0  0  0  0
    9.9766   15.8118   21.5189 H   0  0  0  0  0  0  0  0  0  0  0  0
   10.5264   15.8111   23.2086 H   0  0  0  0  0  0  0  0  0  0  0  0
   11.4634   16.6411   21.9455 H   0  0  0  0  0  0  0  0  0  0  0  0
    9.3364    8.1984   23.4953 H   0  0  0  0  0  0  0  0  0  0  0  0
  1  2  2  0  0  0  0
  1  3  1  0  0  0  0
  2  4  1  0  0  0  0
  3  5  2  0  0  0  0
  4  6  2  0  0  0  0
  5  6  1  0  0  0  0
  5 11  1  0  0  0  0
  6 17  1  0  0  0  0
  7 17  1  0  0  0  0
  7 18  2  0  0  0  0
  7 20  1  0  0  0  0
  8  9  1  0  0  0  0
  8 10  1  0  0  0  0
  9 12  1  0  0  0  0
 10 12  1  0  0  0  0
 11 12  1  0  0  0  0
 11 19  1  0  0  0  0
 12 17  1  0  0  0  0
 13 16  1  0  0  0  0
 14 16  1  0  0  0  0
 15 16  1  0  0  0  0
 16 20  1  0  0  0  0
  1 21  1  0  0  0  0
  2 22  1  0  0  0  0
  3 23  1  0  0  0  0
  4 24  1  0  0  0  0
  8 25  1  0  0  0  0
  8 26  1  0  0  0  0
  9 27  1  0  0  0  0
  9 28  1  0  0  0  0
 10 29  1  0  0  0  0
 10 30  1  0  0  0  0
 11 31  1  0  0  0  0
 13 32  1  0  0  0  0
 13 33  1  0  0  0  0
 13 34  1  0  0  0  0
 14 35  1  0  0  0  0
 14 36  1  0  0  0  0
 14 37  1  0  0  0  0
 15 38  1  0  0  0  0
 15 39  1  0  0  0  0
 15 40  1  0  0  0  0
 19 41  1  0  0  0  0
M  END
> <id>
EN300-27718573

> <smiles>
CC(C)(C)OC(=O)N1C=2C=CC=CC2C(O)C31CCC3

> <IUPAC Name>
tert-butyl 3'-hydroxy-1',3'-dihydrospiro[cyclobutane-1,2'-indole]-1'-carboxylate

> <CAS>
2580237-32-5

> <URL>
https://www.enaminestore.com/catalog/EN300-27718573

> <ROCS_ShapeQuery>
A71EV2A-x0451_0A_A71EV2A-x0310_0A_A71EV2A-x0416_0A_peptide

> <ROCS_TanimotoCombo>
0.514 

> <ROCS_ShapeTanimoto>
0.351 

> <ROCS_ColorTanimoto>
0.163 

> <ROCS_RefTversky>
0.306 

> <ROCS_RefColorTversky>
0.178 

> <ROCS_RefTverskyCombo>
0.484 

> <ROCS_FitTversky>
1.730 

> <ROCS_FitColorTversky>
0.656 

> <ROCS_FitTverskyCombo>
2.386 

> <ROCS_ColorScore>
-5.414

> <ROCS_Overlap>
2123.776

> <ROCS_Rank>
57                  

$$$$
untitled-dbase-43059_38
  -OEChem-11132313473D

 43 45  0     1  0  0  0  0  0999 V2000
    7.0242   12.8798   26.1542 C   0  0  0  0  0  0  0  0  0  0  0  0
    8.1322   13.0873   25.3327 C   0  0  0  0  0  0  0  0  0  0  0  0
    6.3891   11.6598   26.0942 C   0  0  0  0  0  0  0  0  0  0  0  0
    8.5792   12.0974   24.4472 C   0  0  0  0  0  0  0  0  0  0  0  0
    7.8781   10.8768   24.5072 C   0  0  0  0  0  0  0  0  0  0  0  0
   10.5217   13.4156   23.4662 C   0  0  0  0  0  0  0  0  0  0  0  0
   10.6469    9.5422   24.8561 C   0  0  0  0  0  0  0  0  0  0  0  0
    9.3248    8.8237   24.5633 C   0  0  0  0  0  0  0  0  0  0  0  0
   11.2280   10.2183   23.6155 C   0  0  0  0  0  0  0  0  0  0  0  0
    9.0009   10.1420   22.4530 C   0  0  0  0  0  0  0  0  0  0  0  0
    8.3427    9.6683   23.7310 C   0  0  2  0  0  0  0  0  0  0  0  0
   10.1864   11.0335   22.8232 C   0  0  1  0  0  0  0  0  0  0  0  0
   12.4412   15.4862   22.9697 C   0  0  0  0  0  0  0  0  0  0  0  0
   12.4422   14.6556   20.5992 C   0  0  0  0  0  0  0  0  0  0  0  0
   10.3344   15.5887   21.5965 C   0  0  0  0  0  0  0  0  0  0  0  0
   11.6179   14.8079   21.8757 C   0  0  0  0  0  0  0  0  0  0  0  0
    6.7958   10.6531   25.3015 N   0  0  0  0  0  0  0  0  0  0  0  0
    9.7312   12.2457   23.5706 N   0  0  0  0  0  0  0  0  0  0  0  0
   10.6114   14.2592   24.3591 O   0  0  0  0  0  0  0  0  0  0  0  0
   10.7564   11.4177   21.5637 O   0  0  0  0  0  0  0  0  0  0  0  0
   11.2641   13.4925   22.3206 O   0  0  0  0  0  0  0  0  0  0  0  0
    6.6717   13.6627   26.8172 H   0  0  0  0  0  0  0  0  0  0  0  0
    8.5999   14.0651   25.3965 H   0  0  0  0  0  0  0  0  0  0  0  0
    5.5055   11.4581   26.6886 H   0  0  0  0  0  0  0  0  0  0  0  0
   10.4912   10.2893   25.6438 H   0  0  0  0  0  0  0  0  0  0  0  0
   11.3714    8.8239   25.2579 H   0  0  0  0  0  0  0  0  0  0  0  0
    9.5502    7.9097   24.0033 H   0  0  0  0  0  0  0  0  0  0  0  0
    8.8636    8.5139   25.5059 H   0  0  0  0  0  0  0  0  0  0  0  0
   12.0888   10.8427   23.8999 H   0  0  0  0  0  0  0  0  0  0  0  0
   11.6609    9.4492   22.9537 H   0  0  0  0  0  0  0  0  0  0  0  0
    9.3366    9.2876   21.8493 H   0  0  0  0  0  0  0  0  0  0  0  0
    8.2936   10.6879   21.8120 H   0  0  0  0  0  0  0  0  0  0  0  0
    7.4783    9.0484   23.4858 H   0  0  0  0  0  0  0  0  0  0  0  0
   11.8530   15.5974   23.8877 H   0  0  0  0  0  0  0  0  0  0  0  0
   13.3471   14.9176   23.2039 H   0  0  0  0  0  0  0  0  0  0  0  0
   12.7359   16.4975   22.6671 H   0  0  0  0  0  0  0  0  0  0  0  0
   11.8554   14.1694   19.8115 H   0  0  0  0  0  0  0  0  0  0  0  0
   13.3156   14.0165   20.7725 H   0  0  0  0  0  0  0  0  0  0  0  0
   12.7899   15.6239   20.2248 H   0  0  0  0  0  0  0  0  0  0  0  0
    9.7437   15.1024   20.8118 H   0  0  0  0  0  0  0  0  0  0  0  0
    9.7124   15.6761   22.4932 H   0  0  0  0  0  0  0  0  0  0  0  0
   10.5630   16.5966   21.2316 H   0  0  0  0  0  0  0  0  0  0  0  0
   11.5376   11.9518   21.7703 H   0  0  0  0  0  0  0  0  0  0  0  0
  1  2  1  0  0  0  0
  1  3  2  0  0  0  0
  2  4  2  0  0  0  0
  3 17  1  0  0  0  0
  4  5  1  0  0  0  0
  4 18  1  0  0  0  0
  5 11  1  0  0  0  0
  5 17  2  0  0  0  0
  6 18  1  0  0  0  0
  6 19  2  0  0  0  0
  6 21  1  0  0  0  0
  7  8  1  0  0  0  0
  7  9  1  0  0  0  0
  8 11  1  0  0  0  0
  9 12  1  0  0  0  0
 10 11  1  0  0  0  0
 10 12  1  0  0  0  0
 12 18  1  0  0  0  0
 12 20  1  0  0  0  0
 13 16  1  0  0  0  0
 14 16  1  0  0  0  0
 15 16  1  0  0  0  0
 16 21  1  0  0  0  0
  1 22  1  0  0  0  0
  2 23  1  0  0  0  0
  3 24  1  0  0  0  0
  7 25  1  0  0  0  0
  7 26  1  0  0  0  0
  8 27  1  0  0  0  0
  8 28  1  0  0  0  0
  9 29  1  0  0  0  0
  9 30  1  0  0  0  0
 10 31  1  0  0  0  0
 10 32  1  0  0  0  0
 11 33  1  0  0  0  0
 13 34  1  0  0  0  0
 13 35  1  0  0  0  0
 13 36  1  0  0  0  0
 14 37  1  0  0  0  0
 14 38  1  0  0  0  0
 14 39  1  0  0  0  0
 15 40  1  0  0  0  0
 15 41  1  0  0  0  0
 15 42  1  0  0  0  0
 20 43  1  0  0  0  0
M  END
> <id>
EN300-27782371

> <smiles>
CC(C)(C)OC(=O)N1C=2C=CC=NC2C3CCCC1(O)C3

> <IUPAC Name>
tert-butyl 9-hydroxy-3,8-diazatricyclo[7.3.1.0,2,7]trideca-2,4,6-triene-8-carboxylate

> <CAS>
2639414-07-4

> <URL>
https://www.enaminestore.com/catalog/EN300-27782371

> <ROCS_ShapeQuery>
A71EV2A-x0451_0A_A71EV2A-x0310_0A_A71EV2A-x0416_0A_peptide

> <ROCS_TanimotoCombo>
0.513 

> <ROCS_ShapeTanimoto>
0.370 

> <ROCS_ColorTanimoto>
0.143 

> <ROCS_RefTversky>
0.320 

> <ROCS_RefColorTversky>
0.164 

> <ROCS_RefTverskyCombo>
0.484 

> <ROCS_FitTversky>
1.741 

> <ROCS_FitColorTversky>
0.528 

> <ROCS_FitTverskyCombo>
2.269 

> <ROCS_ColorScore>
-4.997

> <ROCS_Overlap>
2221.705

> <ROCS_Rank>
58                  

$$$$
untitled-dbase-34308_12
  -OEChem-11132313473D

 41 42  0     1  0  0  0  0  0999 V2000
    8.9223   11.5440   24.2148 C   0  0  0  0  0  0  0  0  0  0  0  0
    7.9165   12.3196   24.8185 C   0  0  0  0  0  0  0  0  0  0  0  0
    8.4683   10.2584   24.3372 C   0  0  0  0  0  0  0  0  0  0  0  0
   10.6245   13.1052   23.4661 C   0  0  0  0  0  0  0  0  0  0  0  0
   10.8197   10.6350   22.9437 C   0  0  0  0  0  0  0  0  0  0  0  0
   10.5024    9.2580   23.5924 C   0  0  2  0  0  0  0  0  0  0  0  0
    7.8011   13.7765   25.0017 C   0  0  0  0  0  0  0  0  0  0  0  0
   10.8926    8.1177   22.6588 C   0  0  0  0  0  0  0  0  0  0  0  0
   11.8530   15.5911   22.7473 C   0  0  0  0  0  0  0  0  0  0  0  0
   12.0146   14.6306   20.4320 C   0  0  0  0  0  0  0  0  0  0  0  0
    9.7616   14.9917   21.4818 C   0  0  0  0  0  0  0  0  0  0  0  0
    6.3874    9.2176   25.2938 C   0  0  0  0  0  0  0  0  0  0  0  0
   11.2241   14.6310   21.7386 C   0  0  0  0  0  0  0  0  0  0  0  0
    6.8956   11.5746   25.2675 N   0  0  0  0  0  0  0  0  0  0  0  0
    7.2592   10.3157   24.9491 N   0  0  0  0  0  0  0  0  0  0  0  0
    9.0890    9.1326   23.9540 N   0  0  0  0  0  0  0  0  0  0  0  0
   10.1428   11.7954   23.5849 N   0  0  0  0  0  0  0  0  0  0  0  0
   10.4921   13.9936   24.3049 O   0  0  0  0  0  0  0  0  0  0  0  0
   11.2789   13.3045   22.2765 O   0  0  0  0  0  0  0  0  0  0  0  0
   11.9049   10.7882   22.9613 H   0  0  0  0  0  0  0  0  0  0  0  0
   10.5088   10.6452   21.8907 H   0  0  0  0  0  0  0  0  0  0  0  0
   11.0928    9.1712   24.5138 H   0  0  0  0  0  0  0  0  0  0  0  0
    7.2852   14.2478   24.1477 H   0  0  0  0  0  0  0  0  0  0  0  0
    7.2388   14.0386   25.9156 H   0  0  0  0  0  0  0  0  0  0  0  0
    8.7875   14.2632   25.1041 H   0  0  0  0  0  0  0  0  0  0  0  0
   10.3192    8.1812   21.7344 H   0  0  0  0  0  0  0  0  0  0  0  0
   10.6894    7.1597   23.1369 H   0  0  0  0  0  0  0  0  0  0  0  0
   11.9547    8.1778   22.4222 H   0  0  0  0  0  0  0  0  0  0  0  0
   11.2884   15.5942   23.6866 H   0  0  0  0  0  0  0  0  0  0  0  0
   12.8915   15.3223   22.9667 H   0  0  0  0  0  0  0  0  0  0  0  0
   11.8338   16.6205   22.3717 H   0  0  0  0  0  0  0  0  0  0  0  0
   11.5668   13.9431   19.7053 H   0  0  0  0  0  0  0  0  0  0  0  0
   13.0402   14.2810   20.5964 H   0  0  0  0  0  0  0  0  0  0  0  0
   12.0561   15.6290   19.9847 H   0  0  0  0  0  0  0  0  0  0  0  0
    9.3103   14.3032   20.7583 H   0  0  0  0  0  0  0  0  0  0  0  0
    9.1709   14.9610   22.4030 H   0  0  0  0  0  0  0  0  0  0  0  0
    9.6781   15.9946   21.0478 H   0  0  0  0  0  0  0  0  0  0  0  0
    6.6490    8.8827   26.3010 H   0  0  0  0  0  0  0  0  0  0  0  0
    5.3474    9.5541   25.2608 H   0  0  0  0  0  0  0  0  0  0  0  0
    6.5246    8.4071   24.5726 H   0  0  0  0  0  0  0  0  0  0  0  0
    8.7079    8.2049   24.1139 H   0  0  0  0  0  0  0  0  0  0  0  0
  1  2  1  0  0  0  0
  1  3  2  0  0  0  0
  1 17  1  0  0  0  0
  2  7  1  0  0  0  0
  2 14  2  0  0  0  0
  3 15  1  0  0  0  0
  3 16  1  0  0  0  0
  4 17  1  0  0  0  0
  4 18  2  0  0  0  0
  4 19  1  0  0  0  0
  5  6  1  0  0  0  0
  5 17  1  0  0  0  0
  6  8  1  0  0  0  0
  6 16  1  0  0  0  0
  9 13  1  0  0  0  0
 10 13  1  0  0  0  0
 11 13  1  0  0  0  0
 12 15  1  0  0  0  0
 13 19  1  0  0  0  0
 14 15  1  0  0  0  0
  5 20  1  0  0  0  0
  5 21  1  0  0  0  0
  6 22  1  0  0  0  0
  7 23  1  0  0  0  0
  7 24  1  0  0  0  0
  7 25  1  0  0  0  0
  8 26  1  0  0  0  0
  8 27  1  0  0  0  0
  8 28  1  0  0  0  0
  9 29  1  0  0  0  0
  9 30  1  0  0  0  0
  9 31  1  0  0  0  0
 10 32  1  0  0  0  0
 10 33  1  0  0  0  0
 10 34  1  0  0  0  0
 11 35  1  0  0  0  0
 11 36  1  0  0  0  0
 11 37  1  0  0  0  0
 12 38  1  0  0  0  0
 12 39  1  0  0  0  0
 12 40  1  0  0  0  0
 16 41  1  0  0  0  0
M  END
> <id>
EN300-97265

> <smiles>
CC1CN(C(=O)OC(C)(C)C)C=2C(C)=NN(C)C2N1

> <MDLNUMBER>
MFCD21602607

> <IUPAC Name>
tert-butyl 1,3,6-trimethyl-1H,4H,5H,6H,7H-pyrazolo[3,4-b]pyrazine-4-carboxylate

> <CAS>
1375473-79-2

> <Purity>
95

> <URL>
https://www.enaminestore.com/catalog/EN300-97265

> <ROCS_ShapeQuery>
A71EV2A-x0451_0A_A71EV2A-x0310_0A_A71EV2A-x0416_0A_peptide

> <ROCS_TanimotoCombo>
0.513 

> <ROCS_ShapeTanimoto>
0.354 

> <ROCS_ColorTanimoto>
0.159 

> <ROCS_RefTversky>
0.306 

> <ROCS_RefColorTversky>
0.170 

> <ROCS_RefTverskyCombo>
0.476 

> <ROCS_FitTversky>
1.798 

> <ROCS_FitColorTversky>
0.707 

> <ROCS_FitTverskyCombo>
2.505 

> <ROCS_ColorScore>
-5.166

> <ROCS_Overlap>
2125.319

> <ROCS_Rank>
59                  

$$$$
untitled-dbase-45521_3
  -OEChem-11132313473D

 37 38  0     1  0  0  0  0  0999 V2000
    7.9554   13.0326   25.3137 C   0  0  0  0  0  0  0  0  0  0  0  0
    6.8631   12.8712   26.1755 C   0  0  0  0  0  0  0  0  0  0  0  0
    6.6923   10.5635   25.5409 C   0  0  0  0  0  0  0  0  0  0  0  0
    8.4452   11.9615   24.5508 C   0  0  0  0  0  0  0  0  0  0  0  0
    7.7960   10.7188   24.6931 C   0  0  0  0  0  0  0  0  0  0  0  0
    6.2299   11.6397   26.2873 C   0  0  0  0  0  0  0  0  0  0  0  0
   10.2943   13.2537   23.4273 C   0  0  0  0  0  0  0  0  0  0  0  0
    9.7746   10.8945   22.7829 C   0  0  0  0  0  0  0  0  0  0  0  0
    9.5179    9.6199   23.5699 C   0  0  2  0  0  0  0  0  0  0  0  0
    9.7486    8.3883   22.7024 C   0  0  0  0  0  0  0  0  0  0  0  0
   12.7614   14.5151   22.6785 C   0  0  0  0  0  0  0  0  0  0  0  0
   11.8461   14.4999   20.3394 C   0  0  0  0  0  0  0  0  0  0  0  0
   10.6646   15.7973   22.1363 C   0  0  0  0  0  0  0  0  0  0  0  0
   11.4948   14.5529   21.8247 C   0  0  0  0  0  0  0  0  0  0  0  0
    9.5329   12.0833   23.6154 N   0  0  0  0  0  0  0  0  0  0  0  0
   10.5854   14.0815   24.2857 O   0  0  0  0  0  0  0  0  0  0  0  0
    8.1622    9.5839   24.0129 O   0  0  0  0  0  0  0  0  0  0  0  0
   10.7084   13.3932   22.1239 O   0  0  0  0  0  0  0  0  0  0  0  0
    4.7498   11.4322   27.4418 Br  0  0  0  0  0  0  0  0  0  0  0  0
    8.3722   14.0306   25.2602 H   0  0  0  0  0  0  0  0  0  0  0  0
    6.5147   13.7294   26.7450 H   0  0  0  0  0  0  0  0  0  0  0  0
    6.2079    9.5925   25.6169 H   0  0  0  0  0  0  0  0  0  0  0  0
   10.8030   10.8904   22.4077 H   0  0  0  0  0  0  0  0  0  0  0  0
    9.0994   10.9763   21.9215 H   0  0  0  0  0  0  0  0  0  0  0  0
   10.1839    9.5573   24.4415 H   0  0  0  0  0  0  0  0  0  0  0  0
    9.0998    8.4223   21.8272 H   0  0  0  0  0  0  0  0  0  0  0  0
    9.5281    7.4853   23.2715 H   0  0  0  0  0  0  0  0  0  0  0  0
   10.7868    8.3543   22.3724 H   0  0  0  0  0  0  0  0  0  0  0  0
   12.5135   14.5530   23.7453 H   0  0  0  0  0  0  0  0  0  0  0  0
   13.3482   13.6102   22.4898 H   0  0  0  0  0  0  0  0  0  0  0  0
   13.3949   15.3866   22.4772 H   0  0  0  0  0  0  0  0  0  0  0  0
   10.9402   14.5268   19.7230 H   0  0  0  0  0  0  0  0  0  0  0  0
   12.3594   13.5633   20.0930 H   0  0  0  0  0  0  0  0  0  0  0  0
   12.4898   15.3355   20.0464 H   0  0  0  0  0  0  0  0  0  0  0  0
    9.7560   15.8247   21.5240 H   0  0  0  0  0  0  0  0  0  0  0  0
   10.3720   15.8332   23.1907 H   0  0  0  0  0  0  0  0  0  0  0  0
   11.2249   16.7090   21.8991 H   0  0  0  0  0  0  0  0  0  0  0  0
  1  2  1  0  0  0  0
  1  4  2  0  0  0  0
  2  6  2  0  0  0  0
  3  5  2  0  0  0  0
  3  6  1  0  0  0  0
  4  5  1  0  0  0  0
  4 15  1  0  0  0  0
  5 17  1  0  0  0  0
  6 19  1  0  0  0  0
  7 15  1  0  0  0  0
  7 16  2  0  0  0  0
  7 18  1  0  0  0  0
  8  9  1  0  0  0  0
  8 15  1  0  0  0  0
  9 10  1  0  0  0  0
  9 17  1  0  0  0  0
 11 14  1  0  0  0  0
 12 14  1  0  0  0  0
 13 14  1  0  0  0  0
 14 18  1  0  0  0  0
  1 20  1  0  0  0  0
  2 21  1  0  0  0  0
  3 22  1  0  0  0  0
  8 23  1  0  0  0  0
  8 24  1  0  0  0  0
  9 25  1  0  0  0  0
 10 26  1  0  0  0  0
 10 27  1  0  0  0  0
 10 28  1  0  0  0  0
 11 29  1  0  0  0  0
 11 30  1  0  0  0  0
 11 31  1  0  0  0  0
 12 32  1  0  0  0  0
 12 33  1  0  0  0  0
 12 34  1  0  0  0  0
 13 35  1  0  0  0  0
 13 36  1  0  0  0  0
 13 37  1  0  0  0  0
M  END
> <id>
EN300-28295160

> <smiles>
CC1CN(C(=O)OC(C)(C)C)C=2C=CC(Br)=CC2O1

> <IUPAC Name>
tert-butyl 7-bromo-2-methyl-3,4-dihydro-2H-1,4-benzoxazine-4-carboxylate

> <CAS>
2680879-79-0

> <URL>
https://www.enaminestore.com/catalog/EN300-28295160

> <ROCS_ShapeQuery>
A71EV2A-x0451_0A_A71EV2A-x0310_0A_A71EV2A-x0416_0A_peptide

> <ROCS_TanimotoCombo>
0.513 

> <ROCS_ShapeTanimoto>
0.358 

> <ROCS_ColorTanimoto>
0.154 

> <ROCS_RefTversky>
0.308 

> <ROCS_RefColorTversky>
0.166 

> <ROCS_RefTverskyCombo>
0.474 

> <ROCS_FitTversky>
1.840 

> <ROCS_FitColorTversky>
0.691 

> <ROCS_FitTverskyCombo>
2.531 

> <ROCS_ColorScore>
-5.037

> <ROCS_Overlap>
2137.364

> <ROCS_Rank>
60                  

$$$$
untitled-dbase-30526_21
  -OEChem-11132313473D

 40 41  0     1  0  0  0  0  0999 V2000
    9.9550   13.3695   23.5418 C   0  0  0  0  0  0  0  0  0  0  0  0
    6.9626   11.5921   24.4992 C   0  0  0  0  0  0  0  0  0  0  0  0
    7.9003   11.3686   25.7029 C   0  0  0  0  0  0  0  0  0  0  0  0
    8.3320   10.6122   22.5715 C   0  0  0  0  0  0  0  0  0  0  0  0
    9.9063   10.2271   24.5949 C   0  0  0  0  0  0  0  0  0  0  0  0
    7.8966   11.8896   23.3209 C   0  0  2  0  0  0  0  0  0  0  0  0
    9.3137   11.5450   25.1389 C   0  0  1  0  0  0  0  0  0  0  0  0
    9.0361    9.5713   23.4872 C   0  0  0  0  0  0  0  0  0  0  0  0
   12.3392   14.0931   22.1415 C   0  0  0  0  0  0  0  0  0  0  0  0
   10.8828   14.2107   20.0984 C   0  0  0  0  0  0  0  0  0  0  0  0
   10.4506   15.7532   22.0329 C   0  0  0  0  0  0  0  0  0  0  0  0
    9.8803    8.6038   22.6524 C   0  0  0  0  0  0  0  0  0  0  0  0
   10.9296   14.3630   21.6172 C   0  0  0  0  0  0  0  0  0  0  0  0
    9.0800   12.4005   23.9920 N   0  0  0  0  0  0  0  0  0  0  0  0
   10.5854   14.1260   24.2770 O   0  0  0  0  0  0  0  0  0  0  0  0
    8.0351    8.7779   24.1381 O   0  0  0  0  0  0  0  0  0  0  0  0
   10.0414   13.3888   22.1760 O   0  0  0  0  0  0  0  0  0  0  0  0
   10.8162    9.2835   21.9754 F   0  0  0  0  0  0  0  0  0  0  0  0
   10.4800    7.7136   23.4549 F   0  0  0  0  0  0  0  0  0  0  0  0
    9.0977    7.9512   21.7819 F   0  0  0  0  0  0  0  0  0  0  0  0
    6.3032   10.7374   24.3217 H   0  0  0  0  0  0  0  0  0  0  0  0
    6.3246   12.4609   24.7016 H   0  0  0  0  0  0  0  0  0  0  0  0
    7.6985   12.1358   26.4601 H   0  0  0  0  0  0  0  0  0  0  0  0
    7.7440   10.3939   26.1746 H   0  0  0  0  0  0  0  0  0  0  0  0
    7.4519   10.1593   22.0979 H   0  0  0  0  0  0  0  0  0  0  0  0
    9.0145   10.9124   21.7653 H   0  0  0  0  0  0  0  0  0  0  0  0
   10.9032   10.4497   24.1917 H   0  0  0  0  0  0  0  0  0  0  0  0
   10.0461    9.5291   25.4296 H   0  0  0  0  0  0  0  0  0  0  0  0
    7.4679   12.6163   22.6247 H   0  0  0  0  0  0  0  0  0  0  0  0
    9.9988   12.0062   25.8571 H   0  0  0  0  0  0  0  0  0  0  0  0
   12.3770   14.2014   23.2314 H   0  0  0  0  0  0  0  0  0  0  0  0
   12.6810   13.0863   21.8800 H   0  0  0  0  0  0  0  0  0  0  0  0
   13.0534   14.8177   21.7339 H   0  0  0  0  0  0  0  0  0  0  0  0
    9.8732   14.4035   19.7179 H   0  0  0  0  0  0  0  0  0  0  0  0
   11.1344   13.1863   19.8009 H   0  0  0  0  0  0  0  0  0  0  0  0
   11.5772   14.8963   19.6020 H   0  0  0  0  0  0  0  0  0  0  0  0
    9.4395   15.9470   21.6569 H   0  0  0  0  0  0  0  0  0  0  0  0
   10.4424   15.8681   23.1216 H   0  0  0  0  0  0  0  0  0  0  0  0
   11.0938   16.5309   21.6054 H   0  0  0  0  0  0  0  0  0  0  0  0
    7.5343    8.3464   23.4318 H   0  0  0  0  0  0  0  0  0  0  0  0
  1 14  1  0  0  0  0
  1 15  2  0  0  0  0
  1 17  1  0  0  0  0
  2  3  1  0  0  0  0
  2  6  1  0  0  0  0
  3  7  1  0  0  0  0
  4  6  1  0  0  0  0
  4  8  1  0  0  0  0
  5  7  1  0  0  0  0
  5  8  1  0  0  0  0
  6 14  1  0  0  0  0
  7 14  1  0  0  0  0
  8 12  1  0  0  0  0
  8 16  1  0  0  0  0
  9 13  1  0  0  0  0
 10 13  1  0  0  0  0
 11 13  1  0  0  0  0
 12 18  1  0  0  0  0
 12 19  1  0  0  0  0
 12 20  1  0  0  0  0
 13 17  1  0  0  0  0
  2 21  1  0  0  0  0
  2 22  1  0  0  0  0
  3 23  1  0  0  0  0
  3 24  1  0  0  0  0
  4 25  1  0  0  0  0
  4 26  1  0  0  0  0
  5 27  1  0  0  0  0
  5 28  1  0  0  0  0
  6 29  1  0  0  0  0
  7 30  1  0  0  0  0
  9 31  1  0  0  0  0
  9 32  1  0  0  0  0
  9 33  1  0  0  0  0
 10 34  1  0  0  0  0
 10 35  1  0  0  0  0
 10 36  1  0  0  0  0
 11 37  1  0  0  0  0
 11 38  1  0  0  0  0
 11 39  1  0  0  0  0
 16 40  1  0  0  0  0
M  END
> <id>
EN300-12464143

> <smiles>
CC(C)(C)OC(=O)N1C2CCC1CC(O)(C2)C(F)(F)F

> <MDLNUMBER>
MFCD24467654

> <IUPAC Name>
tert-butyl 3-hydroxy-3-(trifluoromethyl)-8-azabicyclo[3.2.1]octane-8-carboxylate

> <CAS>
1701433-46-6

> <URL>
https://www.enaminestore.com/catalog/EN300-12464143

> <ROCS_ShapeQuery>
A71EV2A-x0451_0A_A71EV2A-x0310_0A_A71EV2A-x0416_0A_peptide

> <ROCS_TanimotoCombo>
0.512 

> <ROCS_ShapeTanimoto>
0.308 

> <ROCS_ColorTanimoto>
0.204 

> <ROCS_RefTversky>
0.277 

> <ROCS_RefColorTversky>
0.230 

> <ROCS_RefTverskyCombo>
0.507 

> <ROCS_FitTversky>
1.570 

> <ROCS_FitColorTversky>
0.645 

> <ROCS_FitTverskyCombo>
2.215 

> <ROCS_ColorScore>
-7.034

> <ROCS_Overlap>
1922.979

> <ROCS_Rank>
61                  

$$$$
untitled-dbase-13924_7
  -OEChem-11132313473D

 39 40  0     1  0  0  0  0  0999 V2000
   10.2866   13.3495   23.5111 C   0  0  0  0  0  0  0  0  0  0  0  0
    7.2927   11.2753   23.4438 C   0  0  0  0  0  0  0  0  0  0  0  0
    8.2756   10.0471   25.4367 C   0  0  0  0  0  0  0  0  0  0  0  0
    9.5617   10.1780   23.1986 C   0  0  0  0  0  0  0  0  0  0  0  0
    8.4315   12.5467   25.0775 C   0  0  0  0  0  0  0  0  0  0  0  0
    7.5259   11.3106   24.9564 C   0  0  1  0  0  0  0  0  0  0  0  0
    8.7305   11.4540   22.9603 C   0  0  2  0  0  0  0  0  0  0  0  0
    9.0305    9.2746   24.3323 C   0  0  2  0  0  0  0  0  0  0  0  0
   12.4041   13.2437   20.4063 C   0  0  0  0  0  0  0  0  0  0  0  0
   11.5318   15.2992   21.5475 C   0  0  0  0  0  0  0  0  0  0  0  0
   13.1317   13.7820   22.7420 C   0  0  0  0  0  0  0  0  0  0  0  0
   11.9666   13.8436   21.7475 C   0  0  0  0  0  0  0  0  0  0  0  0
    9.2226   12.5167   23.8488 N   0  0  0  0  0  0  0  0  0  0  0  0
    8.1454    8.2475   23.7636 N   0  0  0  0  0  0  0  0  0  0  0  0
   10.8528   13.0855   22.2691 N   0  0  0  0  0  0  0  0  0  0  0  0
   10.6930   14.2468   24.2544 O   0  0  0  0  0  0  0  0  0  0  0  0
    6.8301   10.3471   23.1002 H   0  0  0  0  0  0  0  0  0  0  0  0
    6.6677   12.1165   23.1264 H   0  0  0  0  0  0  0  0  0  0  0  0
    8.9889   10.3263   26.2358 H   0  0  0  0  0  0  0  0  0  0  0  0
    7.5404    9.3765   25.9236 H   0  0  0  0  0  0  0  0  0  0  0  0
    9.6002    9.6052   22.2492 H   0  0  0  0  0  0  0  0  0  0  0  0
   10.6147   10.4516   23.4121 H   0  0  0  0  0  0  0  0  0  0  0  0
    7.8438   13.4708   25.0742 H   0  0  0  0  0  0  0  0  0  0  0  0
    9.0750   12.5310   25.9616 H   0  0  0  0  0  0  0  0  0  0  0  0
    6.5978   11.4424   25.5217 H   0  0  0  0  0  0  0  0  0  0  0  0
    8.7962   11.7730   21.9110 H   0  0  0  0  0  0  0  0  0  0  0  0
    9.8700    8.7520   24.7845 H   0  0  0  0  0  0  0  0  0  0  0  0
   12.7205   12.2006   20.5231 H   0  0  0  0  0  0  0  0  0  0  0  0
   11.5897   13.2681   19.6738 H   0  0  0  0  0  0  0  0  0  0  0  0
   13.2534   13.7945   19.9854 H   0  0  0  0  0  0  0  0  0  0  0  0
   11.2139   15.7506   22.4946 H   0  0  0  0  0  0  0  0  0  0  0  0
   10.6840   15.3671   20.8560 H   0  0  0  0  0  0  0  0  0  0  0  0
   12.3478   15.9072   21.1414 H   0  0  0  0  0  0  0  0  0  0  0  0
   12.8459   14.2054   23.7119 H   0  0  0  0  0  0  0  0  0  0  0  0
   13.4605   12.7501   22.9078 H   0  0  0  0  0  0  0  0  0  0  0  0
   13.9927   14.3554   22.3793 H   0  0  0  0  0  0  0  0  0  0  0  0
    8.6596    7.7355   23.0869 H   0  0  0  0  0  0  0  0  0  0  0  0
    7.8466    7.6542   24.5007 H   0  0  0  0  0  0  0  0  0  0  0  0
   10.5204   12.3007   21.7178 H   0  0  0  0  0  0  0  0  0  0  0  0
  1 13  1  0  0  0  0
  1 15  1  0  0  0  0
  1 16  2  0  0  0  0
  2  6  1  0  0  0  0
  2  7  1  0  0  0  0
  3  6  1  0  0  0  0
  3  8  1  0  0  0  0
  4  7  1  0  0  0  0
  4  8  1  0  0  0  0
  5  6  1  0  0  0  0
  5 13  1  0  0  0  0
  7 13  1  0  0  0  0
  8 14  1  0  0  0  0
  9 12  1  0  0  0  0
 10 12  1  0  0  0  0
 11 12  1  0  0  0  0
 12 15  1  0  0  0  0
  2 17  1  0  0  0  0
  2 18  1  0  0  0  0
  3 19  1  0  0  0  0
  3 20  1  0  0  0  0
  4 21  1  0  0  0  0
  4 22  1  0  0  0  0
  5 23  1  0  0  0  0
  5 24  1  0  0  0  0
  6 25  1  0  0  0  0
  7 26  1  0  0  0  0
  8 27  1  0  0  0  0
  9 28  1  0  0  0  0
  9 29  1  0  0  0  0
  9 30  1  0  0  0  0
 10 31  1  0  0  0  0
 10 32  1  0  0  0  0
 10 33  1  0  0  0  0
 11 34  1  0  0  0  0
 11 35  1  0  0  0  0
 11 36  1  0  0  0  0
 14 37  1  0  0  0  0
 14 38  1  0  0  0  0
 15 39  1  0  0  0  0
M  END
> <id>
EN300-766486

> <smiles>
CC(C)(C)NC(=O)N1CC2CC1CC(N)C2

> <MDLNUMBER>
MFCD31459218

> <IUPAC Name>
3-amino-N-tert-butyl-6-azabicyclo[3.2.1]octane-6-carboxamide

> <CAS>
2138040-51-2

> <URL>
https://www.enaminestore.com/catalog/EN300-766486

> <ROCS_ShapeQuery>
A71EV2A-x0451_0A_A71EV2A-x0310_0A_A71EV2A-x0416_0A_peptide

> <ROCS_TanimotoCombo>
0.511 

> <ROCS_ShapeTanimoto>
0.286 

> <ROCS_ColorTanimoto>
0.226 

> <ROCS_RefTversky>
0.255 

> <ROCS_RefColorTversky>
0.255 

> <ROCS_RefTverskyCombo>
0.510 

> <ROCS_FitTversky>
1.725 

> <ROCS_FitColorTversky>
0.659 

> <ROCS_FitTverskyCombo>
2.383 

> <ROCS_ColorScore>
-7.834

> <ROCS_Overlap>
1767.526

> <ROCS_Rank>
62                  

$$$$
untitled-dbase-43765_46
  -OEChem-11132313473D

 37 38  0     0  0  0  0  0  0999 V2000
    6.7042   11.0219   25.0111 C   0  0  0  0  0  0  0  0  0  0  0  0
    8.7521   10.2542   23.9769 C   0  0  0  0  0  0  0  0  0  0  0  0
    7.4868    9.9894   24.5182 C   0  0  0  0  0  0  0  0  0  0  0  0
    9.2146   11.5785   23.9709 C   0  0  0  0  0  0  0  0  0  0  0  0
    7.2247   12.2968   24.9512 C   0  0  0  0  0  0  0  0  0  0  0  0
   11.0273   13.1985   23.4755 C   0  0  0  0  0  0  0  0  0  0  0  0
    9.5783    9.1093   23.4651 C   0  0  0  0  0  0  0  0  0  0  0  0
   10.5784    9.6010   22.4358 C   0  0  0  0  0  0  0  0  0  0  0  0
   11.3737   10.7601   23.0113 C   0  0  0  0  0  0  0  0  0  0  0  0
   12.4141   15.6852   23.1417 C   0  0  0  0  0  0  0  0  0  0  0  0
   13.1985   14.7422   20.9498 C   0  0  0  0  0  0  0  0  0  0  0  0
   10.7458   15.1082   21.3477 C   0  0  0  0  0  0  0  0  0  0  0  0
   12.0812   14.7368   21.9908 C   0  0  0  0  0  0  0  0  0  0  0  0
    8.4451   12.5909   24.4504 N   0  0  0  0  0  0  0  0  0  0  0  0
   10.5294   11.8794   23.4571 N   0  0  0  0  0  0  0  0  0  0  0  0
   10.6788   14.0855   24.2520 O   0  0  0  0  0  0  0  0  0  0  0  0
    6.9936    8.7186   24.5699 O   0  0  0  0  0  0  0  0  0  0  0  0
    6.4766   13.3456   25.4167 O   0  0  0  0  0  0  0  0  0  0  0  0
   11.9825   13.4057   22.5110 O   0  0  0  0  0  0  0  0  0  0  0  0
    5.7200   10.8327   25.4257 H   0  0  0  0  0  0  0  0  0  0  0  0
   10.1320    8.6282   24.2793 H   0  0  0  0  0  0  0  0  0  0  0  0
    8.9113    8.3603   23.0218 H   0  0  0  0  0  0  0  0  0  0  0  0
   11.2608    8.7917   22.1455 H   0  0  0  0  0  0  0  0  0  0  0  0
   10.0533    9.9192   21.5285 H   0  0  0  0  0  0  0  0  0  0  0  0
   11.9707   10.3878   23.8510 H   0  0  0  0  0  0  0  0  0  0  0  0
   12.0755   11.1617   22.2695 H   0  0  0  0  0  0  0  0  0  0  0  0
   11.6145   15.6842   23.8911 H   0  0  0  0  0  0  0  0  0  0  0  0
   13.3522   15.4087   23.6338 H   0  0  0  0  0  0  0  0  0  0  0  0
   12.5018   16.7177   22.7847 H   0  0  0  0  0  0  0  0  0  0  0  0
   12.9639   14.0631   20.1221 H   0  0  0  0  0  0  0  0  0  0  0  0
   14.1391   14.3852   21.3848 H   0  0  0  0  0  0  0  0  0  0  0  0
   13.3642   15.7438   20.5400 H   0  0  0  0  0  0  0  0  0  0  0  0
   10.5068   14.4280   20.5221 H   0  0  0  0  0  0  0  0  0  0  0  0
    9.9258   15.0736   22.0723 H   0  0  0  0  0  0  0  0  0  0  0  0
   10.7875   16.1150   20.9167 H   0  0  0  0  0  0  0  0  0  0  0  0
    6.1103    8.7199   24.9695 H   0  0  0  0  0  0  0  0  0  0  0  0
    6.9688   14.1717   25.3102 H   0  0  0  0  0  0  0  0  0  0  0  0
  1  3  1  0  0  0  0
  1  5  2  0  0  0  0
  2  3  2  0  0  0  0
  2  4  1  0  0  0  0
  2  7  1  0  0  0  0
  3 17  1  0  0  0  0
  4 14  2  0  0  0  0
  4 15  1  0  0  0  0
  5 14  1  0  0  0  0
  5 18  1  0  0  0  0
  6 15  1  0  0  0  0
  6 16  2  0  0  0  0
  6 19  1  0  0  0  0
  7  8  1  0  0  0  0
  8  9  1  0  0  0  0
  9 15  1  0  0  0  0
 10 13  1  0  0  0  0
 11 13  1  0  0  0  0
 12 13  1  0  0  0  0
 13 19  1  0  0  0  0
  1 20  1  0  0  0  0
  7 21  1  0  0  0  0
  7 22  1  0  0  0  0
  8 23  1  0  0  0  0
  8 24  1  0  0  0  0
  9 25  1  0  0  0  0
  9 26  1  0  0  0  0
 10 27  1  0  0  0  0
 10 28  1  0  0  0  0
 10 29  1  0  0  0  0
 11 30  1  0  0  0  0
 11 31  1  0  0  0  0
 11 32  1  0  0  0  0
 12 33  1  0  0  0  0
 12 34  1  0  0  0  0
 12 35  1  0  0  0  0
 17 36  1  0  0  0  0
 18 37  1  0  0  0  0
M  END
> <id>
EN300-28228985

> <smiles>
CC(C)(C)OC(=O)N1CCCC=2C(O)=CC(O)=NC12

> <IUPAC Name>
tert-butyl 5,7-dihydroxy-1,2,3,4-tetrahydro-1,8-naphthyridine-1-carboxylate

> <CAS>
2639463-45-7

> <URL>
https://www.enaminestore.com/catalog/EN300-28228985

> <ROCS_ShapeQuery>
A71EV2A-x0451_0A_A71EV2A-x0310_0A_A71EV2A-x0416_0A_peptide

> <ROCS_TanimotoCombo>
0.511 

> <ROCS_ShapeTanimoto>
0.357 

> <ROCS_ColorTanimoto>
0.154 

> <ROCS_RefTversky>
0.308 

> <ROCS_RefColorTversky>
0.177 

> <ROCS_RefTverskyCombo>
0.485 

> <ROCS_FitTversky>
1.813 

> <ROCS_FitColorTversky>
0.534 

> <ROCS_FitTverskyCombo>
2.347 

> <ROCS_ColorScore>
-5.424

> <ROCS_Overlap>
2137.074

> <ROCS_Rank>
63                  

$$$$
untitled-dbase-45953_6
  -OEChem-11132313473D

 38 39  0     0  0  0  0  0  0999 V2000
    6.3604   11.2789   26.0174 C   0  0  0  0  0  0  0  0  0  0  0  0
    7.0472   10.2259   25.4223 C   0  0  0  0  0  0  0  0  0  0  0  0
    7.8997   12.8331   24.9944 C   0  0  0  0  0  0  0  0  0  0  0  0
    6.7881   12.5811   25.8037 C   0  0  0  0  0  0  0  0  0  0  0  0
    8.1785   10.4577   24.6190 C   0  0  0  0  0  0  0  0  0  0  0  0
    8.6149   11.7847   24.3906 C   0  0  0  0  0  0  0  0  0  0  0  0
   10.3912   13.2583   23.3897 C   0  0  0  0  0  0  0  0  0  0  0  0
   10.1229    9.5531   23.4599 C   0  0  0  0  0  0  0  0  0  0  0  0
   10.1632   10.8632   22.6950 C   0  0  0  0  0  0  0  0  0  0  0  0
   12.7754   14.7590   22.8453 C   0  0  0  0  0  0  0  0  0  0  0  0
   12.0497   14.6892   20.4416 C   0  0  0  0  0  0  0  0  0  0  0  0
   10.6132   15.8426   22.1487 C   0  0  0  0  0  0  0  0  0  0  0  0
    6.0689   13.7155   26.4545 C   0  0  0  0  0  0  0  0  0  0  0  0
   11.5810   14.6877   21.8950 C   0  0  0  0  0  0  0  0  0  0  0  0
    8.8246    9.3649   24.0537 N   0  0  0  0  0  0  0  0  0  0  0  0
    9.7430   12.0130   23.5173 N   0  0  0  0  0  0  0  0  0  0  0  0
   10.5326   14.0968   24.2759 O   0  0  0  0  0  0  0  0  0  0  0  0
   10.8891   13.4542   22.1241 O   0  0  0  0  0  0  0  0  0  0  0  0
    5.0147   13.3222   27.2282 F   0  0  0  0  0  0  0  0  0  0  0  0
    6.8600   14.4606   27.2813 F   0  0  0  0  0  0  0  0  0  0  0  0
    5.5515   14.5961   25.5497 F   0  0  0  0  0  0  0  0  0  0  0  0
    5.4999   11.0720   26.6476 H   0  0  0  0  0  0  0  0  0  0  0  0
    6.6889    9.2106   25.5810 H   0  0  0  0  0  0  0  0  0  0  0  0
    8.2040   13.8689   24.8927 H   0  0  0  0  0  0  0  0  0  0  0  0
   10.3465    8.7154   22.7880 H   0  0  0  0  0  0  0  0  0  0  0  0
   10.8872    9.5524   24.2445 H   0  0  0  0  0  0  0  0  0  0  0  0
   11.1776   11.0770   22.3345 H   0  0  0  0  0  0  0  0  0  0  0  0
    9.5233   10.7642   21.8121 H   0  0  0  0  0  0  0  0  0  0  0  0
   12.4431   14.7581   23.8896 H   0  0  0  0  0  0  0  0  0  0  0  0
   13.4594   13.9169   22.6973 H   0  0  0  0  0  0  0  0  0  0  0  0
   13.3357   15.6897   22.7000 H   0  0  0  0  0  0  0  0  0  0  0  0
   11.1959   14.6382   19.7563 H   0  0  0  0  0  0  0  0  0  0  0  0
   12.6683   13.8096   20.2301 H   0  0  0  0  0  0  0  0  0  0  0  0
   12.6307   15.5866   20.2054 H   0  0  0  0  0  0  0  0  0  0  0  0
    9.7564   15.7918   21.4672 H   0  0  0  0  0  0  0  0  0  0  0  0
   10.2377   15.8357   23.1771 H   0  0  0  0  0  0  0  0  0  0  0  0
   11.0998   16.8069   21.9622 H   0  0  0  0  0  0  0  0  0  0  0  0
    8.2936    8.5298   23.8378 H   0  0  0  0  0  0  0  0  0  0  0  0
  1  2  1  0  0  0  0
  1  4  2  0  0  0  0
  2  5  2  0  0  0  0
  3  4  1  0  0  0  0
  3  6  2  0  0  0  0
  4 13  1  0  0  0  0
  5  6  1  0  0  0  0
  5 15  1  0  0  0  0
  6 16  1  0  0  0  0
  7 16  1  0  0  0  0
  7 17  2  0  0  0  0
  7 18  1  0  0  0  0
  8  9  1  0  0  0  0
  8 15  1  0  0  0  0
  9 16  1  0  0  0  0
 10 14  1  0  0  0  0
 11 14  1  0  0  0  0
 12 14  1  0  0  0  0
 13 19  1  0  0  0  0
 13 20  1  0  0  0  0
 13 21  1  0  0  0  0
 14 18  1  0  0  0  0
  1 22  1  0  0  0  0
  2 23  1  0  0  0  0
  3 24  1  0  0  0  0
  8 25  1  0  0  0  0
  8 26  1  0  0  0  0
  9 27  1  0  0  0  0
  9 28  1  0  0  0  0
 10 29  1  0  0  0  0
 10 30  1  0  0  0  0
 10 31  1  0  0  0  0
 11 32  1  0  0  0  0
 11 33  1  0  0  0  0
 11 34  1  0  0  0  0
 12 35  1  0  0  0  0
 12 36  1  0  0  0  0
 12 37  1  0  0  0  0
 15 38  1  0  0  0  0
M  END
> <id>
EN300-28309444

> <smiles>
CC(C)(C)OC(=O)N1CCNC=2C=CC(=CC12)C(F)(F)F

> <MDLNUMBER>
MFCD34185937

> <IUPAC Name>
tert-butyl 7-(trifluoromethyl)-1,2,3,4-tetrahydroquinoxaline-1-carboxylate

> <CAS>
1784443-85-1

> <Purity>
95

> <URL>
https://www.enaminestore.com/catalog/EN300-28309444

> <ROCS_ShapeQuery>
A71EV2A-x0451_0A_A71EV2A-x0310_0A_A71EV2A-x0416_0A_peptide

> <ROCS_TanimotoCombo>
0.510 

> <ROCS_ShapeTanimoto>
0.360 

> <ROCS_ColorTanimoto>
0.151 

> <ROCS_RefTversky>
0.313 

> <ROCS_RefColorTversky>
0.158 

> <ROCS_RefTverskyCombo>
0.471 

> <ROCS_FitTversky>
1.713 

> <ROCS_FitColorTversky>
0.758 

> <ROCS_FitTverskyCombo>
2.471 

> <ROCS_ColorScore>
-4.804

> <ROCS_Overlap>
2173.547

> <ROCS_Rank>
64                  

$$$$
untitled-dbase-30550_21
  -OEChem-11132313473D

 33 34  0     0  0  0  0  0  0999 V2000
    8.0536   12.6897   25.0518 C   0  0  0  0  0  0  0  0  0  0  0  0
    6.9567   12.1153   25.6810 C   0  0  0  0  0  0  0  0  0  0  0  0
    8.4190   10.5298   24.0512 C   0  0  0  0  0  0  0  0  0  0  0  0
    8.7858   11.8602   24.2239 C   0  0  0  0  0  0  0  0  0  0  0  0
    7.3148   10.0475   24.7165 C   0  0  0  0  0  0  0  0  0  0  0  0
   10.5917   13.3576   23.3755 C   0  0  0  0  0  0  0  0  0  0  0  0
    9.3348    9.8094   23.1205 C   0  0  0  0  0  0  0  0  0  0  0  0
   10.3365   10.9104   22.7490 C   0  0  0  0  0  0  0  0  0  0  0  0
   12.1462   15.6580   22.6773 C   0  0  0  0  0  0  0  0  0  0  0  0
   12.0136   14.8043   20.3187 C   0  0  0  0  0  0  0  0  0  0  0  0
    9.9132   15.4509   21.5346 C   0  0  0  0  0  0  0  0  0  0  0  0
   11.3146   14.8583   21.6754 C   0  0  0  0  0  0  0  0  0  0  0  0
    6.5685   10.8204   25.5366 N   0  0  0  0  0  0  0  0  0  0  0  0
    9.9329   12.1400   23.4597 N   0  0  0  0  0  0  0  0  0  0  0  0
   10.6472   14.2074   24.2600 O   0  0  0  0  0  0  0  0  0  0  0  0
    6.9319    8.7437   24.5655 O   0  0  0  0  0  0  0  0  0  0  0  0
   11.1951   13.5132   22.1531 O   0  0  0  0  0  0  0  0  0  0  0  0
    8.2936   13.7302   25.2209 H   0  0  0  0  0  0  0  0  0  0  0  0
    6.3340   12.7042   26.3475 H   0  0  0  0  0  0  0  0  0  0  0  0
    9.8332    8.9760   23.6246 H   0  0  0  0  0  0  0  0  0  0  0  0
    8.7965    9.4514   22.2378 H   0  0  0  0  0  0  0  0  0  0  0  0
   11.3581   10.6481   23.0474 H   0  0  0  0  0  0  0  0  0  0  0  0
   10.3397   11.1081   21.6710 H   0  0  0  0  0  0  0  0  0  0  0  0
   11.6478   15.6991   23.6525 H   0  0  0  0  0  0  0  0  0  0  0  0
   13.1416   15.2228   22.8136 H   0  0  0  0  0  0  0  0  0  0  0  0
   12.2646   16.6962   22.3467 H   0  0  0  0  0  0  0  0  0  0  0  0
   11.4204   14.2314   19.5968 H   0  0  0  0  0  0  0  0  0  0  0  0
   12.9804   14.2940   20.3978 H   0  0  0  0  0  0  0  0  0  0  0  0
   12.1827   15.8062   19.9112 H   0  0  0  0  0  0  0  0  0  0  0  0
    9.3165   14.8774   20.8161 H   0  0  0  0  0  0  0  0  0  0  0  0
    9.3826   15.4635   22.4922 H   0  0  0  0  0  0  0  0  0  0  0  0
    9.9605   16.4758   21.1491 H   0  0  0  0  0  0  0  0  0  0  0  0
    6.1424    8.5676   25.0979 H   0  0  0  0  0  0  0  0  0  0  0  0
  1  2  2  0  0  0  0
  1  4  1  0  0  0  0
  2 13  1  0  0  0  0
  3  4  2  0  0  0  0
  3  5  1  0  0  0  0
  3  7  1  0  0  0  0
  4 14  1  0  0  0  0
  5 13  2  0  0  0  0
  5 16  1  0  0  0  0
  6 14  1  0  0  0  0
  6 15  2  0  0  0  0
  6 17  1  0  0  0  0
  7  8  1  0  0  0  0
  8 14  1  0  0  0  0
  9 12  1  0  0  0  0
 10 12  1  0  0  0  0
 11 12  1  0  0  0  0
 12 17  1  0  0  0  0
  1 18  1  0  0  0  0
  2 19  1  0  0  0  0
  7 20  1  0  0  0  0
  7 21  1  0  0  0  0
  8 22  1  0  0  0  0
  8 23  1  0  0  0  0
  9 24  1  0  0  0  0
  9 25  1  0  0  0  0
  9 26  1  0  0  0  0
 10 27  1  0  0  0  0
 10 28  1  0  0  0  0
 10 29  1  0  0  0  0
 11 30  1  0  0  0  0
 11 31  1  0  0  0  0
 11 32  1  0  0  0  0
 16 33  1  0  0  0  0
M  END
> <id>
EN300-26665157

> <smiles>
CC(C)(C)OC(=O)N1CCC=2C1=CC=NC2O

> <IUPAC Name>
tert-butyl 4-hydroxy-1H,2H,3H-pyrrolo[3,2-c]pyridine-1-carboxylate

> <CAS>
2413896-73-6

> <URL>
https://www.enaminestore.com/catalog/EN300-26665157

> <ROCS_ShapeQuery>
A71EV2A-x0451_0A_A71EV2A-x0310_0A_A71EV2A-x0416_0A_peptide

> <ROCS_TanimotoCombo>
0.509 

> <ROCS_ShapeTanimoto>
0.335 

> <ROCS_ColorTanimoto>
0.175 

> <ROCS_RefTversky>
0.290 

> <ROCS_RefColorTversky>
0.189 

> <ROCS_RefTverskyCombo>
0.480 

> <ROCS_FitTversky>
1.836 

> <ROCS_FitColorTversky>
0.698 

> <ROCS_FitTverskyCombo>
2.534 

> <ROCS_ColorScore>
-5.763

> <ROCS_Overlap>
2014.092

> <ROCS_Rank>
65                  

$$$$
untitled-dbase-26160_52
  -OEChem-11132313473D

 48 50  0     1  0  0  0  0  0999 V2000
    9.8789   13.2848   23.5857 C   0  0  0  0  0  0  0  0  0  0  0  0
    9.0112    7.7610   21.3610 C   0  0  0  0  0  0  0  0  0  0  0  0
    8.0375    6.8864   22.1384 C   0  0  0  0  0  0  0  0  0  0  0  0
    6.9750   11.4111   24.6117 C   0  0  0  0  0  0  0  0  0  0  0  0
    7.9974   11.1136   25.7281 C   0  0  0  0  0  0  0  0  0  0  0  0
    9.8427    8.6041   22.3240 C   0  0  0  0  0  0  0  0  0  0  0  0
    8.2223   10.5871   22.5225 C   0  0  0  0  0  0  0  0  0  0  0  0
    9.9239   10.0720   24.3815 C   0  0  0  0  0  0  0  0  0  0  0  0
    7.2056    7.7176   23.1081 C   0  0  0  0  0  0  0  0  0  0  0  0
    7.8231   11.7965   23.3954 C   0  0  2  0  0  0  0  0  0  0  0  0
    9.3649   11.3331   25.0752 C   0  0  1  0  0  0  0  0  0  0  0  0
    8.9745    9.4454   23.2956 C   0  0  0  0  0  0  0  0  0  0  0  0
   12.2068   12.9135   21.9695 C   0  0  0  0  0  0  0  0  0  0  0  0
   10.8599   13.9466   20.1180 C   0  0  0  0  0  0  0  0  0  0  0  0
   11.3786   15.2808   22.1817 C   0  0  0  0  0  0  0  0  0  0  0  0
   11.0806   13.8882   21.6280 C   0  0  0  0  0  0  0  0  0  0  0  0
    8.0338    8.5376   23.9938 N   0  0  0  0  0  0  0  0  0  0  0  0
    9.0460   12.2718   24.0184 N   0  0  0  0  0  0  0  0  0  0  0  0
   10.5530   13.9909   24.3320 O   0  0  0  0  0  0  0  0  0  0  0  0
    9.8688   13.4107   22.2229 O   0  0  0  0  0  0  0  0  0  0  0  0
    9.6707    7.1326   20.7523 H   0  0  0  0  0  0  0  0  0  0  0  0
    8.4610    8.4095   20.6695 H   0  0  0  0  0  0  0  0  0  0  0  0
    7.3784    6.3543   21.4433 H   0  0  0  0  0  0  0  0  0  0  0  0
    8.5969    6.1239   22.6950 H   0  0  0  0  0  0  0  0  0  0  0  0
    6.2703   10.5988   24.4194 H   0  0  0  0  0  0  0  0  0  0  0  0
    6.3700   12.2736   24.9204 H   0  0  0  0  0  0  0  0  0  0  0  0
    7.8565   11.8525   26.5279 H   0  0  0  0  0  0  0  0  0  0  0  0
    7.8809   10.1344   26.1981 H   0  0  0  0  0  0  0  0  0  0  0  0
   10.4947    7.9333   22.9005 H   0  0  0  0  0  0  0  0  0  0  0  0
   10.5089    9.2571   21.7461 H   0  0  0  0  0  0  0  0  0  0  0  0
    7.3320   10.2104   22.0088 H   0  0  0  0  0  0  0  0  0  0  0  0
    8.8771   10.9595   21.7218 H   0  0  0  0  0  0  0  0  0  0  0  0
   10.8782   10.3448   23.9089 H   0  0  0  0  0  0  0  0  0  0  0  0
   10.1760    9.3200   25.1413 H   0  0  0  0  0  0  0  0  0  0  0  0
    6.4836    8.3335   22.5620 H   0  0  0  0  0  0  0  0  0  0  0  0
    6.6122    7.0360   23.7285 H   0  0  0  0  0  0  0  0  0  0  0  0
    7.3455   12.5683   22.7847 H   0  0  0  0  0  0  0  0  0  0  0  0
   10.1019   11.7446   25.7722 H   0  0  0  0  0  0  0  0  0  0  0  0
   12.3683   12.8687   23.0525 H   0  0  0  0  0  0  0  0  0  0  0  0
   11.9892   11.9031   21.6083 H   0  0  0  0  0  0  0  0  0  0  0  0
   13.1551   13.2419   21.5288 H   0  0  0  0  0  0  0  0  0  0  0  0
   10.0527   14.6447   19.8684 H   0  0  0  0  0  0  0  0  0  0  0  0
   10.5529   12.9685   19.7303 H   0  0  0  0  0  0  0  0  0  0  0  0
   11.7656   14.2605   19.5891 H   0  0  0  0  0  0  0  0  0  0  0  0
   10.5710   15.9800   21.9369 H   0  0  0  0  0  0  0  0  0  0  0  0
   11.5035   15.2641   23.2693 H   0  0  0  0  0  0  0  0  0  0  0  0
   12.2901   15.6917   21.7328 H   0  0  0  0  0  0  0  0  0  0  0  0
    7.4318    9.0180   24.6469 H   0  0  0  0  0  0  0  0  0  0  0  0
  1 18  1  0  0  0  0
  1 19  2  0  0  0  0
  1 20  1  0  0  0  0
  2  3  1  0  0  0  0
  2  6  1  0  0  0  0
  3  9  1  0  0  0  0
  4  5  1  0  0  0  0
  4 10  1  0  0  0  0
  5 11  1  0  0  0  0
  6 12  1  0  0  0  0
  7 10  1  0  0  0  0
  7 12  1  0  0  0  0
  8 11  1  0  0  0  0
  8 12  1  0  0  0  0
  9 17  1  0  0  0  0
 10 18  1  0  0  0  0
 11 18  1  0  0  0  0
 12 17  1  0  0  0  0
 13 16  1  0  0  0  0
 14 16  1  0  0  0  0
 15 16  1  0  0  0  0
 16 20  1  0  0  0  0
  2 21  1  0  0  0  0
  2 22  1  0  0  0  0
  3 23  1  0  0  0  0
  3 24  1  0  0  0  0
  4 25  1  0  0  0  0
  4 26  1  0  0  0  0
  5 27  1  0  0  0  0
  5 28  1  0  0  0  0
  6 29  1  0  0  0  0
  6 30  1  0  0  0  0
  7 31  1  0  0  0  0
  7 32  1  0  0  0  0
  8 33  1  0  0  0  0
  8 34  1  0  0  0  0
  9 35  1  0  0  0  0
  9 36  1  0  0  0  0
 10 37  1  0  0  0  0
 11 38  1  0  0  0  0
 13 39  1  0  0  0  0
 13 40  1  0  0  0  0
 13 41  1  0  0  0  0
 14 42  1  0  0  0  0
 14 43  1  0  0  0  0
 14 44  1  0  0  0  0
 15 45  1  0  0  0  0
 15 46  1  0  0  0  0
 15 47  1  0  0  0  0
 17 48  1  0  0  0  0
M  END
> <id>
EN300-6738470

> <smiles>
CC(C)(C)OC(=O)N1C2CCC1CC3(CCCCN3)C2

> <MDLNUMBER>
MFCD31746496

> <IUPAC Name>
tert-butyl 8-azaspiro[bicyclo[3.2.1]octane-3,2'-piperidine]-8-carboxylate

> <CAS>
2287345-38-2

> <Purity>
95

> <URL>
https://www.enaminestore.com/catalog/EN300-6738470

> <ROCS_ShapeQuery>
A71EV2A-x0451_0A_A71EV2A-x0310_0A_A71EV2A-x0416_0A_peptide

> <ROCS_TanimotoCombo>
0.509 

> <ROCS_ShapeTanimoto>
0.296 

> <ROCS_ColorTanimoto>
0.214 

> <ROCS_RefTversky>
0.268 

> <ROCS_RefColorTversky>
0.244 

> <ROCS_RefTverskyCombo>
0.512 

> <ROCS_FitTversky>
1.540 

> <ROCS_FitColorTversky>
0.632 

> <ROCS_FitTverskyCombo>
2.171 

> <ROCS_ColorScore>
-7.480

> <ROCS_Overlap>
1859.897

> <ROCS_Rank>
66                  

$$$$
untitled-dbase-26900_5
  -OEChem-11132313473D

 39 41  0     0  0  0  0  0  0999 V2000
    6.3969   11.6542   26.3430 C   0  0  0  0  0  0  0  0  0  0  0  0
    6.9205   10.5803   25.6314 C   0  0  0  0  0  0  0  0  0  0  0  0
    6.8751   12.9363   26.1035 C   0  0  0  0  0  0  0  0  0  0  0  0
    7.9297   10.7921   24.6803 C   0  0  0  0  0  0  0  0  0  0  0  0
    8.4371   12.0843   24.4263 C   0  0  0  0  0  0  0  0  0  0  0  0
    7.8808   13.1496   25.1544 C   0  0  0  0  0  0  0  0  0  0  0  0
    8.4827    9.6079   23.9852 C   0  0  0  0  0  0  0  0  0  0  0  0
   10.2469   13.4621   23.3745 C   0  0  0  0  0  0  0  0  0  0  0  0
   10.9586    9.2799   23.4103 C   0  0  0  0  0  0  0  0  0  0  0  0
   10.1905    8.7371   22.2436 C   0  0  0  0  0  0  0  0  0  0  0  0
    9.6016   11.2385   22.4096 C   0  0  0  0  0  0  0  0  0  0  0  0
    9.6118    9.8797   23.0544 C   0  0  0  0  0  0  0  0  0  0  0  0
   12.9714   13.5351   22.4809 C   0  0  0  0  0  0  0  0  0  0  0  0
   12.0794   14.7079   20.4467 C   0  0  0  0  0  0  0  0  0  0  0  0
   11.8309   15.7669   22.7105 C   0  0  0  0  0  0  0  0  0  0  0  0
   11.8743   14.4494   21.9378 C   0  0  0  0  0  0  0  0  0  0  0  0
    9.4562   12.2958   23.4251 N   0  0  0  0  0  0  0  0  0  0  0  0
    8.0574    8.4773   24.1764 O   0  0  0  0  0  0  0  0  0  0  0  0
   10.6076   14.1296   24.3412 O   0  0  0  0  0  0  0  0  0  0  0  0
   10.6125   13.7886   22.0916 O   0  0  0  0  0  0  0  0  0  0  0  0
    8.1990   14.4252   24.8940 F   0  0  0  0  0  0  0  0  0  0  0  0
    5.6133   11.4923   27.0770 H   0  0  0  0  0  0  0  0  0  0  0  0
    6.5351    9.5846   25.8345 H   0  0  0  0  0  0  0  0  0  0  0  0
    6.4506   13.7812   26.6385 H   0  0  0  0  0  0  0  0  0  0  0  0
   11.0326    8.6587   24.2955 H   0  0  0  0  0  0  0  0  0  0  0  0
   11.8540    9.8536   23.2021 H   0  0  0  0  0  0  0  0  0  0  0  0
   10.5715    8.9469   21.2506 H   0  0  0  0  0  0  0  0  0  0  0  0
    9.7608    7.7475   22.3416 H   0  0  0  0  0  0  0  0  0  0  0  0
   10.5053   11.3853   21.8100 H   0  0  0  0  0  0  0  0  0  0  0  0
    8.7465   11.3253   21.7273 H   0  0  0  0  0  0  0  0  0  0  0  0
   12.8277   13.3472   23.5510 H   0  0  0  0  0  0  0  0  0  0  0  0
   12.9902   12.5732   21.9584 H   0  0  0  0  0  0  0  0  0  0  0  0
   13.9570   14.0037   22.3790 H   0  0  0  0  0  0  0  0  0  0  0  0
   11.2944   15.3635   20.0527 H   0  0  0  0  0  0  0  0  0  0  0  0
   12.0166   13.7740   19.8764 H   0  0  0  0  0  0  0  0  0  0  0  0
   13.0509   15.1714   20.2469 H   0  0  0  0  0  0  0  0  0  0  0  0
   11.0440   16.4230   22.3210 H   0  0  0  0  0  0  0  0  0  0  0  0
   11.6475   15.6030   23.7773 H   0  0  0  0  0  0  0  0  0  0  0  0
   12.7735   16.3151   22.5994 H   0  0  0  0  0  0  0  0  0  0  0  0
  1  2  1  0  0  0  0
  1  3  2  0  0  0  0
  2  4  2  0  0  0  0
  3  6  1  0  0  0  0
  4  5  1  0  0  0  0
  4  7  1  0  0  0  0
  5  6  2  0  0  0  0
  5 17  1  0  0  0  0
  6 21  1  0  0  0  0
  7 12  1  0  0  0  0
  7 18  2  0  0  0  0
  8 17  1  0  0  0  0
  8 19  2  0  0  0  0
  8 20  1  0  0  0  0
  9 10  1  0  0  0  0
  9 12  1  0  0  0  0
 10 12  1  0  0  0  0
 11 12  1  0  0  0  0
 11 17  1  0  0  0  0
 13 16  1  0  0  0  0
 14 16  1  0  0  0  0
 15 16  1  0  0  0  0
 16 20  1  0  0  0  0
  1 22  1  0  0  0  0
  2 23  1  0  0  0  0
  3 24  1  0  0  0  0
  9 25  1  0  0  0  0
  9 26  1  0  0  0  0
 10 27  1  0  0  0  0
 10 28  1  0  0  0  0
 11 29  1  0  0  0  0
 11 30  1  0  0  0  0
 13 31  1  0  0  0  0
 13 32  1  0  0  0  0
 13 33  1  0  0  0  0
 14 34  1  0  0  0  0
 14 35  1  0  0  0  0
 14 36  1  0  0  0  0
 15 37  1  0  0  0  0
 15 38  1  0  0  0  0
 15 39  1  0  0  0  0
M  END
> <id>
EN300-34183507

> <smiles>
CC(C)(C)OC(=O)N1CC2(CC2)C(=O)C=3C=CC=C(F)C13

> <IUPAC Name>
tert-butyl 8'-fluoro-4'-oxo-2',4'-dihydro-1'H-spiro[cyclopropane-1,3'-quinoline]-1'-carboxylate

> <URL>
https://www.enaminestore.com/catalog/EN300-34183507

> <ROCS_ShapeQuery>
A71EV2A-x0451_0A_A71EV2A-x0310_0A_A71EV2A-x0416_0A_peptide

> <ROCS_TanimotoCombo>
0.509 

> <ROCS_ShapeTanimoto>
0.375 

> <ROCS_ColorTanimoto>
0.134 

> <ROCS_RefTversky>
0.323 

> <ROCS_RefColorTversky>
0.143 

> <ROCS_RefTverskyCombo>
0.466 

> <ROCS_FitTversky>
1.755 

> <ROCS_FitColorTversky>
0.684 

> <ROCS_FitTverskyCombo>
2.440 

> <ROCS_ColorScore>
-4.338

> <ROCS_Overlap>
2241.776

> <ROCS_Rank>
67                  

$$$$
untitled-dbase-19818_47
  -OEChem-11132313473D

 42 45  0     1  0  0  0  0  0999 V2000
   10.5550   14.6228   22.5686 C   0  0  0  0  0  0  0  0  0  0  0  0
    7.9581    9.4433   23.5652 C   0  0  0  0  0  0  0  0  0  0  0  0
    8.8662    9.4467   24.8159 C   0  0  0  0  0  0  0  0  0  0  0  0
    9.6918   12.4340   21.7682 C   0  0  0  0  0  0  0  0  0  0  0  0
   11.0998   12.4444   23.7163 C   0  0  0  0  0  0  0  0  0  0  0  0
    7.9914   10.8306   22.8790 C   0  0  2  0  0  0  0  0  0  0  0  0
    9.5245   10.8366   24.9927 C   0  0  1  0  0  0  0  0  0  0  0  0
    9.4656   11.0907   22.4581 C   0  0  2  0  0  0  0  0  0  0  0  0
   10.3818   11.0959   23.7212 C   0  0  1  0  0  0  0  0  0  0  0  0
    7.5738   11.9065   23.8655 C   0  0  2  0  0  0  0  0  0  0  0  0
    8.4540   11.9096   25.0797 C   0  0  1  0  0  0  0  0  0  0  0  0
   12.9058   15.1943   21.5619 C   0  0  0  0  0  0  0  0  0  0  0  0
   11.8412   15.3729   19.2939 C   0  0  0  0  0  0  0  0  0  0  0  0
   11.4911   17.1950   20.9867 C   0  0  0  0  0  0  0  0  0  0  0  0
   11.6924   15.6945   20.7793 C   0  0  0  0  0  0  0  0  0  0  0  0
   10.4287   13.2498   22.7116 N   0  0  0  0  0  0  0  0  0  0  0  0
   10.6741   15.4067   23.5076 O   0  0  0  0  0  0  0  0  0  0  0  0
    7.0860   11.4939   25.1463 O   0  0  0  0  0  0  0  0  0  0  0  0
   10.5290   15.0084   21.2550 O   0  0  0  0  0  0  0  0  0  0  0  0
    8.2890    8.6643   22.8680 H   0  0  0  0  0  0  0  0  0  0  0  0
    6.9321    9.1876   23.8565 H   0  0  0  0  0  0  0  0  0  0  0  0
    8.2723    9.1917   25.7020 H   0  0  0  0  0  0  0  0  0  0  0  0
    9.6342    8.6700   24.7195 H   0  0  0  0  0  0  0  0  0  0  0  0
   10.3318   12.3089   20.8869 H   0  0  0  0  0  0  0  0  0  0  0  0
    8.7757   12.9380   21.4450 H   0  0  0  0  0  0  0  0  0  0  0  0
   11.1113   12.9490   24.6869 H   0  0  0  0  0  0  0  0  0  0  0  0
   12.1390   12.3253   23.3879 H   0  0  0  0  0  0  0  0  0  0  0  0
    7.3288   10.8386   22.0071 H   0  0  0  0  0  0  0  0  0  0  0  0
   10.1475   10.8496   25.8933 H   0  0  0  0  0  0  0  0  0  0  0  0
    9.7851   10.2883   21.7802 H   0  0  0  0  0  0  0  0  0  0  0  0
   11.1303   10.2976   23.6315 H   0  0  0  0  0  0  0  0  0  0  0  0
    7.2430   12.8416   23.4416 H   0  0  0  0  0  0  0  0  0  0  0  0
    8.7514   12.8470   25.5230 H   0  0  0  0  0  0  0  0  0  0  0  0
   12.8029   15.4233   22.6287 H   0  0  0  0  0  0  0  0  0  0  0  0
   13.0406   14.1136   21.4497 H   0  0  0  0  0  0  0  0  0  0  0  0
   13.8213   15.6941   21.2254 H   0  0  0  0  0  0  0  0  0  0  0  0
   10.9728   15.7300   18.7285 H   0  0  0  0  0  0  0  0  0  0  0  0
   11.8907   14.2900   19.1321 H   0  0  0  0  0  0  0  0  0  0  0  0
   12.7420   15.8283   18.8701 H   0  0  0  0  0  0  0  0  0  0  0  0
   10.6209   17.5540   20.4254 H   0  0  0  0  0  0  0  0  0  0  0  0
   11.3458   17.4401   22.0437 H   0  0  0  0  0  0  0  0  0  0  0  0
   12.3537   17.7590   20.6138 H   0  0  0  0  0  0  0  0  0  0  0  0
  1 16  1  0  0  0  0
  1 17  2  0  0  0  0
  1 19  1  0  0  0  0
  2  3  1  0  0  0  0
  2  6  1  0  0  0  0
  3  7  1  0  0  0  0
  4  8  1  0  0  0  0
  4 16  1  0  0  0  0
  5  9  1  0  0  0  0
  5 16  1  0  0  0  0
  6  8  1  0  0  0  0
  6 10  1  0  0  0  0
  7  9  1  0  0  0  0
  7 11  1  0  0  0  0
  8  9  1  0  0  0  0
 10 11  1  0  0  0  0
 10 18  1  0  0  0  0
 11 18  1  0  0  0  0
 12 15  1  0  0  0  0
 13 15  1  0  0  0  0
 14 15  1  0  0  0  0
 15 19  1  0  0  0  0
  2 20  1  0  0  0  0
  2 21  1  0  0  0  0
  3 22  1  0  0  0  0
  3 23  1  0  0  0  0
  4 24  1  0  0  0  0
  4 25  1  0  0  0  0
  5 26  1  0  0  0  0
  5 27  1  0  0  0  0
  6 28  1  0  0  0  0
  7 29  1  0  0  0  0
  8 30  1  0  0  0  0
  9 31  1  0  0  0  0
 10 32  1  0  0  0  0
 11 33  1  0  0  0  0
 12 34  1  0  0  0  0
 12 35  1  0  0  0  0
 12 36  1  0  0  0  0
 13 37  1  0  0  0  0
 13 38  1  0  0  0  0
 13 39  1  0  0  0  0
 14 40  1  0  0  0  0
 14 41  1  0  0  0  0
 14 42  1  0  0  0  0
M  END
> <id>
EN300-1708356

> <smiles>
CC(C)(C)OC(=O)N1CC2C(C1)C3CCC2C4OC43

> <IUPAC Name>
tert-butyl 9-oxa-4-azatetracyclo[5.3.2.0^{2,6}.0^{8,10}]dodecane-4-carboxylate

> <CAS>
2219407-46-0

> <URL>
https://www.enaminestore.com/catalog/EN300-1708356

> <ROCS_ShapeQuery>
A71EV2A-x0451_0A_A71EV2A-x0310_0A_A71EV2A-x0416_0A_peptide

> <ROCS_TanimotoCombo>
0.509 

> <ROCS_ShapeTanimoto>
0.300 

> <ROCS_ColorTanimoto>
0.209 

> <ROCS_RefTversky>
0.270 

> <ROCS_RefColorTversky>
0.290 

> <ROCS_RefTverskyCombo>
0.560 

> <ROCS_FitTversky>
1.577 

> <ROCS_FitColorTversky>
0.429 

> <ROCS_FitTverskyCombo>
2.006 

> <ROCS_ColorScore>
-9.021

> <ROCS_Overlap>
1874.388

> <ROCS_Rank>
68                  

$$$$
untitled-dbase-42883_525
  -OEChem-11132313473D

 48 50  0     1  0  0  0  0  0999 V2000
    7.9172   12.8594   25.6742 C   0  0  0  0  0  0  0  0  0  0  0  0
    8.7382   12.2107   24.7939 C   0  0  0  0  0  0  0  0  0  0  0  0
    8.0745   11.0263   24.4472 C   0  0  0  0  0  0  0  0  0  0  0  0
   11.5638   15.6341   22.2139 C   0  0  0  0  0  0  0  0  0  0  0  0
    9.9429   12.4013   21.9316 C   0  0  0  0  0  0  0  0  0  0  0  0
   12.0173   12.0220   23.3296 C   0  0  0  0  0  0  0  0  0  0  0  0
   10.1633   10.3119   23.4201 C   0  0  0  0  0  0  0  0  0  0  0  0
   10.8548   13.4478   21.2827 C   0  0  0  0  0  0  0  0  0  0  0  0
   12.4077   13.4982   23.2228 C   0  0  0  0  0  0  0  0  0  0  0  0
    8.6515   10.0316   23.5198 C   0  0  1  0  0  0  0  0  0  0  0  0
   10.4867   11.8311   23.2709 C   0  0  0  0  0  0  0  0  0  0  0  0
   12.6217   16.0875   19.5943 C   0  0  0  0  0  0  0  0  0  0  0  0
   10.4810   17.3220   19.1439 C   0  0  0  0  0  0  0  0  0  0  0  0
   12.0504   18.1477   20.9225 C   0  0  0  0  0  0  0  0  0  0  0  0
    5.6532   12.3024   26.5981 C   0  0  0  0  0  0  0  0  0  0  0  0
   11.4948   16.9148   20.2110 C   0  0  0  0  0  0  0  0  0  0  0  0
    6.8841   10.9228   25.0431 N   0  0  0  0  0  0  0  0  0  0  0  0
    6.8188   12.0500   25.7846 N   0  0  0  0  0  0  0  0  0  0  0  0
   11.5821   14.2375   22.2668 N   0  0  0  0  0  0  0  0  0  0  0  0
   12.1506   16.3686   23.0059 O   0  0  0  0  0  0  0  0  0  0  0  0
    9.9502   12.6255   24.3710 O   0  0  0  0  0  0  0  0  0  0  0  0
    8.4717    8.6900   23.9619 O   0  0  0  0  0  0  0  0  0  0  0  0
   10.8080   16.1047   21.1718 O   0  0  0  0  0  0  0  0  0  0  0  0
    8.0042   13.7935   26.2118 H   0  0  0  0  0  0  0  0  0  0  0  0
    8.9568   12.8702   22.0828 H   0  0  0  0  0  0  0  0  0  0  0  0
    9.7836   11.5753   21.2169 H   0  0  0  0  0  0  0  0  0  0  0  0
   12.4988   11.4682   22.5192 H   0  0  0  0  0  0  0  0  0  0  0  0
   12.4049   11.6365   24.2763 H   0  0  0  0  0  0  0  0  0  0  0  0
   10.6451    9.9326   24.3323 H   0  0  0  0  0  0  0  0  0  0  0  0
   10.5900    9.7339   22.5920 H   0  0  0  0  0  0  0  0  0  0  0  0
   11.5520   12.9469   20.5952 H   0  0  0  0  0  0  0  0  0  0  0  0
   10.2637   14.1481   20.6727 H   0  0  0  0  0  0  0  0  0  0  0  0
   12.2955   13.9994   24.1996 H   0  0  0  0  0  0  0  0  0  0  0  0
   13.4764   13.5700   22.9662 H   0  0  0  0  0  0  0  0  0  0  0  0
    8.1835   10.1286   22.5357 H   0  0  0  0  0  0  0  0  0  0  0  0
   13.3515   15.7933   20.3570 H   0  0  0  0  0  0  0  0  0  0  0  0
   12.2397   15.1824   19.1110 H   0  0  0  0  0  0  0  0  0  0  0  0
   13.1727   16.6719   18.8484 H   0  0  0  0  0  0  0  0  0  0  0  0
    9.6706   17.9157   19.5819 H   0  0  0  0  0  0  0  0  0  0  0  0
   10.0099   16.4394   18.6962 H   0  0  0  0  0  0  0  0  0  0  0  0
   10.9480   17.9081   18.3457 H   0  0  0  0  0  0  0  0  0  0  0  0
   11.2422   18.7412   21.3649 H   0  0  0  0  0  0  0  0  0  0  0  0
   12.7521   17.8729   21.7167 H   0  0  0  0  0  0  0  0  0  0  0  0
   12.5662   18.8066   20.2147 H   0  0  0  0  0  0  0  0  0  0  0  0
    4.9337   12.8599   25.9927 H   0  0  0  0  0  0  0  0  0  0  0  0
    5.2233   11.3510   26.9234 H   0  0  0  0  0  0  0  0  0  0  0  0
    5.9453   12.8828   27.4777 H   0  0  0  0  0  0  0  0  0  0  0  0
    7.5147    8.5457   24.0302 H   0  0  0  0  0  0  0  0  0  0  0  0
  1  2  2  0  0  0  0
  1 18  1  0  0  0  0
  2  3  1  0  0  0  0
  2 21  1  0  0  0  0
  3 10  1  0  0  0  0
  3 17  2  0  0  0  0
  4 19  1  0  0  0  0
  4 20  2  0  0  0  0
  4 23  1  0  0  0  0
  5  8  1  0  0  0  0
  5 11  1  0  0  0  0
  6  9  1  0  0  0  0
  6 11  1  0  0  0  0
  7 10  1  0  0  0  0
  7 11  1  0  0  0  0
  8 19  1  0  0  0  0
  9 19  1  0  0  0  0
 10 22  1  0  0  0  0
 11 21  1  0  0  0  0
 12 16  1  0  0  0  0
 13 16  1  0  0  0  0
 14 16  1  0  0  0  0
 15 18  1  0  0  0  0
 16 23  1  0  0  0  0
 17 18  1  0  0  0  0
  1 24  1  0  0  0  0
  5 25  1  0  0  0  0
  5 26  1  0  0  0  0
  6 27  1  0  0  0  0
  6 28  1  0  0  0  0
  7 29  1  0  0  0  0
  7 30  1  0  0  0  0
  8 31  1  0  0  0  0
  8 32  1  0  0  0  0
  9 33  1  0  0  0  0
  9 34  1  0  0  0  0
 10 35  1  0  0  0  0
 12 36  1  0  0  0  0
 12 37  1  0  0  0  0
 12 38  1  0  0  0  0
 13 39  1  0  0  0  0
 13 40  1  0  0  0  0
 13 41  1  0  0  0  0
 14 42  1  0  0  0  0
 14 43  1  0  0  0  0
 14 44  1  0  0  0  0
 15 45  1  0  0  0  0
 15 46  1  0  0  0  0
 15 47  1  0  0  0  0
 22 48  1  0  0  0  0
M  END
> <id>
EN300-27718463

> <smiles>
CN1C=C2OC3(CCN(CC3)C(=O)OC(C)(C)C)CC(O)C2=N1

> <IUPAC Name>
tert-butyl 7'-hydroxy-2'-methyl-6',7'-dihydro-2'H-spiro[piperidine-4,5'-pyrano[3,2-c]pyrazole]-1-carboxylate

> <CAS>
2580230-17-5

> <URL>
https://www.enaminestore.com/catalog/EN300-27718463

> <ROCS_ShapeQuery>
A71EV2A-x0451_0A_A71EV2A-x0310_0A_A71EV2A-x0416_0A_peptide

> <ROCS_TanimotoCombo>
0.509 

> <ROCS_ShapeTanimoto>
0.351 

> <ROCS_ColorTanimoto>
0.158 

> <ROCS_RefTversky>
0.311 

> <ROCS_RefColorTversky>
0.181 

> <ROCS_RefTverskyCombo>
0.492 

> <ROCS_FitTversky>
1.590 

> <ROCS_FitColorTversky>
0.546 

> <ROCS_FitTverskyCombo>
2.136 

> <ROCS_ColorScore>
-5.545

> <ROCS_Overlap>
2158.052

> <ROCS_Rank>
69                  

$$$$
untitled-dbase-45519_3
  -OEChem-11132313473D

 37 38  0     1  0  0  0  0  0999 V2000
    6.6904   10.5618   25.5348 C   0  0  0  0  0  0  0  0  0  0  0  0
    6.2241   11.6386   26.2779 C   0  0  0  0  0  0  0  0  0  0  0  0
    7.9509   13.0322   25.3076 C   0  0  0  0  0  0  0  0  0  0  0  0
    8.4446   11.9604   24.5480 C   0  0  0  0  0  0  0  0  0  0  0  0
    7.7966   10.7172   24.6903 C   0  0  0  0  0  0  0  0  0  0  0  0
    6.8561   12.8707   26.1661 C   0  0  0  0  0  0  0  0  0  0  0  0
   10.2956   13.2533   23.4284 C   0  0  0  0  0  0  0  0  0  0  0  0
    9.7811   10.8923   22.7862 C   0  0  0  0  0  0  0  0  0  0  0  0
    9.5236    9.6187   23.5744 C   0  0  2  0  0  0  0  0  0  0  0  0
    9.7587    8.3860   22.7097 C   0  0  0  0  0  0  0  0  0  0  0  0
   12.7634   14.5168   22.6854 C   0  0  0  0  0  0  0  0  0  0  0  0
   11.8556   14.4965   20.3434 C   0  0  0  0  0  0  0  0  0  0  0  0
   10.6666   15.7953   22.1344 C   0  0  0  0  0  0  0  0  0  0  0  0
   11.4995   14.5515   21.8274 C   0  0  0  0  0  0  0  0  0  0  0  0
    9.5351   12.0822   23.6159 N   0  0  0  0  0  0  0  0  0  0  0  0
   10.5828   14.0829   24.2864 O   0  0  0  0  0  0  0  0  0  0  0  0
    8.1665    9.5816   24.0131 O   0  0  0  0  0  0  0  0  0  0  0  0
   10.7137   13.3912   22.1261 O   0  0  0  0  0  0  0  0  0  0  0  0
    6.2196   14.3439   27.1691 Br  0  0  0  0  0  0  0  0  0  0  0  0
    6.1965    9.5973   25.6221 H   0  0  0  0  0  0  0  0  0  0  0  0
    5.3696   11.5011   26.9348 H   0  0  0  0  0  0  0  0  0  0  0  0
    8.3786   14.0250   25.2396 H   0  0  0  0  0  0  0  0  0  0  0  0
   10.8105   10.8888   22.4137 H   0  0  0  0  0  0  0  0  0  0  0  0
    9.1083   10.9721   21.9228 H   0  0  0  0  0  0  0  0  0  0  0  0
   10.1872    9.5582   24.4482 H   0  0  0  0  0  0  0  0  0  0  0  0
    9.1125    8.4177   21.8326 H   0  0  0  0  0  0  0  0  0  0  0  0
    9.5377    7.4838   23.2797 H   0  0  0  0  0  0  0  0  0  0  0  0
   10.7979    8.3531   22.3830 H   0  0  0  0  0  0  0  0  0  0  0  0
   12.5120   14.5561   23.7513 H   0  0  0  0  0  0  0  0  0  0  0  0
   13.3520   13.6124   22.5001 H   0  0  0  0  0  0  0  0  0  0  0  0
   13.3963   15.3888   22.4847 H   0  0  0  0  0  0  0  0  0  0  0  0
   10.9517   14.5212   19.7241 H   0  0  0  0  0  0  0  0  0  0  0  0
   12.3709   13.5602   20.1002 H   0  0  0  0  0  0  0  0  0  0  0  0
   12.4991   15.3325   20.0511 H   0  0  0  0  0  0  0  0  0  0  0  0
    9.7599   15.8204   21.5191 H   0  0  0  0  0  0  0  0  0  0  0  0
   10.3706   15.8326   23.1878 H   0  0  0  0  0  0  0  0  0  0  0  0
   11.2264   16.7073   21.8975 H   0  0  0  0  0  0  0  0  0  0  0  0
  1  2  1  0  0  0  0
  1  5  2  0  0  0  0
  2  6  2  0  0  0  0
  3  4  2  0  0  0  0
  3  6  1  0  0  0  0
  4  5  1  0  0  0  0
  4 15  1  0  0  0  0
  5 17  1  0  0  0  0
  6 19  1  0  0  0  0
  7 15  1  0  0  0  0
  7 16  2  0  0  0  0
  7 18  1  0  0  0  0
  8  9  1  0  0  0  0
  8 15  1  0  0  0  0
  9 10  1  0  0  0  0
  9 17  1  0  0  0  0
 11 14  1  0  0  0  0
 12 14  1  0  0  0  0
 13 14  1  0  0  0  0
 14 18  1  0  0  0  0
  1 20  1  0  0  0  0
  2 21  1  0  0  0  0
  3 22  1  0  0  0  0
  8 23  1  0  0  0  0
  8 24  1  0  0  0  0
  9 25  1  0  0  0  0
 10 26  1  0  0  0  0
 10 27  1  0  0  0  0
 10 28  1  0  0  0  0
 11 29  1  0  0  0  0
 11 30  1  0  0  0  0
 11 31  1  0  0  0  0
 12 32  1  0  0  0  0
 12 33  1  0  0  0  0
 12 34  1  0  0  0  0
 13 35  1  0  0  0  0
 13 36  1  0  0  0  0
 13 37  1  0  0  0  0
M  END
> <id>
EN300-28295154

> <smiles>
CC1CN(C(=O)OC(C)(C)C)C=2C=C(Br)C=CC2O1

> <IUPAC Name>
tert-butyl 6-bromo-2-methyl-3,4-dihydro-2H-1,4-benzoxazine-4-carboxylate

> <CAS>
2680744-06-1

> <URL>
https://www.enaminestore.com/catalog/EN300-28295154

> <ROCS_ShapeQuery>
A71EV2A-x0451_0A_A71EV2A-x0310_0A_A71EV2A-x0416_0A_peptide

> <ROCS_TanimotoCombo>
0.508 

> <ROCS_ShapeTanimoto>
0.354 

> <ROCS_ColorTanimoto>
0.154 

> <ROCS_RefTversky>
0.305 

> <ROCS_RefColorTversky>
0.166 

> <ROCS_RefTverskyCombo>
0.471 

> <ROCS_FitTversky>
1.824 

> <ROCS_FitColorTversky>
0.691 

> <ROCS_FitTverskyCombo>
2.515 

> <ROCS_ColorScore>
-5.037

> <ROCS_Overlap>
2118.523

> <ROCS_Rank>
70                  

$$$$
untitled-dbase-6700_27
  -OEChem-11132313473D

 35 36  0     0  0  0  0  0  0999 V2000
    8.4642   12.5885   24.3070 C   0  0  0  0  0  0  0  0  0  0  0  0
    9.4081   11.7116   23.7773 C   0  0  0  0  0  0  0  0  0  0  0  0
    9.0772   10.3537   23.8456 C   0  0  0  0  0  0  0  0  0  0  0  0
    7.3077   12.0770   24.8696 C   0  0  0  0  0  0  0  0  0  0  0  0
   11.1349   13.4658   23.2461 C   0  0  0  0  0  0  0  0  0  0  0  0
    9.9945    9.2939   23.3155 C   0  0  0  0  0  0  0  0  0  0  0  0
   10.7740    9.8402   22.1396 C   0  0  0  0  0  0  0  0  0  0  0  0
   11.5047   11.1048   22.5572 C   0  0  0  0  0  0  0  0  0  0  0  0
   11.5258   16.1091   22.1944 C   0  0  0  0  0  0  0  0  0  0  0  0
   12.7290   14.9791   20.3010 C   0  0  0  0  0  0  0  0  0  0  0  0
   10.2948   14.5037   20.6970 C   0  0  0  0  0  0  0  0  0  0  0  0
   11.6331   14.8368   21.3549 C   0  0  0  0  0  0  0  0  0  0  0  0
    7.9336    9.8931   24.4162 N   0  0  0  0  0  0  0  0  0  0  0  0
    7.0381   10.7624   24.9337 N   0  0  0  0  0  0  0  0  0  0  0  0
   10.6517   12.1375   23.1769 N   0  0  0  0  0  0  0  0  0  0  0  0
   10.8668   14.3005   24.1051 O   0  0  0  0  0  0  0  0  0  0  0  0
    6.3744   12.9330   25.3888 O   0  0  0  0  0  0  0  0  0  0  0  0
   12.0005   13.7520   22.2160 O   0  0  0  0  0  0  0  0  0  0  0  0
    8.5721   13.6642   24.2870 H   0  0  0  0  0  0  0  0  0  0  0  0
   10.6722    8.9772   24.1170 H   0  0  0  0  0  0  0  0  0  0  0  0
    9.4197    8.4158   23.0001 H   0  0  0  0  0  0  0  0  0  0  0  0
   11.4926    9.0923   21.7861 H   0  0  0  0  0  0  0  0  0  0  0  0
   10.1014   10.0616   21.3010 H   0  0  0  0  0  0  0  0  0  0  0  0
   12.2964   10.8709   23.2803 H   0  0  0  0  0  0  0  0  0  0  0  0
   11.9938   11.5241   21.6703 H   0  0  0  0  0  0  0  0  0  0  0  0
   10.7402   16.0109   22.9521 H   0  0  0  0  0  0  0  0  0  0  0  0
   12.4694   16.3397   22.6996 H   0  0  0  0  0  0  0  0  0  0  0  0
   11.2485   16.9667   21.5708 H   0  0  0  0  0  0  0  0  0  0  0  0
   12.8095   14.0685   19.6964 H   0  0  0  0  0  0  0  0  0  0  0  0
   13.7077   15.1239   20.7727 H   0  0  0  0  0  0  0  0  0  0  0  0
   12.5384   15.8241   19.6315 H   0  0  0  0  0  0  0  0  0  0  0  0
   10.3715   13.5912   20.0948 H   0  0  0  0  0  0  0  0  0  0  0  0
    9.5040   14.3616   21.4407 H   0  0  0  0  0  0  0  0  0  0  0  0
    9.9885   15.3019   20.0112 H   0  0  0  0  0  0  0  0  0  0  0  0
    5.6276   12.4295   25.7431 H   0  0  0  0  0  0  0  0  0  0  0  0
  1  2  2  0  0  0  0
  1  4  1  0  0  0  0
  2  3  1  0  0  0  0
  2 15  1  0  0  0  0
  3  6  1  0  0  0  0
  3 13  2  0  0  0  0
  4 14  2  0  0  0  0
  4 17  1  0  0  0  0
  5 15  1  0  0  0  0
  5 16  2  0  0  0  0
  5 18  1  0  0  0  0
  6  7  1  0  0  0  0
  7  8  1  0  0  0  0
  8 15  1  0  0  0  0
  9 12  1  0  0  0  0
 10 12  1  0  0  0  0
 11 12  1  0  0  0  0
 12 18  1  0  0  0  0
 13 14  1  0  0  0  0
  1 19  1  0  0  0  0
  6 20  1  0  0  0  0
  6 21  1  0  0  0  0
  7 22  1  0  0  0  0
  7 23  1  0  0  0  0
  8 24  1  0  0  0  0
  8 25  1  0  0  0  0
  9 26  1  0  0  0  0
  9 27  1  0  0  0  0
  9 28  1  0  0  0  0
 10 29  1  0  0  0  0
 10 30  1  0  0  0  0
 10 31  1  0  0  0  0
 11 32  1  0  0  0  0
 11 33  1  0  0  0  0
 11 34  1  0  0  0  0
 17 35  1  0  0  0  0
M  END
> <id>
EN300-175709

> <smiles>
CC(C)(C)OC(=O)N1CCCC=2N=NC(O)=CC12

> <MDLNUMBER>
MFCD28012411

> <IUPAC Name>
tert-butyl 3-hydroxy-5H,6H,7H,8H-pyrido[3,2-c]pyridazine-5-carboxylate

> <CAS>
1701807-80-8

> <URL>
https://www.enaminestore.com/catalog/EN300-175709

> <ROCS_ShapeQuery>
A71EV2A-x0451_0A_A71EV2A-x0310_0A_A71EV2A-x0416_0A_peptide

> <ROCS_TanimotoCombo>
0.508 

> <ROCS_ShapeTanimoto>
0.338 

> <ROCS_ColorTanimoto>
0.170 

> <ROCS_RefTversky>
0.294 

> <ROCS_RefColorTversky>
0.191 

> <ROCS_RefTverskyCombo>
0.485 

> <ROCS_FitTversky>
1.799 

> <ROCS_FitColorTversky>
0.612 

> <ROCS_FitTverskyCombo>
2.412 

> <ROCS_ColorScore>
-5.821

> <ROCS_Overlap>
2039.361

> <ROCS_Rank>
71                  

$$$$
untitled-dbase-42835_24
  -OEChem-11132313473D

 43 44  0     1  0  0  0  0  0999 V2000
   10.2604   13.5132   23.3605 C   0  0  0  0  0  0  0  0  0  0  0  0
    7.2261   12.2158   25.4219 C   0  0  0  0  0  0  0  0  0  0  0  0
    6.5781   11.7123   24.1310 C   0  0  0  0  0  0  0  0  0  0  0  0
    8.1068   11.1665   26.1023 C   0  0  0  0  0  0  0  0  0  0  0  0
    8.6132   11.8331   22.6071 C   0  0  0  0  0  0  0  0  0  0  0  0
   10.1223   11.3015   24.5552 C   0  0  0  0  0  0  0  0  0  0  0  0
    7.5378   10.9173   23.2166 C   0  0  1  0  0  0  0  0  0  0  0  0
    9.0213   10.3893   25.1272 C   0  0  2  0  0  0  0  0  0  0  0  0
    8.1838    9.7558   23.9988 C   0  0  0  0  0  0  0  0  0  0  0  0
   12.3924   15.0798   22.2699 C   0  0  0  0  0  0  0  0  0  0  0  0
   10.9425   15.2966   20.2303 C   0  0  0  0  0  0  0  0  0  0  0  0
   10.1559   16.2232   22.4282 C   0  0  0  0  0  0  0  0  0  0  0  0
    9.0068    8.8168   23.1072 C   0  0  0  0  0  0  0  0  0  0  0  0
   10.9573   15.1151   21.7466 C   0  0  0  0  0  0  0  0  0  0  0  0
    9.6362   12.2727   23.5624 N   0  0  0  0  0  0  0  0  0  0  0  0
   10.6947   14.2248   24.2647 O   0  0  0  0  0  0  0  0  0  0  0  0
    7.1612    8.9414   24.5861 O   0  0  0  0  0  0  0  0  0  0  0  0
   10.3353   13.8581   22.0367 O   0  0  0  0  0  0  0  0  0  0  0  0
    9.9935    9.5029   22.5163 F   0  0  0  0  0  0  0  0  0  0  0  0
    9.5359    7.8359   23.8496 F   0  0  0  0  0  0  0  0  0  0  0  0
    8.2190    8.2805   22.1662 F   0  0  0  0  0  0  0  0  0  0  0  0
    7.8199   13.1118   25.2093 H   0  0  0  0  0  0  0  0  0  0  0  0
    6.4448   12.5425   26.1185 H   0  0  0  0  0  0  0  0  0  0  0  0
    5.7265   11.0726   24.3957 H   0  0  0  0  0  0  0  0  0  0  0  0
    6.1547   12.5624   23.5825 H   0  0  0  0  0  0  0  0  0  0  0  0
    8.7104   11.6490   26.8806 H   0  0  0  0  0  0  0  0  0  0  0  0
    7.4574   10.4529   26.6253 H   0  0  0  0  0  0  0  0  0  0  0  0
    9.1433   11.3147   21.7997 H   0  0  0  0  0  0  0  0  0  0  0  0
    8.1406   12.7076   22.1452 H   0  0  0  0  0  0  0  0  0  0  0  0
   10.6274   11.8222   25.3757 H   0  0  0  0  0  0  0  0  0  0  0  0
   10.8911   10.7034   24.0527 H   0  0  0  0  0  0  0  0  0  0  0  0
    6.9284   10.5084   22.3996 H   0  0  0  0  0  0  0  0  0  0  0  0
    9.5024    9.5941   25.7121 H   0  0  0  0  0  0  0  0  0  0  0  0
   12.4073   14.9496   23.3579 H   0  0  0  0  0  0  0  0  0  0  0  0
   12.9679   14.2672   21.8145 H   0  0  0  0  0  0  0  0  0  0  0  0
   12.9069   16.0255   22.0647 H   0  0  0  0  0  0  0  0  0  0  0  0
    9.9147   15.3226   19.8505 H   0  0  0  0  0  0  0  0  0  0  0  0
   11.4347   14.4539   19.7315 H   0  0  0  0  0  0  0  0  0  0  0  0
   11.4468   16.2205   19.9291 H   0  0  0  0  0  0  0  0  0  0  0  0
    9.1264   16.2488   22.0530 H   0  0  0  0  0  0  0  0  0  0  0  0
   10.1246   16.0886   23.5143 H   0  0  0  0  0  0  0  0  0  0  0  0
   10.5885   17.2067   22.2115 H   0  0  0  0  0  0  0  0  0  0  0  0
    7.6207    8.2344   25.0604 H   0  0  0  0  0  0  0  0  0  0  0  0
  1 15  1  0  0  0  0
  1 16  2  0  0  0  0
  1 18  1  0  0  0  0
  2  3  1  0  0  0  0
  2  4  1  0  0  0  0
  3  7  1  0  0  0  0
  4  8  1  0  0  0  0
  5  7  1  0  0  0  0
  5 15  1  0  0  0  0
  6  8  1  0  0  0  0
  6 15  1  0  0  0  0
  7  9  1  0  0  0  0
  8  9  1  0  0  0  0
  9 13  1  0  0  0  0
  9 17  1  0  0  0  0
 10 14  1  0  0  0  0
 11 14  1  0  0  0  0
 12 14  1  0  0  0  0
 13 19  1  0  0  0  0
 13 20  1  0  0  0  0
 13 21  1  0  0  0  0
 14 18  1  0  0  0  0
  2 22  1  0  0  0  0
  2 23  1  0  0  0  0
  3 24  1  0  0  0  0
  3 25  1  0  0  0  0
  4 26  1  0  0  0  0
  4 27  1  0  0  0  0
  5 28  1  0  0  0  0
  5 29  1  0  0  0  0
  6 30  1  0  0  0  0
  6 31  1  0  0  0  0
  7 32  1  0  0  0  0
  8 33  1  0  0  0  0
 10 34  1  0  0  0  0
 10 35  1  0  0  0  0
 10 36  1  0  0  0  0
 11 37  1  0  0  0  0
 11 38  1  0  0  0  0
 11 39  1  0  0  0  0
 12 40  1  0  0  0  0
 12 41  1  0  0  0  0
 12 42  1  0  0  0  0
 17 43  1  0  0  0  0
M  END
> <id>
EN300-27718197

> <smiles>
CC(C)(C)OC(=O)N1CC2CCCC(C1)C2(O)C(F)(F)F

> <IUPAC Name>
tert-butyl 9-hydroxy-9-(trifluoromethyl)-3-azabicyclo[3.3.1]nonane-3-carboxylate

> <CAS>
2580238-20-4

> <URL>
https://www.enaminestore.com/catalog/EN300-27718197

> <ROCS_ShapeQuery>
A71EV2A-x0451_0A_A71EV2A-x0310_0A_A71EV2A-x0416_0A_peptide

> <ROCS_TanimotoCombo>
0.508 

> <ROCS_ShapeTanimoto>
0.333 

> <ROCS_ColorTanimoto>
0.175 

> <ROCS_RefTversky>
0.295 

> <ROCS_RefColorTversky>
0.186 

> <ROCS_RefTverskyCombo>
0.481 

> <ROCS_FitTversky>
1.624 

> <ROCS_FitColorTversky>
0.746 

> <ROCS_FitTverskyCombo>
2.369 

> <ROCS_ColorScore>
-5.659

> <ROCS_Overlap>
2051.425

> <ROCS_Rank>
72                  

$$$$
untitled-dbase-45443_3
  -OEChem-11132313473D

 37 38  0     1  0  0  0  0  0999 V2000
    6.8625   12.8701   26.1743 C   0  0  0  0  0  0  0  0  0  0  0  0
    7.9550   13.0324   25.3129 C   0  0  0  0  0  0  0  0  0  0  0  0
    6.2303   11.6381   26.2859 C   0  0  0  0  0  0  0  0  0  0  0  0
    8.4459   11.9617   24.5502 C   0  0  0  0  0  0  0  0  0  0  0  0
    7.7978   10.7185   24.6922 C   0  0  0  0  0  0  0  0  0  0  0  0
    6.6939   10.5623   25.5397 C   0  0  0  0  0  0  0  0  0  0  0  0
   10.2943   13.2555   23.4273 C   0  0  0  0  0  0  0  0  0  0  0  0
    9.7768   10.8959   22.7827 C   0  0  0  0  0  0  0  0  0  0  0  0
    9.5210    9.6211   23.5696 C   0  0  2  0  0  0  0  0  0  0  0  0
    9.7530    8.3897   22.7022 C   0  0  0  0  0  0  0  0  0  0  0  0
   12.7606   14.5191   22.6793 C   0  0  0  0  0  0  0  0  0  0  0  0
   11.8460   14.5030   20.3399 C   0  0  0  0  0  0  0  0  0  0  0  0
   10.6628   15.7995   22.1364 C   0  0  0  0  0  0  0  0  0  0  0  0
   11.4942   14.5558   21.8251 C   0  0  0  0  0  0  0  0  0  0  0  0
    9.5338   12.0845   23.6151 N   0  0  0  0  0  0  0  0  0  0  0  0
   10.5844   14.0836   24.2858 O   0  0  0  0  0  0  0  0  0  0  0  0
    8.1652    9.5839   24.0122 O   0  0  0  0  0  0  0  0  0  0  0  0
   10.7087   13.3954   22.1241 O   0  0  0  0  0  0  0  0  0  0  0  0
    5.7943    8.8981   25.7259 Br  0  0  0  0  0  0  0  0  0  0  0  0
    6.5005   13.7180   26.7496 H   0  0  0  0  0  0  0  0  0  0  0  0
    8.3709   14.0308   25.2598 H   0  0  0  0  0  0  0  0  0  0  0  0
    5.3794   11.5386   26.9544 H   0  0  0  0  0  0  0  0  0  0  0  0
   10.8053   10.8927   22.4078 H   0  0  0  0  0  0  0  0  0  0  0  0
    9.1021   10.9772   21.9210 H   0  0  0  0  0  0  0  0  0  0  0  0
   10.1867    9.5592   24.4416 H   0  0  0  0  0  0  0  0  0  0  0  0
    9.1045    8.4231   21.8268 H   0  0  0  0  0  0  0  0  0  0  0  0
    9.5331    7.4865   23.2712 H   0  0  0  0  0  0  0  0  0  0  0  0
   10.7914    8.3566   22.3726 H   0  0  0  0  0  0  0  0  0  0  0  0
   12.5123   14.5568   23.7460 H   0  0  0  0  0  0  0  0  0  0  0  0
   13.3482   13.6147   22.4908 H   0  0  0  0  0  0  0  0  0  0  0  0
   13.3933   15.3911   22.4782 H   0  0  0  0  0  0  0  0  0  0  0  0
   10.9404   14.5292   19.7233 H   0  0  0  0  0  0  0  0  0  0  0  0
   12.3602   13.5670   20.0937 H   0  0  0  0  0  0  0  0  0  0  0  0
   12.4891   15.3393   20.0471 H   0  0  0  0  0  0  0  0  0  0  0  0
    9.7544   15.8260   21.5238 H   0  0  0  0  0  0  0  0  0  0  0  0
   10.3698   15.8352   23.1907 H   0  0  0  0  0  0  0  0  0  0  0  0
   11.2224   16.7116   21.8994 H   0  0  0  0  0  0  0  0  0  0  0  0
  1  2  1  0  0  0  0
  1  3  2  0  0  0  0
  2  4  2  0  0  0  0
  3  6  1  0  0  0  0
  4  5  1  0  0  0  0
  4 15  1  0  0  0  0
  5  6  2  0  0  0  0
  5 17  1  0  0  0  0
  6 19  1  0  0  0  0
  7 15  1  0  0  0  0
  7 16  2  0  0  0  0
  7 18  1  0  0  0  0
  8  9  1  0  0  0  0
  8 15  1  0  0  0  0
  9 10  1  0  0  0  0
  9 17  1  0  0  0  0
 11 14  1  0  0  0  0
 12 14  1  0  0  0  0
 13 14  1  0  0  0  0
 14 18  1  0  0  0  0
  1 20  1  0  0  0  0
  2 21  1  0  0  0  0
  3 22  1  0  0  0  0
  8 23  1  0  0  0  0
  8 24  1  0  0  0  0
  9 25  1  0  0  0  0
 10 26  1  0  0  0  0
 10 27  1  0  0  0  0
 10 28  1  0  0  0  0
 11 29  1  0  0  0  0
 11 30  1  0  0  0  0
 11 31  1  0  0  0  0
 12 32  1  0  0  0  0
 12 33  1  0  0  0  0
 12 34  1  0  0  0  0
 13 35  1  0  0  0  0
 13 36  1  0  0  0  0
 13 37  1  0  0  0  0
M  END
> <id>
EN300-28295153

> <smiles>
CC1CN(C(=O)OC(C)(C)C)C=2C=CC=C(Br)C2O1

> <IUPAC Name>
tert-butyl 8-bromo-2-methyl-3,4-dihydro-2H-1,4-benzoxazine-4-carboxylate

> <CAS>
2680696-91-5

> <URL>
https://www.enaminestore.com/catalog/EN300-28295153

> <ROCS_ShapeQuery>
A71EV2A-x0451_0A_A71EV2A-x0310_0A_A71EV2A-x0416_0A_peptide

> <ROCS_TanimotoCombo>
0.508 

> <ROCS_ShapeTanimoto>
0.354 

> <ROCS_ColorTanimoto>
0.154 

> <ROCS_RefTversky>
0.305 

> <ROCS_RefColorTversky>
0.166 

> <ROCS_RefTverskyCombo>
0.471 

> <ROCS_FitTversky>
1.821 

> <ROCS_FitColorTversky>
0.691 

> <ROCS_FitTverskyCombo>
2.512 

> <ROCS_ColorScore>
-5.037

> <ROCS_Overlap>
2116.668

> <ROCS_Rank>
73                  

$$$$
untitled-dbase-9588_22
  -OEChem-11132313473D

 42 44  0     1  0  0  0  0  0999 V2000
   10.1894   13.4372   23.4216 C   0  0  0  0  0  0  0  0  0  0  0  0
    9.1501    9.4258   23.9974 C   0  0  0  0  0  0  0  0  0  0  0  0
    9.0240   10.1761   22.6591 C   0  0  0  0  0  0  0  0  0  0  0  0
    6.8154   11.8167   26.0191 C   0  0  0  0  0  0  0  0  0  0  0  0
    6.5682   12.9093   23.9829 C   0  0  0  0  0  0  0  0  0  0  0  0
    9.7537   11.5838   25.0670 C   0  0  0  0  0  0  0  0  0  0  0  0
    8.8036   10.3775   25.1632 C   0  0  1  0  0  0  0  0  0  0  0  0
    7.3271   10.8191   24.9801 C   0  0  2  0  0  0  0  0  0  0  0  0
    7.1695   11.5508   23.6250 C   0  0  2  0  0  0  0  0  0  0  0  0
    8.5417   11.6178   22.9107 C   0  0  1  0  0  0  0  0  0  0  0  0
   12.7500   13.5407   22.1532 C   0  0  0  0  0  0  0  0  0  0  0  0
   11.4945   14.2234   20.0876 C   0  0  0  0  0  0  0  0  0  0  0  0
   11.4233   15.6795   22.1328 C   0  0  0  0  0  0  0  0  0  0  0  0
   11.5052   14.2444   21.6145 C   0  0  0  0  0  0  0  0  0  0  0  0
    6.9411   13.1246   25.3788 N   0  0  0  0  0  0  0  0  0  0  0  0
    9.5276   12.2699   23.7907 N   0  0  0  0  0  0  0  0  0  0  0  0
   10.5894   14.2894   24.2115 O   0  0  0  0  0  0  0  0  0  0  0  0
   10.3479   13.5306   22.0639 O   0  0  0  0  0  0  0  0  0  0  0  0
    8.4832    8.5556   24.0031 H   0  0  0  0  0  0  0  0  0  0  0  0
   10.1706    9.0406   24.1110 H   0  0  0  0  0  0  0  0  0  0  0  0
    9.9915   10.1848   22.1424 H   0  0  0  0  0  0  0  0  0  0  0  0
    8.3228    9.6480   22.0021 H   0  0  0  0  0  0  0  0  0  0  0  0
    5.7593   11.6177   26.2388 H   0  0  0  0  0  0  0  0  0  0  0  0
    7.3686   11.7737   26.9618 H   0  0  0  0  0  0  0  0  0  0  0  0
    6.9267   13.7188   23.3402 H   0  0  0  0  0  0  0  0  0  0  0  0
    5.4755   12.8687   23.8976 H   0  0  0  0  0  0  0  0  0  0  0  0
    9.6042   12.2953   25.8856 H   0  0  0  0  0  0  0  0  0  0  0  0
   10.8026   11.2661   25.0998 H   0  0  0  0  0  0  0  0  0  0  0  0
    8.9344    9.8650   26.1221 H   0  0  0  0  0  0  0  0  0  0  0  0
    6.6863    9.9279   24.9988 H   0  0  0  0  0  0  0  0  0  0  0  0
    6.4635   11.0050   22.9858 H   0  0  0  0  0  0  0  0  0  0  0  0
    8.4552   12.1602   21.9635 H   0  0  0  0  0  0  0  0  0  0  0  0
   12.7614   13.5536   23.2490 H   0  0  0  0  0  0  0  0  0  0  0  0
   12.8023   12.5000   21.8171 H   0  0  0  0  0  0  0  0  0  0  0  0
   13.6615   14.0555   21.8285 H   0  0  0  0  0  0  0  0  0  0  0  0
   10.6031   14.7272   19.6967 H   0  0  0  0  0  0  0  0  0  0  0  0
   11.4573   13.1946   19.7116 H   0  0  0  0  0  0  0  0  0  0  0  0
   12.3804   14.7131   19.6705 H   0  0  0  0  0  0  0  0  0  0  0  0
   10.5305   16.1844   21.7465 H   0  0  0  0  0  0  0  0  0  0  0  0
   11.3927   15.7121   23.2267 H   0  0  0  0  0  0  0  0  0  0  0  0
   12.2831   16.2669   21.7908 H   0  0  0  0  0  0  0  0  0  0  0  0
    6.3244   13.8049   25.8188 H   0  0  0  0  0  0  0  0  0  0  0  0
  1 16  1  0  0  0  0
  1 17  2  0  0  0  0
  1 18  1  0  0  0  0
  2  3  1  0  0  0  0
  2  7  1  0  0  0  0
  3 10  1  0  0  0  0
  4  8  1  0  0  0  0
  4 15  1  0  0  0  0
  5  9  1  0  0  0  0
  5 15  1  0  0  0  0
  6  7  1  0  0  0  0
  6 16  1  0  0  0  0
  7  8  1  0  0  0  0
  8  9  1  0  0  0  0
  9 10  1  0  0  0  0
 10 16  1  0  0  0  0
 11 14  1  0  0  0  0
 12 14  1  0  0  0  0
 13 14  1  0  0  0  0
 14 18  1  0  0  0  0
  2 19  1  0  0  0  0
  2 20  1  0  0  0  0
  3 21  1  0  0  0  0
  3 22  1  0  0  0  0
  4 23  1  0  0  0  0
  4 24  1  0  0  0  0
  5 25  1  0  0  0  0
  5 26  1  0  0  0  0
  6 27  1  0  0  0  0
  6 28  1  0  0  0  0
  7 29  1  0  0  0  0
  8 30  1  0  0  0  0
  9 31  1  0  0  0  0
 10 32  1  0  0  0  0
 11 33  1  0  0  0  0
 11 34  1  0  0  0  0
 11 35  1  0  0  0  0
 12 36  1  0  0  0  0
 12 37  1  0  0  0  0
 12 38  1  0  0  0  0
 13 39  1  0  0  0  0
 13 40  1  0  0  0  0
 13 41  1  0  0  0  0
 15 42  1  0  0  0  0
M  END
> <id>
EN300-298656

> <smiles>
CC(C)(C)OC(=O)N1CC2CCC1C3CNCC32

> <MDLNUMBER>
MFCD30486923

> <IUPAC Name>
tert-butyl 4,8-diazatricyclo[5.2.2.0,2,6]undecane-8-carboxylate

> <CAS>
2044773-54-6

> <Purity>
95

> <URL>
https://www.enaminestore.com/catalog/EN300-298656

> <ROCS_ShapeQuery>
A71EV2A-x0451_0A_A71EV2A-x0310_0A_A71EV2A-x0416_0A_peptide

> <ROCS_TanimotoCombo>
0.508 

> <ROCS_ShapeTanimoto>
0.304 

> <ROCS_ColorTanimoto>
0.203 

> <ROCS_RefTversky>
0.271 

> <ROCS_RefColorTversky>
0.236 

> <ROCS_RefTverskyCombo>
0.507 

> <ROCS_FitTversky>
1.662 

> <ROCS_FitColorTversky>
0.596 

> <ROCS_FitTverskyCombo>
2.258 

> <ROCS_ColorScore>
-7.242

> <ROCS_Overlap>
1882.778

> <ROCS_Rank>
74                  

$$$$
untitled-dbase-22387_6
  -OEChem-11132313473D

 41 42  0     0  0  0  0  0  0999 V2000
    7.0749   10.2349   25.4728 C   0  0  0  0  0  0  0  0  0  0  0  0
    6.3822   11.2869   26.0643 C   0  0  0  0  0  0  0  0  0  0  0  0
    7.8684   12.8481   24.9781 C   0  0  0  0  0  0  0  0  0  0  0  0
    8.1823   10.4703   24.6375 C   0  0  0  0  0  0  0  0  0  0  0  0
    8.5862   11.7995   24.3775 C   0  0  0  0  0  0  0  0  0  0  0  0
    6.7804   12.5926   25.8170 C   0  0  0  0  0  0  0  0  0  0  0  0
   10.3568   13.2695   23.3766 C   0  0  0  0  0  0  0  0  0  0  0  0
   10.0573   10.8959   22.6159 C   0  0  0  0  0  0  0  0  0  0  0  0
   10.0802    9.5507   23.3542 C   0  0  0  0  0  0  0  0  0  0  0  0
   10.2021    8.4104   22.3334 C   0  0  0  0  0  0  0  0  0  0  0  0
   11.2561    9.4735   24.3399 C   0  0  0  0  0  0  0  0  0  0  0  0
   12.7547   14.7429   22.8220 C   0  0  0  0  0  0  0  0  0  0  0  0
   11.9660   14.7714   20.4374 C   0  0  0  0  0  0  0  0  0  0  0  0
   10.5969   15.8906   22.2209 C   0  0  0  0  0  0  0  0  0  0  0  0
   11.5350   14.7274   21.9018 C   0  0  0  0  0  0  0  0  0  0  0  0
    8.8366    9.3774   24.0831 N   0  0  0  0  0  0  0  0  0  0  0  0
    9.6915   12.0323   23.4820 N   0  0  0  0  0  0  0  0  0  0  0  0
   10.5367   14.0728   24.2885 O   0  0  0  0  0  0  0  0  0  0  0  0
   10.8253   13.4998   22.1061 O   0  0  0  0  0  0  0  0  0  0  0  0
    5.8617   14.0285   26.6363 Br  0  0  0  0  0  0  0  0  0  0  0  0
    6.7395    9.2168   25.6601 H   0  0  0  0  0  0  0  0  0  0  0  0
    5.5414   11.0683   26.7168 H   0  0  0  0  0  0  0  0  0  0  0  0
    8.1664   13.8829   24.8476 H   0  0  0  0  0  0  0  0  0  0  0  0
   11.0456   11.1331   22.1985 H   0  0  0  0  0  0  0  0  0  0  0  0
    9.3716   10.8227   21.7647 H   0  0  0  0  0  0  0  0  0  0  0  0
   10.2182    7.4591   22.8565 H   0  0  0  0  0  0  0  0  0  0  0  0
   11.1212    8.5301   21.7681 H   0  0  0  0  0  0  0  0  0  0  0  0
    9.3528    8.4397   21.6577 H   0  0  0  0  0  0  0  0  0  0  0  0
   11.2424    8.5115   24.8437 H   0  0  0  0  0  0  0  0  0  0  0  0
   11.1648   10.2689   25.0738 H   0  0  0  0  0  0  0  0  0  0  0  0
   12.1901    9.5858   23.7972 H   0  0  0  0  0  0  0  0  0  0  0  0
   12.4495   14.7115   23.8741 H   0  0  0  0  0  0  0  0  0  0  0  0
   13.4180   13.8940   22.6268 H   0  0  0  0  0  0  0  0  0  0  0  0
   13.3292   15.6675   22.6943 H   0  0  0  0  0  0  0  0  0  0  0  0
   11.0940   14.7604   19.7735 H   0  0  0  0  0  0  0  0  0  0  0  0
   12.5616   13.8883   20.1792 H   0  0  0  0  0  0  0  0  0  0  0  0
   12.5582   15.6654   20.2172 H   0  0  0  0  0  0  0  0  0  0  0  0
    9.7219   15.8797   21.5609 H   0  0  0  0  0  0  0  0  0  0  0  0
   10.2480   15.8545   23.2580 H   0  0  0  0  0  0  0  0  0  0  0  0
   11.0973   16.8515   22.0551 H   0  0  0  0  0  0  0  0  0  0  0  0
    8.3314    8.5027   23.9970 H   0  0  0  0  0  0  0  0  0  0  0  0
  1  2  1  0  0  0  0
  1  4  2  0  0  0  0
  2  6  2  0  0  0  0
  3  5  2  0  0  0  0
  3  6  1  0  0  0  0
  4  5  1  0  0  0  0
  4 16  1  0  0  0  0
  5 17  1  0  0  0  0
  6 20  1  0  0  0  0
  7 17  1  0  0  0  0
  7 18  2  0  0  0  0
  7 19  1  0  0  0  0
  8  9  1  0  0  0  0
  8 17  1  0  0  0  0
  9 10  1  0  0  0  0
  9 11  1  0  0  0  0
  9 16  1  0  0  0  0
 12 15  1  0  0  0  0
 13 15  1  0  0  0  0
 14 15  1  0  0  0  0
 15 19  1  0  0  0  0
  1 21  1  0  0  0  0
  2 22  1  0  0  0  0
  3 23  1  0  0  0  0
  8 24  1  0  0  0  0
  8 25  1  0  0  0  0
 10 26  1  0  0  0  0
 10 27  1  0  0  0  0
 10 28  1  0  0  0  0
 11 29  1  0  0  0  0
 11 30  1  0  0  0  0
 11 31  1  0  0  0  0
 12 32  1  0  0  0  0
 12 33  1  0  0  0  0
 12 34  1  0  0  0  0
 13 35  1  0  0  0  0
 13 36  1  0  0  0  0
 13 37  1  0  0  0  0
 14 38  1  0  0  0  0
 14 39  1  0  0  0  0
 14 40  1  0  0  0  0
 16 41  1  0  0  0  0
M  END
> <id>
EN300-28227296

> <smiles>
CC(C)(C)OC(=O)N1CC(C)(C)NC=2C=CC(Br)=CC12

> <MDLNUMBER>
MFCD34167886

> <IUPAC Name>
tert-butyl 7-bromo-3,3-dimethyl-1,2,3,4-tetrahydroquinoxaline-1-carboxylate

> <CAS>
1780459-80-4

> <Purity>
95

> <URL>
https://www.enaminestore.com/catalog/EN300-28227296

> <ROCS_ShapeQuery>
A71EV2A-x0451_0A_A71EV2A-x0310_0A_A71EV2A-x0416_0A_peptide

> <ROCS_TanimotoCombo>
0.507 

> <ROCS_ShapeTanimoto>
0.365 

> <ROCS_ColorTanimoto>
0.143 

> <ROCS_RefTversky>
0.313 

> <ROCS_RefColorTversky>
0.159 

> <ROCS_RefTverskyCombo>
0.472 

> <ROCS_FitTversky>
1.812 

> <ROCS_FitColorTversky>
0.587 

> <ROCS_FitTverskyCombo>
2.399 

> <ROCS_ColorScore>
-4.840

> <ROCS_Overlap>
2174.976

> <ROCS_Rank>
75                  

$$$$
untitled-dbase-51342_4
  -OEChem-11132313473D

 41 42  0     0  0  0  0  0  0999 V2000
    6.4021   11.3007   26.0557 C   0  0  0  0  0  0  0  0  0  0  0  0
    7.1135   10.2373   25.5126 C   0  0  0  0  0  0  0  0  0  0  0  0
    6.7702   12.5991   25.7364 C   0  0  0  0  0  0  0  0  0  0  0  0
    7.8729   12.8367   24.9090 C   0  0  0  0  0  0  0  0  0  0  0  0
    8.2065   10.4608   24.6553 C   0  0  0  0  0  0  0  0  0  0  0  0
    8.6438   11.7815   24.3933 C   0  0  0  0  0  0  0  0  0  0  0  0
   10.5713   13.1808   23.4597 C   0  0  0  0  0  0  0  0  0  0  0  0
    9.5373    9.5954   22.8441 C   0  0  0  0  0  0  0  0  0  0  0  0
   10.4533   10.7925   22.9931 C   0  0  0  0  0  0  0  0  0  0  0  0
    5.9807   13.7252   26.3248 C   0  0  0  0  0  0  0  0  0  0  0  0
    8.2754   14.2781   24.7854 C   0  0  0  0  0  0  0  0  0  0  0  0
   12.1238   15.4900   22.7679 C   0  0  0  0  0  0  0  0  0  0  0  0
   12.2341   14.4906   20.4661 C   0  0  0  0  0  0  0  0  0  0  0  0
   10.0137   15.1466   21.4396 C   0  0  0  0  0  0  0  0  0  0  0  0
   11.4097   14.6061   21.7464 C   0  0  0  0  0  0  0  0  0  0  0  0
    8.8339    9.3592   24.0782 N   0  0  0  0  0  0  0  0  0  0  0  0
    9.8357   11.9798   23.6004 N   0  0  0  0  0  0  0  0  0  0  0  0
   10.5327   14.0943   24.2863 O   0  0  0  0  0  0  0  0  0  0  0  0
   11.2784   13.2893   22.2955 O   0  0  0  0  0  0  0  0  0  0  0  0
    5.5728   11.1049   26.7286 H   0  0  0  0  0  0  0  0  0  0  0  0
    6.8071    9.2224   25.7539 H   0  0  0  0  0  0  0  0  0  0  0  0
    8.8168    9.7666   22.0360 H   0  0  0  0  0  0  0  0  0  0  0  0
   10.1185    8.7064   22.5796 H   0  0  0  0  0  0  0  0  0  0  0  0
   11.3308   10.5331   23.6202 H   0  0  0  0  0  0  0  0  0  0  0  0
   10.8653   11.0321   21.9938 H   0  0  0  0  0  0  0  0  0  0  0  0
    6.4141   14.0293   27.2838 H   0  0  0  0  0  0  0  0  0  0  0  0
    5.9693   14.5919   25.6537 H   0  0  0  0  0  0  0  0  0  0  0  0
    4.9370   13.4319   26.4880 H   0  0  0  0  0  0  0  0  0  0  0  0
    9.0039   14.5304   25.5615 H   0  0  0  0  0  0  0  0  0  0  0  0
    8.7189   14.4760   23.8044 H   0  0  0  0  0  0  0  0  0  0  0  0
    7.4060   14.9355   24.8873 H   0  0  0  0  0  0  0  0  0  0  0  0
   11.5352   15.5754   23.6884 H   0  0  0  0  0  0  0  0  0  0  0  0
   13.1123   15.0941   23.0228 H   0  0  0  0  0  0  0  0  0  0  0  0
   12.2475   16.5092   22.3845 H   0  0  0  0  0  0  0  0  0  0  0  0
   11.7255   13.8573   19.7303 H   0  0  0  0  0  0  0  0  0  0  0  0
   13.2013   14.0155   20.6662 H   0  0  0  0  0  0  0  0  0  0  0  0
   12.4164   15.4705   20.0132 H   0  0  0  0  0  0  0  0  0  0  0  0
    9.5013   14.5128   20.7069 H   0  0  0  0  0  0  0  0  0  0  0  0
    9.3954   15.2016   22.3415 H   0  0  0  0  0  0  0  0  0  0  0  0
   10.0721   16.1471   20.9959 H   0  0  0  0  0  0  0  0  0  0  0  0
    8.5877    8.4353   24.3540 H   0  0  0  0  0  0  0  0  0  0  0  0
  1  2  1  0  0  0  0
  1  3  2  0  0  0  0
  2  5  2  0  0  0  0
  3  4  1  0  0  0  0
  3 10  1  0  0  0  0
  4  6  2  0  0  0  0
  4 11  1  0  0  0  0
  5  6  1  0  0  0  0
  5 16  1  0  0  0  0
  6 17  1  0  0  0  0
  7 17  1  0  0  0  0
  7 18  2  0  0  0  0
  7 19  1  0  0  0  0
  8  9  1  0  0  0  0
  8 16  1  0  0  0  0
  9 17  1  0  0  0  0
 12 15  1  0  0  0  0
 13 15  1  0  0  0  0
 14 15  1  0  0  0  0
 15 19  1  0  0  0  0
  1 20  1  0  0  0  0
  2 21  1  0  0  0  0
  8 22  1  0  0  0  0
  8 23  1  0  0  0  0
  9 24  1  0  0  0  0
  9 25  1  0  0  0  0
 10 26  1  0  0  0  0
 10 27  1  0  0  0  0
 10 28  1  0  0  0  0
 11 29  1  0  0  0  0
 11 30  1  0  0  0  0
 11 31  1  0  0  0  0
 12 32  1  0  0  0  0
 12 33  1  0  0  0  0
 12 34  1  0  0  0  0
 13 35  1  0  0  0  0
 13 36  1  0  0  0  0
 13 37  1  0  0  0  0
 14 38  1  0  0  0  0
 14 39  1  0  0  0  0
 14 40  1  0  0  0  0
 16 41  1  0  0  0  0
M  END
> <id>
EN300-30264672

> <smiles>
CC=1C=CC=2NCCN(C(=O)OC(C)(C)C)C2C1C

> <IUPAC Name>
tert-butyl 7,8-dimethyl-1,2,3,4-tetrahydroquinoxaline-1-carboxylate

> <CAS>
1783512-41-3

> <Purity>
95

> <URL>
https://www.enaminestore.com/catalog/EN300-30264672

> <ROCS_ShapeQuery>
A71EV2A-x0451_0A_A71EV2A-x0310_0A_A71EV2A-x0416_0A_peptide

> <ROCS_TanimotoCombo>
0.507 

> <ROCS_ShapeTanimoto>
0.356 

> <ROCS_ColorTanimoto>
0.151 

> <ROCS_RefTversky>
0.307 

> <ROCS_RefColorTversky>
0.159 

> <ROCS_RefTverskyCombo>
0.466 

> <ROCS_FitTversky>
1.812 

> <ROCS_FitColorTversky>
0.760 

> <ROCS_FitTverskyCombo>
2.573 

> <ROCS_ColorScore>
-4.821

> <ROCS_Overlap>
2129.059

> <ROCS_Rank>
76                  

$$$$
untitled-dbase-53480_33
  -OEChem-11132313473D

 34 35  0     0  0  0  0  0  0999 V2000
    6.7685   12.7608   25.5910 C   0  0  0  0  0  0  0  0  0  0  0  0
    7.9289   12.9756   24.8545 C   0  0  0  0  0  0  0  0  0  0  0  0
    6.3444   11.4624   25.7598 C   0  0  0  0  0  0  0  0  0  0  0  0
    8.6466   11.9003   24.3125 C   0  0  0  0  0  0  0  0  0  0  0  0
    8.1330   10.6083   24.5426 C   0  0  0  0  0  0  0  0  0  0  0  0
   10.5206   13.2952   23.3808 C   0  0  0  0  0  0  0  0  0  0  0  0
   10.1292    9.5980   23.5645 C   0  0  0  0  0  0  0  0  0  0  0  0
   10.2888   10.8799   22.7693 C   0  0  0  0  0  0  0  0  0  0  0  0
   12.1059   15.5625   22.6185 C   0  0  0  0  0  0  0  0  0  0  0  0
   11.9158   14.6759   20.2761 C   0  0  0  0  0  0  0  0  0  0  0  0
    9.8497   15.3809   21.5180 C   0  0  0  0  0  0  0  0  0  0  0  0
   11.2419   14.7638   21.6437 C   0  0  0  0  0  0  0  0  0  0  0  0
    6.9918   10.3952   25.2524 N   0  0  0  0  0  0  0  0  0  0  0  0
    8.7787    9.4863   24.0470 N   0  0  0  0  0  0  0  0  0  0  0  0
    9.8371   12.0693   23.5141 N   0  0  0  0  0  0  0  0  0  0  0  0
   10.6206   14.1681   24.2388 O   0  0  0  0  0  0  0  0  0  0  0  0
   11.1053   13.4282   22.1443 O   0  0  0  0  0  0  0  0  0  0  0  0
    6.2245   13.5900   26.0286 H   0  0  0  0  0  0  0  0  0  0  0  0
    8.2548   14.0043   24.7605 H   0  0  0  0  0  0  0  0  0  0  0  0
    5.4489   11.2354   26.3282 H   0  0  0  0  0  0  0  0  0  0  0  0
   10.3717    8.7306   22.9386 H   0  0  0  0  0  0  0  0  0  0  0  0
   10.8233    9.5914   24.4116 H   0  0  0  0  0  0  0  0  0  0  0  0
   11.3394   11.0473   22.4999 H   0  0  0  0  0  0  0  0  0  0  0  0
    9.7298   10.7752   21.8338 H   0  0  0  0  0  0  0  0  0  0  0  0
   11.6256   15.6279   23.6014 H   0  0  0  0  0  0  0  0  0  0  0  0
   13.0952   15.1106   22.7443 H   0  0  0  0  0  0  0  0  0  0  0  0
   12.2381   16.5932   22.2699 H   0  0  0  0  0  0  0  0  0  0  0  0
   11.2993   14.1037   19.5735 H   0  0  0  0  0  0  0  0  0  0  0  0
   12.8740   14.1485   20.3464 H   0  0  0  0  0  0  0  0  0  0  0  0
   12.0965   15.6681   19.8502 H   0  0  0  0  0  0  0  0  0  0  0  0
    9.2297   14.8082   20.8188 H   0  0  0  0  0  0  0  0  0  0  0  0
    9.3363   15.4183   22.4843 H   0  0  0  0  0  0  0  0  0  0  0  0
    9.9095   16.3988   21.1159 H   0  0  0  0  0  0  0  0  0  0  0  0
    8.2197    8.6761   23.8087 H   0  0  0  0  0  0  0  0  0  0  0  0
  1  2  1  0  0  0  0
  1  3  2  0  0  0  0
  2  4  2  0  0  0  0
  3 13  1  0  0  0  0
  4  5  1  0  0  0  0
  4 15  1  0  0  0  0
  5 13  2  0  0  0  0
  5 14  1  0  0  0  0
  6 15  1  0  0  0  0
  6 16  2  0  0  0  0
  6 17  1  0  0  0  0
  7  8  1  0  0  0  0
  7 14  1  0  0  0  0
  8 15  1  0  0  0  0
  9 12  1  0  0  0  0
 10 12  1  0  0  0  0
 11 12  1  0  0  0  0
 12 17  1  0  0  0  0
  1 18  1  0  0  0  0
  2 19  1  0  0  0  0
  3 20  1  0  0  0  0
  7 21  1  0  0  0  0
  7 22  1  0  0  0  0
  8 23  1  0  0  0  0
  8 24  1  0  0  0  0
  9 25  1  0  0  0  0
  9 26  1  0  0  0  0
  9 27  1  0  0  0  0
 10 28  1  0  0  0  0
 10 29  1  0  0  0  0
 10 30  1  0  0  0  0
 11 31  1  0  0  0  0
 11 32  1  0  0  0  0
 11 33  1  0  0  0  0
 14 34  1  0  0  0  0
M  END
> <id>
EN300-7493745

> <smiles>
CC(C)(C)OC(=O)N1CCNC=2N=CC=CC12

> <MDLNUMBER>
MFCD29760857

> <IUPAC Name>
tert-butyl 1H,2H,3H,4H-pyrido[2,3-b]pyrazine-1-carboxylate

> <CAS>
1934485-48-9

> <Purity>
95

> <URL>
https://www.enaminestore.com/catalog/EN300-7493745

> <ROCS_ShapeQuery>
A71EV2A-x0451_0A_A71EV2A-x0310_0A_A71EV2A-x0416_0A_peptide

> <ROCS_TanimotoCombo>
0.506 

> <ROCS_ShapeTanimoto>
0.339 

> <ROCS_ColorTanimoto>
0.168 

> <ROCS_RefTversky>
0.293 

> <ROCS_RefColorTversky>
0.178 

> <ROCS_RefTverskyCombo>
0.471 

> <ROCS_FitTversky>
1.858 

> <ROCS_FitColorTversky>
0.744 

> <ROCS_FitTverskyCombo>
2.602 

> <ROCS_ColorScore>
-5.423

> <ROCS_Overlap>
2030.225

> <ROCS_Rank>
77                  

$$$$
untitled-dbase-32135_28
  -OEChem-11132313473D

 38 39  0     1  0  0  0  0  0999 V2000
    9.8887   13.2680   23.5728 C   0  0  0  0  0  0  0  0  0  0  0  0
    6.9573   11.4334   24.5842 C   0  0  0  0  0  0  0  0  0  0  0  0
    7.9529   11.1611   25.7319 C   0  0  0  0  0  0  0  0  0  0  0  0
    8.2384   10.5416   22.5495 C   0  0  0  0  0  0  0  0  0  0  0  0
    7.8327   11.7809   23.3741 C   0  0  2  0  0  0  0  0  0  0  0  0
    9.3356   11.3558   25.1047 C   0  0  1  0  0  0  0  0  0  0  0  0
    8.9880    9.4577   23.3700 C   0  0  1  0  0  0  0  0  0  0  0  0
    9.8897   10.0647   24.4724 C   0  0  1  0  0  0  0  0  0  0  0  0
   12.2441   12.8605   22.0058 C   0  0  0  0  0  0  0  0  0  0  0  0
   10.9324   13.8588   20.1105 C   0  0  0  0  0  0  0  0  0  0  0  0
   11.4174   15.2329   22.1561 C   0  0  0  0  0  0  0  0  0  0  0  0
   11.1262   13.8301   21.6250 C   0  0  0  0  0  0  0  0  0  0  0  0
    9.0459   12.2653   24.0110 N   0  0  0  0  0  0  0  0  0  0  0  0
    8.0295    8.5191   23.9590 N   0  0  0  0  0  0  0  0  0  0  0  0
   10.5511   13.9878   24.3164 O   0  0  0  0  0  0  0  0  0  0  0  0
    9.9030   13.3668   22.2078 O   0  0  0  0  0  0  0  0  0  0  0  0
   11.0921   10.3744   23.8959 F   0  0  0  0  0  0  0  0  0  0  0  0
    6.2762   10.5982   24.4016 H   0  0  0  0  0  0  0  0  0  0  0  0
    6.3378   12.2978   24.8540 H   0  0  0  0  0  0  0  0  0  0  0  0
    7.7936   11.9051   26.5221 H   0  0  0  0  0  0  0  0  0  0  0  0
    7.8176   10.1758   26.1862 H   0  0  0  0  0  0  0  0  0  0  0  0
    7.3537   10.1108   22.0637 H   0  0  0  0  0  0  0  0  0  0  0  0
    8.8965   10.8706   21.7334 H   0  0  0  0  0  0  0  0  0  0  0  0
    7.3714   12.5362   22.7314 H   0  0  0  0  0  0  0  0  0  0  0  0
   10.0655   11.7901   25.7946 H   0  0  0  0  0  0  0  0  0  0  0  0
    9.5954    8.8882   22.6971 H   0  0  0  0  0  0  0  0  0  0  0  0
   10.1076    9.3259   25.2506 H   0  0  0  0  0  0  0  0  0  0  0  0
   12.3864   12.8370   23.0921 H   0  0  0  0  0  0  0  0  0  0  0  0
   12.0308   11.8435   21.6610 H   0  0  0  0  0  0  0  0  0  0  0  0
   13.2008   13.1783   21.5756 H   0  0  0  0  0  0  0  0  0  0  0  0
   10.1312   14.5532   19.8328 H   0  0  0  0  0  0  0  0  0  0  0  0
   10.6302   12.8737   19.7370 H   0  0  0  0  0  0  0  0  0  0  0  0
   11.8480   14.1604   19.5916 H   0  0  0  0  0  0  0  0  0  0  0  0
   10.6157   15.9286   21.8832 H   0  0  0  0  0  0  0  0  0  0  0  0
   11.5230   15.2378   23.2459 H   0  0  0  0  0  0  0  0  0  0  0  0
   12.3376   15.6333   21.7154 H   0  0  0  0  0  0  0  0  0  0  0  0
    7.4916    8.1268   23.2241 H   0  0  0  0  0  0  0  0  0  0  0  0
    8.5413    7.8162   24.4357 H   0  0  0  0  0  0  0  0  0  0  0  0
  1 13  1  0  0  0  0
  1 15  2  0  0  0  0
  1 16  1  0  0  0  0
  2  3  1  0  0  0  0
  2  5  1  6  0  0  0
  3  6  1  6  0  0  0
  4  5  1  0  0  0  0
  4  7  1  0  0  0  0
  5 13  1  0  0  0  0
  6  8  1  0  0  0  0
  6 13  1  0  0  0  0
  7  8  1  0  0  0  0
  7 14  1  6  0  0  0
  8 17  1  1  0  0  0
  9 12  1  0  0  0  0
 10 12  1  0  0  0  0
 11 12  1  0  0  0  0
 12 16  1  0  0  0  0
  2 18  1  0  0  0  0
  2 19  1  0  0  0  0
  3 20  1  0  0  0  0
  3 21  1  0  0  0  0
  4 22  1  0  0  0  0
  4 23  1  0  0  0  0
  5 24  1  0  0  0  0
  6 25  1  0  0  0  0
  7 26  1  0  0  0  0
  8 27  1  0  0  0  0
  9 28  1  0  0  0  0
  9 29  1  0  0  0  0
  9 30  1  0  0  0  0
 10 31  1  0  0  0  0
 10 32  1  0  0  0  0
 10 33  1  0  0  0  0
 11 34  1  0  0  0  0
 11 35  1  0  0  0  0
 11 36  1  0  0  0  0
 14 37  1  0  0  0  0
 14 38  1  0  0  0  0
M  END
> <id>
EN300-26976670

> <smiles>
CC(C)(C)OC(=O)N1[C@@H]2CC[C@H]1[C@H](F)[C@@H](N)C2 |&1:8,11,12,14,r|

> <IUPAC Name>
rac-tert-butyl (1R,2S,3R,5S)-3-amino-2-fluoro-8-azabicyclo[3.2.1]octane-8-carboxylate

> <CAS>
2375918-49-1

> <Purity>
95

> <URL>
https://www.enaminestore.com/catalog/EN300-26976670

> <ROCS_ShapeQuery>
A71EV2A-x0451_0A_A71EV2A-x0310_0A_A71EV2A-x0416_0A_peptide

> <ROCS_TanimotoCombo>
0.506 

> <ROCS_ShapeTanimoto>
0.287 

> <ROCS_ColorTanimoto>
0.220 

> <ROCS_RefTversky>
0.258 

> <ROCS_RefColorTversky>
0.244 

> <ROCS_RefTverskyCombo>
0.502 

> <ROCS_FitTversky>
1.653 

> <ROCS_FitColorTversky>
0.686 

> <ROCS_FitTverskyCombo>
2.339 

> <ROCS_ColorScore>
-7.477

> <ROCS_Overlap>
1786.248

> <ROCS_Rank>
78                  

$$$$
untitled-dbase-30514_30
  -OEChem-11132313473D

 36 37  0     0  0  0  0  0  0999 V2000
    8.3808   12.5880   24.8308 C   0  0  0  0  0  0  0  0  0  0  0  0
    7.2199   12.1325   25.4464 C   0  0  0  0  0  0  0  0  0  0  0  0
    8.6474   10.3915   23.9083 C   0  0  0  0  0  0  0  0  0  0  0  0
    9.1268   11.7113   24.0323 C   0  0  0  0  0  0  0  0  0  0  0  0
    7.4748   10.0390   24.5807 C   0  0  0  0  0  0  0  0  0  0  0  0
   10.8472   13.4255   23.3567 C   0  0  0  0  0  0  0  0  0  0  0  0
    9.3678    9.3351   23.1225 C   0  0  0  0  0  0  0  0  0  0  0  0
   10.2719    9.9621   22.0819 C   0  0  0  0  0  0  0  0  0  0  0  0
   11.1384   11.0279   22.7290 C   0  0  0  0  0  0  0  0  0  0  0  0
   12.1338   15.9439   22.8640 C   0  0  0  0  0  0  0  0  0  0  0  0
   12.5157   15.0845   20.5349 C   0  0  0  0  0  0  0  0  0  0  0  0
   10.1728   15.4050   21.3812 C   0  0  0  0  0  0  0  0  0  0  0  0
   11.6049   15.0300   21.7595 C   0  0  0  0  0  0  0  0  0  0  0  0
    6.7449   10.8785   25.3402 N   0  0  0  0  0  0  0  0  0  0  0  0
   10.3541   12.1012   23.3699 N   0  0  0  0  0  0  0  0  0  0  0  0
   10.6463   14.2882   24.2068 O   0  0  0  0  0  0  0  0  0  0  0  0
    6.9994    8.7547   24.5011 O   0  0  0  0  0  0  0  0  0  0  0  0
   11.6109   13.6809   22.2422 O   0  0  0  0  0  0  0  0  0  0  0  0
    8.6646   13.6125   25.0274 H   0  0  0  0  0  0  0  0  0  0  0  0
    6.6304   12.7975   26.0698 H   0  0  0  0  0  0  0  0  0  0  0  0
    9.9575    8.7217   23.8148 H   0  0  0  0  0  0  0  0  0  0  0  0
    8.6603    8.6751   22.6072 H   0  0  0  0  0  0  0  0  0  0  0  0
   10.9014    9.1915   21.6231 H   0  0  0  0  0  0  0  0  0  0  0  0
    9.6761   10.4111   21.2765 H   0  0  0  0  0  0  0  0  0  0  0  0
   11.7850   10.5945   23.5022 H   0  0  0  0  0  0  0  0  0  0  0  0
   11.7931   11.4445   21.9565 H   0  0  0  0  0  0  0  0  0  0  0  0
   11.4828   15.9076   23.7448 H   0  0  0  0  0  0  0  0  0  0  0  0
   13.1473   15.6634   23.1688 H   0  0  0  0  0  0  0  0  0  0  0  0
   12.1485   16.9887   22.5334 H   0  0  0  0  0  0  0  0  0  0  0  0
   12.1400   14.4303   19.7398 H   0  0  0  0  0  0  0  0  0  0  0  0
   13.5217   14.7256   20.7803 H   0  0  0  0  0  0  0  0  0  0  0  0
   12.5977   16.1013   20.1373 H   0  0  0  0  0  0  0  0  0  0  0  0
    9.7932   14.7496   20.5890 H   0  0  0  0  0  0  0  0  0  0  0  0
    9.4975   15.3357   22.2402 H   0  0  0  0  0  0  0  0  0  0  0  0
   10.1290   16.4260   20.9853 H   0  0  0  0  0  0  0  0  0  0  0  0
    6.1863    8.6759   25.0184 H   0  0  0  0  0  0  0  0  0  0  0  0
  1  2  1  0  0  0  0
  1  4  2  0  0  0  0
  2 14  2  0  0  0  0
  3  4  1  0  0  0  0
  3  5  2  0  0  0  0
  3  7  1  0  0  0  0
  4 15  1  0  0  0  0
  5 14  1  0  0  0  0
  5 17  1  0  0  0  0
  6 15  1  0  0  0  0
  6 16  2  0  0  0  0
  6 18  1  0  0  0  0
  7  8  1  0  0  0  0
  8  9  1  0  0  0  0
  9 15  1  0  0  0  0
 10 13  1  0  0  0  0
 11 13  1  0  0  0  0
 12 13  1  0  0  0  0
 13 18  1  0  0  0  0
  1 19  1  0  0  0  0
  2 20  1  0  0  0  0
  7 21  1  0  0  0  0
  7 22  1  0  0  0  0
  8 23  1  0  0  0  0
  8 24  1  0  0  0  0
  9 25  1  0  0  0  0
  9 26  1  0  0  0  0
 10 27  1  0  0  0  0
 10 28  1  0  0  0  0
 10 29  1  0  0  0  0
 11 30  1  0  0  0  0
 11 31  1  0  0  0  0
 11 32  1  0  0  0  0
 12 33  1  0  0  0  0
 12 34  1  0  0  0  0
 12 35  1  0  0  0  0
 17 36  1  0  0  0  0
M  END
> <id>
EN300-26665422

> <smiles>
CC(C)(C)OC(=O)N1CCCC=2C(O)=NC=CC12

> <IUPAC Name>
tert-butyl 5-hydroxy-1,2,3,4-tetrahydro-1,6-naphthyridine-1-carboxylate

> <CAS>
2413886-57-2

> <URL>
https://www.enaminestore.com/catalog/EN300-26665422

> <ROCS_ShapeQuery>
A71EV2A-x0451_0A_A71EV2A-x0310_0A_A71EV2A-x0416_0A_peptide

> <ROCS_TanimotoCombo>
0.506 

> <ROCS_ShapeTanimoto>
0.346 

> <ROCS_ColorTanimoto>
0.160 

> <ROCS_RefTversky>
0.299 

> <ROCS_RefColorTversky>
0.175 

> <ROCS_RefTverskyCombo>
0.474 

> <ROCS_FitTversky>
1.832 

> <ROCS_FitColorTversky>
0.648 

> <ROCS_FitTverskyCombo>
2.479 

> <ROCS_ColorScore>
-5.342

> <ROCS_Overlap>
2073.243

> <ROCS_Rank>
79                  

$$$$
untitled-dbase-51042_6
  -OEChem-11132313473D

 35 36  0     0  0  0  0  0  0999 V2000
    7.0432   10.2339   25.4240 C   0  0  0  0  0  0  0  0  0  0  0  0
    7.9008   12.8389   24.9932 C   0  0  0  0  0  0  0  0  0  0  0  0
    8.1752   10.4626   24.6209 C   0  0  0  0  0  0  0  0  0  0  0  0
    8.6143   11.7884   24.3910 C   0  0  0  0  0  0  0  0  0  0  0  0
    6.3581   11.2889   26.0176 C   0  0  0  0  0  0  0  0  0  0  0  0
    6.7884   12.5901   25.8024 C   0  0  0  0  0  0  0  0  0  0  0  0
   10.3937   13.2574   23.3890 C   0  0  0  0  0  0  0  0  0  0  0  0
   10.1184    9.5528   23.4637 C   0  0  0  0  0  0  0  0  0  0  0  0
   10.1614   10.8619   22.6972 C   0  0  0  0  0  0  0  0  0  0  0  0
   12.7810   14.7529   22.8437 C   0  0  0  0  0  0  0  0  0  0  0  0
   12.0562   14.6815   20.4398 C   0  0  0  0  0  0  0  0  0  0  0  0
   10.6212   15.8398   22.1449 C   0  0  0  0  0  0  0  0  0  0  0  0
   11.5868   14.6827   21.8930 C   0  0  0  0  0  0  0  0  0  0  0  0
    8.8195    9.3678   24.0572 N   0  0  0  0  0  0  0  0  0  0  0  0
    9.7431   12.0135   23.5179 N   0  0  0  0  0  0  0  0  0  0  0  0
   10.5364   14.0968   24.2742 O   0  0  0  0  0  0  0  0  0  0  0  0
   10.8925   13.4508   22.1234 O   0  0  0  0  0  0  0  0  0  0  0  0
    5.2957   11.0494   26.7967 F   0  0  0  0  0  0  0  0  0  0  0  0
    6.1472   13.6112   26.3863 F   0  0  0  0  0  0  0  0  0  0  0  0
    6.6827    9.2197   25.5840 H   0  0  0  0  0  0  0  0  0  0  0  0
    8.1978   13.8766   24.8961 H   0  0  0  0  0  0  0  0  0  0  0  0
   10.3405    8.7140   22.7929 H   0  0  0  0  0  0  0  0  0  0  0  0
   10.8824    9.5516   24.2484 H   0  0  0  0  0  0  0  0  0  0  0  0
   11.1764   11.0734   22.3366 H   0  0  0  0  0  0  0  0  0  0  0  0
    9.5215   10.7631   21.8143 H   0  0  0  0  0  0  0  0  0  0  0  0
   12.4483   14.7539   23.8879 H   0  0  0  0  0  0  0  0  0  0  0  0
   13.4635   13.9094   22.6971 H   0  0  0  0  0  0  0  0  0  0  0  0
   13.3431   15.6823   22.6975 H   0  0  0  0  0  0  0  0  0  0  0  0
   11.2026   14.6313   19.7542 H   0  0  0  0  0  0  0  0  0  0  0  0
   12.6732   13.8004   20.2296 H   0  0  0  0  0  0  0  0  0  0  0  0
   12.6390   15.5775   20.2027 H   0  0  0  0  0  0  0  0  0  0  0  0
    9.7645   15.7897   21.4631 H   0  0  0  0  0  0  0  0  0  0  0  0
   10.2452   15.8348   23.1732 H   0  0  0  0  0  0  0  0  0  0  0  0
   11.1097   16.8028   21.9574 H   0  0  0  0  0  0  0  0  0  0  0  0
    8.2866    8.5341   23.8408 H   0  0  0  0  0  0  0  0  0  0  0  0
  1  3  2  0  0  0  0
  1  5  1  0  0  0  0
  2  4  2  0  0  0  0
  2  6  1  0  0  0  0
  3  4  1  0  0  0  0
  3 14  1  0  0  0  0
  4 15  1  0  0  0  0
  5  6  2  0  0  0  0
  5 18  1  0  0  0  0
  6 19  1  0  0  0  0
  7 15  1  0  0  0  0
  7 16  2  0  0  0  0
  7 17  1  0  0  0  0
  8  9  1  0  0  0  0
  8 14  1  0  0  0  0
  9 15  1  0  0  0  0
 10 13  1  0  0  0  0
 11 13  1  0  0  0  0
 12 13  1  0  0  0  0
 13 17  1  0  0  0  0
  1 20  1  0  0  0  0
  2 21  1  0  0  0  0
  8 22  1  0  0  0  0
  8 23  1  0  0  0  0
  9 24  1  0  0  0  0
  9 25  1  0  0  0  0
 10 26  1  0  0  0  0
 10 27  1  0  0  0  0
 10 28  1  0  0  0  0
 11 29  1  0  0  0  0
 11 30  1  0  0  0  0
 11 31  1  0  0  0  0
 12 32  1  0  0  0  0
 12 33  1  0  0  0  0
 12 34  1  0  0  0  0
 14 35  1  0  0  0  0
M  END
> <id>
EN300-1072908

> <smiles>
CC(C)(C)OC(=O)N1CCNC=2C=C(F)C(F)=CC12

> <MDLNUMBER>
MFCD06656601

> <IUPAC Name>
tert-butyl 6,7-difluoro-1,2,3,4-tetrahydroquinoxaline-1-carboxylate

> <CAS>
887590-33-2

> <URL>
https://www.enaminestore.com/catalog/EN300-1072908

> <ROCS_ShapeQuery>
A71EV2A-x0451_0A_A71EV2A-x0310_0A_A71EV2A-x0416_0A_peptide

> <ROCS_TanimotoCombo>
0.506 

> <ROCS_ShapeTanimoto>
0.355 

> <ROCS_ColorTanimoto>
0.151 

> <ROCS_RefTversky>
0.307 

> <ROCS_RefColorTversky>
0.158 

> <ROCS_RefTverskyCombo>
0.465 

> <ROCS_FitTversky>
1.805 

> <ROCS_FitColorTversky>
0.758 

> <ROCS_FitTverskyCombo>
2.562 

> <ROCS_ColorScore>
-4.804

> <ROCS_Overlap>
2127.937

> <ROCS_Rank>
80                  

$$$$
untitled-dbase-9780_97
  -OEChem-11132313473D

 40 42  0     0  0  0  0  0  0999 V2000
    5.6683   13.5126   26.0429 C   0  0  0  0  0  0  0  0  0  0  0  0
    6.0867   11.1138   25.7983 C   0  0  0  0  0  0  0  0  0  0  0  0
    6.8671   10.0537   25.3382 C   0  0  0  0  0  0  0  0  0  0  0  0
    7.6390   12.7147   24.8355 C   0  0  0  0  0  0  0  0  0  0  0  0
    6.4717   12.4374   25.5513 C   0  0  0  0  0  0  0  0  0  0  0  0
    8.4261   11.6635   24.3726 C   0  0  0  0  0  0  0  0  0  0  0  0
    8.0342   10.3435   24.6491 C   0  0  0  0  0  0  0  0  0  0  0  0
   10.7413   14.6895   22.4165 C   0  0  0  0  0  0  0  0  0  0  0  0
   10.0735   10.1258   23.5293 C   0  0  0  0  0  0  0  0  0  0  0  0
    9.7593   12.3423   22.1575 C   0  0  0  0  0  0  0  0  0  0  0  0
   10.9184   12.5792   23.9396 C   0  0  0  0  0  0  0  0  0  0  0  0
    9.7503   11.6474   23.5407 C   0  0  0  0  0  0  0  0  0  0  0  0
   13.0834   14.9971   21.0875 C   0  0  0  0  0  0  0  0  0  0  0  0
   11.7634   15.0521   18.9512 C   0  0  0  0  0  0  0  0  0  0  0  0
   11.7580   17.0476   20.4764 C   0  0  0  0  0  0  0  0  0  0  0  0
   11.8226   15.5227   20.4028 C   0  0  0  0  0  0  0  0  0  0  0  0
    5.0162   14.3857   26.4420 N   0  0  0  0  0  0  0  0  0  0  0  0
    8.9109    9.4204   24.0766 N   0  0  0  0  0  0  0  0  0  0  0  0
   10.5808   13.3720   22.7728 N   0  0  0  0  0  0  0  0  0  0  0  0
   10.9939   15.5770   23.2310 O   0  0  0  0  0  0  0  0  0  0  0  0
   10.6759   14.9831   21.0799 O   0  0  0  0  0  0  0  0  0  0  0  0
    5.1778   10.8966   26.3553 H   0  0  0  0  0  0  0  0  0  0  0  0
    6.5598    9.0284   25.5167 H   0  0  0  0  0  0  0  0  0  0  0  0
    7.9450   13.7391   24.6406 H   0  0  0  0  0  0  0  0  0  0  0  0
   10.2420    9.7705   22.5047 H   0  0  0  0  0  0  0  0  0  0  0  0
   10.9651    9.8863   24.1205 H   0  0  0  0  0  0  0  0  0  0  0  0
   10.2597   11.8073   21.3472 H   0  0  0  0  0  0  0  0  0  0  0  0
    8.7999   12.7347   21.8089 H   0  0  0  0  0  0  0  0  0  0  0  0
   10.7912   13.1420   24.8712 H   0  0  0  0  0  0  0  0  0  0  0  0
   11.9222   12.1443   23.9074 H   0  0  0  0  0  0  0  0  0  0  0  0
   13.1296   15.3327   22.1297 H   0  0  0  0  0  0  0  0  0  0  0  0
   13.1244   13.9031   21.0724 H   0  0  0  0  0  0  0  0  0  0  0  0
   13.9845   15.3840   20.5980 H   0  0  0  0  0  0  0  0  0  0  0  0
   10.8604   15.4269   18.4561 H   0  0  0  0  0  0  0  0  0  0  0  0
   11.7138   13.9585   18.8971 H   0  0  0  0  0  0  0  0  0  0  0  0
   12.6359   15.3881   18.3817 H   0  0  0  0  0  0  0  0  0  0  0  0
   10.8537   17.4248   19.9853 H   0  0  0  0  0  0  0  0  0  0  0  0
   11.7621   17.4019   21.5123 H   0  0  0  0  0  0  0  0  0  0  0  0
   12.6068   17.4993   19.9504 H   0  0  0  0  0  0  0  0  0  0  0  0
    8.6079    8.5125   23.7517 H   0  0  0  0  0  0  0  0  0  0  0  0
  1  5  1  0  0  0  0
  1 17  3  0  0  0  0
  2  3  1  0  0  0  0
  2  5  2  0  0  0  0
  3  7  2  0  0  0  0
  4  5  1  0  0  0  0
  4  6  2  0  0  0  0
  6  7  1  0  0  0  0
  6 12  1  0  0  0  0
  7 18  1  0  0  0  0
  8 19  1  0  0  0  0
  8 20  2  0  0  0  0
  8 21  1  0  0  0  0
  9 12  1  0  0  0  0
  9 18  1  0  0  0  0
 10 12  1  0  0  0  0
 10 19  1  0  0  0  0
 11 12  1  0  0  0  0
 11 19  1  0  0  0  0
 13 16  1  0  0  0  0
 14 16  1  0  0  0  0
 15 16  1  0  0  0  0
 16 21  1  0  0  0  0
  2 22  1  0  0  0  0
  3 23  1  0  0  0  0
  4 24  1  0  0  0  0
  9 25  1  0  0  0  0
  9 26  1  0  0  0  0
 10 27  1  0  0  0  0
 10 28  1  0  0  0  0
 11 29  1  0  0  0  0
 11 30  1  0  0  0  0
 13 31  1  0  0  0  0
 13 32  1  0  0  0  0
 13 33  1  0  0  0  0
 14 34  1  0  0  0  0
 14 35  1  0  0  0  0
 14 36  1  0  0  0  0
 15 37  1  0  0  0  0
 15 38  1  0  0  0  0
 15 39  1  0  0  0  0
 18 40  1  0  0  0  0
M  END
> <id>
EN300-338901

> <smiles>
CC(C)(C)OC(=O)N1CC2(C1)CNC=3C=CC(C#N)=CC32

> <MDLNUMBER>
MFCD30499958

> <IUPAC Name>
tert-butyl 5'-cyano-1',2'-dihydrospiro[azetidine-3,3'-indole]-1-carboxylate

> <CAS>
2060008-58-2

> <URL>
https://www.enaminestore.com/catalog/EN300-338901

> <ROCS_ShapeQuery>
A71EV2A-x0451_0A_A71EV2A-x0310_0A_A71EV2A-x0416_0A_peptide

> <ROCS_TanimotoCombo>
0.505 

> <ROCS_ShapeTanimoto>
0.352 

> <ROCS_ColorTanimoto>
0.154 

> <ROCS_RefTversky>
0.308 

> <ROCS_RefColorTversky>
0.169 

> <ROCS_RefTverskyCombo>
0.477 

> <ROCS_FitTversky>
1.688 

> <ROCS_FitColorTversky>
0.626 

> <ROCS_FitTverskyCombo>
2.313 

> <ROCS_ColorScore>
-5.164

> <ROCS_Overlap>
2135.340

> <ROCS_Rank>
81                  

$$$$
untitled-dbase-50402_38
  -OEChem-11132313473D

 35 36  0     0  0  0  0  0  0999 V2000
    6.4611   10.6418   25.2328 C   0  0  0  0  0  0  0  0  0  0  0  0
    5.8574   11.7731   25.7666 C   0  0  0  0  0  0  0  0  0  0  0  0
    7.7067   13.1162   24.9651 C   0  0  0  0  0  0  0  0  0  0  0  0
    8.3400   11.9893   24.4192 C   0  0  0  0  0  0  0  0  0  0  0  0
    7.6948   10.7460   24.5782 C   0  0  0  0  0  0  0  0  0  0  0  0
    6.4815   13.0075   25.6350 C   0  0  0  0  0  0  0  0  0  0  0  0
   10.3429   13.2194   23.5090 C   0  0  0  0  0  0  0  0  0  0  0  0
    9.9758   10.7934   23.0342 C   0  0  0  0  0  0  0  0  0  0  0  0
    9.5989    9.6030   23.8881 C   0  0  0  0  0  0  0  0  0  0  0  0
   12.0959   15.3344   22.6778 C   0  0  0  0  0  0  0  0  0  0  0  0
   11.9420   14.3136   20.3880 C   0  0  0  0  0  0  0  0  0  0  0  0
    9.8773   15.2192   21.4948 C   0  0  0  0  0  0  0  0  0  0  0  0
   11.2222   14.5287   21.7175 C   0  0  0  0  0  0  0  0  0  0  0  0
    9.5748   12.0512   23.6811 N   0  0  0  0  0  0  0  0  0  0  0  0
   10.4653   14.1382   24.3139 O   0  0  0  0  0  0  0  0  0  0  0  0
    8.1926    9.5596   24.0977 O   0  0  0  0  0  0  0  0  0  0  0  0
    5.8912   14.1220   26.1501 O   0  0  0  0  0  0  0  0  0  0  0  0
   10.9828   13.2383   22.2925 O   0  0  0  0  0  0  0  0  0  0  0  0
    5.9734    9.6758   25.3365 H   0  0  0  0  0  0  0  0  0  0  0  0
    4.9042   11.6872   26.2800 H   0  0  0  0  0  0  0  0  0  0  0  0
    8.1163   14.1148   24.8730 H   0  0  0  0  0  0  0  0  0  0  0  0
   11.0544   10.7760   22.8509 H   0  0  0  0  0  0  0  0  0  0  0  0
    9.4634   10.7611   22.0650 H   0  0  0  0  0  0  0  0  0  0  0  0
    9.8822    8.6771   23.3762 H   0  0  0  0  0  0  0  0  0  0  0  0
   10.1189    9.6110   24.8545 H   0  0  0  0  0  0  0  0  0  0  0  0
   11.5827   15.4910   23.6334 H   0  0  0  0  0  0  0  0  0  0  0  0
   13.0492   14.8327   22.8732 H   0  0  0  0  0  0  0  0  0  0  0  0
   12.3059   16.3310   22.2728 H   0  0  0  0  0  0  0  0  0  0  0  0
   11.3188   13.7359   19.6959 H   0  0  0  0  0  0  0  0  0  0  0  0
   12.8618   13.7351   20.5313 H   0  0  0  0  0  0  0  0  0  0  0  0
   12.2011   15.2640   19.9104 H   0  0  0  0  0  0  0  0  0  0  0  0
    9.2504   14.6414   20.8060 H   0  0  0  0  0  0  0  0  0  0  0  0
    9.3301   15.3487   22.4342 H   0  0  0  0  0  0  0  0  0  0  0  0
   10.0165   16.2039   21.0342 H   0  0  0  0  0  0  0  0  0  0  0  0
    5.0494   13.8904   26.5729 H   0  0  0  0  0  0  0  0  0  0  0  0
  1  2  1  0  0  0  0
  1  5  2  0  0  0  0
  2  6  2  0  0  0  0
  3  4  2  0  0  0  0
  3  6  1  0  0  0  0
  4  5  1  0  0  0  0
  4 14  1  0  0  0  0
  5 16  1  0  0  0  0
  6 17  1  0  0  0  0
  7 14  1  0  0  0  0
  7 15  2  0  0  0  0
  7 18  1  0  0  0  0
  8  9  1  0  0  0  0
  8 14  1  0  0  0  0
  9 16  1  0  0  0  0
 10 13  1  0  0  0  0
 11 13  1  0  0  0  0
 12 13  1  0  0  0  0
 13 18  1  0  0  0  0
  1 19  1  0  0  0  0
  2 20  1  0  0  0  0
  3 21  1  0  0  0  0
  8 22  1  0  0  0  0
  8 23  1  0  0  0  0
  9 24  1  0  0  0  0
  9 25  1  0  0  0  0
 10 26  1  0  0  0  0
 10 27  1  0  0  0  0
 10 28  1  0  0  0  0
 11 29  1  0  0  0  0
 11 30  1  0  0  0  0
 11 31  1  0  0  0  0
 12 32  1  0  0  0  0
 12 33  1  0  0  0  0
 12 34  1  0  0  0  0
 17 35  1  0  0  0  0
M  END
> <id>
EN300-6873730

> <smiles>
CC(C)(C)OC(=O)N1CCOC=2C=CC(O)=CC12

> <MDLNUMBER>
MFCD28536158

> <IUPAC Name>
tert-butyl 6-hydroxy-3,4-dihydro-2H-1,4-benzoxazine-4-carboxylate

> <CAS>
1779746-05-2

> <Purity>
95

> <URL>
https://www.enaminestore.com/catalog/EN300-6873730

> <ROCS_ShapeQuery>
A71EV2A-x0451_0A_A71EV2A-x0310_0A_A71EV2A-x0416_0A_peptide

> <ROCS_TanimotoCombo>
0.505 

> <ROCS_ShapeTanimoto>
0.342 

> <ROCS_ColorTanimoto>
0.164 

> <ROCS_RefTversky>
0.296 

> <ROCS_RefColorTversky>
0.179 

> <ROCS_RefTverskyCombo>
0.475 

> <ROCS_FitTversky>
1.810 

> <ROCS_FitColorTversky>
0.662 

> <ROCS_FitTverskyCombo>
2.472 

> <ROCS_ColorScore>
-5.453

> <ROCS_Overlap>
2054.824

> <ROCS_Rank>
82                  

$$$$
untitled-dbase-34435_36
  -OEChem-11132313473D

 38 39  0     1  0  0  0  0  0999 V2000
    7.1075   10.2444   25.5084 C   0  0  0  0  0  0  0  0  0  0  0  0
    6.3978   11.3084   26.0522 C   0  0  0  0  0  0  0  0  0  0  0  0
    7.8764   12.8415   24.9119 C   0  0  0  0  0  0  0  0  0  0  0  0
    8.2029   10.4659   24.6532 C   0  0  0  0  0  0  0  0  0  0  0  0
    8.6464   11.7854   24.3962 C   0  0  0  0  0  0  0  0  0  0  0  0
    6.7705   12.6059   25.7360 C   0  0  0  0  0  0  0  0  0  0  0  0
   10.5786   13.1823   23.4646 C   0  0  0  0  0  0  0  0  0  0  0  0
   10.4684   10.7895   23.0177 C   0  0  0  0  0  0  0  0  0  0  0  0
    9.5422    9.5943   22.8434 C   0  0  1  0  0  0  0  0  0  0  0  0
   10.3275    8.3434   22.4627 C   0  0  0  0  0  0  0  0  0  0  0  0
   12.1391   15.4864   22.7726 C   0  0  0  0  0  0  0  0  0  0  0  0
   12.2767   14.4682   20.4805 C   0  0  0  0  0  0  0  0  0  0  0  0
   10.0450   15.1320   21.4221 C   0  0  0  0  0  0  0  0  0  0  0  0
   11.4371   14.5941   21.7499 C   0  0  0  0  0  0  0  0  0  0  0  0
    8.8263    9.3603   24.0769 N   0  0  0  0  0  0  0  0  0  0  0  0
    9.8424   11.9814   23.6087 N   0  0  0  0  0  0  0  0  0  0  0  0
   10.5308   14.1031   24.2827 O   0  0  0  0  0  0  0  0  0  0  0  0
   11.2992   13.2816   22.3083 O   0  0  0  0  0  0  0  0  0  0  0  0
    5.7923   14.0633   26.4419 Br  0  0  0  0  0  0  0  0  0  0  0  0
    6.7979    9.2297   25.7473 H   0  0  0  0  0  0  0  0  0  0  0  0
    5.5663   11.1068   26.7208 H   0  0  0  0  0  0  0  0  0  0  0  0
    8.1413   13.8782   24.7247 H   0  0  0  0  0  0  0  0  0  0  0  0
   11.3360   10.5344   23.6610 H   0  0  0  0  0  0  0  0  0  0  0  0
   10.9020   11.0370   22.0295 H   0  0  0  0  0  0  0  0  0  0  0  0
    8.8185    9.8092   22.0471 H   0  0  0  0  0  0  0  0  0  0  0  0
   11.0540    8.1099   23.2404 H   0  0  0  0  0  0  0  0  0  0  0  0
   10.8540    8.5071   21.5230 H   0  0  0  0  0  0  0  0  0  0  0  0
    9.6482    7.4994   22.3467 H   0  0  0  0  0  0  0  0  0  0  0  0
   11.5395   15.5794   23.6852 H   0  0  0  0  0  0  0  0  0  0  0  0
   13.1244   15.0927   23.0424 H   0  0  0  0  0  0  0  0  0  0  0  0
   12.2674   16.5025   22.3822 H   0  0  0  0  0  0  0  0  0  0  0  0
   11.7769   13.8288   19.7439 H   0  0  0  0  0  0  0  0  0  0  0  0
   13.2414   13.9947   20.6960 H   0  0  0  0  0  0  0  0  0  0  0  0
   12.4644   15.4443   20.0217 H   0  0  0  0  0  0  0  0  0  0  0  0
    9.5412   14.4922   20.6886 H   0  0  0  0  0  0  0  0  0  0  0  0
    9.4159   15.1944   22.3160 H   0  0  0  0  0  0  0  0  0  0  0  0
   10.1087   16.1288   20.9709 H   0  0  0  0  0  0  0  0  0  0  0  0
    8.5423    8.4420   24.3338 H   0  0  0  0  0  0  0  0  0  0  0  0
  1  2  1  0  0  0  0
  1  4  2  0  0  0  0
  2  6  2  0  0  0  0
  3  5  2  0  0  0  0
  3  6  1  0  0  0  0
  4  5  1  0  0  0  0
  4 15  1  0  0  0  0
  5 16  1  0  0  0  0
  6 19  1  0  0  0  0
  7 16  1  0  0  0  0
  7 17  2  0  0  0  0
  7 18  1  0  0  0  0
  8  9  1  0  0  0  0
  8 16  1  0  0  0  0
  9 10  1  6  0  0  0
  9 15  1  0  0  0  0
 11 14  1  0  0  0  0
 12 14  1  0  0  0  0
 13 14  1  0  0  0  0
 14 18  1  0  0  0  0
  1 20  1  0  0  0  0
  2 21  1  0  0  0  0
  3 22  1  0  0  0  0
  8 23  1  0  0  0  0
  8 24  1  0  0  0  0
  9 25  1  0  0  0  0
 10 26  1  0  0  0  0
 10 27  1  0  0  0  0
 10 28  1  0  0  0  0
 11 29  1  0  0  0  0
 11 30  1  0  0  0  0
 11 31  1  0  0  0  0
 12 32  1  0  0  0  0
 12 33  1  0  0  0  0
 12 34  1  0  0  0  0
 13 35  1  0  0  0  0
 13 36  1  0  0  0  0
 13 37  1  0  0  0  0
 15 38  1  0  0  0  0
M  END
> <id>
EN300-7354650

> <smiles>
C[C@@H]1CN(C(=O)OC(C)(C)C)C=2C=C(Br)C=CC2N1

> <MDLNUMBER>
MFCD31924217

> <IUPAC Name>
tert-butyl (3R)-7-bromo-3-methyl-1,2,3,4-tetrahydroquinoxaline-1-carboxylate

> <CAS>
2343964-63-4

> <Purity>
95

> <URL>
https://www.enaminestore.com/catalog/EN300-7354650

> <ROCS_ShapeQuery>
A71EV2A-x0451_0A_A71EV2A-x0310_0A_A71EV2A-x0416_0A_peptide

> <ROCS_TanimotoCombo>
0.505 

> <ROCS_ShapeTanimoto>
0.359 

> <ROCS_ColorTanimoto>
0.146 

> <ROCS_RefTversky>
0.308 

> <ROCS_RefColorTversky>
0.158 

> <ROCS_RefTverskyCombo>
0.466 

> <ROCS_FitTversky>
1.847 

> <ROCS_FitColorTversky>
0.660 

> <ROCS_FitTverskyCombo>
2.507 

> <ROCS_ColorScore>
-4.813

> <ROCS_Overlap>
2137.594

> <ROCS_Rank>
83                  

$$$$
untitled-dbase-8938_42
  -OEChem-11132313473D

 31 32  0     0  0  0  0  0  0999 V2000
    6.3841   11.0479   25.2847 C   0  0  0  0  0  0  0  0  0  0  0  0
    9.4980    9.9110   23.4790 C   0  0  0  0  0  0  0  0  0  0  0  0
    8.4080   10.4949   24.1447 C   0  0  0  0  0  0  0  0  0  0  0  0
    7.1896   10.0760   24.6947 C   0  0  0  0  0  0  0  0  0  0  0  0
    8.7342   11.8413   24.2212 C   0  0  0  0  0  0  0  0  0  0  0  0
    6.8254   12.3648   25.2966 C   0  0  0  0  0  0  0  0  0  0  0  0
   10.7092   13.1496   23.4437 C   0  0  0  0  0  0  0  0  0  0  0  0
   12.4687   15.2219   22.6414 C   0  0  0  0  0  0  0  0  0  0  0  0
   12.5763   14.0231   20.4367 C   0  0  0  0  0  0  0  0  0  0  0  0
   10.3854   14.9355   21.2585 C   0  0  0  0  0  0  0  0  0  0  0  0
   11.7198   14.3135   21.6673 C   0  0  0  0  0  0  0  0  0  0  0  0
   10.4423   10.7959   23.1542 N   0  0  0  0  0  0  0  0  0  0  0  0
    7.9915   12.8175   24.7797 N   0  0  0  0  0  0  0  0  0  0  0  0
    9.9661   11.9816   23.6135 N   0  0  0  0  0  0  0  0  0  0  0  0
   10.6299   14.0647   24.2471 O   0  0  0  0  0  0  0  0  0  0  0  0
    6.7894    8.7707   24.6628 O   0  0  0  0  0  0  0  0  0  0  0  0
    6.0160   13.3077   25.8830 O   0  0  0  0  0  0  0  0  0  0  0  0
   11.4608   13.0653   22.3164 O   0  0  0  0  0  0  0  0  0  0  0  0
    5.4295   10.7778   25.7261 H   0  0  0  0  0  0  0  0  0  0  0  0
    9.6480    8.8740   23.2141 H   0  0  0  0  0  0  0  0  0  0  0  0
   11.8573   15.4327   23.5261 H   0  0  0  0  0  0  0  0  0  0  0  0
   13.4113   14.7716   22.9694 H   0  0  0  0  0  0  0  0  0  0  0  0
   12.6902   16.1913   22.1805 H   0  0  0  0  0  0  0  0  0  0  0  0
   12.0429   13.3716   19.7351 H   0  0  0  0  0  0  0  0  0  0  0  0
   13.4930   13.4911   20.7159 H   0  0  0  0  0  0  0  0  0  0  0  0
   12.8552   14.9427   19.9124 H   0  0  0  0  0  0  0  0  0  0  0  0
    9.8480   14.2841   20.5598 H   0  0  0  0  0  0  0  0  0  0  0  0
    9.7424   15.1169   22.1259 H   0  0  0  0  0  0  0  0  0  0  0  0
   10.5423   15.8863   20.7365 H   0  0  0  0  0  0  0  0  0  0  0  0
    5.9245    8.6783   25.0899 H   0  0  0  0  0  0  0  0  0  0  0  0
    6.4359   14.1758   25.8247 H   0  0  0  0  0  0  0  0  0  0  0  0
  1  4  1  0  0  0  0
  1  6  2  0  0  0  0
  2  3  1  0  0  0  0
  2 12  2  0  0  0  0
  3  4  2  0  0  0  0
  3  5  1  0  0  0  0
  4 16  1  0  0  0  0
  5 13  2  0  0  0  0
  5 14  1  0  0  0  0
  6 13  1  0  0  0  0
  6 17  1  0  0  0  0
  7 14  1  0  0  0  0
  7 15  2  0  0  0  0
  7 18  1  0  0  0  0
  8 11  1  0  0  0  0
  9 11  1  0  0  0  0
 10 11  1  0  0  0  0
 11 18  1  0  0  0  0
 12 14  1  0  0  0  0
  1 19  1  0  0  0  0
  2 20  1  0  0  0  0
  8 21  1  0  0  0  0
  8 22  1  0  0  0  0
  8 23  1  0  0  0  0
  9 24  1  0  0  0  0
  9 25  1  0  0  0  0
  9 26  1  0  0  0  0
 10 27  1  0  0  0  0
 10 28  1  0  0  0  0
 10 29  1  0  0  0  0
 16 30  1  0  0  0  0
 17 31  1  0  0  0  0
M  END
> <id>
EN300-319681

> <smiles>
CC(C)(C)OC(=O)N1N=CC=2C(O)=CC(O)=NC12

> <MDLNUMBER>
MFCD30477278

> <IUPAC Name>
tert-butyl 4,6-dihydroxy-1H-pyrazolo[3,4-b]pyridine-1-carboxylate

> <CAS>
2060031-37-8

> <URL>
https://www.enaminestore.com/catalog/EN300-319681

> <ROCS_ShapeQuery>
A71EV2A-x0451_0A_A71EV2A-x0310_0A_A71EV2A-x0416_0A_peptide

> <ROCS_TanimotoCombo>
0.505 

> <ROCS_ShapeTanimoto>
0.348 

> <ROCS_ColorTanimoto>
0.157 

> <ROCS_RefTversky>
0.301 

> <ROCS_RefColorTversky>
0.185 

> <ROCS_RefTverskyCombo>
0.486 

> <ROCS_FitTversky>
1.805 

> <ROCS_FitColorTversky>
0.510 

> <ROCS_FitTverskyCombo>
2.315 

> <ROCS_ColorScore>
-5.665

> <ROCS_Overlap>
2089.753

> <ROCS_Rank>
84                  

$$$$
untitled-dbase-52280_0
  -OEChem-11132313473D

 39 40  0     1  0  0  0  0  0999 V2000
    8.0231   12.8026   25.2610 C   0  0  0  0  0  0  0  0  0  0  0  0
    6.9565   12.0426   25.7852 C   0  0  0  0  0  0  0  0  0  0  0  0
    8.6439   11.9682   24.3554 C   0  0  0  0  0  0  0  0  0  0  0  0
   10.4199   13.3098   23.4140 C   0  0  0  0  0  0  0  0  0  0  0  0
    8.2007    9.6231   23.6083 C   0  0  0  0  0  0  0  0  0  0  0  0
   10.1034   10.9443   22.6229 C   0  0  0  0  0  0  0  0  0  0  0  0
    9.6750    9.5865   23.2020 C   0  0  2  0  0  0  0  0  0  0  0  0
    5.9445   12.4343   26.7858 C   0  0  0  0  0  0  0  0  0  0  0  0
    9.9362    8.4606   22.2058 C   0  0  0  0  0  0  0  0  0  0  0  0
   12.8100   14.7985   22.8737 C   0  0  0  0  0  0  0  0  0  0  0  0
   12.0210   14.8478   20.4896 C   0  0  0  0  0  0  0  0  0  0  0  0
   10.6467   15.9421   22.2846 C   0  0  0  0  0  0  0  0  0  0  0  0
   11.5903   14.7867   21.9535 C   0  0  0  0  0  0  0  0  0  0  0  0
    6.8909   10.8167   25.2625 N   0  0  0  0  0  0  0  0  0  0  0  0
    7.9270   10.7994   24.4088 N   0  0  0  0  0  0  0  0  0  0  0  0
    9.7396   12.0820   23.4942 N   0  0  0  0  0  0  0  0  0  0  0  0
   10.5941   14.1022   24.3367 O   0  0  0  0  0  0  0  0  0  0  0  0
   10.8865   13.5538   22.1452 O   0  0  0  0  0  0  0  0  0  0  0  0
    8.2366   14.5870   25.8005 Br  0  0  0  0  0  0  0  0  0  0  0  0
    7.5389    9.6766   22.7363 H   0  0  0  0  0  0  0  0  0  0  0  0
    7.9384    8.7391   24.1999 H   0  0  0  0  0  0  0  0  0  0  0  0
   11.1872   10.9291   22.4582 H   0  0  0  0  0  0  0  0  0  0  0  0
    9.6228   11.1243   21.6527 H   0  0  0  0  0  0  0  0  0  0  0  0
   10.2814    9.3950   24.0984 H   0  0  0  0  0  0  0  0  0  0  0  0
    5.0598   12.8801   26.3025 H   0  0  0  0  0  0  0  0  0  0  0  0
    5.6011   11.5742   27.3855 H   0  0  0  0  0  0  0  0  0  0  0  0
    6.3391   13.1704   27.5070 H   0  0  0  0  0  0  0  0  0  0  0  0
    9.3482    8.6209   21.3030 H   0  0  0  0  0  0  0  0  0  0  0  0
    9.6576    7.5042   22.6463 H   0  0  0  0  0  0  0  0  0  0  0  0
   10.9929    8.4366   21.9424 H   0  0  0  0  0  0  0  0  0  0  0  0
   12.5051   14.7549   23.9255 H   0  0  0  0  0  0  0  0  0  0  0  0
   13.4774   13.9548   22.6699 H   0  0  0  0  0  0  0  0  0  0  0  0
   13.3801   15.7271   22.7555 H   0  0  0  0  0  0  0  0  0  0  0  0
   11.1490   14.8395   19.8257 H   0  0  0  0  0  0  0  0  0  0  0  0
   12.6208   13.9702   20.2223 H   0  0  0  0  0  0  0  0  0  0  0  0
   12.6089   15.7469   20.2786 H   0  0  0  0  0  0  0  0  0  0  0  0
    9.7718   15.9338   21.6246 H   0  0  0  0  0  0  0  0  0  0  0  0
   10.2981   15.8937   23.3213 H   0  0  0  0  0  0  0  0  0  0  0  0
   11.1426   16.9070   22.1286 H   0  0  0  0  0  0  0  0  0  0  0  0
  1  2  1  0  0  0  0
  1  3  2  0  0  0  0
  1 19  1  0  0  0  0
  2  8  1  0  0  0  0
  2 14  2  0  0  0  0
  3 15  1  0  0  0  0
  3 16  1  0  0  0  0
  4 16  1  0  0  0  0
  4 17  2  0  0  0  0
  4 18  1  0  0  0  0
  5  7  1  0  0  0  0
  5 15  1  0  0  0  0
  6  7  1  0  0  0  0
  6 16  1  0  0  0  0
  7  9  1  0  0  0  0
 10 13  1  0  0  0  0
 11 13  1  0  0  0  0
 12 13  1  0  0  0  0
 13 18  1  0  0  0  0
 14 15  1  0  0  0  0
  5 20  1  0  0  0  0
  5 21  1  0  0  0  0
  6 22  1  0  0  0  0
  6 23  1  0  0  0  0
  7 24  1  0  0  0  0
  8 25  1  0  0  0  0
  8 26  1  0  0  0  0
  8 27  1  0  0  0  0
  9 28  1  0  0  0  0
  9 29  1  0  0  0  0
  9 30  1  0  0  0  0
 10 31  1  0  0  0  0
 10 32  1  0  0  0  0
 10 33  1  0  0  0  0
 11 34  1  0  0  0  0
 11 35  1  0  0  0  0
 11 36  1  0  0  0  0
 12 37  1  0  0  0  0
 12 38  1  0  0  0  0
 12 39  1  0  0  0  0
M  END
> <id>
EN300-28295570

> <smiles>
CC1CN(C(=O)OC(C)(C)C)C2=C(Br)C(C)=NN2C1

> <IUPAC Name>
tert-butyl 3-bromo-2,6-dimethyl-4H,5H,6H,7H-pyrazolo[1,5-a]pyrimidine-4-carboxylate

> <URL>
https://www.enaminestore.com/catalog/EN300-28295570

> <ROCS_ShapeQuery>
A71EV2A-x0451_0A_A71EV2A-x0310_0A_A71EV2A-x0416_0A_peptide

> <ROCS_TanimotoCombo>
0.505 

> <ROCS_ShapeTanimoto>
0.351 

> <ROCS_ColorTanimoto>
0.154 

> <ROCS_RefTversky>
0.303 

> <ROCS_RefColorTversky>
0.166 

> <ROCS_RefTverskyCombo>
0.469 

> <ROCS_FitTversky>
1.808 

> <ROCS_FitColorTversky>
0.689 

> <ROCS_FitTverskyCombo>
2.497 

> <ROCS_ColorScore>
-5.037

> <ROCS_Overlap>
2104.483

> <ROCS_Rank>
85                  

$$$$
untitled-dbase-45934_6
  -OEChem-11132313473D

 38 39  0     0  0  0  0  0  0999 V2000
    6.7939   12.5947   25.8116 C   0  0  0  0  0  0  0  0  0  0  0  0
    7.9039   12.8424   24.9987 C   0  0  0  0  0  0  0  0  0  0  0  0
    7.0443   10.2383   25.4312 C   0  0  0  0  0  0  0  0  0  0  0  0
    6.3627   11.2940   26.0276 C   0  0  0  0  0  0  0  0  0  0  0  0
    8.6139   11.7912   24.3935 C   0  0  0  0  0  0  0  0  0  0  0  0
    8.1739   10.4659   24.6243 C   0  0  0  0  0  0  0  0  0  0  0  0
   10.3918   13.2583   23.3860 C   0  0  0  0  0  0  0  0  0  0  0  0
   10.1119    9.5541   23.4600 C   0  0  0  0  0  0  0  0  0  0  0  0
   10.1540   10.8635   22.6940 C   0  0  0  0  0  0  0  0  0  0  0  0
   12.7792   14.7509   22.8333 C   0  0  0  0  0  0  0  0  0  0  0  0
   12.0460   14.6816   20.4318 C   0  0  0  0  0  0  0  0  0  0  0  0
   10.6184   15.8410   22.1424 C   0  0  0  0  0  0  0  0  0  0  0  0
    5.1820   11.0290   26.8982 C   0  0  0  0  0  0  0  0  0  0  0  0
   11.5817   14.6827   21.8867 C   0  0  0  0  0  0  0  0  0  0  0  0
    8.8147    9.3705   24.0578 N   0  0  0  0  0  0  0  0  0  0  0  0
    9.7400   12.0152   23.5166 N   0  0  0  0  0  0  0  0  0  0  0  0
   10.5386   14.0971   24.2711 O   0  0  0  0  0  0  0  0  0  0  0  0
   10.8865   13.4516   22.1188 O   0  0  0  0  0  0  0  0  0  0  0  0
    4.6200   12.1603   27.4190 F   0  0  0  0  0  0  0  0  0  0  0  0
    4.1606   10.3885   26.2555 F   0  0  0  0  0  0  0  0  0  0  0  0
    5.4867   10.2444   27.9730 F   0  0  0  0  0  0  0  0  0  0  0  0
    6.2829   13.4302   26.2835 H   0  0  0  0  0  0  0  0  0  0  0  0
    8.2024   13.8797   24.9011 H   0  0  0  0  0  0  0  0  0  0  0  0
    6.6899    9.2203   25.5862 H   0  0  0  0  0  0  0  0  0  0  0  0
   10.3304    8.7154   22.7880 H   0  0  0  0  0  0  0  0  0  0  0  0
   10.8785    9.5515   24.2420 H   0  0  0  0  0  0  0  0  0  0  0  0
   11.1680   11.0738   22.3301 H   0  0  0  0  0  0  0  0  0  0  0  0
    9.5111   10.7661   21.8131 H   0  0  0  0  0  0  0  0  0  0  0  0
   12.4501   14.7519   23.8786 H   0  0  0  0  0  0  0  0  0  0  0  0
   13.4600   13.9065   22.6839 H   0  0  0  0  0  0  0  0  0  0  0  0
   13.3420   15.6797   22.6855 H   0  0  0  0  0  0  0  0  0  0  0  0
   11.1900   14.6328   19.7491 H   0  0  0  0  0  0  0  0  0  0  0  0
   12.6611   13.7998   20.2191 H   0  0  0  0  0  0  0  0  0  0  0  0
   12.6292   15.5769   20.1932 H   0  0  0  0  0  0  0  0  0  0  0  0
    9.7593   15.7923   21.4635 H   0  0  0  0  0  0  0  0  0  0  0  0
   10.2460   15.8361   23.1719 H   0  0  0  0  0  0  0  0  0  0  0  0
   11.1075   16.8035   21.9536 H   0  0  0  0  0  0  0  0  0  0  0  0
    8.2802    8.5374   23.8430 H   0  0  0  0  0  0  0  0  0  0  0  0
  1  2  1  0  0  0  0
  1  4  2  0  0  0  0
  2  5  2  0  0  0  0
  3  4  1  0  0  0  0
  3  6  2  0  0  0  0
  4 13  1  0  0  0  0
  5  6  1  0  0  0  0
  5 16  1  0  0  0  0
  6 15  1  0  0  0  0
  7 16  1  0  0  0  0
  7 17  2  0  0  0  0
  7 18  1  0  0  0  0
  8  9  1  0  0  0  0
  8 15  1  0  0  0  0
  9 16  1  0  0  0  0
 10 14  1  0  0  0  0
 11 14  1  0  0  0  0
 12 14  1  0  0  0  0
 13 19  1  0  0  0  0
 13 20  1  0  0  0  0
 13 21  1  0  0  0  0
 14 18  1  0  0  0  0
  1 22  1  0  0  0  0
  2 23  1  0  0  0  0
  3 24  1  0  0  0  0
  8 25  1  0  0  0  0
  8 26  1  0  0  0  0
  9 27  1  0  0  0  0
  9 28  1  0  0  0  0
 10 29  1  0  0  0  0
 10 30  1  0  0  0  0
 10 31  1  0  0  0  0
 11 32  1  0  0  0  0
 11 33  1  0  0  0  0
 11 34  1  0  0  0  0
 12 35  1  0  0  0  0
 12 36  1  0  0  0  0
 12 37  1  0  0  0  0
 15 38  1  0  0  0  0
M  END
> <id>
EN300-12450061

> <smiles>
CC(C)(C)OC(=O)N1CCNC=2C=C(C=CC12)C(F)(F)F

> <MDLNUMBER>
MFCD18250303

> <IUPAC Name>
tert-butyl 6-(trifluoromethyl)-1,2,3,4-tetrahydroquinoxaline-1-carboxylate

> <CAS>
1260672-04-5

> <Purity>
95

> <URL>
https://www.enaminestore.com/catalog/EN300-12450061

> <ROCS_ShapeQuery>
A71EV2A-x0451_0A_A71EV2A-x0310_0A_A71EV2A-x0416_0A_peptide

> <ROCS_TanimotoCombo>
0.505 

> <ROCS_ShapeTanimoto>
0.354 

> <ROCS_ColorTanimoto>
0.151 

> <ROCS_RefTversky>
0.309 

> <ROCS_RefColorTversky>
0.158 

> <ROCS_RefTverskyCombo>
0.468 

> <ROCS_FitTversky>
1.694 

> <ROCS_FitColorTversky>
0.758 

> <ROCS_FitTverskyCombo>
2.452 

> <ROCS_ColorScore>
-4.804

> <ROCS_Overlap>
2148.678

> <ROCS_Rank>
86                  

$$$$
untitled-dbase-30436_7
  -OEChem-11132313473D

 36 37  0     1  0  0  0  0  0999 V2000
    6.2427   11.5445   26.1657 C   0  0  0  0  0  0  0  0  0  0  0  0
    6.6595   10.5455   25.2911 C   0  0  0  0  0  0  0  0  0  0  0  0
    6.9391   12.7496   26.1755 C   0  0  0  0  0  0  0  0  0  0  0  0
    7.7434   10.8017   24.4685 C   0  0  0  0  0  0  0  0  0  0  0  0
    8.3741   12.0371   24.5501 C   0  0  0  0  0  0  0  0  0  0  0  0
   10.2831   13.1686   23.4612 C   0  0  0  0  0  0  0  0  0  0  0  0
    9.4633   10.8330   22.8486 C   0  0  0  0  0  0  0  0  0  0  0  0
    8.4082    9.8972   23.4738 C   0  0  2  0  0  0  0  0  0  0  0  0
   12.8426   14.2131   22.7260 C   0  0  0  0  0  0  0  0  0  0  0  0
   11.9267   14.3109   20.3891 C   0  0  0  0  0  0  0  0  0  0  0  0
   10.8643   15.6800   22.2071 C   0  0  0  0  0  0  0  0  0  0  0  0
    7.4565    9.3071   22.4415 C   0  0  0  0  0  0  0  0  0  0  0  0
   11.5830   14.3729   21.8758 C   0  0  0  0  0  0  0  0  0  0  0  0
    8.0040   13.0254   25.3859 N   0  0  0  0  0  0  0  0  0  0  0  0
    9.4363   12.0857   23.6284 N   0  0  0  0  0  0  0  0  0  0  0  0
   10.6297   13.9411   24.3515 O   0  0  0  0  0  0  0  0  0  0  0  0
    9.0575    8.8494   24.1855 O   0  0  0  0  0  0  0  0  0  0  0  0
   10.6998   13.2821   22.1603 O   0  0  0  0  0  0  0  0  0  0  0  0
    6.8671   10.2886   21.7392 F   0  0  0  0  0  0  0  0  0  0  0  0
    8.1280    8.5124   21.5922 F   0  0  0  0  0  0  0  0  0  0  0  0
    6.5044    8.5810   23.0500 F   0  0  0  0  0  0  0  0  0  0  0  0
    5.3980   11.3862   26.8270 H   0  0  0  0  0  0  0  0  0  0  0  0
    6.1465    9.5901   25.2651 H   0  0  0  0  0  0  0  0  0  0  0  0
    6.6450   13.5508   26.8459 H   0  0  0  0  0  0  0  0  0  0  0  0
   10.4777   10.4194   22.8767 H   0  0  0  0  0  0  0  0  0  0  0  0
    9.2272   11.1000   21.8114 H   0  0  0  0  0  0  0  0  0  0  0  0
   12.6001   14.2570   23.7938 H   0  0  0  0  0  0  0  0  0  0  0  0
   13.3484   13.2635   22.5231 H   0  0  0  0  0  0  0  0  0  0  0  0
   13.5490   15.0291   22.5356 H   0  0  0  0  0  0  0  0  0  0  0  0
   11.0259   14.4252   19.7754 H   0  0  0  0  0  0  0  0  0  0  0  0
   12.3565   13.3371   20.1282 H   0  0  0  0  0  0  0  0  0  0  0  0
   12.6402   15.0917   20.1065 H   0  0  0  0  0  0  0  0  0  0  0  0
    9.9608   15.7949   21.5974 H   0  0  0  0  0  0  0  0  0  0  0  0
   10.5771   15.7261   23.2626 H   0  0  0  0  0  0  0  0  0  0  0  0
   11.5013   16.5429   21.9816 H   0  0  0  0  0  0  0  0  0  0  0  0
    9.4779    8.2809   23.5209 H   0  0  0  0  0  0  0  0  0  0  0  0
  1  2  1  0  0  0  0
  1  3  2  0  0  0  0
  2  4  2  0  0  0  0
  3 14  1  0  0  0  0
  4  5  1  0  0  0  0
  4  8  1  0  0  0  0
  5 14  2  0  0  0  0
  5 15  1  0  0  0  0
  6 15  1  0  0  0  0
  6 16  2  0  0  0  0
  6 18  1  0  0  0  0
  7  8  1  0  0  0  0
  7 15  1  0  0  0  0
  8 12  1  0  0  0  0
  8 17  1  0  0  0  0
  9 13  1  0  0  0  0
 10 13  1  0  0  0  0
 11 13  1  0  0  0  0
 12 19  1  0  0  0  0
 12 20  1  0  0  0  0
 12 21  1  0  0  0  0
 13 18  1  0  0  0  0
  1 22  1  0  0  0  0
  2 23  1  0  0  0  0
  3 24  1  0  0  0  0
  7 25  1  0  0  0  0
  7 26  1  0  0  0  0
  9 27  1  0  0  0  0
  9 28  1  0  0  0  0
  9 29  1  0  0  0  0
 10 30  1  0  0  0  0
 10 31  1  0  0  0  0
 10 32  1  0  0  0  0
 11 33  1  0  0  0  0
 11 34  1  0  0  0  0
 11 35  1  0  0  0  0
 17 36  1  0  0  0  0
M  END
> <id>
EN300-26665945

> <smiles>
CC(C)(C)OC(=O)N1CC(O)(C=2C=CC=NC12)C(F)(F)F

> <IUPAC Name>
tert-butyl 3-hydroxy-3-(trifluoromethyl)-1H,2H,3H-pyrrolo[2,3-b]pyridine-1-carboxylate

> <CAS>
2413896-93-0

> <URL>
https://www.enaminestore.com/catalog/EN300-26665945

> <ROCS_ShapeQuery>
A71EV2A-x0451_0A_A71EV2A-x0310_0A_A71EV2A-x0416_0A_peptide

> <ROCS_TanimotoCombo>
0.505 

> <ROCS_ShapeTanimoto>
0.342 

> <ROCS_ColorTanimoto>
0.163 

> <ROCS_RefTversky>
0.302 

> <ROCS_RefColorTversky>
0.178 

> <ROCS_RefTverskyCombo>
0.480 

> <ROCS_FitTversky>
1.630 

> <ROCS_FitColorTversky>
0.657 

> <ROCS_FitTverskyCombo>
2.287 

> <ROCS_ColorScore>
-5.419

> <ROCS_Overlap>
2098.725

> <ROCS_Rank>
87                  

$$$$
untitled-dbase-15093_21
  -OEChem-11132313473D

 46 47  0     1  0  0  0  0  0999 V2000
   10.5202   13.2641   23.4041 C   0  0  0  0  0  0  0  0  0  0  0  0
    7.4172   10.5666   26.1957 C   0  0  0  0  0  0  0  0  0  0  0  0
    6.7740   11.7424   24.0943 C   0  0  0  0  0  0  0  0  0  0  0  0
    6.8384   11.7371   26.9885 C   0  0  0  0  0  0  0  0  0  0  0  0
    6.2121   12.8788   24.9484 C   0  0  0  0  0  0  0  0  0  0  0  0
    9.6406   11.0251   22.5867 C   0  0  0  0  0  0  0  0  0  0  0  0
    9.2111   11.7997   24.9082 C   0  0  0  0  0  0  0  0  0  0  0  0
    9.2103    9.6758   23.1588 C   0  0  1  0  0  0  0  0  0  0  0  0
    7.9173   10.9732   24.7924 C   0  0  0  0  0  0  0  0  0  0  0  0
   10.3652    8.8998   23.7893 C   0  0  0  0  0  0  0  0  0  0  0  0
   12.2160   14.4514   20.2572 C   0  0  0  0  0  0  0  0  0  0  0  0
   10.8934   15.8373   21.8754 C   0  0  0  0  0  0  0  0  0  0  0  0
   13.0300   14.7476   22.6076 C   0  0  0  0  0  0  0  0  0  0  0  0
   11.7875   14.6025   21.7213 C   0  0  0  0  0  0  0  0  0  0  0  0
    5.7611   12.3958   26.2522 N   0  0  0  0  0  0  0  0  0  0  0  0
    9.8193   12.0599   23.6058 N   0  0  0  0  0  0  0  0  0  0  0  0
   11.0460   13.4283   22.1261 N   0  0  0  0  0  0  0  0  0  0  0  0
   10.6516   14.1163   24.2879 O   0  0  0  0  0  0  0  0  0  0  0  0
    8.1281    9.7428   24.0848 O   0  0  0  0  0  0  0  0  0  0  0  0
    8.2432   10.1130   26.7702 H   0  0  0  0  0  0  0  0  0  0  0  0
    6.6367    9.7927   26.1048 H   0  0  0  0  0  0  0  0  0  0  0  0
    5.9442   11.0720   23.8235 H   0  0  0  0  0  0  0  0  0  0  0  0
    7.1419   12.1591   23.1403 H   0  0  0  0  0  0  0  0  0  0  0  0
    6.4752   11.3999   27.9660 H   0  0  0  0  0  0  0  0  0  0  0  0
    7.6320   12.4673   27.1785 H   0  0  0  0  0  0  0  0  0  0  0  0
    6.9968   13.6287   25.1047 H   0  0  0  0  0  0  0  0  0  0  0  0
    5.3904   13.3855   24.4256 H   0  0  0  0  0  0  0  0  0  0  0  0
   10.6185   10.9344   22.0640 H   0  0  0  0  0  0  0  0  0  0  0  0
    8.9177   11.3581   21.8105 H   0  0  0  0  0  0  0  0  0  0  0  0
    9.0401   12.7159   25.4934 H   0  0  0  0  0  0  0  0  0  0  0  0
    9.9668   11.2285   25.4793 H   0  0  0  0  0  0  0  0  0  0  0  0
    8.8565    9.0208   22.2860 H   0  0  0  0  0  0  0  0  0  0  0  0
   10.7679    9.4540   24.6371 H   0  0  0  0  0  0  0  0  0  0  0  0
   11.1578    8.7499   23.0561 H   0  0  0  0  0  0  0  0  0  0  0  0
   10.0155    7.9273   24.1362 H   0  0  0  0  0  0  0  0  0  0  0  0
   12.8579   13.5732   20.1208 H   0  0  0  0  0  0  0  0  0  0  0  0
   11.3486   14.3398   19.5972 H   0  0  0  0  0  0  0  0  0  0  0  0
   12.7864   15.3249   19.9204 H   0  0  0  0  0  0  0  0  0  0  0  0
   10.5737   15.9665   22.9160 H   0  0  0  0  0  0  0  0  0  0  0  0
    9.9861   15.7468   21.2669 H   0  0  0  0  0  0  0  0  0  0  0  0
   11.4164   16.7495   21.5675 H   0  0  0  0  0  0  0  0  0  0  0  0
   12.7522   14.8576   23.6623 H   0  0  0  0  0  0  0  0  0  0  0  0
   13.6863   13.8747   22.5206 H   0  0  0  0  0  0  0  0  0  0  0  0
   13.6118   15.6349   22.3318 H   0  0  0  0  0  0  0  0  0  0  0  0
    4.9914   11.7391   26.1210 H   0  0  0  0  0  0  0  0  0  0  0  0
   10.9013   12.6863   21.4444 H   0  0  0  0  0  0  0  0  0  0  0  0
  1 16  1  0  0  0  0
  1 17  1  0  0  0  0
  1 18  2  0  0  0  0
  2  4  1  0  0  0  0
  2  9  1  0  0  0  0
  3  5  1  0  0  0  0
  3  9  1  0  0  0  0
  4 15  1  0  0  0  0
  5 15  1  0  0  0  0
  6  8  1  0  0  0  0
  6 16  1  0  0  0  0
  7  9  1  0  0  0  0
  7 16  1  0  0  0  0
  8 10  1  0  0  0  0
  8 19  1  0  0  0  0
  9 19  1  0  0  0  0
 11 14  1  0  0  0  0
 12 14  1  0  0  0  0
 13 14  1  0  0  0  0
 14 17  1  0  0  0  0
  2 20  1  0  0  0  0
  2 21  1  0  0  0  0
  3 22  1  0  0  0  0
  3 23  1  0  0  0  0
  4 24  1  0  0  0  0
  4 25  1  0  0  0  0
  5 26  1  0  0  0  0
  5 27  1  0  0  0  0
  6 28  1  0  0  0  0
  6 29  1  0  0  0  0
  7 30  1  0  0  0  0
  7 31  1  0  0  0  0
  8 32  1  0  0  0  0
 10 33  1  0  0  0  0
 10 34  1  0  0  0  0
 10 35  1  0  0  0  0
 11 36  1  0  0  0  0
 11 37  1  0  0  0  0
 11 38  1  0  0  0  0
 12 39  1  0  0  0  0
 12 40  1  0  0  0  0
 12 41  1  0  0  0  0
 13 42  1  0  0  0  0
 13 43  1  0  0  0  0
 13 44  1  0  0  0  0
 15 45  1  0  0  0  0
 17 46  1  0  0  0  0
M  END
> <id>
EN300-842583

> <smiles>
CC1CN(CC2(CCNCC2)O1)C(=O)NC(C)(C)C

> <IUPAC Name>
N-tert-butyl-2-methyl-1-oxa-4,9-diazaspiro[5.5]undecane-4-carboxamide

> <CAS>
2137639-44-0

> <URL>
https://www.enaminestore.com/catalog/EN300-842583

> <ROCS_ShapeQuery>
A71EV2A-x0451_0A_A71EV2A-x0310_0A_A71EV2A-x0416_0A_peptide

> <ROCS_TanimotoCombo>
0.505 

> <ROCS_ShapeTanimoto>
0.334 

> <ROCS_ColorTanimoto>
0.170 

> <ROCS_RefTversky>
0.292 

> <ROCS_RefColorTversky>
0.189 

> <ROCS_RefTverskyCombo>
0.481 

> <ROCS_FitTversky>
1.767 

> <ROCS_FitColorTversky>
0.630 

> <ROCS_FitTverskyCombo>
2.396 

> <ROCS_ColorScore>
-5.784

> <ROCS_Overlap>
2024.912

> <ROCS_Rank>
88                  

$$$$
untitled-dbase-25394_25
  -OEChem-11132313473D

 37 38  0     1  0  0  0  0  0999 V2000
    6.4659   11.5873   26.2238 C   0  0  0  0  0  0  0  0  0  0  0  0
    6.7691   10.5752   25.3254 C   0  0  0  0  0  0  0  0  0  0  0  0
    7.2380   12.7256   26.1795 C   0  0  0  0  0  0  0  0  0  0  0  0
    7.8354   10.7097   24.4193 C   0  0  0  0  0  0  0  0  0  0  0  0
    8.5448   11.9235   24.4196 C   0  0  0  0  0  0  0  0  0  0  0  0
   10.2912   13.3806   23.4248 C   0  0  0  0  0  0  0  0  0  0  0  0
    9.5785    9.7205   22.9333 C   0  0  0  0  0  0  0  0  0  0  0  0
    9.8340   11.1292   22.4315 C   0  0  0  0  0  0  0  0  0  0  0  0
    8.1441    9.5991   23.4383 C   0  0  1  0  0  0  0  0  0  0  0  0
   12.9948   13.7302   22.5368 C   0  0  0  0  0  0  0  0  0  0  0  0
   11.9940   14.8435   20.5199 C   0  0  0  0  0  0  0  0  0  0  0  0
   11.6437   15.8373   22.7998 C   0  0  0  0  0  0  0  0  0  0  0  0
   11.8145   14.5427   22.0063 C   0  0  0  0  0  0  0  0  0  0  0  0
    8.2516   12.9115   25.3074 N   0  0  0  0  0  0  0  0  0  0  0  0
    9.5911   12.1558   23.4526 N   0  0  0  0  0  0  0  0  0  0  0  0
    7.9624    8.2554   23.9987 N   0  0  0  0  0  0  0  0  0  0  0  0
   10.5842   14.0618   24.4054 O   0  0  0  0  0  0  0  0  0  0  0  0
   10.6226   13.7606   22.1475 O   0  0  0  0  0  0  0  0  0  0  0  0
    5.6532   11.4831   26.9333 H   0  0  0  0  0  0  0  0  0  0  0  0
    6.1671    9.6674   25.3291 H   0  0  0  0  0  0  0  0  0  0  0  0
    7.0620   13.5474   26.8646 H   0  0  0  0  0  0  0  0  0  0  0  0
    9.7398    9.0154   22.1143 H   0  0  0  0  0  0  0  0  0  0  0  0
   10.2902    9.4662   23.7196 H   0  0  0  0  0  0  0  0  0  0  0  0
   10.8642   11.2526   22.0867 H   0  0  0  0  0  0  0  0  0  0  0  0
    9.1839   11.3117   21.5721 H   0  0  0  0  0  0  0  0  0  0  0  0
    7.4889    9.6833   22.5632 H   0  0  0  0  0  0  0  0  0  0  0  0
   12.8697   13.5122   23.6035 H   0  0  0  0  0  0  0  0  0  0  0  0
   13.1067   12.7830   21.9991 H   0  0  0  0  0  0  0  0  0  0  0  0
   13.9304   14.2935   22.4441 H   0  0  0  0  0  0  0  0  0  0  0  0
   11.1494   15.4263   20.1350 H   0  0  0  0  0  0  0  0  0  0  0  0
   12.0219   13.9172   19.9348 H   0  0  0  0  0  0  0  0  0  0  0  0
   12.9161   15.4020   20.3292 H   0  0  0  0  0  0  0  0  0  0  0  0
   10.7971   16.4203   22.4194 H   0  0  0  0  0  0  0  0  0  0  0  0
   11.4768   15.6394   23.8635 H   0  0  0  0  0  0  0  0  0  0  0  0
   12.5289   16.4757   22.6990 H   0  0  0  0  0  0  0  0  0  0  0  0
    7.0100    8.1568   24.2540 H   0  0  0  0  0  0  0  0  0  0  0  0
    8.2121    7.5974   23.3010 H   0  0  0  0  0  0  0  0  0  0  0  0
  1  2  1  0  0  0  0
  1  3  2  0  0  0  0
  2  4  2  0  0  0  0
  3 14  1  0  0  0  0
  4  5  1  0  0  0  0
  4  9  1  0  0  0  0
  5 14  2  0  0  0  0
  5 15  1  0  0  0  0
  6 15  1  0  0  0  0
  6 17  2  0  0  0  0
  6 18  1  0  0  0  0
  7  8  1  0  0  0  0
  7  9  1  0  0  0  0
  8 15  1  0  0  0  0
  9 16  1  0  0  0  0
 10 13  1  0  0  0  0
 11 13  1  0  0  0  0
 12 13  1  0  0  0  0
 13 18  1  0  0  0  0
  1 19  1  0  0  0  0
  2 20  1  0  0  0  0
  3 21  1  0  0  0  0
  7 22  1  0  0  0  0
  7 23  1  0  0  0  0
  8 24  1  0  0  0  0
  8 25  1  0  0  0  0
  9 26  1  0  0  0  0
 10 27  1  0  0  0  0
 10 28  1  0  0  0  0
 10 29  1  0  0  0  0
 11 30  1  0  0  0  0
 11 31  1  0  0  0  0
 11 32  1  0  0  0  0
 12 33  1  0  0  0  0
 12 34  1  0  0  0  0
 12 35  1  0  0  0  0
 16 36  1  0  0  0  0
 16 37  1  0  0  0  0
M  END
> <id>
EN300-6504988

> <smiles>
CC(C)(C)OC(=O)N1CCC(N)C=2C=CC=NC12

> <MDLNUMBER>
MFCD28144079

> <IUPAC Name>
tert-butyl 4-amino-1,2,3,4-tetrahydro-1,8-naphthyridine-1-carboxylate

> <CAS>
1822862-83-8

> <Purity>
95

> <URL>
https://www.enaminestore.com/catalog/EN300-6504988

> <ROCS_ShapeQuery>
A71EV2A-x0451_0A_A71EV2A-x0310_0A_A71EV2A-x0416_0A_peptide

> <ROCS_TanimotoCombo>
0.505 

> <ROCS_ShapeTanimoto>
0.340 

> <ROCS_ColorTanimoto>
0.165 

> <ROCS_RefTversky>
0.295 

> <ROCS_RefColorTversky>
0.180 

> <ROCS_RefTverskyCombo>
0.475 

> <ROCS_FitTversky>
1.809 

> <ROCS_FitColorTversky>
0.665 

> <ROCS_FitTverskyCombo>
2.474 

> <ROCS_ColorScore>
-5.484

> <ROCS_Overlap>
2045.046

> <ROCS_Rank>
89                  

$$$$
untitled-dbase-29531_20
  -OEChem-11132313473D

 40 41  0     1  0  0  0  0  0999 V2000
    9.9504   13.3706   23.5410 C   0  0  0  0  0  0  0  0  0  0  0  0
    6.9657   11.5864   24.5098 C   0  0  0  0  0  0  0  0  0  0  0  0
    7.9102   11.3609   25.7077 C   0  0  0  0  0  0  0  0  0  0  0  0
    8.3260   10.6136   22.5720 C   0  0  0  0  0  0  0  0  0  0  0  0
    9.9118   10.2252   24.5857 C   0  0  0  0  0  0  0  0  0  0  0  0
    7.8929   11.8883   23.3272 C   0  0  2  0  0  0  0  0  0  0  0  0
    9.3203   11.5408   25.1366 C   0  0  1  0  0  0  0  0  0  0  0  0
    9.0365    9.5712   23.4810 C   0  0  0  0  0  0  0  0  0  0  0  0
   12.3260   14.1013   22.1297 C   0  0  0  0  0  0  0  0  0  0  0  0
   10.8583   14.2224   20.0949 C   0  0  0  0  0  0  0  0  0  0  0  0
   10.4345   15.7590   22.0359 C   0  0  0  0  0  0  0  0  0  0  0  0
    9.8775    8.6072   22.6390 C   0  0  0  0  0  0  0  0  0  0  0  0
   10.9131   14.3706   21.6139 C   0  0  0  0  0  0  0  0  0  0  0  0
    9.0792   12.3991   23.9933 N   0  0  0  0  0  0  0  0  0  0  0  0
   10.5837   14.1259   24.2748 O   0  0  0  0  0  0  0  0  0  0  0  0
    8.0401    8.7746   24.1351 O   0  0  0  0  0  0  0  0  0  0  0  0
   10.0293   13.3937   22.1748 O   0  0  0  0  0  0  0  0  0  0  0  0
   10.6774    7.4271   23.7089 Cl  0  0  0  0  0  0  0  0  0  0  0  0
    8.8219    7.7465   21.4887 Cl  0  0  0  0  0  0  0  0  0  0  0  0
   11.1121    9.5255   21.7392 Cl  0  0  0  0  0  0  0  0  0  0  0  0
    6.3065   10.7312   24.3335 H   0  0  0  0  0  0  0  0  0  0  0  0
    6.3275   12.4537   24.7180 H   0  0  0  0  0  0  0  0  0  0  0  0
    7.7114   12.1257   26.4681 H   0  0  0  0  0  0  0  0  0  0  0  0
    7.7579   10.3846   26.1776 H   0  0  0  0  0  0  0  0  0  0  0  0
    7.4439   10.1608   22.1019 H   0  0  0  0  0  0  0  0  0  0  0  0
    9.0036   10.9170   21.7629 H   0  0  0  0  0  0  0  0  0  0  0  0
   10.9062   10.4503   24.1777 H   0  0  0  0  0  0  0  0  0  0  0  0
   10.0571    9.5251   25.4177 H   0  0  0  0  0  0  0  0  0  0  0  0
    7.4593   12.6164   22.6353 H   0  0  0  0  0  0  0  0  0  0  0  0
   10.0087   12.0010   25.8523 H   0  0  0  0  0  0  0  0  0  0  0  0
   12.3695   14.2066   23.2197 H   0  0  0  0  0  0  0  0  0  0  0  0
   12.6676   13.0956   21.8637 H   0  0  0  0  0  0  0  0  0  0  0  0
   13.0369   14.8280   21.7203 H   0  0  0  0  0  0  0  0  0  0  0  0
    9.8464   14.4148   19.7204 H   0  0  0  0  0  0  0  0  0  0  0  0
   11.1097   13.1992   19.7933 H   0  0  0  0  0  0  0  0  0  0  0  0
   11.5490   14.9103   19.5967 H   0  0  0  0  0  0  0  0  0  0  0  0
    9.4211   15.9524   21.6660 H   0  0  0  0  0  0  0  0  0  0  0  0
   10.4320   15.8710   23.1250 H   0  0  0  0  0  0  0  0  0  0  0  0
   11.0743   16.5388   21.6071 H   0  0  0  0  0  0  0  0  0  0  0  0
    7.5361    8.3444   23.4304 H   0  0  0  0  0  0  0  0  0  0  0  0
  1 14  1  0  0  0  0
  1 15  2  0  0  0  0
  1 17  1  0  0  0  0
  2  3  1  0  0  0  0
  2  6  1  0  0  0  0
  3  7  1  0  0  0  0
  4  6  1  0  0  0  0
  4  8  1  0  0  0  0
  5  7  1  0  0  0  0
  5  8  1  0  0  0  0
  6 14  1  0  0  0  0
  7 14  1  0  0  0  0
  8 12  1  0  0  0  0
  8 16  1  0  0  0  0
  9 13  1  0  0  0  0
 10 13  1  0  0  0  0
 11 13  1  0  0  0  0
 12 18  1  0  0  0  0
 12 19  1  0  0  0  0
 12 20  1  0  0  0  0
 13 17  1  0  0  0  0
  2 21  1  0  0  0  0
  2 22  1  0  0  0  0
  3 23  1  0  0  0  0
  3 24  1  0  0  0  0
  4 25  1  0  0  0  0
  4 26  1  0  0  0  0
  5 27  1  0  0  0  0
  5 28  1  0  0  0  0
  6 29  1  0  0  0  0
  7 30  1  0  0  0  0
  9 31  1  0  0  0  0
  9 32  1  0  0  0  0
  9 33  1  0  0  0  0
 10 34  1  0  0  0  0
 10 35  1  0  0  0  0
 10 36  1  0  0  0  0
 11 37  1  0  0  0  0
 11 38  1  0  0  0  0
 11 39  1  0  0  0  0
 16 40  1  0  0  0  0
M  END
> <id>
EN300-7472961

> <smiles>
CC(C)(C)OC(=O)N1C2CCC1CC(O)(C2)C(Cl)(Cl)Cl

> <IUPAC Name>
tert-butyl 3-hydroxy-3-(trichloromethyl)-8-azabicyclo[3.2.1]octane-8-carboxylate

> <URL>
https://www.enaminestore.com/catalog/EN300-7472961

> <ROCS_ShapeQuery>
A71EV2A-x0451_0A_A71EV2A-x0310_0A_A71EV2A-x0416_0A_peptide

> <ROCS_TanimotoCombo>
0.504 

> <ROCS_ShapeTanimoto>
0.300 

> <ROCS_ColorTanimoto>
0.204 

> <ROCS_RefTversky>
0.270 

> <ROCS_RefColorTversky>
0.230 

> <ROCS_RefTverskyCombo>
0.500 

> <ROCS_FitTversky>
1.590 

> <ROCS_FitColorTversky>
0.645 

> <ROCS_FitTverskyCombo>
2.235 

> <ROCS_ColorScore>
-7.034

> <ROCS_Overlap>
1874.806

> <ROCS_Rank>
90                  

$$$$
untitled-dbase-45752_0
  -OEChem-11132313473D

 39 40  0     1  0  0  0  0  0999 V2000
    8.0228   12.8024   25.2619 C   0  0  0  0  0  0  0  0  0  0  0  0
    6.9564   12.0421   25.7860 C   0  0  0  0  0  0  0  0  0  0  0  0
    8.6434   11.9684   24.3558 C   0  0  0  0  0  0  0  0  0  0  0  0
   10.4191   13.3105   23.4145 C   0  0  0  0  0  0  0  0  0  0  0  0
    8.2001    9.6237   23.6077 C   0  0  0  0  0  0  0  0  0  0  0  0
   10.1024   10.9454   22.6224 C   0  0  0  0  0  0  0  0  0  0  0  0
    9.6742    9.5873   23.2010 C   0  0  2  0  0  0  0  0  0  0  0  0
    5.9322   12.4299   26.7768 C   0  0  0  0  0  0  0  0  0  0  0  0
    9.9352    8.4619   22.2042 C   0  0  0  0  0  0  0  0  0  0  0  0
   12.8090   14.7996   22.8743 C   0  0  0  0  0  0  0  0  0  0  0  0
   12.0194   14.8499   20.4904 C   0  0  0  0  0  0  0  0  0  0  0  0
   10.6455   15.9434   22.2863 C   0  0  0  0  0  0  0  0  0  0  0  0
   11.5890   14.7882   21.9544 C   0  0  0  0  0  0  0  0  0  0  0  0
    6.8906   10.8165   25.2628 N   0  0  0  0  0  0  0  0  0  0  0  0
    7.9265   10.7997   24.4088 N   0  0  0  0  0  0  0  0  0  0  0  0
    9.7389   12.0827   23.4943 N   0  0  0  0  0  0  0  0  0  0  0  0
   10.5935   14.1025   24.3376 O   0  0  0  0  0  0  0  0  0  0  0  0
   10.8853   13.5551   22.1457 O   0  0  0  0  0  0  0  0  0  0  0  0
    8.2085   14.8008   25.7500 I   0  0  0  0  0  0  0  0  0  0  0  0
    7.5379    9.6775   22.7360 H   0  0  0  0  0  0  0  0  0  0  0  0
    7.9379    8.7395   24.1991 H   0  0  0  0  0  0  0  0  0  0  0  0
   11.1854   10.9320   22.4511 H   0  0  0  0  0  0  0  0  0  0  0  0
    9.6162   11.1260   21.6553 H   0  0  0  0  0  0  0  0  0  0  0  0
   10.2809    9.3955   24.0971 H   0  0  0  0  0  0  0  0  0  0  0  0
    5.0480   12.8651   26.2836 H   0  0  0  0  0  0  0  0  0  0  0  0
    5.5921   11.5695   27.3776 H   0  0  0  0  0  0  0  0  0  0  0  0
    6.3148   13.1729   27.4970 H   0  0  0  0  0  0  0  0  0  0  0  0
    9.3469    8.6225   21.3016 H   0  0  0  0  0  0  0  0  0  0  0  0
    9.6568    7.5052   22.6443 H   0  0  0  0  0  0  0  0  0  0  0  0
   10.9918    8.4381   21.9404 H   0  0  0  0  0  0  0  0  0  0  0  0
   12.5043   14.7554   23.9261 H   0  0  0  0  0  0  0  0  0  0  0  0
   13.4763   13.9560   22.6699 H   0  0  0  0  0  0  0  0  0  0  0  0
   13.3790   15.7283   22.7564 H   0  0  0  0  0  0  0  0  0  0  0  0
   11.1472   14.8419   19.8267 H   0  0  0  0  0  0  0  0  0  0  0  0
   12.6191   13.9725   20.2225 H   0  0  0  0  0  0  0  0  0  0  0  0
   12.6072   15.7491   20.2796 H   0  0  0  0  0  0  0  0  0  0  0  0
    9.7704   15.9354   21.6265 H   0  0  0  0  0  0  0  0  0  0  0  0
   10.2972   15.8944   23.3230 H   0  0  0  0  0  0  0  0  0  0  0  0
   11.1413   16.9084   22.1307 H   0  0  0  0  0  0  0  0  0  0  0  0
  1  2  1  0  0  0  0
  1  3  2  0  0  0  0
  1 19  1  0  0  0  0
  2  8  1  0  0  0  0
  2 14  2  0  0  0  0
  3 15  1  0  0  0  0
  3 16  1  0  0  0  0
  4 16  1  0  0  0  0
  4 17  2  0  0  0  0
  4 18  1  0  0  0  0
  5  7  1  0  0  0  0
  5 15  1  0  0  0  0
  6  7  1  0  0  0  0
  6 16  1  0  0  0  0
  7  9  1  0  0  0  0
 10 13  1  0  0  0  0
 11 13  1  0  0  0  0
 12 13  1  0  0  0  0
 13 18  1  0  0  0  0
 14 15  1  0  0  0  0
  5 20  1  0  0  0  0
  5 21  1  0  0  0  0
  6 22  1  0  0  0  0
  6 23  1  0  0  0  0
  7 24  1  0  0  0  0
  8 25  1  0  0  0  0
  8 26  1  0  0  0  0
  8 27  1  0  0  0  0
  9 28  1  0  0  0  0
  9 29  1  0  0  0  0
  9 30  1  0  0  0  0
 10 31  1  0  0  0  0
 10 32  1  0  0  0  0
 10 33  1  0  0  0  0
 11 34  1  0  0  0  0
 11 35  1  0  0  0  0
 11 36  1  0  0  0  0
 12 37  1  0  0  0  0
 12 38  1  0  0  0  0
 12 39  1  0  0  0  0
M  END
> <id>
EN300-28301539

> <smiles>
CC1CN(C(=O)OC(C)(C)C)C2=C(I)C(C)=NN2C1

> <IUPAC Name>
tert-butyl 3-iodo-2,6-dimethyl-4H,5H,6H,7H-pyrazolo[1,5-a]pyrimidine-4-carboxylate

> <CAS>
2680888-29-1

> <URL>
https://www.enaminestore.com/catalog/EN300-28301539

> <ROCS_ShapeQuery>
A71EV2A-x0451_0A_A71EV2A-x0310_0A_A71EV2A-x0416_0A_peptide

> <ROCS_TanimotoCombo>
0.504 

> <ROCS_ShapeTanimoto>
0.350 

> <ROCS_ColorTanimoto>
0.154 

> <ROCS_RefTversky>
0.303 

> <ROCS_RefColorTversky>
0.166 

> <ROCS_RefTverskyCombo>
0.468 

> <ROCS_FitTversky>
1.809 

> <ROCS_FitColorTversky>
0.689 

> <ROCS_FitTverskyCombo>
2.499 

> <ROCS_ColorScore>
-5.037

> <ROCS_Overlap>
2100.087

> <ROCS_Rank>
91                  

$$$$
untitled-dbase-45453_1
  -OEChem-11132313473D

 45 47  0     1  0  0  0  0  0999 V2000
    7.9300   12.9858   25.1548 C   0  0  0  0  0  0  0  0  0  0  0  0
    6.9134   10.4458   25.5225 C   0  0  0  0  0  0  0  0  0  0  0  0
    8.4776   11.9230   24.4056 C   0  0  0  0  0  0  0  0  0  0  0  0
    7.9527   10.6081   24.5743 C   0  0  0  0  0  0  0  0  0  0  0  0
    6.9080   12.7809   26.0786 C   0  0  0  0  0  0  0  0  0  0  0  0
    6.4030   11.5093   26.2671 C   0  0  0  0  0  0  0  0  0  0  0  0
   10.2888   13.3489   23.3922 C   0  0  0  0  0  0  0  0  0  0  0  0
    9.7989    7.2427   22.6349 C   0  0  0  0  0  0  0  0  0  0  0  0
    8.3705    7.1143   23.1253 C   0  0  0  0  0  0  0  0  0  0  0  0
   10.0101    8.6451   22.0957 C   0  0  0  0  0  0  0  0  0  0  0  0
    8.0392    8.1476   24.1972 C   0  0  0  0  0  0  0  0  0  0  0  0
    9.7702   11.0813   22.4945 C   0  0  0  0  0  0  0  0  0  0  0  0
    9.7303    9.7125   23.1614 C   0  0  1  0  0  0  0  0  0  0  0  0
   12.7664   14.6713   22.8033 C   0  0  0  0  0  0  0  0  0  0  0  0
   11.8641   14.9263   20.4730 C   0  0  0  0  0  0  0  0  0  0  0  0
   10.6796   16.0192   22.3994 C   0  0  0  0  0  0  0  0  0  0  0  0
   11.5048   14.8131   21.9530 C   0  0  0  0  0  0  0  0  0  0  0  0
    9.5305   12.1606   23.4510 N   0  0  0  0  0  0  0  0  0  0  0  0
    8.4369    9.5140   23.8243 N   0  0  2  0  0  0  0  0  0  0  0  0
   10.5789   14.0720   24.3419 O   0  0  0  0  0  0  0  0  0  0  0  0
   10.7105   13.6318   22.1152 O   0  0  0  0  0  0  0  0  0  0  0  0
    6.4223   13.8274   26.7612 F   0  0  0  0  0  0  0  0  0  0  0  0
    5.0154   11.2056   27.5157 Br  0  0  0  0  0  0  0  0  0  0  0  0
    8.2452   14.0142   25.0196 H   0  0  0  0  0  0  0  0  0  0  0  0
    6.4784    9.4678   25.7091 H   0  0  0  0  0  0  0  0  0  0  0  0
   10.5017    7.0391   23.4515 H   0  0  0  0  0  0  0  0  0  0  0  0
    9.9917    6.5062   21.8471 H   0  0  0  0  0  0  0  0  0  0  0  0
    7.6794    7.2313   22.2807 H   0  0  0  0  0  0  0  0  0  0  0  0
    8.2076    6.1073   23.5266 H   0  0  0  0  0  0  0  0  0  0  0  0
   11.0432    8.7418   21.7398 H   0  0  0  0  0  0  0  0  0  0  0  0
    9.3628    8.7999   21.2224 H   0  0  0  0  0  0  0  0  0  0  0  0
    6.9569    8.0733   24.3449 H   0  0  0  0  0  0  0  0  0  0  0  0
    8.5337    7.8728   25.1372 H   0  0  0  0  0  0  0  0  0  0  0  0
   10.7456   11.2060   22.0121 H   0  0  0  0  0  0  0  0  0  0  0  0
    9.0109   11.1705   21.7063 H   0  0  0  0  0  0  0  0  0  0  0  0
   10.5232    9.6533   23.9207 H   0  0  0  0  0  0  0  0  0  0  0  0
   12.5127   14.5898   23.8663 H   0  0  0  0  0  0  0  0  0  0  0  0
   13.3493   13.7901   22.5163 H   0  0  0  0  0  0  0  0  0  0  0  0
   13.4057   15.5561   22.7050 H   0  0  0  0  0  0  0  0  0  0  0  0
   10.9618   15.0282   19.8592 H   0  0  0  0  0  0  0  0  0  0  0  0
   12.3736   14.0206   20.1247 H   0  0  0  0  0  0  0  0  0  0  0  0
   12.5139   15.7859   20.2796 H   0  0  0  0  0  0  0  0  0  0  0  0
    9.7746   16.1212   21.7896 H   0  0  0  0  0  0  0  0  0  0  0  0
   10.3813   15.9374   23.4496 H   0  0  0  0  0  0  0  0  0  0  0  0
   11.2462   16.9485   22.2696 H   0  0  0  0  0  0  0  0  0  0  0  0
  1  3  2  0  0  0  0
  1  5  1  0  0  0  0
  2  4  2  0  0  0  0
  2  6  1  0  0  0  0
  3  4  1  0  0  0  0
  3 18  1  0  0  0  0
  4 19  1  0  0  0  0
  5  6  2  0  0  0  0
  5 22  1  0  0  0  0
  6 23  1  0  0  0  0
  7 18  1  0  0  0  0
  7 20  2  0  0  0  0
  7 21  1  0  0  0  0
  8  9  1  0  0  0  0
  8 10  1  0  0  0  0
  9 11  1  0  0  0  0
 10 13  1  0  0  0  0
 11 19  1  0  0  0  0
 12 13  1  0  0  0  0
 12 18  1  0  0  0  0
 13 19  1  0  0  0  0
 14 17  1  0  0  0  0
 15 17  1  0  0  0  0
 16 17  1  0  0  0  0
 17 21  1  0  0  0  0
  1 24  1  0  0  0  0
  2 25  1  0  0  0  0
  8 26  1  0  0  0  0
  8 27  1  0  0  0  0
  9 28  1  0  0  0  0
  9 29  1  0  0  0  0
 10 30  1  0  0  0  0
 10 31  1  0  0  0  0
 11 32  1  0  0  0  0
 11 33  1  0  0  0  0
 12 34  1  0  0  0  0
 12 35  1  0  0  0  0
 13 36  1  0  0  0  0
 14 37  1  0  0  0  0
 14 38  1  0  0  0  0
 14 39  1  0  0  0  0
 15 40  1  0  0  0  0
 15 41  1  0  0  0  0
 15 42  1  0  0  0  0
 16 43  1  0  0  0  0
 16 44  1  0  0  0  0
 16 45  1  0  0  0  0
M  END
> <id>
EN300-28302225

> <smiles>
CC(C)(C)OC(=O)N1CC2CCCCN2C=3C=C(Br)C(F)=CC13

> <IUPAC Name>
tert-butyl 2-bromo-3-fluoro-5H,6H,6aH,7H,8H,9H,10H-pyrido[1,2-a]quinoxaline-5-carboxylate

> <CAS>
2680742-41-8

> <URL>
https://www.enaminestore.com/catalog/EN300-28302225

> <ROCS_ShapeQuery>
A71EV2A-x0451_0A_A71EV2A-x0310_0A_A71EV2A-x0416_0A_peptide

> <ROCS_TanimotoCombo>
0.504 

> <ROCS_ShapeTanimoto>
0.383 

> <ROCS_ColorTanimoto>
0.121 

> <ROCS_RefTversky>
0.331 

> <ROCS_RefColorTversky>
0.133 

> <ROCS_RefTverskyCombo>
0.464 

> <ROCS_FitTversky>
1.715 

> <ROCS_FitColorTversky>
0.556 

> <ROCS_FitTverskyCombo>
2.271 

> <ROCS_ColorScore>
-4.058

> <ROCS_Overlap>
2296.911

> <ROCS_Rank>
92                  

$$$$
untitled-dbase-26901_20
  -OEChem-11132313473D

 39 41  0     0  0  0  0  0  0999 V2000
    6.3964   11.6601   26.3437 C   0  0  0  0  0  0  0  0  0  0  0  0
    6.8751   12.9417   26.1026 C   0  0  0  0  0  0  0  0  0  0  0  0
    6.9198   10.5851   25.6336 C   0  0  0  0  0  0  0  0  0  0  0  0
    7.8809   13.1535   25.1534 C   0  0  0  0  0  0  0  0  0  0  0  0
    7.9292   10.7954   24.6823 C   0  0  0  0  0  0  0  0  0  0  0  0
    8.4370   12.0871   24.4266 C   0  0  0  0  0  0  0  0  0  0  0  0
    8.4819    9.6101   23.9888 C   0  0  0  0  0  0  0  0  0  0  0  0
   10.2474   13.4630   23.3733 C   0  0  0  0  0  0  0  0  0  0  0  0
   10.9577    9.2805   23.4146 C   0  0  0  0  0  0  0  0  0  0  0  0
   10.1896    8.7365   22.2485 C   0  0  0  0  0  0  0  0  0  0  0  0
    9.6015   11.2383   22.4112 C   0  0  0  0  0  0  0  0  0  0  0  0
    9.6112    9.8803   23.0577 C   0  0  0  0  0  0  0  0  0  0  0  0
   12.9720   13.5339   22.4800 C   0  0  0  0  0  0  0  0  0  0  0  0
   12.0807   14.7044   20.4441 C   0  0  0  0  0  0  0  0  0  0  0  0
   11.8322   15.7664   22.7065 C   0  0  0  0  0  0  0  0  0  0  0  0
   11.8752   14.4479   21.9355 C   0  0  0  0  0  0  0  0  0  0  0  0
    9.4563   12.2970   23.4253 N   0  0  0  0  0  0  0  0  0  0  0  0
    8.0562    8.4799   24.1814 O   0  0  0  0  0  0  0  0  0  0  0  0
   10.6082   14.1316   24.3392 O   0  0  0  0  0  0  0  0  0  0  0  0
   10.6132   13.7877   22.0901 O   0  0  0  0  0  0  0  0  0  0  0  0
    5.6145   11.4990   27.0795 H   0  0  0  0  0  0  0  0  0  0  0  0
    6.4585   13.7864   26.6444 H   0  0  0  0  0  0  0  0  0  0  0  0
    6.5350    9.5896   25.8389 H   0  0  0  0  0  0  0  0  0  0  0  0
    8.1700   14.1845   24.9790 H   0  0  0  0  0  0  0  0  0  0  0  0
   11.0312    8.6612   24.3011 H   0  0  0  0  0  0  0  0  0  0  0  0
   11.8531    9.8541   23.2059 H   0  0  0  0  0  0  0  0  0  0  0  0
   10.5703    8.9449   21.2550 H   0  0  0  0  0  0  0  0  0  0  0  0
    9.7600    7.7470   22.3483 H   0  0  0  0  0  0  0  0  0  0  0  0
   10.5068   11.3847   21.8140 H   0  0  0  0  0  0  0  0  0  0  0  0
    8.7483   11.3257   21.7265 H   0  0  0  0  0  0  0  0  0  0  0  0
   12.8281   13.3474   23.5503 H   0  0  0  0  0  0  0  0  0  0  0  0
   12.9906   12.5713   21.9587 H   0  0  0  0  0  0  0  0  0  0  0  0
   13.9577   14.0021   22.3776 H   0  0  0  0  0  0  0  0  0  0  0  0
   11.2959   15.3597   20.0492 H   0  0  0  0  0  0  0  0  0  0  0  0
   12.0176   13.7698   19.8750 H   0  0  0  0  0  0  0  0  0  0  0  0
   13.0523   15.1674   20.2438 H   0  0  0  0  0  0  0  0  0  0  0  0
   11.0455   16.4222   22.3161 H   0  0  0  0  0  0  0  0  0  0  0  0
   11.6486   15.6039   23.7735 H   0  0  0  0  0  0  0  0  0  0  0  0
   12.7749   16.3141   22.5948 H   0  0  0  0  0  0  0  0  0  0  0  0
  1  2  2  0  0  0  0
  1  3  1  0  0  0  0
  2  4  1  0  0  0  0
  3  5  2  0  0  0  0
  4  6  2  0  0  0  0
  5  6  1  0  0  0  0
  5  7  1  0  0  0  0
  6 17  1  0  0  0  0
  7 12  1  0  0  0  0
  7 18  2  0  0  0  0
  8 17  1  0  0  0  0
  8 19  2  0  0  0  0
  8 20  1  0  0  0  0
  9 10  1  0  0  0  0
  9 12  1  0  0  0  0
 10 12  1  0  0  0  0
 11 12  1  0  0  0  0
 11 17  1  0  0  0  0
 13 16  1  0  0  0  0
 14 16  1  0  0  0  0
 15 16  1  0  0  0  0
 16 20  1  0  0  0  0
  1 21  1  0  0  0  0
  2 22  1  0  0  0  0
  3 23  1  0  0  0  0
  4 24  1  0  0  0  0
  9 25  1  0  0  0  0
  9 26  1  0  0  0  0
 10 27  1  0  0  0  0
 10 28  1  0  0  0  0
 11 29  1  0  0  0  0
 11 30  1  0  0  0  0
 13 31  1  0  0  0  0
 13 32  1  0  0  0  0
 13 33  1  0  0  0  0
 14 34  1  0  0  0  0
 14 35  1  0  0  0  0
 14 36  1  0  0  0  0
 15 37  1  0  0  0  0
 15 38  1  0  0  0  0
 15 39  1  0  0  0  0
M  END
> <id>
EN300-34213337

> <smiles>
CC(C)(C)OC(=O)N1CC2(CC2)C(=O)C=3C=CC=CC13

> <IUPAC Name>
tert-butyl 4'-oxo-2',4'-dihydro-1'H-spiro[cyclopropane-1,3'-quinoline]-1'-carboxylate

> <URL>
https://www.enaminestore.com/catalog/EN300-34213337

> <ROCS_ShapeQuery>
A71EV2A-x0451_0A_A71EV2A-x0310_0A_A71EV2A-x0416_0A_peptide

> <ROCS_TanimotoCombo>
0.504 

> <ROCS_ShapeTanimoto>
0.370 

> <ROCS_ColorTanimoto>
0.134 

> <ROCS_RefTversky>
0.318 

> <ROCS_RefColorTversky>
0.143 

> <ROCS_RefTverskyCombo>
0.461 

> <ROCS_FitTversky>
1.798 

> <ROCS_FitColorTversky>
0.684 

> <ROCS_FitTverskyCombo>
2.482 

> <ROCS_ColorScore>
-4.338

> <ROCS_Overlap>
2206.104

> <ROCS_Rank>
93                  

$$$$
untitled-dbase-28080_31
  -OEChem-11132313473D

 46 48  0     1  0  0  0  0  0999 V2000
    9.8920   13.2768   23.5800 C   0  0  0  0  0  0  0  0  0  0  0  0
    6.9704   11.4174   24.5818 C   0  0  0  0  0  0  0  0  0  0  0  0
    7.9760   11.1283   25.7159 C   0  0  0  0  0  0  0  0  0  0  0  0
    8.2469   10.5713   22.5192 C   0  0  0  0  0  0  0  0  0  0  0  0
    9.9220   10.0726   24.4101 C   0  0  0  0  0  0  0  0  0  0  0  0
    7.2732    7.6899   23.0723 C   0  0  0  0  0  0  0  0  0  0  0  0
    8.1935    6.9476   22.1160 C   0  0  0  0  0  0  0  0  0  0  0  0
    9.8524    8.5849   22.3656 C   0  0  0  0  0  0  0  0  0  0  0  0
    7.8366   11.7897   23.3741 C   0  0  2  0  0  0  0  0  0  0  0  0
    9.3536   11.3412   25.0820 C   0  0  1  0  0  0  0  0  0  0  0  0
    8.9885    9.4414   23.3183 C   0  0  0  0  0  0  0  0  0  0  0  0
   12.1893   14.1205   22.1039 C   0  0  0  0  0  0  0  0  0  0  0  0
   10.6212   14.3580   20.1560 C   0  0  0  0  0  0  0  0  0  0  0  0
   10.2844   15.7620   22.2112 C   0  0  0  0  0  0  0  0  0  0  0  0
   10.7507   14.4085   21.6768 C   0  0  0  0  0  0  0  0  0  0  0  0
    8.0305    8.5359   23.9978 N   0  0  0  0  0  0  0  0  0  0  0  0
    9.0511   12.2696   24.0108 N   0  0  0  0  0  0  0  0  0  0  0  0
   10.5562   13.9897   24.3290 O   0  0  0  0  0  0  0  0  0  0  0  0
    9.0402    7.8702   21.4331 O   0  0  0  0  0  0  0  0  0  0  0  0
    9.9025   13.3887   22.2161 O   0  0  0  0  0  0  0  0  0  0  0  0
    6.2631   10.6080   24.3877 H   0  0  0  0  0  0  0  0  0  0  0  0
    6.3653   12.2857   24.8739 H   0  0  0  0  0  0  0  0  0  0  0  0
    7.8227   11.8702   26.5105 H   0  0  0  0  0  0  0  0  0  0  0  0
    7.8509   10.1491   26.1840 H   0  0  0  0  0  0  0  0  0  0  0  0
    7.3651   10.1877   21.9958 H   0  0  0  0  0  0  0  0  0  0  0  0
    8.9133   10.9345   21.7240 H   0  0  0  0  0  0  0  0  0  0  0  0
   10.8841   10.3380   23.9494 H   0  0  0  0  0  0  0  0  0  0  0  0
   10.1598    9.3268   25.1806 H   0  0  0  0  0  0  0  0  0  0  0  0
    6.5519    8.2928   22.5114 H   0  0  0  0  0  0  0  0  0  0  0  0
    6.6922    6.9633   23.6505 H   0  0  0  0  0  0  0  0  0  0  0  0
    8.8076    6.2058   22.6410 H   0  0  0  0  0  0  0  0  0  0  0  0
    7.6025    6.4145   21.3647 H   0  0  0  0  0  0  0  0  0  0  0  0
   10.5312    9.2206   21.7858 H   0  0  0  0  0  0  0  0  0  0  0  0
   10.4792    7.8719   22.9177 H   0  0  0  0  0  0  0  0  0  0  0  0
    7.3693   12.5564   22.7490 H   0  0  0  0  0  0  0  0  0  0  0  0
   10.0800   11.7594   25.7862 H   0  0  0  0  0  0  0  0  0  0  0  0
   12.2864   14.1558   23.1949 H   0  0  0  0  0  0  0  0  0  0  0  0
   12.5240   13.1376   21.7566 H   0  0  0  0  0  0  0  0  0  0  0  0
   12.8740   14.8791   21.7079 H   0  0  0  0  0  0  0  0  0  0  0  0
    9.5907   14.5641   19.8451 H   0  0  0  0  0  0  0  0  0  0  0  0
   10.8641   13.3589   19.7766 H   0  0  0  0  0  0  0  0  0  0  0  0
   11.2816   15.0835   19.6700 H   0  0  0  0  0  0  0  0  0  0  0  0
    9.2525   15.9688   21.9050 H   0  0  0  0  0  0  0  0  0  0  0  0
   10.3355   15.8034   23.3040 H   0  0  0  0  0  0  0  0  0  0  0  0
   10.8968   16.5741   21.8029 H   0  0  0  0  0  0  0  0  0  0  0  0
    7.3850    9.0199   24.6053 H   0  0  0  0  0  0  0  0  0  0  0  0
  1 17  1  0  0  0  0
  1 18  2  0  0  0  0
  1 20  1  0  0  0  0
  2  3  1  0  0  0  0
  2  9  1  0  0  0  0
  3 10  1  0  0  0  0
  4  9  1  0  0  0  0
  4 11  1  0  0  0  0
  5 10  1  0  0  0  0
  5 11  1  0  0  0  0
  6  7  1  0  0  0  0
  6 16  1  0  0  0  0
  7 19  1  0  0  0  0
  8 11  1  0  0  0  0
  8 19  1  0  0  0  0
  9 17  1  0  0  0  0
 10 17  1  0  0  0  0
 11 16  1  0  0  0  0
 12 15  1  0  0  0  0
 13 15  1  0  0  0  0
 14 15  1  0  0  0  0
 15 20  1  0  0  0  0
  2 21  1  0  0  0  0
  2 22  1  0  0  0  0
  3 23  1  0  0  0  0
  3 24  1  0  0  0  0
  4 25  1  0  0  0  0
  4 26  1  0  0  0  0
  5 27  1  0  0  0  0
  5 28  1  0  0  0  0
  6 29  1  0  0  0  0
  6 30  1  0  0  0  0
  7 31  1  0  0  0  0
  7 32  1  0  0  0  0
  8 33  1  0  0  0  0
  8 34  1  0  0  0  0
  9 35  1  0  0  0  0
 10 36  1  0  0  0  0
 12 37  1  0  0  0  0
 12 38  1  0  0  0  0
 12 39  1  0  0  0  0
 13 40  1  0  0  0  0
 13 41  1  0  0  0  0
 13 42  1  0  0  0  0
 14 43  1  0  0  0  0
 14 44  1  0  0  0  0
 14 45  1  0  0  0  0
 16 46  1  0  0  0  0
M  END
> <id>
EN300-1645387

> <smiles>
CC(C)(C)OC(=O)N1C2CCC1CC3(COCCN3)C2

> <IUPAC Name>
tert-butyl 8-azaspiro[bicyclo[3.2.1]octane-3,3'-morpholine]-8-carboxylate

> <CAS>
2171652-80-3

> <URL>
https://www.enaminestore.com/catalog/EN300-1645387

> <ROCS_ShapeQuery>
A71EV2A-x0451_0A_A71EV2A-x0310_0A_A71EV2A-x0416_0A_peptide

> <ROCS_TanimotoCombo>
0.504 

> <ROCS_ShapeTanimoto>
0.296 

> <ROCS_ColorTanimoto>
0.208 

> <ROCS_RefTversky>
0.269 

> <ROCS_RefColorTversky>
0.244 

> <ROCS_RefTverskyCombo>
0.512 

> <ROCS_FitTversky>
1.534 

> <ROCS_FitColorTversky>
0.585 

> <ROCS_FitTverskyCombo>
2.119 

> <ROCS_ColorScore>
-7.480

> <ROCS_Overlap>
1864.736

> <ROCS_Rank>
94                  

$$$$
untitled-dbase-46963_29
  -OEChem-11132313473D

 35 37  0     1  0  0  0  0  0999 V2000
    6.2100   12.6963   26.4176 C   0  0  0  0  0  0  0  0  0  0  0  0
    7.2463   13.6176   26.4663 C   0  0  0  0  0  0  0  0  0  0  0  0
    6.2979   11.6087   25.5537 C   0  0  0  0  0  0  0  0  0  0  0  0
    8.3691   13.4533   25.6522 C   0  0  0  0  0  0  0  0  0  0  0  0
    7.4169   11.4232   24.7202 C   0  0  0  0  0  0  0  0  0  0  0  0
    8.4739   12.3648   24.7683 C   0  0  0  0  0  0  0  0  0  0  0  0
   10.5169   13.2261   23.6132 C   0  0  0  0  0  0  0  0  0  0  0  0
    9.9598   10.7811   23.5210 C   0  0  0  0  0  0  0  0  0  0  0  0
    7.4525   10.2686   23.7678 C   0  0  1  0  0  0  0  0  0  0  0  0
    8.7673    9.9917   23.1064 C   0  0  2  0  0  0  0  0  0  0  0  0
   12.4229   15.0669   22.5176 C   0  0  0  0  0  0  0  0  0  0  0  0
   12.2434   13.7126   20.4098 C   0  0  0  0  0  0  0  0  0  0  0  0
   10.2241   14.9095   21.3030 C   0  0  0  0  0  0  0  0  0  0  0  0
   11.5149   14.1782   21.6686 C   0  0  0  0  0  0  0  0  0  0  0  0
    9.6439   12.1659   23.9391 N   0  0  0  0  0  0  0  0  0  0  0  0
   10.6811   14.2489   24.2747 O   0  0  0  0  0  0  0  0  0  0  0  0
    8.2470    9.1281   24.1257 O   0  0  0  0  0  0  0  0  0  0  0  0
   11.1785   13.0116   22.4291 O   0  0  0  0  0  0  0  0  0  0  0  0
    5.3330   12.8258   27.0448 H   0  0  0  0  0  0  0  0  0  0  0  0
    7.1805   14.4742   27.1314 H   0  0  0  0  0  0  0  0  0  0  0  0
    5.4819   10.8905   25.5308 H   0  0  0  0  0  0  0  0  0  0  0  0
    9.1258   14.2279   25.7066 H   0  0  0  0  0  0  0  0  0  0  0  0
   10.4457   10.2509   24.3327 H   0  0  0  0  0  0  0  0  0  0  0  0
   10.6566   10.8575   22.6912 H   0  0  0  0  0  0  0  0  0  0  0  0
    6.5646   10.0719   23.1717 H   0  0  0  0  0  0  0  0  0  0  0  0
    8.7994    9.6313   22.1003 H   0  0  0  0  0  0  0  0  0  0  0  0
   11.9036   15.4032   23.4222 H   0  0  0  0  0  0  0  0  0  0  0  0
   13.3364   14.5423   22.8158 H   0  0  0  0  0  0  0  0  0  0  0  0
   12.7070   15.9725   21.9695 H   0  0  0  0  0  0  0  0  0  0  0  0
   11.5957   13.0746   19.7976 H   0  0  0  0  0  0  0  0  0  0  0  0
   13.1193   13.1063   20.6675 H   0  0  0  0  0  0  0  0  0  0  0  0
   12.5748   14.5583   19.7986 H   0  0  0  0  0  0  0  0  0  0  0  0
    9.5727   14.2723   20.6940 H   0  0  0  0  0  0  0  0  0  0  0  0
    9.6693   15.2188   22.1947 H   0  0  0  0  0  0  0  0  0  0  0  0
   10.4378   15.7993   20.6998 H   0  0  0  0  0  0  0  0  0  0  0  0
  1  2  2  0  0  0  0
  1  3  1  0  0  0  0
  2  4  1  0  0  0  0
  3  5  2  0  0  0  0
  4  6  2  0  0  0  0
  5  6  1  0  0  0  0
  5  9  1  0  0  0  0
  6 15  1  0  0  0  0
  7 15  1  0  0  0  0
  7 16  2  0  0  0  0
  7 18  1  0  0  0  0
  8 10  1  0  0  0  0
  8 15  1  0  0  0  0
  9 10  1  0  0  0  0
  9 17  1  0  0  0  0
 10 17  1  0  0  0  0
 11 14  1  0  0  0  0
 12 14  1  0  0  0  0
 13 14  1  0  0  0  0
 14 18  1  0  0  0  0
  1 19  1  0  0  0  0
  2 20  1  0  0  0  0
  3 21  1  0  0  0  0
  4 22  1  0  0  0  0
  8 23  1  0  0  0  0
  8 24  1  0  0  0  0
  9 25  1  0  0  0  0
 10 26  1  0  0  0  0
 11 27  1  0  0  0  0
 11 28  1  0  0  0  0
 11 29  1  0  0  0  0
 12 30  1  0  0  0  0
 12 31  1  0  0  0  0
 12 32  1  0  0  0  0
 13 33  1  0  0  0  0
 13 34  1  0  0  0  0
 13 35  1  0  0  0  0
M  END
> <id>
EN300-219029

> <smiles>
CC(C)(C)OC(=O)N1CC2OC2C=3C=CC=CC13

> <MDLNUMBER>
MFCD24543654

> <IUPAC Name>
tert-butyl 1aH,6H,7H,7aH-oxireno[2,3-c]quinoline-6-carboxylate

> <CAS>
152400-17-4

> <Purity>
95

> <URL>
https://www.enaminestore.com/catalog/EN300-219029

> <ROCS_ShapeQuery>
A71EV2A-x0451_0A_A71EV2A-x0310_0A_A71EV2A-x0416_0A_peptide

> <ROCS_TanimotoCombo>
0.504 

> <ROCS_ShapeTanimoto>
0.325 

> <ROCS_ColorTanimoto>
0.179 

> <ROCS_RefTversky>
0.286 

> <ROCS_RefColorTversky>
0.196 

> <ROCS_RefTverskyCombo>
0.482 

> <ROCS_FitTversky>
1.739 

> <ROCS_FitColorTversky>
0.662 

> <ROCS_FitTverskyCombo>
2.401 

> <ROCS_ColorScore>
-5.994

> <ROCS_Overlap>
1983.198

> <ROCS_Rank>
95                  

$$$$
untitled-dbase-45110_1
  -OEChem-11132313473D

 34 35  0     0  0  0  0  0  0999 V2000
    6.2683   10.9858   25.8749 C   0  0  0  0  0  0  0  0  0  0  0  0
    6.9513   10.0922   25.0445 C   0  0  0  0  0  0  0  0  0  0  0  0
    6.6947   12.3056   26.0020 C   0  0  0  0  0  0  0  0  0  0  0  0
    8.0780   10.5482   24.3378 C   0  0  0  0  0  0  0  0  0  0  0  0
    8.4938   11.8718   24.4736 C   0  0  0  0  0  0  0  0  0  0  0  0
    7.8138   12.7745   25.3054 C   0  0  0  0  0  0  0  0  0  0  0  0
    8.9962    9.9782   23.4391 C   0  0  0  0  0  0  0  0  0  0  0  0
   10.4023   13.1320   23.4432 C   0  0  0  0  0  0  0  0  0  0  0  0
   12.9330   14.2609   22.8396 C   0  0  0  0  0  0  0  0  0  0  0  0
   12.2692   13.9956   20.4316 C   0  0  0  0  0  0  0  0  0  0  0  0
   10.9270   15.4875   21.9418 C   0  0  0  0  0  0  0  0  0  0  0  0
    9.0271    8.5918   22.9401 C   0  0  0  0  0  0  0  0  0  0  0  0
   11.7642   14.2122   21.8565 C   0  0  0  0  0  0  0  0  0  0  0  0
    9.9218   10.8409   23.0265 N   0  0  0  0  0  0  0  0  0  0  0  0
    9.6123   12.0001   23.6608 N   0  0  0  0  0  0  0  0  0  0  0  0
   10.5423   13.9814   24.3077 O   0  0  0  0  0  0  0  0  0  0  0  0
    8.1750   14.0831   25.4795 O   0  0  0  0  0  0  0  0  0  0  0  0
   10.9324   13.0979   22.1930 O   0  0  0  0  0  0  0  0  0  0  0  0
    8.0259    7.7914   23.4326 F   0  0  0  0  0  0  0  0  0  0  0  0
    8.9117    8.4800   21.5765 F   0  0  0  0  0  0  0  0  0  0  0  0
   10.1883    7.9297   23.2487 F   0  0  0  0  0  0  0  0  0  0  0  0
    5.3956   10.6461   26.4260 H   0  0  0  0  0  0  0  0  0  0  0  0
    6.6102    9.0654   24.9525 H   0  0  0  0  0  0  0  0  0  0  0  0
    6.1447   12.9780   26.6567 H   0  0  0  0  0  0  0  0  0  0  0  0
   12.5746   14.4163   23.8635 H   0  0  0  0  0  0  0  0  0  0  0  0
   13.5210   13.3377   22.8133 H   0  0  0  0  0  0  0  0  0  0  0  0
   13.5988   15.1018   22.6141 H   0  0  0  0  0  0  0  0  0  0  0  0
   11.4340   13.9599   19.7229 H   0  0  0  0  0  0  0  0  0  0  0  0
   12.7897   13.0350   20.3438 H   0  0  0  0  0  0  0  0  0  0  0  0
   12.9543   14.7908   20.1205 H   0  0  0  0  0  0  0  0  0  0  0  0
   10.0886   15.4528   21.2367 H   0  0  0  0  0  0  0  0  0  0  0  0
   10.5255   15.6398   22.9489 H   0  0  0  0  0  0  0  0  0  0  0  0
   11.5245   16.3649   21.6687 H   0  0  0  0  0  0  0  0  0  0  0  0
    8.9585   14.2816   24.9470 H   0  0  0  0  0  0  0  0  0  0  0  0
  1  2  1  0  0  0  0
  1  3  2  0  0  0  0
  2  4  2  0  0  0  0
  3  6  1  0  0  0  0
  4  5  1  0  0  0  0
  4  7  1  0  0  0  0
  5  6  2  0  0  0  0
  5 15  1  0  0  0  0
  6 17  1  0  0  0  0
  7 12  1  0  0  0  0
  7 14  2  0  0  0  0
  8 15  1  0  0  0  0
  8 16  2  0  0  0  0
  8 18  1  0  0  0  0
  9 13  1  0  0  0  0
 10 13  1  0  0  0  0
 11 13  1  0  0  0  0
 12 19  1  0  0  0  0
 12 20  1  0  0  0  0
 12 21  1  0  0  0  0
 13 18  1  0  0  0  0
 14 15  1  0  0  0  0
  1 22  1  0  0  0  0
  2 23  1  0  0  0  0
  3 24  1  0  0  0  0
  9 25  1  0  0  0  0
  9 26  1  0  0  0  0
  9 27  1  0  0  0  0
 10 28  1  0  0  0  0
 10 29  1  0  0  0  0
 10 30  1  0  0  0  0
 11 31  1  0  0  0  0
 11 32  1  0  0  0  0
 11 33  1  0  0  0  0
 17 34  1  0  0  0  0
M  END
> <id>
EN300-28262917

> <smiles>
CC(C)(C)OC(=O)N1N=C(C=2C=CC=C(O)C12)C(F)(F)F

> <IUPAC Name>
tert-butyl 7-hydroxy-3-(trifluoromethyl)-1H-indazole-1-carboxylate

> <CAS>
2680737-33-9

> <URL>
https://www.enaminestore.com/catalog/EN300-28262917

> <ROCS_ShapeQuery>
A71EV2A-x0451_0A_A71EV2A-x0310_0A_A71EV2A-x0416_0A_peptide

> <ROCS_TanimotoCombo>
0.504 

> <ROCS_ShapeTanimoto>
0.375 

> <ROCS_ColorTanimoto>
0.129 

> <ROCS_RefTversky>
0.324 

> <ROCS_RefColorTversky>
0.145 

> <ROCS_RefTverskyCombo>
0.469 

> <ROCS_FitTversky>
1.739 

> <ROCS_FitColorTversky>
0.535 

> <ROCS_FitTverskyCombo>
2.274 

> <ROCS_ColorScore>
-4.421

> <ROCS_Overlap>
2246.855

> <ROCS_Rank>
96                  

$$$$
untitled-dbase-44851_4
  -OEChem-11132313473D

 37 38  0     1  0  0  0  0  0999 V2000
    5.7185   13.5875   26.0423 C   0  0  0  0  0  0  0  0  0  0  0  0
    6.1314   11.2212   25.5762 C   0  0  0  0  0  0  0  0  0  0  0  0
    6.9203   10.2028   25.0419 C   0  0  0  0  0  0  0  0  0  0  0  0
    7.7428   12.8986   24.8555 C   0  0  0  0  0  0  0  0  0  0  0  0
    6.5409   12.5591   25.4846 C   0  0  0  0  0  0  0  0  0  0  0  0
    8.1067   10.5488   24.4134 C   0  0  0  0  0  0  0  0  0  0  0  0
    8.5159   11.8804   24.3179 C   0  0  0  0  0  0  0  0  0  0  0  0
   10.5280   13.0981   23.4896 C   0  0  0  0  0  0  0  0  0  0  0  0
    9.1245    9.6185   23.8306 C   0  0  0  0  0  0  0  0  0  0  0  0
   10.0948   10.5986   23.1368 C   0  0  1  0  0  0  0  0  0  0  0  0
    9.9478   10.5223   21.6140 C   0  0  0  0  0  0  0  0  0  0  0  0
   13.1184   14.2984   23.2615 C   0  0  0  0  0  0  0  0  0  0  0  0
   12.8824   13.9001   20.7927 C   0  0  0  0  0  0  0  0  0  0  0  0
   11.2694   15.4201   21.9741 C   0  0  0  0  0  0  0  0  0  0  0  0
   12.1365   14.1681   22.0980 C   0  0  0  0  0  0  0  0  0  0  0  0
    5.0511   14.4220   26.4950 N   0  0  0  0  0  0  0  0  0  0  0  0
    9.7509   11.9562   23.6412 N   0  0  0  0  0  0  0  0  0  0  0  0
   10.5695   14.0469   24.2680 O   0  0  0  0  0  0  0  0  0  0  0  0
   11.2829   13.0450   22.3457 O   0  0  0  0  0  0  0  0  0  0  0  0
    5.1977   10.9607   26.0699 H   0  0  0  0  0  0  0  0  0  0  0  0
    6.6124    9.1661   25.1257 H   0  0  0  0  0  0  0  0  0  0  0  0
    8.0406   13.9389   24.7893 H   0  0  0  0  0  0  0  0  0  0  0  0
    9.6318    9.0804   24.6383 H   0  0  0  0  0  0  0  0  0  0  0  0
    8.6661    8.9066   23.1376 H   0  0  0  0  0  0  0  0  0  0  0  0
   11.1331   10.3700   23.4046 H   0  0  0  0  0  0  0  0  0  0  0  0
    8.9213   10.7473   21.3350 H   0  0  0  0  0  0  0  0  0  0  0  0
   10.2027    9.5220   21.2729 H   0  0  0  0  0  0  0  0  0  0  0  0
   10.6144   11.2432   21.1469 H   0  0  0  0  0  0  0  0  0  0  0  0
   12.5869   14.4909   24.2003 H   0  0  0  0  0  0  0  0  0  0  0  0
   13.7223   13.3932   23.3830 H   0  0  0  0  0  0  0  0  0  0  0  0
   13.7945   15.1475   23.1093 H   0  0  0  0  0  0  0  0  0  0  0  0
   12.1817   13.8059   19.9552 H   0  0  0  0  0  0  0  0  0  0  0  0
   13.4311   12.9527   20.8441 H   0  0  0  0  0  0  0  0  0  0  0  0
   13.5931   14.7002   20.5618 H   0  0  0  0  0  0  0  0  0  0  0  0
   10.5650   15.3269   21.1396 H   0  0  0  0  0  0  0  0  0  0  0  0
   10.6983   15.6074   22.8892 H   0  0  0  0  0  0  0  0  0  0  0  0
   11.8855   16.3013   21.7616 H   0  0  0  0  0  0  0  0  0  0  0  0
  1  5  1  0  0  0  0
  1 16  3  0  0  0  0
  2  3  1  0  0  0  0
  2  5  2  0  0  0  0
  3  6  2  0  0  0  0
  4  5  1  0  0  0  0
  4  7  2  0  0  0  0
  6  7  1  0  0  0  0
  6  9  1  0  0  0  0
  7 17  1  0  0  0  0
  8 17  1  0  0  0  0
  8 18  2  0  0  0  0
  8 19  1  0  0  0  0
  9 10  1  0  0  0  0
 10 11  1  0  0  0  0
 10 17  1  0  0  0  0
 12 15  1  0  0  0  0
 13 15  1  0  0  0  0
 14 15  1  0  0  0  0
 15 19  1  0  0  0  0
  2 20  1  0  0  0  0
  3 21  1  0  0  0  0
  4 22  1  0  0  0  0
  9 23  1  0  0  0  0
  9 24  1  0  0  0  0
 10 25  1  0  0  0  0
 11 26  1  0  0  0  0
 11 27  1  0  0  0  0
 11 28  1  0  0  0  0
 12 29  1  0  0  0  0
 12 30  1  0  0  0  0
 12 31  1  0  0  0  0
 13 32  1  0  0  0  0
 13 33  1  0  0  0  0
 13 34  1  0  0  0  0
 14 35  1  0  0  0  0
 14 36  1  0  0  0  0
 14 37  1  0  0  0  0
M  END
> <id>
EN300-28280478

> <smiles>
CC1CC=2C=CC(C#N)=CC2N1C(=O)OC(C)(C)C

> <IUPAC Name>
tert-butyl 6-cyano-2-methyl-2,3-dihydro-1H-indole-1-carboxylate

> <CAS>
2680859-80-5

> <URL>
https://www.enaminestore.com/catalog/EN300-28280478

> <ROCS_ShapeQuery>
A71EV2A-x0451_0A_A71EV2A-x0310_0A_A71EV2A-x0416_0A_peptide

> <ROCS_TanimotoCombo>
0.504 

> <ROCS_ShapeTanimoto>
0.339 

> <ROCS_ColorTanimoto>
0.165 

> <ROCS_RefTversky>
0.296 

> <ROCS_RefColorTversky>
0.171 

> <ROCS_RefTverskyCombo>
0.467 

> <ROCS_FitTversky>
1.752 

> <ROCS_FitColorTversky>
0.818 

> <ROCS_FitTverskyCombo>
2.570 

> <ROCS_ColorScore>
-5.198

> <ROCS_Overlap>
2053.369

> <ROCS_Rank>
97                  

$$$$
untitled-dbase-46100_10
  -OEChem-11132313473D

 41 43  0     1  0  0  0  0  0999 V2000
    6.6403   11.6957   28.8982 C   0  0  0  0  0  0  0  0  0  0  0  0
    7.9959   11.4399   26.9283 C   0  0  0  0  0  0  0  0  0  0  0  0
    6.8017   11.6983   27.4856 C   0  0  0  0  0  0  0  0  0  0  0  0
    8.1751   11.4388   25.4945 C   0  0  0  0  0  0  0  0  0  0  0  0
    7.1221   11.6994   24.6915 C   0  0  0  0  0  0  0  0  0  0  0  0
    5.6291   11.9914   26.5934 C   0  0  0  0  0  0  0  0  0  0  0  0
   10.3016   13.0892   23.5049 C   0  0  0  0  0  0  0  0  0  0  0  0
    7.2564   11.7087   23.1802 C   0  0  0  0  0  0  0  0  0  0  0  0
    9.5745    9.7003   24.3761 C   0  0  0  0  0  0  0  0  0  0  0  0
    8.9220    9.7827   22.9771 C   0  0  0  0  0  0  0  0  0  0  0  0
    9.5416   11.1380   24.9020 C   0  0  1  0  0  0  0  0  0  0  0  0
    8.6775   11.2839   22.7298 C   0  0  2  0  0  0  0  0  0  0  0  0
   12.7092   14.4960   22.8784 C   0  0  0  0  0  0  0  0  0  0  0  0
   11.9075   14.4340   20.4988 C   0  0  0  0  0  0  0  0  0  0  0  0
   10.5631   15.6456   22.2403 C   0  0  0  0  0  0  0  0  0  0  0  0
   11.4842   14.4577   21.9659 C   0  0  0  0  0  0  0  0  0  0  0  0
    6.5086   11.6939   30.0508 N   0  0  0  0  0  0  0  0  0  0  0  0
    5.8870   11.9685   25.2315 N   0  0  0  0  0  0  0  0  0  0  0  0
    9.6151   11.9013   23.6623 N   0  0  0  0  0  0  0  0  0  0  0  0
    4.5191   12.2330   27.0638 O   0  0  0  0  0  0  0  0  0  0  0  0
   10.4802   13.9085   24.4031 O   0  0  0  0  0  0  0  0  0  0  0  0
   10.7602   13.2499   22.2255 O   0  0  0  0  0  0  0  0  0  0  0  0
    8.8651   11.2218   27.5426 H   0  0  0  0  0  0  0  0  0  0  0  0
    6.5078   11.0462   22.7301 H   0  0  0  0  0  0  0  0  0  0  0  0
    7.0571   12.7263   22.8207 H   0  0  0  0  0  0  0  0  0  0  0  0
    9.0518    8.9868   25.0222 H   0  0  0  0  0  0  0  0  0  0  0  0
   10.6119    9.3603   24.2719 H   0  0  0  0  0  0  0  0  0  0  0  0
    9.6176    9.3814   22.2310 H   0  0  0  0  0  0  0  0  0  0  0  0
    8.0019    9.1912   22.9284 H   0  0  0  0  0  0  0  0  0  0  0  0
   10.3637   11.3879   25.5787 H   0  0  0  0  0  0  0  0  0  0  0  0
    8.8604   11.5693   21.6898 H   0  0  0  0  0  0  0  0  0  0  0  0
   12.4095   14.5131   23.9324 H   0  0  0  0  0  0  0  0  0  0  0  0
   13.3603   13.6309   22.7160 H   0  0  0  0  0  0  0  0  0  0  0  0
   13.2949   15.4067   22.7088 H   0  0  0  0  0  0  0  0  0  0  0  0
   11.0317   14.4066   19.8404 H   0  0  0  0  0  0  0  0  0  0  0  0
   12.4901   13.5330   20.2752 H   0  0  0  0  0  0  0  0  0  0  0  0
   12.5100   15.3101   20.2379 H   0  0  0  0  0  0  0  0  0  0  0  0
    9.6843   15.6184   21.5858 H   0  0  0  0  0  0  0  0  0  0  0  0
   10.2196   15.6580   23.2797 H   0  0  0  0  0  0  0  0  0  0  0  0
   11.0750   16.5920   22.0314 H   0  0  0  0  0  0  0  0  0  0  0  0
    5.1186   12.1617   24.5957 H   0  0  0  0  0  0  0  0  0  0  0  0
  1  3  1  0  0  0  0
  1 17  3  0  0  0  0
  2  3  2  0  0  0  0
  2  4  1  0  0  0  0
  3  6  1  0  0  0  0
  4  5  2  0  0  0  0
  4 11  1  0  0  0  0
  5  8  1  0  0  0  0
  5 18  1  0  0  0  0
  6 18  1  0  0  0  0
  6 20  2  0  0  0  0
  7 19  1  0  0  0  0
  7 21  2  0  0  0  0
  7 22  1  0  0  0  0
  8 12  1  0  0  0  0
  9 10  1  0  0  0  0
  9 11  1  0  0  0  0
 10 12  1  0  0  0  0
 11 19  1  0  0  0  0
 12 19  1  0  0  0  0
 13 16  1  0  0  0  0
 14 16  1  0  0  0  0
 15 16  1  0  0  0  0
 16 22  1  0  0  0  0
  2 23  1  0  0  0  0
  8 24  1  0  0  0  0
  8 25  1  0  0  0  0
  9 26  1  0  0  0  0
  9 27  1  0  0  0  0
 10 28  1  0  0  0  0
 10 29  1  0  0  0  0
 11 30  1  0  0  0  0
 12 31  1  0  0  0  0
 13 32  1  0  0  0  0
 13 33  1  0  0  0  0
 13 34  1  0  0  0  0
 14 35  1  0  0  0  0
 14 36  1  0  0  0  0
 14 37  1  0  0  0  0
 15 38  1  0  0  0  0
 15 39  1  0  0  0  0
 15 40  1  0  0  0  0
 18 41  1  0  0  0  0
M  END
> <id>
EN300-28290555

> <smiles>
CC(C)(C)OC(=O)N1C2CCC1C=3C=C(C#N)C(=O)NC3C2

> <IUPAC Name>
tert-butyl 4-cyano-5-oxo-6,12-diazatricyclo[7.2.1.0,2,7]dodeca-2(7),3-diene-12-carboxylate

> <CAS>
2680708-05-6

> <URL>
https://www.enaminestore.com/catalog/EN300-28290555

> <ROCS_ShapeQuery>
A71EV2A-x0451_0A_A71EV2A-x0310_0A_A71EV2A-x0416_0A_peptide

> <ROCS_TanimotoCombo>
0.504 

> <ROCS_ShapeTanimoto>
0.317 

> <ROCS_ColorTanimoto>
0.187 

> <ROCS_RefTversky>
0.286 

> <ROCS_RefColorTversky>
0.223 

> <ROCS_RefTverskyCombo>
0.509 

> <ROCS_FitTversky>
1.507 

> <ROCS_FitColorTversky>
0.535 

> <ROCS_FitTverskyCombo>
2.041 

> <ROCS_ColorScore>
-6.849

> <ROCS_Overlap>
1989.836

> <ROCS_Rank>
98                  

$$$$
untitled-dbase-32587_8
  -OEChem-11132313473D

 30 31  0     0  0  0  0  0  0999 V2000
   10.9823   11.2830   22.5590 C   0  0  0  0  0  0  0  0  0  0  0  0
    9.2293   11.6596   23.8438 C   0  0  0  0  0  0  0  0  0  0  0  0
    9.3054   10.3300   23.4347 C   0  0  0  0  0  0  0  0  0  0  0  0
    8.1808   12.0600   24.6595 C   0  0  0  0  0  0  0  0  0  0  0  0
    7.4260    9.8773   24.5817 C   0  0  0  0  0  0  0  0  0  0  0  0
   10.7591   13.6037   23.3326 C   0  0  0  0  0  0  0  0  0  0  0  0
   11.9012   16.1740   22.9698 C   0  0  0  0  0  0  0  0  0  0  0  0
   12.1191   15.5262   20.5528 C   0  0  0  0  0  0  0  0  0  0  0  0
    9.8449   15.6701   21.6088 C   0  0  0  0  0  0  0  0  0  0  0  0
   11.3170   15.3306   21.8375 C   0  0  0  0  0  0  0  0  0  0  0  0
   10.3942   10.1125   22.6411 N   0  0  0  0  0  0  0  0  0  0  0  0
    8.4003    9.3881   23.7924 N   0  0  0  0  0  0  0  0  0  0  0  0
    7.2631   11.1396   25.0316 N   0  0  0  0  0  0  0  0  0  0  0  0
   10.3280   12.2747   23.2672 N   0  0  0  0  0  0  0  0  0  0  0  0
    6.4443    8.9481   24.9940 N   0  0  0  0  0  0  0  0  0  0  0  0
   10.5284   14.2829   24.3207 O   0  0  0  0  0  0  0  0  0  0  0  0
   11.4150   13.9503   22.2008 O   0  0  0  0  0  0  0  0  0  0  0  0
    7.8457   13.6054   25.2977 Cl  0  0  0  0  0  0  0  0  0  0  0  0
   11.8901   11.4634   21.9957 H   0  0  0  0  0  0  0  0  0  0  0  0
   11.3282   16.0364   23.8938 H   0  0  0  0  0  0  0  0  0  0  0  0
   12.9466   15.9157   23.1672 H   0  0  0  0  0  0  0  0  0  0  0  0
   11.8481   17.2420   22.7293 H   0  0  0  0  0  0  0  0  0  0  0  0
   11.7035   14.9228   19.7376 H   0  0  0  0  0  0  0  0  0  0  0  0
   13.1552   15.1942   20.6852 H   0  0  0  0  0  0  0  0  0  0  0  0
   12.1285   16.5747   20.2380 H   0  0  0  0  0  0  0  0  0  0  0  0
    9.4256   15.0653   20.7966 H   0  0  0  0  0  0  0  0  0  0  0  0
    9.2471   15.5004   22.5102 H   0  0  0  0  0  0  0  0  0  0  0  0
    9.7289   16.7171   21.3061 H   0  0  0  0  0  0  0  0  0  0  0  0
    6.4896    8.0111   24.6521 H   0  0  0  0  0  0  0  0  0  0  0  0
    5.6734    9.2686   25.5418 H   0  0  0  0  0  0  0  0  0  0  0  0
  1 11  2  0  0  0  0
  1 14  1  0  0  0  0
  2  3  1  0  0  0  0
  2  4  2  0  0  0  0
  2 14  1  0  0  0  0
  3 11  1  0  0  0  0
  3 12  2  0  0  0  0
  4 13  1  0  0  0  0
  4 18  1  0  0  0  0
  5 12  1  0  0  0  0
  5 13  2  0  0  0  0
  5 15  1  0  0  0  0
  6 14  1  0  0  0  0
  6 16  2  0  0  0  0
  6 17  1  0  0  0  0
  7 10  1  0  0  0  0
  8 10  1  0  0  0  0
  9 10  1  0  0  0  0
 10 17  1  0  0  0  0
  1 19  1  0  0  0  0
  7 20  1  0  0  0  0
  7 21  1  0  0  0  0
  7 22  1  0  0  0  0
  8 23  1  0  0  0  0
  8 24  1  0  0  0  0
  8 25  1  0  0  0  0
  9 26  1  0  0  0  0
  9 27  1  0  0  0  0
  9 28  1  0  0  0  0
 15 29  1  0  0  0  0
 15 30  1  0  0  0  0
M  END
> <id>
EN300-178562

> <smiles>
CC(C)(C)OC(=O)N1C=NC=2N=C(N)N=C(Cl)C12

> <MDLNUMBER>
MFCD28023796

> <IUPAC Name>
tert-butyl 2-amino-6-chloro-7H-purine-7-carboxylate

> <CAS>
1803582-00-4

> <Purity>
95

> <URL>
https://www.enaminestore.com/catalog/EN300-178562

> <ROCS_ShapeQuery>
A71EV2A-x0451_0A_A71EV2A-x0310_0A_A71EV2A-x0416_0A_peptide

> <ROCS_TanimotoCombo>
0.504 

> <ROCS_ShapeTanimoto>
0.340 

> <ROCS_ColorTanimoto>
0.163 

> <ROCS_RefTversky>
0.296 

> <ROCS_RefColorTversky>
0.191 

> <ROCS_RefTverskyCombo>
0.488 

> <ROCS_FitTversky>
1.784 

> <ROCS_FitColorTversky>
0.527 

> <ROCS_FitTverskyCombo>
2.310 

> <ROCS_ColorScore>
-5.863

> <ROCS_Overlap>
2054.009

> <ROCS_Rank>
99                  

$$$$
untitled-dbase-680_1
  -OEChem-11132313473D

 23 25  0     0  0  0  0  0  0999 V2000
    6.9947   12.2676   25.7007 C   0  0  0  0  0  0  0  0  0  0  0  0
    7.8500   10.7167   24.5747 C   0  0  0  0  0  0  0  0  0  0  0  0
    9.2795    9.6066   23.2240 C   0  0  0  0  0  0  0  0  0  0  0  0
   10.1747   10.7789   23.0396 C   0  0  0  0  0  0  0  0  0  0  0  0
    9.7954   11.8978   23.6765 C   0  0  0  0  0  0  0  0  0  0  0  0
   10.6714   13.0957   23.5663 C   0  0  0  0  0  0  0  0  0  0  0  0
   11.3689   10.6830   22.1634 C   0  0  0  0  0  0  0  0  0  0  0  0
   11.6262   12.0579   21.5834 C   0  0  0  0  0  0  0  0  0  0  0  0
    6.0604   12.9741   26.5843 C   0  0  0  0  0  0  0  0  0  0  0  0
    6.8201   10.9664   25.3579 N   0  0  0  0  0  0  0  0  0  0  0  0
    8.0665   12.8644   25.1886 N   0  0  0  0  0  0  0  0  0  0  0  0
    8.1953    9.5629   23.9354 N   0  0  0  0  0  0  0  0  0  0  0  0
    8.6330   11.8720   24.4558 N   0  0  0  0  0  0  0  0  0  0  0  0
   10.5398   14.0643   24.3070 O   0  0  0  0  0  0  0  0  0  0  0  0
   11.6535   13.0554   22.6226 O   0  0  0  0  0  0  0  0  0  0  0  0
    5.0056   12.2106   27.0287 F   0  0  0  0  0  0  0  0  0  0  0  0
    6.6264   13.4652   27.7381 F   0  0  0  0  0  0  0  0  0  0  0  0
    5.4703   14.0680   25.9978 F   0  0  0  0  0  0  0  0  0  0  0  0
    9.5861    8.6913   22.6915 H   0  0  0  0  0  0  0  0  0  0  0  0
   12.2518   10.3452   22.7154 H   0  0  0  0  0  0  0  0  0  0  0  0
   11.1661    9.9591   21.3658 H   0  0  0  0  0  0  0  0  0  0  0  0
   12.5765   12.1045   21.0375 H   0  0  0  0  0  0  0  0  0  0  0  0
   10.8288   12.3292   20.8842 H   0  0  0  0  0  0  0  0  0  0  0  0
  1  9  1  0  0  0  0
  1 10  1  0  0  0  0
  1 11  2  0  0  0  0
  2 10  2  0  0  0  0
  2 12  1  0  0  0  0
  2 13  1  0  0  0  0
  3  4  1  0  0  0  0
  3 12  2  0  0  0  0
  4  5  2  0  0  0  0
  4  7  1  0  0  0  0
  5  6  1  0  0  0  0
  5 13  1  0  0  0  0
  6 14  2  0  0  0  0
  6 15  1  0  0  0  0
  7  8  1  0  0  0  0
  8 15  1  0  0  0  0
  9 16  1  0  0  0  0
  9 17  1  0  0  0  0
  9 18  1  0  0  0  0
 11 13  1  0  0  0  0
  3 19  1  0  0  0  0
  7 20  1  0  0  0  0
  7 21  1  0  0  0  0
  8 22  1  0  0  0  0
  8 23  1  0  0  0  0
M  END
> <id>
EN300-31038

> <smiles>
FC(F)(F)C=1N=C2N=CC=3CCOC(=O)C3N2N1

> <MDLNUMBER>
MFCD09971381

> <IUPAC Name>
4-(trifluoromethyl)-12-oxa-2,3,5,7-tetraazatricyclo[7.4.0.0,2,6]trideca-1(9),3,5,7-tetraen-13-one

> <CAS>
1000932-55-7

> <Purity>
95

> <URL>
https://www.enaminestore.com/catalog/EN300-31038

> <ROCS_ShapeQuery>
A71EV2A-x0451_0A_A71EV2A-x0310_0A_A71EV2A-x0416_0A_peptide

> <ROCS_TanimotoCombo>
0.504 

> <ROCS_ShapeTanimoto>
0.322 

> <ROCS_ColorTanimoto>
0.182 

> <ROCS_RefTversky>
0.285 

> <ROCS_RefColorTversky>
0.196 

> <ROCS_RefTverskyCombo>
0.481 

> <ROCS_FitTversky>
1.668 

> <ROCS_FitColorTversky>
0.720 

> <ROCS_FitTverskyCombo>
2.388 

> <ROCS_ColorScore>
-5.963

> <ROCS_Overlap>
1977.814

> <ROCS_Rank>
100                 

$$$$
untitled-dbase-1987_7
  -OEChem-11132313473D

 41 42  0     0  0  0  0  0  0999 V2000
    6.3828   11.2886   26.0657 C   0  0  0  0  0  0  0  0  0  0  0  0
    6.7814   12.5943   25.8190 C   0  0  0  0  0  0  0  0  0  0  0  0
    7.0748   10.2366   25.4732 C   0  0  0  0  0  0  0  0  0  0  0  0
    7.8690   12.8498   24.9798 C   0  0  0  0  0  0  0  0  0  0  0  0
    8.1819   10.4721   24.6376 C   0  0  0  0  0  0  0  0  0  0  0  0
    8.5862   11.8014   24.3781 C   0  0  0  0  0  0  0  0  0  0  0  0
   10.3569   13.2713   23.3773 C   0  0  0  0  0  0  0  0  0  0  0  0
   10.0562   10.8983   22.6154 C   0  0  0  0  0  0  0  0  0  0  0  0
   10.0789    9.5526   23.3528 C   0  0  0  0  0  0  0  0  0  0  0  0
   10.1999    8.4128   22.3313 C   0  0  0  0  0  0  0  0  0  0  0  0
   11.2552    9.4744   24.3379 C   0  0  0  0  0  0  0  0  0  0  0  0
   12.7550   14.7442   22.8225 C   0  0  0  0  0  0  0  0  0  0  0  0
   11.9653   14.7743   20.4383 C   0  0  0  0  0  0  0  0  0  0  0  0
   10.5974   15.8930   22.2231 C   0  0  0  0  0  0  0  0  0  0  0  0
   11.5349   14.7297   21.9029 C   0  0  0  0  0  0  0  0  0  0  0  0
    8.8356    9.3793   24.0822 N   0  0  0  0  0  0  0  0  0  0  0  0
    9.6912   12.0342   23.4823 N   0  0  0  0  0  0  0  0  0  0  0  0
   10.5375   14.0740   24.2896 O   0  0  0  0  0  0  0  0  0  0  0  0
   10.8248   13.5022   22.1068 O   0  0  0  0  0  0  0  0  0  0  0  0
    5.5410   11.0878   26.7212 H   0  0  0  0  0  0  0  0  0  0  0  0
    6.2567   13.4203   26.2908 H   0  0  0  0  0  0  0  0  0  0  0  0
    6.7388    9.2185   25.6602 H   0  0  0  0  0  0  0  0  0  0  0  0
    8.1506   13.8899   24.8587 H   0  0  0  0  0  0  0  0  0  0  0  0
   11.0443   11.1354   22.1974 H   0  0  0  0  0  0  0  0  0  0  0  0
    9.3699   10.8263   21.7645 H   0  0  0  0  0  0  0  0  0  0  0  0
   10.2159    7.4613   22.8538 H   0  0  0  0  0  0  0  0  0  0  0  0
   11.1188    8.5326   21.7656 H   0  0  0  0  0  0  0  0  0  0  0  0
    9.3503    8.4429   21.6560 H   0  0  0  0  0  0  0  0  0  0  0  0
   11.2413    8.5121   24.8411 H   0  0  0  0  0  0  0  0  0  0  0  0
   11.1644   10.2693   25.0723 H   0  0  0  0  0  0  0  0  0  0  0  0
   12.1890    9.5867   23.7948 H   0  0  0  0  0  0  0  0  0  0  0  0
   12.4503   14.7122   23.8747 H   0  0  0  0  0  0  0  0  0  0  0  0
   13.4180   13.8951   22.6266 H   0  0  0  0  0  0  0  0  0  0  0  0
   13.3298   15.6687   22.6951 H   0  0  0  0  0  0  0  0  0  0  0  0
   11.0930   14.7641   19.7748 H   0  0  0  0  0  0  0  0  0  0  0  0
   12.5604   13.8912   20.1793 H   0  0  0  0  0  0  0  0  0  0  0  0
   12.5577   15.6683   20.2184 H   0  0  0  0  0  0  0  0  0  0  0  0
    9.7221   15.8829   21.5636 H   0  0  0  0  0  0  0  0  0  0  0  0
   10.2489   15.8564   23.2604 H   0  0  0  0  0  0  0  0  0  0  0  0
   11.0981   16.8539   22.0577 H   0  0  0  0  0  0  0  0  0  0  0  0
    8.3302    8.5047   23.9962 H   0  0  0  0  0  0  0  0  0  0  0  0
  1  2  2  0  0  0  0
  1  3  1  0  0  0  0
  2  4  1  0  0  0  0
  3  5  2  0  0  0  0
  4  6  2  0  0  0  0
  5  6  1  0  0  0  0
  5 16  1  0  0  0  0
  6 17  1  0  0  0  0
  7 17  1  0  0  0  0
  7 18  2  0  0  0  0
  7 19  1  0  0  0  0
  8  9  1  0  0  0  0
  8 17  1  0  0  0  0
  9 10  1  0  0  0  0
  9 11  1  0  0  0  0
  9 16  1  0  0  0  0
 12 15  1  0  0  0  0
 13 15  1  0  0  0  0
 14 15  1  0  0  0  0
 15 19  1  0  0  0  0
  1 20  1  0  0  0  0
  2 21  1  0  0  0  0
  3 22  1  0  0  0  0
  4 23  1  0  0  0  0
  8 24  1  0  0  0  0
  8 25  1  0  0  0  0
 10 26  1  0  0  0  0
 10 27  1  0  0  0  0
 10 28  1  0  0  0  0
 11 29  1  0  0  0  0
 11 30  1  0  0  0  0
 11 31  1  0  0  0  0
 12 32  1  0  0  0  0
 12 33  1  0  0  0  0
 12 34  1  0  0  0  0
 13 35  1  0  0  0  0
 13 36  1  0  0  0  0
 13 37  1  0  0  0  0
 14 38  1  0  0  0  0
 14 39  1  0  0  0  0
 14 40  1  0  0  0  0
 16 41  1  0  0  0  0
M  END
> <id>
EN300-96500

> <smiles>
CC(C)(C)OC(=O)N1CC(C)(C)NC=2C=CC=CC12

> <MDLNUMBER>
MFCD21602505

> <IUPAC Name>
tert-butyl 3,3-dimethyl-1,2,3,4-tetrahydroquinoxaline-1-carboxylate

> <CAS>
1375472-20-0

> <Purity>
95

> <URL>
https://www.enaminestore.com/catalog/EN300-96500

> <MP>
93-95

> <ROCS_ShapeQuery>
A71EV2A-x0451_0A_A71EV2A-x0310_0A_A71EV2A-x0416_0A_peptide

> <ROCS_TanimotoCombo>
0.503 

> <ROCS_ShapeTanimoto>
0.356 

> <ROCS_ColorTanimoto>
0.147 

> <ROCS_RefTversky>
0.307 

> <ROCS_RefColorTversky>
0.159 

> <ROCS_RefTverskyCombo>
0.466 

> <ROCS_FitTversky>
1.819 

> <ROCS_FitColorTversky>
0.664 

> <ROCS_FitTverskyCombo>
2.483 

> <ROCS_ColorScore>
-4.840

> <ROCS_Overlap>
2129.038

> <ROCS_Rank>
101                 

$$$$
untitled-dbase-44824_2
  -OEChem-11132313473D

 38 39  0     0  0  0  0  0  0999 V2000
    6.7264   10.4687   25.3718 C   0  0  0  0  0  0  0  0  0  0  0  0
    6.1907   11.5037   26.1334 C   0  0  0  0  0  0  0  0  0  0  0  0
    7.9179   13.0321   25.3334 C   0  0  0  0  0  0  0  0  0  0  0  0
    7.8469   10.7552   24.6128 C   0  0  0  0  0  0  0  0  0  0  0  0
    8.4520   12.0007   24.5745 C   0  0  0  0  0  0  0  0  0  0  0  0
    6.7822   12.7762   26.1142 C   0  0  0  0  0  0  0  0  0  0  0  0
    8.5955    9.8729   23.7394 C   0  0  0  0  0  0  0  0  0  0  0  0
   10.3865   13.1120   23.4766 C   0  0  0  0  0  0  0  0  0  0  0  0
    9.7604   10.6335   23.1098 C   0  0  0  0  0  0  0  0  0  0  0  0
    9.5783   10.6324   21.5907 C   0  0  0  0  0  0  0  0  0  0  0  0
   11.0676    9.9670   23.5434 C   0  0  0  0  0  0  0  0  0  0  0  0
   12.9527   14.2363   22.8686 C   0  0  0  0  0  0  0  0  0  0  0  0
   12.2910   13.9693   20.4603 C   0  0  0  0  0  0  0  0  0  0  0  0
   10.9639   15.4838   21.9614 C   0  0  0  0  0  0  0  0  0  0  0  0
   11.7856   14.1979   21.8832 C   0  0  0  0  0  0  0  0  0  0  0  0
    9.5790   11.9969   23.7127 N   0  0  0  0  0  0  0  0  0  0  0  0
    8.3071    8.7025   23.5595 O   0  0  0  0  0  0  0  0  0  0  0  0
   10.6021   14.0228   24.2721 O   0  0  0  0  0  0  0  0  0  0  0  0
   10.9384   13.0939   22.2228 O   0  0  0  0  0  0  0  0  0  0  0  0
    6.2529   13.7608   26.8534 F   0  0  0  0  0  0  0  0  0  0  0  0
    6.2769    9.4825   25.3795 H   0  0  0  0  0  0  0  0  0  0  0  0
    5.3110   11.3280   26.7459 H   0  0  0  0  0  0  0  0  0  0  0  0
    8.3392   14.0293   25.3505 H   0  0  0  0  0  0  0  0  0  0  0  0
   10.3998   11.1705   21.1227 H   0  0  0  0  0  0  0  0  0  0  0  0
    8.6391   11.1178   21.3339 H   0  0  0  0  0  0  0  0  0  0  0  0
    9.5650    9.6083   21.2239 H   0  0  0  0  0  0  0  0  0  0  0  0
   11.9113   10.4951   23.1044 H   0  0  0  0  0  0  0  0  0  0  0  0
   11.0793    8.9318   23.2095 H   0  0  0  0  0  0  0  0  0  0  0  0
   11.1512    9.9954   24.6277 H   0  0  0  0  0  0  0  0  0  0  0  0
   12.5941   14.4002   23.8911 H   0  0  0  0  0  0  0  0  0  0  0  0
   13.5294   13.3059   22.8474 H   0  0  0  0  0  0  0  0  0  0  0  0
   13.6293   15.0681   22.6413 H   0  0  0  0  0  0  0  0  0  0  0  0
   11.4569   13.9410   19.7499 H   0  0  0  0  0  0  0  0  0  0  0  0
   12.7998   13.0021   20.3775 H   0  0  0  0  0  0  0  0  0  0  0  0
   12.9864   14.7548   20.1475 H   0  0  0  0  0  0  0  0  0  0  0  0
   10.1266   15.4565   21.2547 H   0  0  0  0  0  0  0  0  0  0  0  0
   10.5621   15.6451   22.9670 H   0  0  0  0  0  0  0  0  0  0  0  0
   11.5727   16.3526   21.6862 H   0  0  0  0  0  0  0  0  0  0  0  0
  1  2  1  0  0  0  0
  1  4  2  0  0  0  0
  2  6  2  0  0  0  0
  3  5  2  0  0  0  0
  3  6  1  0  0  0  0
  4  5  1  0  0  0  0
  4  7  1  0  0  0  0
  5 16  1  0  0  0  0
  6 20  1  0  0  0  0
  7  9  1  0  0  0  0
  7 17  2  0  0  0  0
  8 16  1  0  0  0  0
  8 18  2  0  0  0  0
  8 19  1  0  0  0  0
  9 10  1  0  0  0  0
  9 11  1  0  0  0  0
  9 16  1  0  0  0  0
 12 15  1  0  0  0  0
 13 15  1  0  0  0  0
 14 15  1  0  0  0  0
 15 19  1  0  0  0  0
  1 21  1  0  0  0  0
  2 22  1  0  0  0  0
  3 23  1  0  0  0  0
 10 24  1  0  0  0  0
 10 25  1  0  0  0  0
 10 26  1  0  0  0  0
 11 27  1  0  0  0  0
 11 28  1  0  0  0  0
 11 29  1  0  0  0  0
 12 30  1  0  0  0  0
 12 31  1  0  0  0  0
 12 32  1  0  0  0  0
 13 33  1  0  0  0  0
 13 34  1  0  0  0  0
 13 35  1  0  0  0  0
 14 36  1  0  0  0  0
 14 37  1  0  0  0  0
 14 38  1  0  0  0  0
M  END
> <id>
EN300-28285731

> <smiles>
CC(C)(C)OC(=O)N1C=2C=C(F)C=CC2C(=O)C1(C)C

> <IUPAC Name>
tert-butyl 6-fluoro-2,2-dimethyl-3-oxo-2,3-dihydro-1H-indole-1-carboxylate

> <CAS>
2680773-03-7

> <URL>
https://www.enaminestore.com/catalog/EN300-28285731

> <ROCS_ShapeQuery>
A71EV2A-x0451_0A_A71EV2A-x0310_0A_A71EV2A-x0416_0A_peptide

> <ROCS_TanimotoCombo>
0.503 

> <ROCS_ShapeTanimoto>
0.365 

> <ROCS_ColorTanimoto>
0.138 

> <ROCS_RefTversky>
0.315 

> <ROCS_RefColorTversky>
0.150 

> <ROCS_RefTverskyCombo>
0.465 

> <ROCS_FitTversky>
1.782 

> <ROCS_FitColorTversky>
0.626 

> <ROCS_FitTverskyCombo>
2.408 

> <ROCS_ColorScore>
-4.568

> <ROCS_Overlap>
2186.186

> <ROCS_Rank>
102                 

$$$$
untitled-dbase-43445_27
  -OEChem-11132313473D

 35 36  0     0  0  0  0  0  0999 V2000
    6.8874   12.4605   26.0206 C   0  0  0  0  0  0  0  0  0  0  0  0
    7.9808   12.7947   25.2115 C   0  0  0  0  0  0  0  0  0  0  0  0
    6.3652   11.1732   26.0031 C   0  0  0  0  0  0  0  0  0  0  0  0
    8.5826   11.8443   24.3727 C   0  0  0  0  0  0  0  0  0  0  0  0
    8.0445   10.5414   24.3832 C   0  0  0  0  0  0  0  0  0  0  0  0
    6.9400   10.2137   25.1794 C   0  0  0  0  0  0  0  0  0  0  0  0
   10.3387   13.3880   23.4315 C   0  0  0  0  0  0  0  0  0  0  0  0
   10.0416   11.0651   22.5593 C   0  0  0  0  0  0  0  0  0  0  0  0
    9.8762    9.7118   23.2149 C   0  0  0  0  0  0  0  0  0  0  0  0
   13.1033   13.7466   22.7490 C   0  0  0  0  0  0  0  0  0  0  0  0
   12.2559   14.6772   20.5753 C   0  0  0  0  0  0  0  0  0  0  0  0
   11.6903   15.8293   22.7342 C   0  0  0  0  0  0  0  0  0  0  0  0
   11.9559   14.4840   22.0602 C   0  0  0  0  0  0  0  0  0  0  0  0
    9.6773   12.1456   23.4871 N   0  0  0  0  0  0  0  0  0  0  0  0
   10.5352   14.1536   24.3707 O   0  0  0  0  0  0  0  0  0  0  0  0
    8.5267    9.5091   23.6163 O   0  0  0  0  0  0  0  0  0  0  0  0
    6.4201    8.9532   25.1694 O   0  0  0  0  0  0  0  0  0  0  0  0
   10.7729   13.6819   22.1607 O   0  0  0  0  0  0  0  0  0  0  0  0
    6.4381   13.2179   26.6573 H   0  0  0  0  0  0  0  0  0  0  0  0
    8.3070   13.8262   25.2593 H   0  0  0  0  0  0  0  0  0  0  0  0
    5.5127   10.9266   26.6293 H   0  0  0  0  0  0  0  0  0  0  0  0
   11.0759   11.1745   22.2194 H   0  0  0  0  0  0  0  0  0  0  0  0
    9.3828   11.1634   21.6878 H   0  0  0  0  0  0  0  0  0  0  0  0
   10.1270    8.9219   22.4990 H   0  0  0  0  0  0  0  0  0  0  0  0
   10.5435    9.5902   24.0778 H   0  0  0  0  0  0  0  0  0  0  0  0
   12.8918   13.6059   23.8151 H   0  0  0  0  0  0  0  0  0  0  0  0
   13.2810   12.7652   22.2973 H   0  0  0  0  0  0  0  0  0  0  0  0
   14.0313   14.3270   22.6920 H   0  0  0  0  0  0  0  0  0  0  0  0
   11.4353   15.2059   20.0770 H   0  0  0  0  0  0  0  0  0  0  0  0
   12.3536   13.7107   20.0678 H   0  0  0  0  0  0  0  0  0  0  0  0
   13.1790   15.2451   20.4202 H   0  0  0  0  0  0  0  0  0  0  0  0
   10.8673   16.3584   22.2403 H   0  0  0  0  0  0  0  0  0  0  0  0
   11.4370   15.7072   23.7923 H   0  0  0  0  0  0  0  0  0  0  0  0
   12.5671   16.4826   22.6592 H   0  0  0  0  0  0  0  0  0  0  0  0
    6.9162    8.3923   24.5533 H   0  0  0  0  0  0  0  0  0  0  0  0
  1  2  1  0  0  0  0
  1  3  2  0  0  0  0
  2  4  2  0  0  0  0
  3  6  1  0  0  0  0
  4  5  1  0  0  0  0
  4 14  1  0  0  0  0
  5  6  2  0  0  0  0
  5 16  1  0  0  0  0
  6 17  1  0  0  0  0
  7 14  1  0  0  0  0
  7 15  2  0  0  0  0
  7 18  1  0  0  0  0
  8  9  1  0  0  0  0
  8 14  1  0  0  0  0
  9 16  1  0  0  0  0
 10 13  1  0  0  0  0
 11 13  1  0  0  0  0
 12 13  1  0  0  0  0
 13 18  1  0  0  0  0
  1 19  1  0  0  0  0
  2 20  1  0  0  0  0
  3 21  1  0  0  0  0
  8 22  1  0  0  0  0
  8 23  1  0  0  0  0
  9 24  1  0  0  0  0
  9 25  1  0  0  0  0
 10 26  1  0  0  0  0
 10 27  1  0  0  0  0
 10 28  1  0  0  0  0
 11 29  1  0  0  0  0
 11 30  1  0  0  0  0
 11 31  1  0  0  0  0
 12 32  1  0  0  0  0
 12 33  1  0  0  0  0
 12 34  1  0  0  0  0
 17 35  1  0  0  0  0
M  END
> <id>
EN300-27736857

> <smiles>
CC(C)(C)OC(=O)N1CCOC=2C(O)=CC=CC12

> <IUPAC Name>
tert-butyl 8-hydroxy-3,4-dihydro-2H-1,4-benzoxazine-4-carboxylate

> <CAS>
2639408-80-1

> <URL>
https://www.enaminestore.com/catalog/EN300-27736857

> <ROCS_ShapeQuery>
A71EV2A-x0451_0A_A71EV2A-x0310_0A_A71EV2A-x0416_0A_peptide

> <ROCS_TanimotoCombo>
0.503 

> <ROCS_ShapeTanimoto>
0.346 

> <ROCS_ColorTanimoto>
0.157 

> <ROCS_RefTversky>
0.299 

> <ROCS_RefColorTversky>
0.173 

> <ROCS_RefTverskyCombo>
0.472 

> <ROCS_FitTversky>
1.823 

> <ROCS_FitColorTversky>
0.639 

> <ROCS_FitTverskyCombo>
2.462 

> <ROCS_ColorScore>
-5.264

> <ROCS_Overlap>
2073.680

> <ROCS_Rank>
103                 

$$$$
untitled-dbase-28579_68
  -OEChem-11132313473D

 43 44  0     0  0  0  0  0  0999 V2000
    7.0994   13.0093   26.2154 C   0  0  0  0  0  0  0  0  0  0  0  0
    6.4481   11.8037   26.4201 C   0  0  0  0  0  0  0  0  0  0  0  0
    8.1079   13.1095   25.2493 C   0  0  0  0  0  0  0  0  0  0  0  0
    6.8017   10.7050   25.6495 C   0  0  0  0  0  0  0  0  0  0  0  0
    8.5207   12.0048   24.4754 C   0  0  0  0  0  0  0  0  0  0  0  0
    7.8320   10.7958   24.6970 C   0  0  0  0  0  0  0  0  0  0  0  0
   10.3375   13.3318   23.3727 C   0  0  0  0  0  0  0  0  0  0  0  0
   10.4125    9.8470   23.5091 C   0  0  0  0  0  0  0  0  0  0  0  0
    9.9203   11.0018   22.6409 C   0  0  0  0  0  0  0  0  0  0  0  0
    9.2605    8.9890   24.0537 C   0  0  0  0  0  0  0  0  0  0  0  0
    9.0977    7.7467   23.1577 C   0  0  0  0  0  0  0  0  0  0  0  0
    9.5428    8.5050   25.4842 C   0  0  0  0  0  0  0  0  0  0  0  0
   12.2066   15.4841   22.8619 C   0  0  0  0  0  0  0  0  0  0  0  0
   12.0463   14.7943   20.4519 C   0  0  0  0  0  0  0  0  0  0  0  0
   10.0074   15.6425   21.6483 C   0  0  0  0  0  0  0  0  0  0  0  0
   11.3132   14.8617   21.7899 C   0  0  0  0  0  0  0  0  0  0  0  0
    9.5483   12.1608   23.4662 N   0  0  0  0  0  0  0  0  0  0  0  0
   10.5177   14.1421   24.2804 O   0  0  0  0  0  0  0  0  0  0  0  0
    7.9919    9.6566   23.9574 O   0  0  0  0  0  0  0  0  0  0  0  0
   11.0003   13.5132   22.1811 O   0  0  0  0  0  0  0  0  0  0  0  0
    6.8148   13.8869   26.7899 H   0  0  0  0  0  0  0  0  0  0  0  0
    5.6712   11.7199   27.1713 H   0  0  0  0  0  0  0  0  0  0  0  0
    8.5222   14.1043   25.0807 H   0  0  0  0  0  0  0  0  0  0  0  0
    6.2853    9.7602   25.8047 H   0  0  0  0  0  0  0  0  0  0  0  0
   11.0637    9.2437   22.8727 H   0  0  0  0  0  0  0  0  0  0  0  0
   11.0350   10.2195   24.3231 H   0  0  0  0  0  0  0  0  0  0  0  0
   10.7025   11.2719   21.9335 H   0  0  0  0  0  0  0  0  0  0  0  0
    9.0603   10.7045   22.0382 H   0  0  0  0  0  0  0  0  0  0  0  0
    8.2856    7.1393   23.5395 H   0  0  0  0  0  0  0  0  0  0  0  0
   10.0203    7.1785   23.1700 H   0  0  0  0  0  0  0  0  0  0  0  0
    8.8750    8.0667   22.1466 H   0  0  0  0  0  0  0  0  0  0  0  0
    8.7072    7.9058   25.8272 H   0  0  0  0  0  0  0  0  0  0  0  0
    9.6685    9.3655   26.1313 H   0  0  0  0  0  0  0  0  0  0  0  0
   10.4480    7.9087   25.4847 H   0  0  0  0  0  0  0  0  0  0  0  0
   11.6840   15.5343   23.8238 H   0  0  0  0  0  0  0  0  0  0  0  0
   13.1310   14.9133   22.9978 H   0  0  0  0  0  0  0  0  0  0  0  0
   12.4716   16.5148   22.5999 H   0  0  0  0  0  0  0  0  0  0  0  0
   11.4090   14.3484   19.6798 H   0  0  0  0  0  0  0  0  0  0  0  0
   12.9345   14.1563   20.5253 H   0  0  0  0  0  0  0  0  0  0  0  0
   12.3595   15.7868   20.1123 H   0  0  0  0  0  0  0  0  0  0  0  0
    9.3663   15.1963   20.8794 H   0  0  0  0  0  0  0  0  0  0  0  0
    9.4497   15.6699   22.5900 H   0  0  0  0  0  0  0  0  0  0  0  0
   10.2021   16.6727   21.3288 H   0  0  0  0  0  0  0  0  0  0  0  0
  1  2  2  0  0  0  0
  1  3  1  0  0  0  0
  2  4  1  0  0  0  0
  3  5  2  0  0  0  0
  4  6  2  0  0  0  0
  5  6  1  0  0  0  0
  5 17  1  0  0  0  0
  6 19  1  0  0  0  0
  7 17  1  0  0  0  0
  7 18  2  0  0  0  0
  7 20  1  0  0  0  0
  8  9  1  0  0  0  0
  8 10  1  0  0  0  0
  9 17  1  0  0  0  0
 10 11  1  0  0  0  0
 10 12  1  0  0  0  0
 10 19  1  0  0  0  0
 13 16  1  0  0  0  0
 14 16  1  0  0  0  0
 15 16  1  0  0  0  0
 16 20  1  0  0  0  0
  1 21  1  0  0  0  0
  2 22  1  0  0  0  0
  3 23  1  0  0  0  0
  4 24  1  0  0  0  0
  8 25  1  0  0  0  0
  8 26  1  0  0  0  0
  9 27  1  0  0  0  0
  9 28  1  0  0  0  0
 11 29  1  0  0  0  0
 11 30  1  0  0  0  0
 11 31  1  0  0  0  0
 12 32  1  0  0  0  0
 12 33  1  0  0  0  0
 12 34  1  0  0  0  0
 13 35  1  0  0  0  0
 13 36  1  0  0  0  0
 13 37  1  0  0  0  0
 14 38  1  0  0  0  0
 14 39  1  0  0  0  0
 14 40  1  0  0  0  0
 15 41  1  0  0  0  0
 15 42  1  0  0  0  0
 15 43  1  0  0  0  0
M  END
> <id>
EN300-37446992

> <smiles>
CC(C)(C)OC(=O)N1CCC(C)(C)OC=2C=CC=CC12

> <IUPAC Name>
tert-butyl 2,2-dimethyl-2,3,4,5-tetrahydro-1,5-benzoxazepine-5-carboxylate

> <URL>
https://www.enaminestore.com/catalog/EN300-37446992

> <ROCS_ShapeQuery>
A71EV2A-x0451_0A_A71EV2A-x0310_0A_A71EV2A-x0416_0A_peptide

> <ROCS_TanimotoCombo>
0.502 

> <ROCS_ShapeTanimoto>
0.362 

> <ROCS_ColorTanimoto>
0.141 

> <ROCS_RefTversky>
0.312 

> <ROCS_RefColorTversky>
0.153 

> <ROCS_RefTverskyCombo>
0.465 

> <ROCS_FitTversky>
1.787 

> <ROCS_FitColorTversky>
0.638 

> <ROCS_FitTverskyCombo>
2.424 

> <ROCS_ColorScore>
-4.648

> <ROCS_Overlap>
2166.306

> <ROCS_Rank>
104                 

$$$$
untitled-dbase-22548_66
  -OEChem-11132313473D

 42 44  0     1  0  0  0  0  0999 V2000
    5.9930   13.4779   26.0684 C   0  0  0  0  0  0  0  0  0  0  0  0
   10.0703   13.1643   23.4518 C   0  0  0  0  0  0  0  0  0  0  0  0
    7.4085   13.5649   25.4792 C   0  0  0  0  0  0  0  0  0  0  0  0
    6.0672   11.9483   26.1750 C   0  0  0  0  0  0  0  0  0  0  0  0
    9.5436    9.6967   24.0626 C   0  0  0  0  0  0  0  0  0  0  0  0
    8.6242    9.9436   22.8552 C   0  0  0  0  0  0  0  0  0  0  0  0
    8.5337   11.2325   25.8073 C   0  0  0  0  0  0  0  0  0  0  0  0
    6.9918   11.6577   23.7623 C   0  0  0  0  0  0  0  0  0  0  0  0
    9.6548   11.0605   24.7581 C   0  0  2  0  0  0  0  0  0  0  0  0
    8.2720   11.4372   22.9246 C   0  0  1  0  0  0  0  0  0  0  0  0
    7.3226   12.0092   25.2373 C   0  0  0  0  0  0  0  0  0  0  0  0
   12.2486   14.6348   22.3301 C   0  0  0  0  0  0  0  0  0  0  0  0
   10.7960   14.8763   20.2952 C   0  0  0  0  0  0  0  0  0  0  0  0
   10.0553   15.8596   22.4844 C   0  0  0  0  0  0  0  0  0  0  0  0
   10.8127   14.7145   21.8136 C   0  0  0  0  0  0  0  0  0  0  0  0
    9.4090   11.9712   23.6568 N   0  0  0  0  0  0  0  0  0  0  0  0
    5.1414   14.2988   26.3348 O   0  0  0  0  0  0  0  0  0  0  0  0
   10.5303   13.8627   24.3521 O   0  0  0  0  0  0  0  0  0  0  0  0
   10.1481   13.4849   22.1237 O   0  0  0  0  0  0  0  0  0  0  0  0
    7.4820   14.1885   24.5876 H   0  0  0  0  0  0  0  0  0  0  0  0
    8.1455   13.8892   26.2177 H   0  0  0  0  0  0  0  0  0  0  0  0
    6.2476   11.6140   27.2034 H   0  0  0  0  0  0  0  0  0  0  0  0
    5.1770   11.4469   25.7849 H   0  0  0  0  0  0  0  0  0  0  0  0
    9.1641    8.9098   24.7214 H   0  0  0  0  0  0  0  0  0  0  0  0
   10.5293    9.3758   23.7040 H   0  0  0  0  0  0  0  0  0  0  0  0
    9.1813    9.7372   21.9328 H   0  0  0  0  0  0  0  0  0  0  0  0
    7.7452    9.2937   22.8536 H   0  0  0  0  0  0  0  0  0  0  0  0
    8.2241   10.2514   26.1853 H   0  0  0  0  0  0  0  0  0  0  0  0
    8.9476   11.7805   26.6639 H   0  0  0  0  0  0  0  0  0  0  0  0
    6.4298   12.4832   23.3096 H   0  0  0  0  0  0  0  0  0  0  0  0
    6.3523   10.7713   23.7060 H   0  0  0  0  0  0  0  0  0  0  0  0
   10.6358   11.2028   25.2160 H   0  0  0  0  0  0  0  0  0  0  0  0
    8.1673   11.8802   21.9364 H   0  0  0  0  0  0  0  0  0  0  0  0
   12.2649   14.5186   23.4197 H   0  0  0  0  0  0  0  0  0  0  0  0
   12.7922   13.7962   21.8828 H   0  0  0  0  0  0  0  0  0  0  0  0
   12.7954   15.5587   22.1095 H   0  0  0  0  0  0  0  0  0  0  0  0
    9.7677   14.9340   19.9203 H   0  0  0  0  0  0  0  0  0  0  0  0
   11.2550   14.0100   19.8053 H   0  0  0  0  0  0  0  0  0  0  0  0
   11.3313   15.7774   19.9789 H   0  0  0  0  0  0  0  0  0  0  0  0
    9.0253   15.9170   22.1141 H   0  0  0  0  0  0  0  0  0  0  0  0
   10.0252   15.7406   23.5723 H   0  0  0  0  0  0  0  0  0  0  0  0
   10.5215   16.8239   22.2523 H   0  0  0  0  0  0  0  0  0  0  0  0
  1  3  1  0  0  0  0
  1  4  1  0  0  0  0
  1 17  2  0  0  0  0
  2 16  1  0  0  0  0
  2 18  2  0  0  0  0
  2 19  1  0  0  0  0
  3 11  1  0  0  0  0
  4 11  1  0  0  0  0
  5  6  1  0  0  0  0
  5  9  1  0  0  0  0
  6 10  1  0  0  0  0
  7  9  1  0  0  0  0
  7 11  1  0  0  0  0
  8 10  1  0  0  0  0
  8 11  1  0  0  0  0
  9 16  1  0  0  0  0
 10 16  1  0  0  0  0
 12 15  1  0  0  0  0
 13 15  1  0  0  0  0
 14 15  1  0  0  0  0
 15 19  1  0  0  0  0
  3 20  1  0  0  0  0
  3 21  1  0  0  0  0
  4 22  1  0  0  0  0
  4 23  1  0  0  0  0
  5 24  1  0  0  0  0
  5 25  1  0  0  0  0
  6 26  1  0  0  0  0
  6 27  1  0  0  0  0
  7 28  1  0  0  0  0
  7 29  1  0  0  0  0
  8 30  1  0  0  0  0
  8 31  1  0  0  0  0
  9 32  1  0  0  0  0
 10 33  1  0  0  0  0
 12 34  1  0  0  0  0
 12 35  1  0  0  0  0
 12 36  1  0  0  0  0
 13 37  1  0  0  0  0
 13 38  1  0  0  0  0
 13 39  1  0  0  0  0
 14 40  1  0  0  0  0
 14 41  1  0  0  0  0
 14 42  1  0  0  0  0
M  END
> <id>
EN300-7492019

> <smiles>
CC(C)(C)OC(=O)N1C2CCC1CC3(CC(=O)C3)C2

> <MDLNUMBER>
MFCD32640433

> <IUPAC Name>
tert-butyl 3'-oxo-8-azaspiro[bicyclo[3.2.1]octane-3,1'-cyclobutane]-8-carboxylate

> <CAS>
2314381-33-2

> <Purity>
95

> <URL>
https://www.enaminestore.com/catalog/EN300-7492019

> <ROCS_ShapeQuery>
A71EV2A-x0451_0A_A71EV2A-x0310_0A_A71EV2A-x0416_0A_peptide

> <ROCS_TanimotoCombo>
0.502 

> <ROCS_ShapeTanimoto>
0.302 

> <ROCS_ColorTanimoto>
0.200 

> <ROCS_RefTversky>
0.271 

> <ROCS_RefColorTversky>
0.226 

> <ROCS_RefTverskyCombo>
0.497 

> <ROCS_FitTversky>
1.608 

> <ROCS_FitColorTversky>
0.633 

> <ROCS_FitTverskyCombo>
2.241 

> <ROCS_ColorScore>
-6.922

> <ROCS_Overlap>
1882.621

> <ROCS_Rank>
105                 

$$$$
untitled-dbase-45455_19
  -OEChem-11132313473D

 42 44  0     0  0  0  0  0  0999 V2000
    6.1188   11.4454   26.1144 C   0  0  0  0  0  0  0  0  0  0  0  0
    6.6815   12.7295   26.1196 C   0  0  0  0  0  0  0  0  0  0  0  0
    6.6971   10.4326   25.3566 C   0  0  0  0  0  0  0  0  0  0  0  0
    7.8299   13.0199   25.3673 C   0  0  0  0  0  0  0  0  0  0  0  0
    7.8289   10.7539   24.6273 C   0  0  0  0  0  0  0  0  0  0  0  0
    8.4113   12.0125   24.6101 C   0  0  0  0  0  0  0  0  0  0  0  0
    8.6113    9.8907   23.7663 C   0  0  0  0  0  0  0  0  0  0  0  0
   10.3971   13.1064   23.4767 C   0  0  0  0  0  0  0  0  0  0  0  0
   11.4519    9.1367   22.3938 C   0  0  0  0  0  0  0  0  0  0  0  0
   11.0187    9.9674   21.1969 C   0  0  0  0  0  0  0  0  0  0  0  0
   11.1040   10.0227   23.5842 C   0  0  0  0  0  0  0  0  0  0  0  0
    9.7207   10.6439   21.6359 C   0  0  0  0  0  0  0  0  0  0  0  0
    9.7768   10.6779   23.1738 C   0  0  0  0  0  0  0  0  0  0  0  0
   12.2366   15.0782   22.5077 C   0  0  0  0  0  0  0  0  0  0  0  0
   11.8841   14.0246   20.2549 C   0  0  0  0  0  0  0  0  0  0  0  0
    9.9519   15.0933   21.4519 C   0  0  0  0  0  0  0  0  0  0  0  0
   11.2570   14.3159   21.6166 C   0  0  0  0  0  0  0  0  0  0  0  0
    9.5542   12.0264   23.7681 N   0  0  0  0  0  0  0  0  0  0  0  0
    8.3484    8.7163   23.5751 O   0  0  0  0  0  0  0  0  0  0  0  0
   10.6194   14.0271   24.2633 O   0  0  0  0  0  0  0  0  0  0  0  0
   10.9633   13.0572   22.2346 O   0  0  0  0  0  0  0  0  0  0  0  0
    5.2297   11.2435   26.7039 H   0  0  0  0  0  0  0  0  0  0  0  0
    6.2212   13.5135   26.7167 H   0  0  0  0  0  0  0  0  0  0  0  0
    6.2725    9.4353   25.3433 H   0  0  0  0  0  0  0  0  0  0  0  0
    8.2247   14.0293   25.4041 H   0  0  0  0  0  0  0  0  0  0  0  0
   10.9485    8.1733   22.4331 H   0  0  0  0  0  0  0  0  0  0  0  0
   12.5285    8.9654   22.3569 H   0  0  0  0  0  0  0  0  0  0  0  0
   11.7837   10.6992   20.9013 H   0  0  0  0  0  0  0  0  0  0  0  0
   10.8348    9.3165   20.3280 H   0  0  0  0  0  0  0  0  0  0  0  0
   10.9948    9.4142   24.4826 H   0  0  0  0  0  0  0  0  0  0  0  0
   11.9025   10.7387   23.7721 H   0  0  0  0  0  0  0  0  0  0  0  0
    9.6838   11.6558   21.2030 H   0  0  0  0  0  0  0  0  0  0  0  0
    8.8440   10.1028   21.2443 H   0  0  0  0  0  0  0  0  0  0  0  0
   11.7902   15.2892   23.4860 H   0  0  0  0  0  0  0  0  0  0  0  0
   13.1631   14.5156   22.6622 H   0  0  0  0  0  0  0  0  0  0  0  0
   12.4907   16.0494   22.0679 H   0  0  0  0  0  0  0  0  0  0  0  0
   11.1848   13.4777   19.6123 H   0  0  0  0  0  0  0  0  0  0  0  0
   12.7690   13.3867   20.3612 H   0  0  0  0  0  0  0  0  0  0  0  0
   12.1799   14.9450   19.7411 H   0  0  0  0  0  0  0  0  0  0  0  0
    9.2491   14.5467   20.8127 H   0  0  0  0  0  0  0  0  0  0  0  0
    9.4688   15.2794   22.4166 H   0  0  0  0  0  0  0  0  0  0  0  0
   10.1315   16.0566   20.9608 H   0  0  0  0  0  0  0  0  0  0  0  0
  1  2  2  0  0  0  0
  1  3  1  0  0  0  0
  2  4  1  0  0  0  0
  3  5  2  0  0  0  0
  4  6  2  0  0  0  0
  5  6  1  0  0  0  0
  5  7  1  0  0  0  0
  6 18  1  0  0  0  0
  7 13  1  0  0  0  0
  7 19  2  0  0  0  0
  8 18  1  0  0  0  0
  8 20  2  0  0  0  0
  8 21  1  0  0  0  0
  9 10  1  0  0  0  0
  9 11  1  0  0  0  0
 10 12  1  0  0  0  0
 11 13  1  0  0  0  0
 12 13  1  0  0  0  0
 13 18  1  0  0  0  0
 14 17  1  0  0  0  0
 15 17  1  0  0  0  0
 16 17  1  0  0  0  0
 17 21  1  0  0  0  0
  1 22  1  0  0  0  0
  2 23  1  0  0  0  0
  3 24  1  0  0  0  0
  4 25  1  0  0  0  0
  9 26  1  0  0  0  0
  9 27  1  0  0  0  0
 10 28  1  0  0  0  0
 10 29  1  0  0  0  0
 11 30  1  0  0  0  0
 11 31  1  0  0  0  0
 12 32  1  0  0  0  0
 12 33  1  0  0  0  0
 14 34  1  0  0  0  0
 14 35  1  0  0  0  0
 14 36  1  0  0  0  0
 15 37  1  0  0  0  0
 15 38  1  0  0  0  0
 15 39  1  0  0  0  0
 16 40  1  0  0  0  0
 16 41  1  0  0  0  0
 16 42  1  0  0  0  0
M  END
> <id>
EN300-28287577

> <smiles>
CC(C)(C)OC(=O)N1C=2C=CC=CC2C(=O)C31CCCC3

> <IUPAC Name>
tert-butyl 3'-oxo-1',3'-dihydrospiro[cyclopentane-1,2'-indole]-1'-carboxylate

> <CAS>
1808094-97-4

> <URL>
https://www.enaminestore.com/catalog/EN300-28287577

> <ROCS_ShapeQuery>
A71EV2A-x0451_0A_A71EV2A-x0310_0A_A71EV2A-x0416_0A_peptide

> <ROCS_TanimotoCombo>
0.502 

> <ROCS_ShapeTanimoto>
0.364 

> <ROCS_ColorTanimoto>
0.138 

> <ROCS_RefTversky>
0.316 

> <ROCS_RefColorTversky>
0.150 

> <ROCS_RefTverskyCombo>
0.466 

> <ROCS_FitTversky>
1.717 

> <ROCS_FitColorTversky>
0.625 

> <ROCS_FitTverskyCombo>
2.342 

> <ROCS_ColorScore>
-4.565

> <ROCS_Overlap>
2196.354

> <ROCS_Rank>
106                 

$$$$
untitled-dbase-34778_23
  -OEChem-11132313473D

 43 45  0     1  0  0  0  0  0999 V2000
   10.5604   13.0777   23.3015 C   0  0  0  0  0  0  0  0  0  0  0  0
    9.4849    9.8509   24.4473 C   0  0  0  0  0  0  0  0  0  0  0  0
    8.7891    9.9437   23.0736 C   0  0  0  0  0  0  0  0  0  0  0  0
    8.5357   11.9058   25.6509 C   0  0  0  0  0  0  0  0  0  0  0  0
    7.3744   12.0653   23.3435 C   0  0  0  0  0  0  0  0  0  0  0  0
    5.4546   12.0507   26.3727 C   0  0  0  0  0  0  0  0  0  0  0  0
    5.3480   10.7205   25.6723 C   0  0  0  0  0  0  0  0  0  0  0  0
    9.7237   11.3049   24.8666 C   0  0  2  0  0  0  0  0  0  0  0  0
    8.6759   11.4454   22.7889 C   0  0  1  0  0  0  0  0  0  0  0  0
    7.1897   11.8419   24.8717 C   0  0  0  0  0  0  0  0  0  0  0  0
   12.2539   15.1050   22.2103 C   0  0  0  0  0  0  0  0  0  0  0  0
   11.5154   14.2540   19.9654 C   0  0  0  0  0  0  0  0  0  0  0  0
    9.8275   15.2241   21.5522 C   0  0  0  0  0  0  0  0  0  0  0  0
   11.1265   14.4285   21.4319 C   0  0  0  0  0  0  0  0  0  0  0  0
    6.2447   12.8347   25.4258 N   0  0  0  0  0  0  0  0  0  0  0  0
    9.7631   11.9869   23.5874 N   0  0  0  0  0  0  0  0  0  0  0  0
   10.9117   13.9130   24.1316 O   0  0  0  0  0  0  0  0  0  0  0  0
    6.6287   10.5258   25.0691 O   0  0  0  0  0  0  0  0  0  0  0  0
   10.9139   13.1229   21.9801 O   0  0  0  0  0  0  0  0  0  0  0  0
    8.8967    9.2835   25.1746 H   0  0  0  0  0  0  0  0  0  0  0  0
   10.4436    9.3322   24.3267 H   0  0  0  0  0  0  0  0  0  0  0  0
    9.4259    9.4655   22.3194 H   0  0  0  0  0  0  0  0  0  0  0  0
    7.8243    9.4281   23.0593 H   0  0  0  0  0  0  0  0  0  0  0  0
    8.4435   11.3819   26.6107 H   0  0  0  0  0  0  0  0  0  0  0  0
    8.7813   12.9527   25.8764 H   0  0  0  0  0  0  0  0  0  0  0  0
    7.4027   13.1422   23.1274 H   0  0  0  0  0  0  0  0  0  0  0  0
    6.5186   11.6483   22.7975 H   0  0  0  0  0  0  0  0  0  0  0  0
    4.4799   12.4999   26.5817 H   0  0  0  0  0  0  0  0  0  0  0  0
    6.0032   11.9568   27.3167 H   0  0  0  0  0  0  0  0  0  0  0  0
    5.1364    9.8962   26.3585 H   0  0  0  0  0  0  0  0  0  0  0  0
    4.5909   10.7317   24.8802 H   0  0  0  0  0  0  0  0  0  0  0  0
   10.6561   11.4343   25.4247 H   0  0  0  0  0  0  0  0  0  0  0  0
    8.7878   11.6755   21.7254 H   0  0  0  0  0  0  0  0  0  0  0  0
   11.9786   15.2321   23.2634 H   0  0  0  0  0  0  0  0  0  0  0  0
   13.1820   14.5263   22.1609 H   0  0  0  0  0  0  0  0  0  0  0  0
   12.4512   16.1096   21.8190 H   0  0  0  0  0  0  0  0  0  0  0  0
   10.7094   13.7689   19.4031 H   0  0  0  0  0  0  0  0  0  0  0  0
   12.3931   13.6046   19.8690 H   0  0  0  0  0  0  0  0  0  0  0  0
   11.7406   15.2141   19.4901 H   0  0  0  0  0  0  0  0  0  0  0  0
    9.0186   14.7390   20.9939 H   0  0  0  0  0  0  0  0  0  0  0  0
    9.5132   15.3277   22.5959 H   0  0  0  0  0  0  0  0  0  0  0  0
    9.9427   16.2256   21.1222 H   0  0  0  0  0  0  0  0  0  0  0  0
    5.6216   13.1478   24.6803 H   0  0  0  0  0  0  0  0  0  0  0  0
  1 16  1  0  0  0  0
  1 17  2  0  0  0  0
  1 19  1  0  0  0  0
  2  3  1  0  0  0  0
  2  8  1  0  0  0  0
  3  9  1  0  0  0  0
  4  8  1  0  0  0  0
  4 10  1  0  0  0  0
  5  9  1  0  0  0  0
  5 10  1  0  0  0  0
  6  7  1  0  0  0  0
  6 15  1  0  0  0  0
  7 18  1  0  0  0  0
  8 16  1  0  0  0  0
  9 16  1  0  0  0  0
 10 15  1  0  0  0  0
 10 18  1  0  0  0  0
 11 14  1  0  0  0  0
 12 14  1  0  0  0  0
 13 14  1  0  0  0  0
 14 19  1  0  0  0  0
  2 20  1  0  0  0  0
  2 21  1  0  0  0  0
  3 22  1  0  0  0  0
  3 23  1  0  0  0  0
  4 24  1  0  0  0  0
  4 25  1  0  0  0  0
  5 26  1  0  0  0  0
  5 27  1  0  0  0  0
  6 28  1  0  0  0  0
  6 29  1  0  0  0  0
  7 30  1  0  0  0  0
  7 31  1  0  0  0  0
  8 32  1  0  0  0  0
  9 33  1  0  0  0  0
 11 34  1  0  0  0  0
 11 35  1  0  0  0  0
 11 36  1  0  0  0  0
 12 37  1  0  0  0  0
 12 38  1  0  0  0  0
 12 39  1  0  0  0  0
 13 40  1  0  0  0  0
 13 41  1  0  0  0  0
 13 42  1  0  0  0  0
 15 43  1  0  0  0  0
M  END
> <id>
EN300-1645522

> <smiles>
CC(C)(C)OC(=O)N1C2CCC1CC3(C2)NCCO3

> <IUPAC Name>
tert-butyl 8-azaspiro[bicyclo[3.2.1]octane-3,2'-[1,3]oxazolidine]-8-carboxylate

> <CAS>
2171919-84-7

> <URL>
https://www.enaminestore.com/catalog/EN300-1645522

> <ROCS_ShapeQuery>
A71EV2A-x0451_0A_A71EV2A-x0310_0A_A71EV2A-x0416_0A_peptide

> <ROCS_TanimotoCombo>
0.502 

> <ROCS_ShapeTanimoto>
0.315 

> <ROCS_ColorTanimoto>
0.187 

> <ROCS_RefTversky>
0.280 

> <ROCS_RefColorTversky>
0.223 

> <ROCS_RefTverskyCombo>
0.504 

> <ROCS_FitTversky>
1.647 

> <ROCS_FitColorTversky>
0.535 

> <ROCS_FitTverskyCombo>
2.182 

> <ROCS_ColorScore>
-6.853

> <ROCS_Overlap>
1945.979

> <ROCS_Rank>
107                 

$$$$
untitled-dbase-5963_14
  -OEChem-11132313473D

 37 38  0     0  0  0  0  0  0999 V2000
    4.8703   12.0114   26.7761 C   0  0  0  0  0  0  0  0  0  0  0  0
    6.7392   13.2232   25.7754 C   0  0  0  0  0  0  0  0  0  0  0  0
    7.8984   13.2470   24.9914 C   0  0  0  0  0  0  0  0  0  0  0  0
    6.5334   10.8656   25.3996 C   0  0  0  0  0  0  0  0  0  0  0  0
    6.0573   12.0335   25.9820 C   0  0  0  0  0  0  0  0  0  0  0  0
    7.7049   10.8738   24.6194 C   0  0  0  0  0  0  0  0  0  0  0  0
    8.4141   12.0790   24.4023 C   0  0  0  0  0  0  0  0  0  0  0  0
   10.4511   13.2047   23.4336 C   0  0  0  0  0  0  0  0  0  0  0  0
    8.1305    9.5686   24.0002 C   0  0  0  0  0  0  0  0  0  0  0  0
    9.5971    9.5923   23.6244 C   0  0  0  0  0  0  0  0  0  0  0  0
    9.8997   10.8474   22.8272 C   0  0  0  0  0  0  0  0  0  0  0  0
   12.3245   15.2330   22.6490 C   0  0  0  0  0  0  0  0  0  0  0  0
   11.9978   14.3717   20.3122 C   0  0  0  0  0  0  0  0  0  0  0  0
   10.0563   15.3559   21.5652 C   0  0  0  0  0  0  0  0  0  0  0  0
   11.3525   14.5556   21.6840 C   0  0  0  0  0  0  0  0  0  0  0  0
    3.9059   11.9934   27.4213 N   0  0  0  0  0  0  0  0  0  0  0  0
    9.6045   12.0825   23.5771 N   0  0  0  0  0  0  0  0  0  0  0  0
   10.6779   14.0607   24.2842 O   0  0  0  0  0  0  0  0  0  0  0  0
   11.0394   13.2529   22.1919 O   0  0  0  0  0  0  0  0  0  0  0  0
    6.3782   14.1539   26.2077 H   0  0  0  0  0  0  0  0  0  0  0  0
    8.3452   14.2229   24.8450 H   0  0  0  0  0  0  0  0  0  0  0  0
    5.9961    9.9296   25.5454 H   0  0  0  0  0  0  0  0  0  0  0  0
    7.9567    8.7398   24.6967 H   0  0  0  0  0  0  0  0  0  0  0  0
    7.5168    9.3904   23.1086 H   0  0  0  0  0  0  0  0  0  0  0  0
   10.2247    9.5657   24.5244 H   0  0  0  0  0  0  0  0  0  0  0  0
    9.8442    8.7016   23.0357 H   0  0  0  0  0  0  0  0  0  0  0  0
   10.9556   10.8168   22.5398 H   0  0  0  0  0  0  0  0  0  0  0  0
    9.3120   10.8812   21.9014 H   0  0  0  0  0  0  0  0  0  0  0  0
   11.8650   15.3668   23.6348 H   0  0  0  0  0  0  0  0  0  0  0  0
   13.2440   14.6511   22.7699 H   0  0  0  0  0  0  0  0  0  0  0  0
   12.5930   16.2348   22.2945 H   0  0  0  0  0  0  0  0  0  0  0  0
   11.3039   13.8860   19.6166 H   0  0  0  0  0  0  0  0  0  0  0  0
   12.8758   13.7191   20.3782 H   0  0  0  0  0  0  0  0  0  0  0  0
   12.3085   15.3285   19.8803 H   0  0  0  0  0  0  0  0  0  0  0  0
    9.3589   14.8702   20.8731 H   0  0  0  0  0  0  0  0  0  0  0  0
    9.5601   15.4663   22.5348 H   0  0  0  0  0  0  0  0  0  0  0  0
   10.2509   16.3546   21.1578 H   0  0  0  0  0  0  0  0  0  0  0  0
  1  5  1  0  0  0  0
  1 16  3  0  0  0  0
  2  3  1  0  0  0  0
  2  5  2  0  0  0  0
  3  7  2  0  0  0  0
  4  5  1  0  0  0  0
  4  6  2  0  0  0  0
  6  7  1  0  0  0  0
  6  9  1  0  0  0  0
  7 17  1  0  0  0  0
  8 17  1  0  0  0  0
  8 18  2  0  0  0  0
  8 19  1  0  0  0  0
  9 10  1  0  0  0  0
 10 11  1  0  0  0  0
 11 17  1  0  0  0  0
 12 15  1  0  0  0  0
 13 15  1  0  0  0  0
 14 15  1  0  0  0  0
 15 19  1  0  0  0  0
  2 20  1  0  0  0  0
  3 21  1  0  0  0  0
  4 22  1  0  0  0  0
  9 23  1  0  0  0  0
  9 24  1  0  0  0  0
 10 25  1  0  0  0  0
 10 26  1  0  0  0  0
 11 27  1  0  0  0  0
 11 28  1  0  0  0  0
 12 29  1  0  0  0  0
 12 30  1  0  0  0  0
 12 31  1  0  0  0  0
 13 32  1  0  0  0  0
 13 33  1  0  0  0  0
 13 34  1  0  0  0  0
 14 35  1  0  0  0  0
 14 36  1  0  0  0  0
 14 37  1  0  0  0  0
M  END
> <id>
EN300-221199

> <smiles>
CC(C)(C)OC(=O)N1CCCC=2C=C(C#N)C=CC12

> <MDLNUMBER>
MFCD27918619

> <IUPAC Name>
tert-butyl 6-cyano-1,2,3,4-tetrahydroquinoline-1-carboxylate

> <CAS>
1820604-90-7

> <Purity>
95

> <URL>
https://www.enaminestore.com/catalog/EN300-221199

> <ROCS_ShapeQuery>
A71EV2A-x0451_0A_A71EV2A-x0310_0A_A71EV2A-x0416_0A_peptide

> <ROCS_TanimotoCombo>
0.502 

> <ROCS_ShapeTanimoto>
0.349 

> <ROCS_ColorTanimoto>
0.153 

> <ROCS_RefTversky>
0.302 

> <ROCS_RefColorTversky>
0.160 

> <ROCS_RefTverskyCombo>
0.462 

> <ROCS_FitTversky>
1.798 

> <ROCS_FitColorTversky>
0.767 

> <ROCS_FitTverskyCombo>
2.565 

> <ROCS_ColorScore>
-4.862

> <ROCS_Overlap>
2097.836

> <ROCS_Rank>
108                 

$$$$
untitled-dbase-45440_3
  -OEChem-11132313473D

 34 35  0     0  0  0  0  0  0999 V2000
    7.9513   13.0324   25.3047 C   0  0  0  0  0  0  0  0  0  0  0  0
    6.6933   10.5606   25.5364 C   0  0  0  0  0  0  0  0  0  0  0  0
    8.4450   11.9602   24.5459 C   0  0  0  0  0  0  0  0  0  0  0  0
    7.7980   10.7160   24.6897 C   0  0  0  0  0  0  0  0  0  0  0  0
    6.8575   12.8708   26.1645 C   0  0  0  0  0  0  0  0  0  0  0  0
    6.2269   11.6381   26.2786 C   0  0  0  0  0  0  0  0  0  0  0  0
   10.2982   13.2514   23.4273 C   0  0  0  0  0  0  0  0  0  0  0  0
    9.7783   10.8935   22.7828 C   0  0  0  0  0  0  0  0  0  0  0  0
    9.5172    9.6256   23.5655 C   0  0  0  0  0  0  0  0  0  0  0  0
   12.7711   14.5070   22.6889 C   0  0  0  0  0  0  0  0  0  0  0  0
   11.8668   14.4914   20.3455 C   0  0  0  0  0  0  0  0  0  0  0  0
   10.6794   15.7929   22.1357 C   0  0  0  0  0  0  0  0  0  0  0  0
   11.5086   14.5466   21.8291 C   0  0  0  0  0  0  0  0  0  0  0  0
    9.5349   12.0821   23.6130 N   0  0  0  0  0  0  0  0  0  0  0  0
   10.5868   14.0794   24.2864 O   0  0  0  0  0  0  0  0  0  0  0  0
    8.1676    9.5796   24.0127 O   0  0  0  0  0  0  0  0  0  0  0  0
   10.7185   13.3886   22.1257 O   0  0  0  0  0  0  0  0  0  0  0  0
    6.4227   13.9290   26.8650 F   0  0  0  0  0  0  0  0  0  0  0  0
    4.7441   11.4196   27.4290 Br  0  0  0  0  0  0  0  0  0  0  0  0
    8.3661   14.0310   25.2495 H   0  0  0  0  0  0  0  0  0  0  0  0
    6.2116    9.5882   25.6138 H   0  0  0  0  0  0  0  0  0  0  0  0
   10.8079   10.8803   22.4125 H   0  0  0  0  0  0  0  0  0  0  0  0
    9.1053   10.9696   21.9200 H   0  0  0  0  0  0  0  0  0  0  0  0
    9.6787    8.7547   22.9213 H   0  0  0  0  0  0  0  0  0  0  0  0
   10.1967    9.5253   24.4216 H   0  0  0  0  0  0  0  0  0  0  0  0
   12.5183   14.5464   23.7545 H   0  0  0  0  0  0  0  0  0  0  0  0
   13.3570   13.6008   22.5038 H   0  0  0  0  0  0  0  0  0  0  0  0
   13.4073   15.3770   22.4897 H   0  0  0  0  0  0  0  0  0  0  0  0
   10.9639   14.5195   19.7249 H   0  0  0  0  0  0  0  0  0  0  0  0
   12.3794   13.5536   20.1024 H   0  0  0  0  0  0  0  0  0  0  0  0
   12.5135   15.3255   20.0548 H   0  0  0  0  0  0  0  0  0  0  0  0
    9.7738   15.8215   21.5191 H   0  0  0  0  0  0  0  0  0  0  0  0
   10.3819   15.8304   23.1886 H   0  0  0  0  0  0  0  0  0  0  0  0
   11.2426   16.7032   21.9003 H   0  0  0  0  0  0  0  0  0  0  0  0
  1  3  2  0  0  0  0
  1  5  1  0  0  0  0
  2  4  2  0  0  0  0
  2  6  1  0  0  0  0
  3  4  1  0  0  0  0
  3 14  1  0  0  0  0
  4 16  1  0  0  0  0
  5  6  2  0  0  0  0
  5 18  1  0  0  0  0
  6 19  1  0  0  0  0
  7 14  1  0  0  0  0
  7 15  2  0  0  0  0
  7 17  1  0  0  0  0
  8  9  1  0  0  0  0
  8 14  1  0  0  0  0
  9 16  1  0  0  0  0
 10 13  1  0  0  0  0
 11 13  1  0  0  0  0
 12 13  1  0  0  0  0
 13 17  1  0  0  0  0
  1 20  1  0  0  0  0
  2 21  1  0  0  0  0
  8 22  1  0  0  0  0
  8 23  1  0  0  0  0
  9 24  1  0  0  0  0
  9 25  1  0  0  0  0
 10 26  1  0  0  0  0
 10 27  1  0  0  0  0
 10 28  1  0  0  0  0
 11 29  1  0  0  0  0
 11 30  1  0  0  0  0
 11 31  1  0  0  0  0
 12 32  1  0  0  0  0
 12 33  1  0  0  0  0
 12 34  1  0  0  0  0
M  END
> <id>
EN300-28295857

> <smiles>
CC(C)(C)OC(=O)N1CCOC=2C=C(Br)C(F)=CC12

> <IUPAC Name>
tert-butyl 7-bromo-6-fluoro-3,4-dihydro-2H-1,4-benzoxazine-4-carboxylate

> <CAS>
2407436-45-5

> <URL>
https://www.enaminestore.com/catalog/EN300-28295857

> <ROCS_ShapeQuery>
A71EV2A-x0451_0A_A71EV2A-x0310_0A_A71EV2A-x0416_0A_peptide

> <ROCS_TanimotoCombo>
0.502 

> <ROCS_ShapeTanimoto>
0.347 

> <ROCS_ColorTanimoto>
0.154 

> <ROCS_RefTversky>
0.301 

> <ROCS_RefColorTversky>
0.166 

> <ROCS_RefTverskyCombo>
0.467 

> <ROCS_FitTversky>
1.791 

> <ROCS_FitColorTversky>
0.691 

> <ROCS_FitTverskyCombo>
2.482 

> <ROCS_ColorScore>
-5.039

> <ROCS_Overlap>
2089.618

> <ROCS_Rank>
109                 

$$$$
untitled-dbase-45354_12
  -OEChem-11132313473D

 37 39  0     1  0  0  0  0  0999 V2000
    7.8313   13.3070   25.2600 C   0  0  0  0  0  0  0  0  0  0  0  0
    6.8715   13.1690   26.2650 C   0  0  0  0  0  0  0  0  0  0  0  0
    6.8617   10.7947   25.9163 C   0  0  0  0  0  0  0  0  0  0  0  0
    7.8273   10.9063   24.8963 C   0  0  0  0  0  0  0  0  0  0  0  0
    8.3315   12.1885   24.5686 C   0  0  0  0  0  0  0  0  0  0  0  0
    6.3887   11.9124   26.5971 C   0  0  0  0  0  0  0  0  0  0  0  0
   10.1492   13.4632   23.4150 C   0  0  0  0  0  0  0  0  0  0  0  0
    9.7953    9.3259   24.2433 C   0  0  0  0  0  0  0  0  0  0  0  0
    9.4193   11.2506   22.5088 C   0  0  0  0  0  0  0  0  0  0  0  0
    8.3223    9.6662   24.2065 C   0  0  2  0  0  0  0  0  0  0  0  0
    9.1662    9.8621   22.9874 C   0  0  2  0  0  0  0  0  0  0  0  0
   12.8275   13.4404   22.3899 C   0  0  0  0  0  0  0  0  0  0  0  0
   11.8703   14.5963   20.3757 C   0  0  0  0  0  0  0  0  0  0  0  0
   11.7609   15.7079   22.6252 C   0  0  0  0  0  0  0  0  0  0  0  0
   11.7307   14.3742   21.8801 C   0  0  0  0  0  0  0  0  0  0  0  0
    9.3283   12.3188   23.5279 N   0  0  0  0  0  0  0  0  0  0  0  0
   10.5741   14.1390   24.3494 O   0  0  0  0  0  0  0  0  0  0  0  0
   10.4602   13.7527   22.1086 O   0  0  0  0  0  0  0  0  0  0  0  0
    5.0909   11.7194   27.9557 Br  0  0  0  0  0  0  0  0  0  0  0  0
    8.1341   14.3194   25.0136 H   0  0  0  0  0  0  0  0  0  0  0  0
    6.5064   14.0594   26.7708 H   0  0  0  0  0  0  0  0  0  0  0  0
    6.4840    9.8063   26.1741 H   0  0  0  0  0  0  0  0  0  0  0  0
   10.4710    9.9628   24.8011 H   0  0  0  0  0  0  0  0  0  0  0  0
   10.0661    8.2766   24.2614 H   0  0  0  0  0  0  0  0  0  0  0  0
   10.4102   11.2639   22.0426 H   0  0  0  0  0  0  0  0  0  0  0  0
    8.6939   11.5079   21.7272 H   0  0  0  0  0  0  0  0  0  0  0  0
    7.6399    8.8198   24.1726 H   0  0  0  0  0  0  0  0  0  0  0  0
    9.0428    9.1681   22.1639 H   0  0  0  0  0  0  0  0  0  0  0  0
   12.7307   13.2784   23.4694 H   0  0  0  0  0  0  0  0  0  0  0  0
   12.7946   12.4678   21.8880 H   0  0  0  0  0  0  0  0  0  0  0  0
   13.8194   13.8786   22.2307 H   0  0  0  0  0  0  0  0  0  0  0  0
   11.0854   15.2658   20.0056 H   0  0  0  0  0  0  0  0  0  0  0  0
   11.7544   13.6532   19.8295 H   0  0  0  0  0  0  0  0  0  0  0  0
   12.8433   15.0279   20.1196 H   0  0  0  0  0  0  0  0  0  0  0  0
   10.9743   16.3779   22.2598 H   0  0  0  0  0  0  0  0  0  0  0  0
   11.6250   15.5709   23.7029 H   0  0  0  0  0  0  0  0  0  0  0  0
   12.7116   16.2267   22.4572 H   0  0  0  0  0  0  0  0  0  0  0  0
  1  2  1  0  0  0  0
  1  5  2  0  0  0  0
  2  6  2  0  0  0  0
  3  4  2  0  0  0  0
  3  6  1  0  0  0  0
  4  5  1  0  0  0  0
  4 10  1  0  0  0  0
  5 16  1  0  0  0  0
  6 19  1  0  0  0  0
  7 16  1  0  0  0  0
  7 17  2  0  0  0  0
  7 18  1  0  0  0  0
  8 10  1  0  0  0  0
  8 11  1  0  0  0  0
  9 11  1  0  0  0  0
  9 16  1  0  0  0  0
 10 11  1  0  0  0  0
 12 15  1  0  0  0  0
 13 15  1  0  0  0  0
 14 15  1  0  0  0  0
 15 18  1  0  0  0  0
  1 20  1  0  0  0  0
  2 21  1  0  0  0  0
  3 22  1  0  0  0  0
  8 23  1  0  0  0  0
  8 24  1  0  0  0  0
  9 25  1  0  0  0  0
  9 26  1  0  0  0  0
 10 27  1  0  0  0  0
 11 28  1  0  0  0  0
 12 29  1  0  0  0  0
 12 30  1  0  0  0  0
 12 31  1  0  0  0  0
 13 32  1  0  0  0  0
 13 33  1  0  0  0  0
 13 34  1  0  0  0  0
 14 35  1  0  0  0  0
 14 36  1  0  0  0  0
 14 37  1  0  0  0  0
M  END
> <id>
EN300-28294467

> <smiles>
CC(C)(C)OC(=O)N1CC2CC2C=3C=C(Br)C=CC13

> <IUPAC Name>
tert-butyl 6-bromo-1H,1aH,2H,3H,7bH-cyclopropa[c]quinoline-3-carboxylate

> <CAS>
2417969-69-6

> <URL>
https://www.enaminestore.com/catalog/EN300-28294467

> <ROCS_ShapeQuery>
A71EV2A-x0451_0A_A71EV2A-x0310_0A_A71EV2A-x0416_0A_peptide

> <ROCS_TanimotoCombo>
0.502 

> <ROCS_ShapeTanimoto>
0.345 

> <ROCS_ColorTanimoto>
0.157 

> <ROCS_RefTversky>
0.299 

> <ROCS_RefColorTversky>
0.176 

> <ROCS_RefTverskyCombo>
0.475 

> <ROCS_FitTversky>
1.782 

> <ROCS_FitColorTversky>
0.594 

> <ROCS_FitTverskyCombo>
2.376 

> <ROCS_ColorScore>
-5.365

> <ROCS_Overlap>
2076.959

> <ROCS_Rank>
110                 

$$$$
untitled-dbase-53259_4
  -OEChem-11132313473D

 36 37  0     0  0  0  0  0  0999 V2000
    7.8222   13.1786   25.1946 C   0  0  0  0  0  0  0  0  0  0  0  0
    6.6614   13.1140   25.9758 C   0  0  0  0  0  0  0  0  0  0  0  0
    6.4567   10.7720   25.4941 C   0  0  0  0  0  0  0  0  0  0  0  0
    8.3301   12.0401   24.5505 C   0  0  0  0  0  0  0  0  0  0  0  0
    5.9774   11.9138   26.1235 C   0  0  0  0  0  0  0  0  0  0  0  0
    7.6271   10.8311   24.7272 C   0  0  0  0  0  0  0  0  0  0  0  0
   10.3103   13.1877   23.4947 C   0  0  0  0  0  0  0  0  0  0  0  0
    9.7505   10.8089   22.9723 C   0  0  0  0  0  0  0  0  0  0  0  0
    9.3830    9.6083   23.8161 C   0  0  0  0  0  0  0  0  0  0  0  0
   12.8781   14.3062   22.8676 C   0  0  0  0  0  0  0  0  0  0  0  0
   12.1526   14.1559   20.4675 C   0  0  0  0  0  0  0  0  0  0  0  0
   10.8847   15.6183   22.0681 C   0  0  0  0  0  0  0  0  0  0  0  0
   11.6862   14.3269   21.9116 C   0  0  0  0  0  0  0  0  0  0  0  0
    9.4911   12.0602   23.6990 N   0  0  0  0  0  0  0  0  0  0  0  0
    4.8050   11.8566   26.9030 N   0  0  0  0  0  0  0  0  0  0  0  0
   10.5650   14.0641   24.3158 O   0  0  0  0  0  0  0  0  0  0  0  0
    8.0028    9.6384   24.1592 O   0  0  0  0  0  0  0  0  0  0  0  0
   10.8323   13.2194   22.2234 O   0  0  0  0  0  0  0  0  0  0  0  0
    8.2775   14.1570   25.1041 H   0  0  0  0  0  0  0  0  0  0  0  0
    6.2966   14.0189   26.4563 H   0  0  0  0  0  0  0  0  0  0  0  0
    5.9289    9.8270   25.6029 H   0  0  0  0  0  0  0  0  0  0  0  0
   10.8038   10.7357   22.6848 H   0  0  0  0  0  0  0  0  0  0  0  0
    9.1477   10.8464   22.0568 H   0  0  0  0  0  0  0  0  0  0  0  0
    9.5590    8.6895   23.2466 H   0  0  0  0  0  0  0  0  0  0  0  0
    9.9920    9.5457   24.7272 H   0  0  0  0  0  0  0  0  0  0  0  0
   12.5475   14.4286   23.9052 H   0  0  0  0  0  0  0  0  0  0  0  0
   13.4411   13.3703   22.7901 H   0  0  0  0  0  0  0  0  0  0  0  0
   13.5602   15.1386   22.6602 H   0  0  0  0  0  0  0  0  0  0  0  0
   11.3007   14.1702   19.7781 H   0  0  0  0  0  0  0  0  0  0  0  0
   12.6458   13.1870   20.3287 H   0  0  0  0  0  0  0  0  0  0  0  0
   12.8508   14.9458   20.1722 H   0  0  0  0  0  0  0  0  0  0  0  0
   10.0297   15.6334   21.3825 H   0  0  0  0  0  0  0  0  0  0  0  0
   10.5104   15.7394   23.0898 H   0  0  0  0  0  0  0  0  0  0  0  0
   11.4984   16.4908   21.8163 H   0  0  0  0  0  0  0  0  0  0  0  0
    4.2978   10.9960   26.9613 H   0  0  0  0  0  0  0  0  0  0  0  0
    4.4460   12.6979   27.3088 H   0  0  0  0  0  0  0  0  0  0  0  0
  1  2  1  0  0  0  0
  1  4  2  0  0  0  0
  2  5  2  0  0  0  0
  3  5  1  0  0  0  0
  3  6  2  0  0  0  0
  4  6  1  0  0  0  0
  4 14  1  0  0  0  0
  5 15  1  0  0  0  0
  6 17  1  0  0  0  0
  7 14  1  0  0  0  0
  7 16  2  0  0  0  0
  7 18  1  0  0  0  0
  8  9  1  0  0  0  0
  8 14  1  0  0  0  0
  9 17  1  0  0  0  0
 10 13  1  0  0  0  0
 11 13  1  0  0  0  0
 12 13  1  0  0  0  0
 13 18  1  0  0  0  0
  1 19  1  0  0  0  0
  2 20  1  0  0  0  0
  3 21  1  0  0  0  0
  8 22  1  0  0  0  0
  8 23  1  0  0  0  0
  9 24  1  0  0  0  0
  9 25  1  0  0  0  0
 10 26  1  0  0  0  0
 10 27  1  0  0  0  0
 10 28  1  0  0  0  0
 11 29  1  0  0  0  0
 11 30  1  0  0  0  0
 11 31  1  0  0  0  0
 12 32  1  0  0  0  0
 12 33  1  0  0  0  0
 12 34  1  0  0  0  0
 15 35  1  0  0  0  0
 15 36  1  0  0  0  0
M  END
> <id>
EN300-6898725

> <smiles>
CC(C)(C)OC(=O)N1CCOC=2C=C(N)C=CC12

> <MDLNUMBER>
MFCD14581735

> <IUPAC Name>
tert-butyl 7-amino-3,4-dihydro-2H-1,4-benzoxazine-4-carboxylate

> <CAS>
1171126-84-3

> <Purity>
95

> <URL>
https://www.enaminestore.com/catalog/EN300-6898725

> <ROCS_ShapeQuery>
A71EV2A-x0451_0A_A71EV2A-x0310_0A_A71EV2A-x0416_0A_peptide

> <ROCS_TanimotoCombo>
0.502 

> <ROCS_ShapeTanimoto>
0.342 

> <ROCS_ColorTanimoto>
0.160 

> <ROCS_RefTversky>
0.296 

> <ROCS_RefColorTversky>
0.175 

> <ROCS_RefTverskyCombo>
0.471 

> <ROCS_FitTversky>
1.813 

> <ROCS_FitColorTversky>
0.647 

> <ROCS_FitTverskyCombo>
2.460 

> <ROCS_ColorScore>
-5.333

> <ROCS_Overlap>
2055.713

> <ROCS_Rank>
111                 

$$$$
untitled-dbase-45683_34
  -OEChem-11132313473D

 40 42  0     0  0  0  0  0  0999 V2000
    7.0301   10.3093   26.2244 C   0  0  0  0  0  0  0  0  0  0  0  0
    6.2267   11.1761   26.9668 C   0  0  0  0  0  0  0  0  0  0  0  0
    6.7610   12.9526   25.4400 C   0  0  0  0  0  0  0  0  0  0  0  0
    7.7254   10.7269   25.0683 C   0  0  0  0  0  0  0  0  0  0  0  0
    7.5835   12.0895   24.6914 C   0  0  0  0  0  0  0  0  0  0  0  0
    6.0909   12.4992   26.5723 C   0  0  0  0  0  0  0  0  0  0  0  0
   10.6792   13.1508   23.5145 C   0  0  0  0  0  0  0  0  0  0  0  0
    8.2526   12.6437   23.4487 C   0  0  0  0  0  0  0  0  0  0  0  0
   10.1746    9.9486   24.2814 C   0  0  0  0  0  0  0  0  0  0  0  0
    8.7427    9.8405   22.7234 C   0  0  0  0  0  0  0  0  0  0  0  0
    8.6372    9.6835   24.2669 C   0  0  0  0  0  0  0  0  0  0  0  0
    9.9506   10.7793   22.9864 C   0  0  0  0  0  0  0  0  0  0  0  0
   12.5177   15.1672   22.6544 C   0  0  0  0  0  0  0  0  0  0  0  0
   13.4419   13.4086   21.1174 C   0  0  0  0  0  0  0  0  0  0  0  0
   11.0616   14.1680   20.8611 C   0  0  0  0  0  0  0  0  0  0  0  0
   12.1982   13.9087   21.8490 C   0  0  0  0  0  0  0  0  0  0  0  0
    9.6494   12.2211   23.2922 N   0  0  0  0  0  0  0  0  0  0  0  0
   10.6136   14.0964   24.2969 O   0  0  0  0  0  0  0  0  0  0  0  0
   11.7880   12.8792   22.7559 O   0  0  0  0  0  0  0  0  0  0  0  0
    4.9989   13.6787   27.5650 Br  0  0  0  0  0  0  0  0  0  0  0  0
    7.1200    9.2754   26.5530 H   0  0  0  0  0  0  0  0  0  0  0  0
    5.7146   10.7976   27.8475 H   0  0  0  0  0  0  0  0  0  0  0  0
    6.6490   13.9889   25.1265 H   0  0  0  0  0  0  0  0  0  0  0  0
    7.6897   12.3526   22.5559 H   0  0  0  0  0  0  0  0  0  0  0  0
    8.2217   13.7390   23.4756 H   0  0  0  0  0  0  0  0  0  0  0  0
   10.5651   10.4862   25.1505 H   0  0  0  0  0  0  0  0  0  0  0  0
   10.7831    9.0484   24.1308 H   0  0  0  0  0  0  0  0  0  0  0  0
    9.0226    8.9100   22.2107 H   0  0  0  0  0  0  0  0  0  0  0  0
    7.8730   10.2424   22.1996 H   0  0  0  0  0  0  0  0  0  0  0  0
    8.3910    8.6517   24.5533 H   0  0  0  0  0  0  0  0  0  0  0  0
   10.7362   10.6888   22.2285 H   0  0  0  0  0  0  0  0  0  0  0  0
   11.6275   15.5293   23.1810 H   0  0  0  0  0  0  0  0  0  0  0  0
   13.3074   14.9852   23.3907 H   0  0  0  0  0  0  0  0  0  0  0  0
   12.8399   15.9818   21.9957 H   0  0  0  0  0  0  0  0  0  0  0  0
   13.2172   12.5057   20.5381 H   0  0  0  0  0  0  0  0  0  0  0  0
   14.2281   13.1312   21.8288 H   0  0  0  0  0  0  0  0  0  0  0  0
   13.8422   14.1667   20.4364 H   0  0  0  0  0  0  0  0  0  0  0  0
   10.8322   13.2654   20.2833 H   0  0  0  0  0  0  0  0  0  0  0  0
   10.1493   14.4924   21.3721 H   0  0  0  0  0  0  0  0  0  0  0  0
   11.3455   14.9371   20.1337 H   0  0  0  0  0  0  0  0  0  0  0  0
  1  2  1  0  0  0  0
  1  4  2  0  0  0  0
  2  6  2  0  0  0  0
  3  5  2  0  0  0  0
  3  6  1  0  0  0  0
  4  5  1  0  0  0  0
  4 11  1  0  0  0  0
  5  8  1  0  0  0  0
  6 20  1  0  0  0  0
  7 17  1  0  0  0  0
  7 18  2  0  0  0  0
  7 19  1  0  0  0  0
  8 17  1  0  0  0  0
  9 11  1  0  0  0  0
  9 12  1  0  0  0  0
 10 11  1  0  0  0  0
 10 12  1  0  0  0  0
 12 17  1  0  0  0  0
 13 16  1  0  0  0  0
 14 16  1  0  0  0  0
 15 16  1  0  0  0  0
 16 19  1  0  0  0  0
  1 21  1  0  0  0  0
  2 22  1  0  0  0  0
  3 23  1  0  0  0  0
  8 24  1  0  0  0  0
  8 25  1  0  0  0  0
  9 26  1  0  0  0  0
  9 27  1  0  0  0  0
 10 28  1  0  0  0  0
 10 29  1  0  0  0  0
 11 30  1  0  0  0  0
 12 31  1  0  0  0  0
 13 32  1  0  0  0  0
 13 33  1  0  0  0  0
 13 34  1  0  0  0  0
 14 35  1  0  0  0  0
 14 36  1  0  0  0  0
 14 37  1  0  0  0  0
 15 38  1  0  0  0  0
 15 39  1  0  0  0  0
 15 40  1  0  0  0  0
M  END
> <id>
EN300-28296721

> <smiles>
CC(C)(C)OC(=O)N1CC=2C=C(Br)C=CC2C3CC1C3

> <IUPAC Name>
tert-butyl 5-bromo-9-azatricyclo[8.1.1.0,2,7]dodeca-2,4,6-triene-9-carboxylate

> <CAS>
2680894-24-8

> <URL>
https://www.enaminestore.com/catalog/EN300-28296721

> <ROCS_ShapeQuery>
A71EV2A-x0451_0A_A71EV2A-x0310_0A_A71EV2A-x0416_0A_peptide

> <ROCS_TanimotoCombo>
0.501 

> <ROCS_ShapeTanimoto>
0.340 

> <ROCS_ColorTanimoto>
0.162 

> <ROCS_RefTversky>
0.298 

> <ROCS_RefColorTversky>
0.188 

> <ROCS_RefTverskyCombo>
0.485 

> <ROCS_FitTversky>
1.718 

> <ROCS_FitColorTversky>
0.538 

> <ROCS_FitTverskyCombo>
2.256 

> <ROCS_ColorScore>
-5.740

> <ROCS_Overlap>
2064.966

> <ROCS_Rank>
112                 

$$$$
untitled-dbase-45353_2
  -OEChem-11132313473D

 38 40  0     1  0  0  0  0  0999 V2000
    6.6974   11.1811   25.9859 C   0  0  0  0  0  0  0  0  0  0  0  0
    6.5316   12.3042   26.7839 C   0  0  0  0  0  0  0  0  0  0  0  0
    7.6236   11.2082   24.9412 C   0  0  0  0  0  0  0  0  0  0  0  0
    8.3855   12.3787   24.7380 C   0  0  0  0  0  0  0  0  0  0  0  0
    7.3109   13.4141   26.5091 C   0  0  0  0  0  0  0  0  0  0  0  0
   10.2305   13.4424   23.4600 C   0  0  0  0  0  0  0  0  0  0  0  0
   10.1769   10.0055   23.6709 C   0  0  0  0  0  0  0  0  0  0  0  0
    9.0751    9.3651   24.5400 C   0  0  0  0  0  0  0  0  0  0  0  0
    8.0460   10.4957   22.7439 C   0  0  0  0  0  0  0  0  0  0  0  0
    9.4415   11.1026   22.8757 C   0  0  1  0  0  0  0  0  0  0  0  0
   12.8038   14.4362   22.6859 C   0  0  0  0  0  0  0  0  0  0  0  0
   11.8791   14.4818   20.3510 C   0  0  0  0  0  0  0  0  0  0  0  0
   10.8430   15.9147   22.1346 C   0  0  0  0  0  0  0  0  0  0  0  0
   11.5428   14.5894   21.8367 C   0  0  0  0  0  0  0  0  0  0  0  0
    8.2275   13.4762   25.5159 N   0  0  0  0  0  0  0  0  0  0  0  0
    7.8326   10.0578   24.1288 N   0  0  2  0  0  0  0  0  0  0  0  0
    9.3654   12.3596   23.6745 N   0  0  0  0  0  0  0  0  0  0  0  0
   10.5996   14.2419   24.3176 O   0  0  0  0  0  0  0  0  0  0  0  0
   10.6461   13.5186   22.1549 O   0  0  0  0  0  0  0  0  0  0  0  0
    7.1744   14.8454   27.4464 Cl  0  0  0  0  0  0  0  0  0  0  0  0
    6.1056   10.2903   26.1784 H   0  0  0  0  0  0  0  0  0  0  0  0
    5.8121   12.2972   27.5956 H   0  0  0  0  0  0  0  0  0  0  0  0
   11.0021   10.4033   24.2703 H   0  0  0  0  0  0  0  0  0  0  0  0
   10.5883    9.2565   22.9842 H   0  0  0  0  0  0  0  0  0  0  0  0
    8.9879    8.2978   24.3070 H   0  0  0  0  0  0  0  0  0  0  0  0
    9.2890    9.4541   25.6121 H   0  0  0  0  0  0  0  0  0  0  0  0
    7.2862   11.1985   22.3798 H   0  0  0  0  0  0  0  0  0  0  0  0
    8.0494    9.6276   22.0731 H   0  0  0  0  0  0  0  0  0  0  0  0
    9.9060   11.2841   21.9028 H   0  0  0  0  0  0  0  0  0  0  0  0
   12.5666   14.5128   23.7531 H   0  0  0  0  0  0  0  0  0  0  0  0
   13.2960   13.4746   22.5073 H   0  0  0  0  0  0  0  0  0  0  0  0
   13.5202   15.2371   22.4702 H   0  0  0  0  0  0  0  0  0  0  0  0
   10.9772   14.5911   19.7379 H   0  0  0  0  0  0  0  0  0  0  0  0
   12.2947   13.4954   20.1153 H   0  0  0  0  0  0  0  0  0  0  0  0
   12.6016   15.2448   20.0440 H   0  0  0  0  0  0  0  0  0  0  0  0
    9.9384   16.0248   21.5256 H   0  0  0  0  0  0  0  0  0  0  0  0
   10.5611   15.9937   23.1896 H   0  0  0  0  0  0  0  0  0  0  0  0
   11.4904   16.7624   21.8828 H   0  0  0  0  0  0  0  0  0  0  0  0
  1  2  1  0  0  0  0
  1  3  2  0  0  0  0
  2  5  2  0  0  0  0
  3  4  1  0  0  0  0
  3 16  1  0  0  0  0
  4 15  2  0  0  0  0
  4 17  1  0  0  0  0
  5 15  1  0  0  0  0
  5 20  1  0  0  0  0
  6 17  1  0  0  0  0
  6 18  2  0  0  0  0
  6 19  1  0  0  0  0
  7  8  1  0  0  0  0
  7 10  1  6  0  0  0
  8 16  1  0  0  0  0
  9 10  1  0  0  0  0
  9 16  1  0  0  0  0
 10 17  1  0  0  0  0
 11 14  1  0  0  0  0
 12 14  1  0  0  0  0
 13 14  1  0  0  0  0
 14 19  1  0  0  0  0
  1 21  1  0  0  0  0
  2 22  1  0  0  0  0
  7 23  1  0  0  0  0
  7 24  1  0  0  0  0
  8 25  1  0  0  0  0
  8 26  1  0  0  0  0
  9 27  1  0  0  0  0
  9 28  1  0  0  0  0
 10 29  1  0  0  0  0
 11 30  1  0  0  0  0
 11 31  1  0  0  0  0
 11 32  1  0  0  0  0
 12 33  1  0  0  0  0
 12 34  1  0  0  0  0
 12 35  1  0  0  0  0
 13 36  1  0  0  0  0
 13 37  1  0  0  0  0
 13 38  1  0  0  0  0
M  END
> <id>
EN300-28289412

> <smiles>
CC(C)(C)OC(=O)N1[C@H]2CCN(C2)C=3C=CC(Cl)=NC13

> <IUPAC Name>
tert-butyl (9S)-5-chloro-1,6,8-triazatricyclo[7.2.1.0,2,7]dodeca-2,4,6-triene-8-carboxylate

> <CAS>
1703789-04-1

> <URL>
https://www.enaminestore.com/catalog/EN300-28289412

> <ROCS_ShapeQuery>
A71EV2A-x0451_0A_A71EV2A-x0310_0A_A71EV2A-x0416_0A_peptide

> <ROCS_TanimotoCombo>
0.501 

> <ROCS_ShapeTanimoto>
0.340 

> <ROCS_ColorTanimoto>
0.161 

> <ROCS_RefTversky>
0.299 

> <ROCS_RefColorTversky>
0.188 

> <ROCS_RefTverskyCombo>
0.487 

> <ROCS_FitTversky>
1.681 

> <ROCS_FitColorTversky>
0.525 

> <ROCS_FitTverskyCombo>
2.206 

> <ROCS_ColorScore>
-5.756

> <ROCS_Overlap>
2076.813

> <ROCS_Rank>
113                 

$$$$
untitled-dbase-29795_25
  -OEChem-11132313473D

 40 41  0     1  0  0  0  0  0999 V2000
   10.4602   13.3805   23.3735 C   0  0  0  0  0  0  0  0  0  0  0  0
    6.8279   11.5271   24.0937 C   0  0  0  0  0  0  0  0  0  0  0  0
    7.5024   11.4171   25.4693 C   0  0  0  0  0  0  0  0  0  0  0  0
    8.8312   11.6409   22.5677 C   0  0  0  0  0  0  0  0  0  0  0  0
    9.9403   11.4552   24.8330 C   0  0  0  0  0  0  0  0  0  0  0  0
    7.7363   10.7242   23.1375 C   0  0  1  0  0  0  0  0  0  0  0  0
    8.7606   10.5544   25.2300 C   0  0  2  0  0  0  0  0  0  0  0  0
    8.3300    9.6519   24.0639 C   0  0  0  0  0  0  0  0  0  0  0  0
    9.4242    8.7771   23.4615 C   0  0  0  0  0  0  0  0  0  0  0  0
   12.9135   14.6141   22.5706 C   0  0  0  0  0  0  0  0  0  0  0  0
   11.9482   14.5982   20.2517 C   0  0  0  0  0  0  0  0  0  0  0  0
   10.8144   15.9091   22.0695 C   0  0  0  0  0  0  0  0  0  0  0  0
   11.6291   14.6581   21.7440 C   0  0  0  0  0  0  0  0  0  0  0  0
    9.7004   12.2257   23.6044 N   0  0  0  0  0  0  0  0  0  0  0  0
   10.7619   14.1951   24.2439 O   0  0  0  0  0  0  0  0  0  0  0  0
    7.2949    8.7710   24.5148 O   0  0  0  0  0  0  0  0  0  0  0  0
   10.8418   13.5053   22.0635 O   0  0  0  0  0  0  0  0  0  0  0  0
    5.8285   11.0783   24.1379 H   0  0  0  0  0  0  0  0  0  0  0  0
    6.7025   12.5693   23.7828 H   0  0  0  0  0  0  0  0  0  0  0  0
    7.7373   12.4009   25.8891 H   0  0  0  0  0  0  0  0  0  0  0  0
    6.8247   10.9165   26.1711 H   0  0  0  0  0  0  0  0  0  0  0  0
    9.4790   11.0935   21.8739 H   0  0  0  0  0  0  0  0  0  0  0  0
    8.3675   12.4490   21.9902 H   0  0  0  0  0  0  0  0  0  0  0  0
   10.1717   12.1517   25.6478 H   0  0  0  0  0  0  0  0  0  0  0  0
   10.8462   10.8604   24.6693 H   0  0  0  0  0  0  0  0  0  0  0  0
    7.1402   10.2921   22.3265 H   0  0  0  0  0  0  0  0  0  0  0  0
    9.0033    9.9844   26.1332 H   0  0  0  0  0  0  0  0  0  0  0  0
    9.7718    8.0555   24.2003 H   0  0  0  0  0  0  0  0  0  0  0  0
   10.2642    9.3961   23.1478 H   0  0  0  0  0  0  0  0  0  0  0  0
    9.0364    8.2401   22.5963 H   0  0  0  0  0  0  0  0  0  0  0  0
   12.6887   14.6569   23.6424 H   0  0  0  0  0  0  0  0  0  0  0  0
   13.4898   13.7046   22.3722 H   0  0  0  0  0  0  0  0  0  0  0  0
   13.5484   15.4805   22.3531 H   0  0  0  0  0  0  0  0  0  0  0  0
   11.0295   14.6296   19.6548 H   0  0  0  0  0  0  0  0  0  0  0  0
   12.4496   13.6574   19.9973 H   0  0  0  0  0  0  0  0  0  0  0  0
   12.5911   15.4285   19.9424 H   0  0  0  0  0  0  0  0  0  0  0  0
    9.8930   15.9410   21.4767 H   0  0  0  0  0  0  0  0  0  0  0  0
   10.5446   15.9502   23.1298 H   0  0  0  0  0  0  0  0  0  0  0  0
   11.3756   16.8162   21.8175 H   0  0  0  0  0  0  0  0  0  0  0  0
    6.9172    8.3698   23.7192 H   0  0  0  0  0  0  0  0  0  0  0  0
  1 14  1  0  0  0  0
  1 15  2  0  0  0  0
  1 17  1  0  0  0  0
  2  3  1  0  0  0  0
  2  6  1  0  0  0  0
  3  7  1  0  0  0  0
  4  6  1  0  0  0  0
  4 14  1  0  0  0  0
  5  7  1  0  0  0  0
  5 14  1  0  0  0  0
  6  8  1  0  0  0  0
  7  8  1  0  0  0  0
  8  9  1  0  0  0  0
  8 16  1  0  0  0  0
 10 13  1  0  0  0  0
 11 13  1  0  0  0  0
 12 13  1  0  0  0  0
 13 17  1  0  0  0  0
  2 18  1  0  0  0  0
  2 19  1  0  0  0  0
  3 20  1  0  0  0  0
  3 21  1  0  0  0  0
  4 22  1  0  0  0  0
  4 23  1  0  0  0  0
  5 24  1  0  0  0  0
  5 25  1  0  0  0  0
  6 26  1  0  0  0  0
  7 27  1  0  0  0  0
  9 28  1  0  0  0  0
  9 29  1  0  0  0  0
  9 30  1  0  0  0  0
 10 31  1  0  0  0  0
 10 32  1  0  0  0  0
 10 33  1  0  0  0  0
 11 34  1  0  0  0  0
 11 35  1  0  0  0  0
 11 36  1  0  0  0  0
 12 37  1  0  0  0  0
 12 38  1  0  0  0  0
 12 39  1  0  0  0  0
 16 40  1  0  0  0  0
M  END
> <id>
EN300-7068257

> <smiles>
CC(C)(C)OC(=O)N1CC2CCC(C1)C2(C)O

> <IUPAC Name>
tert-butyl 8-hydroxy-8-methyl-3-azabicyclo[3.2.1]octane-3-carboxylate

> <CAS>
2757917-12-5

> <URL>
https://www.enaminestore.com/catalog/EN300-7068257

> <ROCS_ShapeQuery>
A71EV2A-x0451_0A_A71EV2A-x0310_0A_A71EV2A-x0416_0A_peptide

> <ROCS_TanimotoCombo>
0.501 

> <ROCS_ShapeTanimoto>
0.298 

> <ROCS_ColorTanimoto>
0.203 

> <ROCS_RefTversky>
0.265 

> <ROCS_RefColorTversky>
0.229 

> <ROCS_RefTverskyCombo>
0.494 

> <ROCS_FitTversky>
1.707 

> <ROCS_FitColorTversky>
0.643 

> <ROCS_FitTverskyCombo>
2.351 

> <ROCS_ColorScore>
-7.013

> <ROCS_Overlap>
1837.575

> <ROCS_Rank>
114                 

$$$$
untitled-dbase-34659_34
  -OEChem-11132313473D

 39 40  0     1  0  0  0  0  0999 V2000
    9.9895   13.2586   23.5328 C   0  0  0  0  0  0  0  0  0  0  0  0
    8.3997   10.3780   22.4490 C   0  0  0  0  0  0  0  0  0  0  0  0
    9.9115    9.9640   24.4878 C   0  0  0  0  0  0  0  0  0  0  0  0
    6.7975   11.6549   24.0208 C   0  0  0  0  0  0  0  0  0  0  0  0
    8.1980   11.2761   25.9054 C   0  0  0  0  0  0  0  0  0  0  0  0
    8.0158   11.7245   23.0926 C   0  0  1  0  0  0  0  0  0  0  0  0
    9.4488   11.3334   25.0220 C   0  0  2  0  0  0  0  0  0  0  0  0
    9.0122    9.3310   23.4047 C   0  0  0  0  0  0  0  0  0  0  0  0
   12.4611   13.0403   22.1085 C   0  0  0  0  0  0  0  0  0  0  0  0
   11.2281   14.0771   20.1812 C   0  0  0  0  0  0  0  0  0  0  0  0
   11.5137   15.3624   22.3200 C   0  0  0  0  0  0  0  0  0  0  0  0
   11.3249   13.9778   21.7021 C   0  0  0  0  0  0  0  0  0  0  0  0
    9.1619   12.1915   23.8756 N   0  0  0  0  0  0  0  0  0  0  0  0
    7.9888    8.4735   24.0066 N   0  0  0  0  0  0  0  0  0  0  0  0
   10.5706   13.9730   24.3473 O   0  0  0  0  0  0  0  0  0  0  0  0
    7.0428   10.8570   25.1789 O   0  0  0  0  0  0  0  0  0  0  0  0
   10.0902   13.4305   22.1781 O   0  0  0  0  0  0  0  0  0  0  0  0
    7.5370    9.9569   21.9169 H   0  0  0  0  0  0  0  0  0  0  0  0
    9.1480   10.5874   21.6713 H   0  0  0  0  0  0  0  0  0  0  0  0
   10.9068   10.1053   24.0425 H   0  0  0  0  0  0  0  0  0  0  0  0
   10.0637    9.2679   25.3224 H   0  0  0  0  0  0  0  0  0  0  0  0
    6.5008   12.6600   24.3443 H   0  0  0  0  0  0  0  0  0  0  0  0
    5.9430   11.2187   23.4929 H   0  0  0  0  0  0  0  0  0  0  0  0
    8.3466   10.5687   26.7279 H   0  0  0  0  0  0  0  0  0  0  0  0
    7.9944   12.2569   26.3524 H   0  0  0  0  0  0  0  0  0  0  0  0
    7.7850   12.4291   22.2871 H   0  0  0  0  0  0  0  0  0  0  0  0
   10.2665   11.7603   25.6138 H   0  0  0  0  0  0  0  0  0  0  0  0
    9.6382    8.6561   22.8079 H   0  0  0  0  0  0  0  0  0  0  0  0
   12.5338   12.9664   23.1994 H   0  0  0  0  0  0  0  0  0  0  0  0
   12.3194   12.0342   21.7004 H   0  0  0  0  0  0  0  0  0  0  0  0
   13.4272   13.4225   21.7594 H   0  0  0  0  0  0  0  0  0  0  0  0
   10.4142   14.7487   19.8851 H   0  0  0  0  0  0  0  0  0  0  0  0
   10.9983   13.1004   19.7402 H   0  0  0  0  0  0  0  0  0  0  0  0
   12.1598   14.4460   19.7403 H   0  0  0  0  0  0  0  0  0  0  0  0
   10.6988   16.0351   22.0286 H   0  0  0  0  0  0  0  0  0  0  0  0
   11.5483   15.3149   23.4133 H   0  0  0  0  0  0  0  0  0  0  0  0
   12.4401   15.8259   21.9621 H   0  0  0  0  0  0  0  0  0  0  0  0
    7.4809    8.0414   23.2732 H   0  0  0  0  0  0  0  0  0  0  0  0
    8.4477    7.7961   24.5661 H   0  0  0  0  0  0  0  0  0  0  0  0
  1 13  1  0  0  0  0
  1 15  2  0  0  0  0
  1 17  1  0  0  0  0
  2  6  1  0  0  0  0
  2  8  1  0  0  0  0
  3  7  1  0  0  0  0
  3  8  1  0  0  0  0
  4  6  1  1  0  0  0
  4 16  1  0  0  0  0
  5  7  1  1  0  0  0
  5 16  1  0  0  0  0
  6 13  1  0  0  0  0
  7 13  1  0  0  0  0
  8 14  1  1  0  0  0
  9 12  1  0  0  0  0
 10 12  1  0  0  0  0
 11 12  1  0  0  0  0
 12 17  1  0  0  0  0
  2 18  1  0  0  0  0
  2 19  1  0  0  0  0
  3 20  1  0  0  0  0
  3 21  1  0  0  0  0
  4 22  1  0  0  0  0
  4 23  1  0  0  0  0
  5 24  1  0  0  0  0
  5 25  1  0  0  0  0
  6 26  1  0  0  0  0
  7 27  1  0  0  0  0
  8 28  1  0  0  0  0
  9 29  1  0  0  0  0
  9 30  1  0  0  0  0
  9 31  1  0  0  0  0
 10 32  1  0  0  0  0
 10 33  1  0  0  0  0
 10 34  1  0  0  0  0
 11 35  1  0  0  0  0
 11 36  1  0  0  0  0
 11 37  1  0  0  0  0
 14 38  1  0  0  0  0
 14 39  1  0  0  0  0
M  END
> <id>
EN300-37465918

> <smiles>
Cl.CC(C)(C)OC(=O)N1[C@H]2COC[C@@H]1C[C@H](N)C2

> <IUPAC Name>
tert-butyl (1R,5S,7s)-7-amino-3-oxa-9-azabicyclo[3.3.1]nonane-9-carboxylate hydrochloride

> <Purity>
95

> <URL>
https://www.enaminestore.com/catalog/EN300-37465918

> <ROCS_ShapeQuery>
A71EV2A-x0451_0A_A71EV2A-x0310_0A_A71EV2A-x0416_0A_peptide

> <ROCS_TanimotoCombo>
0.501 

> <ROCS_ShapeTanimoto>
0.287 

> <ROCS_ColorTanimoto>
0.214 

> <ROCS_RefTversky>
0.258 

> <ROCS_RefColorTversky>
0.226 

> <ROCS_RefTverskyCombo>
0.483 

> <ROCS_FitTversky>
1.660 

> <ROCS_FitColorTversky>
0.807 

> <ROCS_FitTverskyCombo>
2.467 

> <ROCS_ColorScore>
-6.879

> <ROCS_Overlap>
1785.442

> <ROCS_Rank>
115                 

$$$$
untitled-dbase-34896_34
  -OEChem-11132313473D

 39 40  0     1  0  0  0  0  0999 V2000
    9.9895   13.2586   23.5328 C   0  0  0  0  0  0  0  0  0  0  0  0
    8.3997   10.3780   22.4490 C   0  0  0  0  0  0  0  0  0  0  0  0
    9.9115    9.9640   24.4878 C   0  0  0  0  0  0  0  0  0  0  0  0
    6.7975   11.6549   24.0208 C   0  0  0  0  0  0  0  0  0  0  0  0
    8.1980   11.2761   25.9054 C   0  0  0  0  0  0  0  0  0  0  0  0
    8.0158   11.7245   23.0926 C   0  0  1  0  0  0  0  0  0  0  0  0
    9.4488   11.3334   25.0220 C   0  0  2  0  0  0  0  0  0  0  0  0
    9.0122    9.3310   23.4047 C   0  0  0  0  0  0  0  0  0  0  0  0
   12.4611   13.0403   22.1085 C   0  0  0  0  0  0  0  0  0  0  0  0
   11.2281   14.0771   20.1812 C   0  0  0  0  0  0  0  0  0  0  0  0
   11.5137   15.3624   22.3200 C   0  0  0  0  0  0  0  0  0  0  0  0
   11.3249   13.9778   21.7021 C   0  0  0  0  0  0  0  0  0  0  0  0
    9.1619   12.1915   23.8756 N   0  0  0  0  0  0  0  0  0  0  0  0
    7.9888    8.4735   24.0066 N   0  0  0  0  0  0  0  0  0  0  0  0
   10.5706   13.9730   24.3473 O   0  0  0  0  0  0  0  0  0  0  0  0
    7.0428   10.8570   25.1789 O   0  0  0  0  0  0  0  0  0  0  0  0
   10.0902   13.4305   22.1781 O   0  0  0  0  0  0  0  0  0  0  0  0
    7.5370    9.9569   21.9169 H   0  0  0  0  0  0  0  0  0  0  0  0
    9.1480   10.5874   21.6713 H   0  0  0  0  0  0  0  0  0  0  0  0
   10.9068   10.1053   24.0425 H   0  0  0  0  0  0  0  0  0  0  0  0
   10.0637    9.2679   25.3224 H   0  0  0  0  0  0  0  0  0  0  0  0
    6.5008   12.6600   24.3443 H   0  0  0  0  0  0  0  0  0  0  0  0
    5.9430   11.2187   23.4929 H   0  0  0  0  0  0  0  0  0  0  0  0
    8.3466   10.5687   26.7279 H   0  0  0  0  0  0  0  0  0  0  0  0
    7.9944   12.2569   26.3524 H   0  0  0  0  0  0  0  0  0  0  0  0
    7.7850   12.4291   22.2871 H   0  0  0  0  0  0  0  0  0  0  0  0
   10.2665   11.7603   25.6138 H   0  0  0  0  0  0  0  0  0  0  0  0
    9.6382    8.6561   22.8079 H   0  0  0  0  0  0  0  0  0  0  0  0
   12.5338   12.9664   23.1994 H   0  0  0  0  0  0  0  0  0  0  0  0
   12.3194   12.0342   21.7004 H   0  0  0  0  0  0  0  0  0  0  0  0
   13.4272   13.4225   21.7594 H   0  0  0  0  0  0  0  0  0  0  0  0
   10.4142   14.7487   19.8851 H   0  0  0  0  0  0  0  0  0  0  0  0
   10.9983   13.1004   19.7402 H   0  0  0  0  0  0  0  0  0  0  0  0
   12.1598   14.4460   19.7403 H   0  0  0  0  0  0  0  0  0  0  0  0
   10.6988   16.0351   22.0286 H   0  0  0  0  0  0  0  0  0  0  0  0
   11.5483   15.3149   23.4133 H   0  0  0  0  0  0  0  0  0  0  0  0
   12.4401   15.8259   21.9621 H   0  0  0  0  0  0  0  0  0  0  0  0
    7.4809    8.0414   23.2732 H   0  0  0  0  0  0  0  0  0  0  0  0
    8.4477    7.7961   24.5661 H   0  0  0  0  0  0  0  0  0  0  0  0
  1 13  1  0  0  0  0
  1 15  2  0  0  0  0
  1 17  1  0  0  0  0
  2  6  1  0  0  0  0
  2  8  1  0  0  0  0
  3  7  1  0  0  0  0
  3  8  1  0  0  0  0
  4  6  1  1  0  0  0
  4 16  1  0  0  0  0
  5  7  1  1  0  0  0
  5 16  1  0  0  0  0
  6 13  1  0  0  0  0
  7 13  1  0  0  0  0
  8 14  1  1  0  0  0
  9 12  1  0  0  0  0
 10 12  1  0  0  0  0
 11 12  1  0  0  0  0
 12 17  1  0  0  0  0
  2 18  1  0  0  0  0
  2 19  1  0  0  0  0
  3 20  1  0  0  0  0
  3 21  1  0  0  0  0
  4 22  1  0  0  0  0
  4 23  1  0  0  0  0
  5 24  1  0  0  0  0
  5 25  1  0  0  0  0
  6 26  1  0  0  0  0
  7 27  1  0  0  0  0
  8 28  1  0  0  0  0
  9 29  1  0  0  0  0
  9 30  1  0  0  0  0
  9 31  1  0  0  0  0
 10 32  1  0  0  0  0
 10 33  1  0  0  0  0
 10 34  1  0  0  0  0
 11 35  1  0  0  0  0
 11 36  1  0  0  0  0
 11 37  1  0  0  0  0
 14 38  1  0  0  0  0
 14 39  1  0  0  0  0
M  END
> <id>
EN300-7166268

> <smiles>
CC(C)(C)OC(=O)N1[C@H]2COC[C@@H]1C[C@H](N)C2

> <MDLNUMBER>
MFCD23381628

> <IUPAC Name>
tert-butyl (1R,5S,7s)-7-amino-3-oxa-9-azabicyclo[3.3.1]nonane-9-carboxylate

> <CAS>
280762-03-0

> <URL>
https://www.enaminestore.com/catalog/EN300-7166268

> <ROCS_ShapeQuery>
A71EV2A-x0451_0A_A71EV2A-x0310_0A_A71EV2A-x0416_0A_peptide

> <ROCS_TanimotoCombo>
0.501 

> <ROCS_ShapeTanimoto>
0.287 

> <ROCS_ColorTanimoto>
0.214 

> <ROCS_RefTversky>
0.258 

> <ROCS_RefColorTversky>
0.226 

> <ROCS_RefTverskyCombo>
0.483 

> <ROCS_FitTversky>
1.660 

> <ROCS_FitColorTversky>
0.807 

> <ROCS_FitTverskyCombo>
2.467 

> <ROCS_ColorScore>
-6.879

> <ROCS_Overlap>
1785.442

> <ROCS_Rank>
116                 

$$$$
untitled-dbase-45629_2
  -OEChem-11132313473D

 38 40  0     1  0  0  0  0  0999 V2000
    6.6995   11.1790   25.9893 C   0  0  0  0  0  0  0  0  0  0  0  0
    6.5351   12.3008   26.7894 C   0  0  0  0  0  0  0  0  0  0  0  0
    7.6242   11.2076   24.9433 C   0  0  0  0  0  0  0  0  0  0  0  0
    8.3862   12.3782   24.7411 C   0  0  0  0  0  0  0  0  0  0  0  0
    7.3144   13.4109   26.5154 C   0  0  0  0  0  0  0  0  0  0  0  0
   10.2299   13.4435   23.4625 C   0  0  0  0  0  0  0  0  0  0  0  0
   10.1752   10.0062   23.6672 C   0  0  0  0  0  0  0  0  0  0  0  0
    9.0744    9.3647   24.5367 C   0  0  0  0  0  0  0  0  0  0  0  0
    8.0432   10.4989   22.7442 C   0  0  0  0  0  0  0  0  0  0  0  0
    9.4391   11.1051   22.8750 C   0  0  1  0  0  0  0  0  0  0  0  0
   12.8022   14.4380   22.6864 C   0  0  0  0  0  0  0  0  0  0  0  0
   11.8741   14.4883   20.3529 C   0  0  0  0  0  0  0  0  0  0  0  0
   10.8411   15.9181   22.1408 C   0  0  0  0  0  0  0  0  0  0  0  0
   11.5400   14.5932   21.8394 C   0  0  0  0  0  0  0  0  0  0  0  0
    8.2297   13.4743   25.5211 N   0  0  0  0  0  0  0  0  0  0  0  0
    7.8317   10.0586   24.1286 N   0  0  2  0  0  0  0  0  0  0  0  0
    9.3647   12.3606   23.6762 N   0  0  0  0  0  0  0  0  0  0  0  0
   10.6004   14.2413   24.3210 O   0  0  0  0  0  0  0  0  0  0  0  0
   10.6435   13.5220   22.1568 O   0  0  0  0  0  0  0  0  0  0  0  0
    7.1787   14.8412   27.4546 Cl  0  0  0  0  0  0  0  0  0  0  0  0
    6.1076   10.2881   26.1805 H   0  0  0  0  0  0  0  0  0  0  0  0
    5.8164   12.2929   27.6017 H   0  0  0  0  0  0  0  0  0  0  0  0
   11.0015   10.4028   24.2659 H   0  0  0  0  0  0  0  0  0  0  0  0
   10.5851    9.2582   22.9784 H   0  0  0  0  0  0  0  0  0  0  0  0
    8.9868    8.2977   24.3021 H   0  0  0  0  0  0  0  0  0  0  0  0
    9.2900    9.4518   25.6086 H   0  0  0  0  0  0  0  0  0  0  0  0
    7.2829   11.2026   22.3828 H   0  0  0  0  0  0  0  0  0  0  0  0
    8.0452    9.6319   22.0719 H   0  0  0  0  0  0  0  0  0  0  0  0
    9.9024   11.2880   21.9019 H   0  0  0  0  0  0  0  0  0  0  0  0
   12.5667   14.5127   23.7541 H   0  0  0  0  0  0  0  0  0  0  0  0
   13.2939   13.4766   22.5053 H   0  0  0  0  0  0  0  0  0  0  0  0
   13.5186   15.2391   22.4712 H   0  0  0  0  0  0  0  0  0  0  0  0
   10.9713   14.5991   19.7414 H   0  0  0  0  0  0  0  0  0  0  0  0
   12.2891   13.5022   20.1148 H   0  0  0  0  0  0  0  0  0  0  0  0
   12.5964   15.2517   20.0463 H   0  0  0  0  0  0  0  0  0  0  0  0
    9.9356   16.0297   21.5334 H   0  0  0  0  0  0  0  0  0  0  0  0
   10.5607   15.9952   23.1964 H   0  0  0  0  0  0  0  0  0  0  0  0
   11.4884   16.7661   21.8896 H   0  0  0  0  0  0  0  0  0  0  0  0
  1  2  1  0  0  0  0
  1  3  2  0  0  0  0
  2  5  2  0  0  0  0
  3  4  1  0  0  0  0
  3 16  1  0  0  0  0
  4 15  2  0  0  0  0
  4 17  1  0  0  0  0
  5 15  1  0  0  0  0
  5 20  1  0  0  0  0
  6 17  1  0  0  0  0
  6 18  2  0  0  0  0
  6 19  1  0  0  0  0
  7  8  1  0  0  0  0
  7 10  1  0  0  0  0
  8 16  1  0  0  0  0
  9 10  1  0  0  0  0
  9 16  1  0  0  0  0
 10 17  1  0  0  0  0
 11 14  1  0  0  0  0
 12 14  1  0  0  0  0
 13 14  1  0  0  0  0
 14 19  1  0  0  0  0
  1 21  1  0  0  0  0
  2 22  1  0  0  0  0
  7 23  1  0  0  0  0
  7 24  1  0  0  0  0
  8 25  1  0  0  0  0
  8 26  1  0  0  0  0
  9 27  1  0  0  0  0
  9 28  1  0  0  0  0
 10 29  1  0  0  0  0
 11 30  1  0  0  0  0
 11 31  1  0  0  0  0
 11 32  1  0  0  0  0
 12 33  1  0  0  0  0
 12 34  1  0  0  0  0
 12 35  1  0  0  0  0
 13 36  1  0  0  0  0
 13 37  1  0  0  0  0
 13 38  1  0  0  0  0
M  END
> <id>
EN300-28289410

> <smiles>
CC(C)(C)OC(=O)N1C2CCN(C2)C=3C=CC(Cl)=NC13

> <IUPAC Name>
tert-butyl 5-chloro-1,6,8-triazatricyclo[7.2.1.0,2,7]dodeca-2,4,6-triene-8-carboxylate

> <CAS>
2680873-18-9

> <URL>
https://www.enaminestore.com/catalog/EN300-28289410

> <ROCS_ShapeQuery>
A71EV2A-x0451_0A_A71EV2A-x0310_0A_A71EV2A-x0416_0A_peptide

> <ROCS_TanimotoCombo>
0.501 

> <ROCS_ShapeTanimoto>
0.340 

> <ROCS_ColorTanimoto>
0.161 

> <ROCS_RefTversky>
0.299 

> <ROCS_RefColorTversky>
0.188 

> <ROCS_RefTverskyCombo>
0.487 

> <ROCS_FitTversky>
1.681 

> <ROCS_FitColorTversky>
0.525 

> <ROCS_FitTverskyCombo>
2.205 

> <ROCS_ColorScore>
-5.756

> <ROCS_Overlap>
2076.078

> <ROCS_Rank>
117                 

$$$$
untitled-dbase-45573_56
  -OEChem-11132313473D

 35 36  0     0  0  0  0  0  0999 V2000
    7.8609   13.2161   24.7338 C   0  0  0  0  0  0  0  0  0  0  0  0
    6.3238   11.7773   25.8579 C   0  0  0  0  0  0  0  0  0  0  0  0
    8.5931   12.1119   24.2797 C   0  0  0  0  0  0  0  0  0  0  0  0
    6.7269   13.0587   25.5366 C   0  0  0  0  0  0  0  0  0  0  0  0
    8.0411   10.8882   24.6447 C   0  0  0  0  0  0  0  0  0  0  0  0
   10.6007   13.3906   23.4066 C   0  0  0  0  0  0  0  0  0  0  0  0
   10.3229   11.0589   22.7719 C   0  0  0  0  0  0  0  0  0  0  0  0
    9.3649    9.9205   22.5033 C   0  0  0  0  0  0  0  0  0  0  0  0
   12.2806   15.6403   22.8259 C   0  0  0  0  0  0  0  0  0  0  0  0
   12.2754   14.7946   20.4607 C   0  0  0  0  0  0  0  0  0  0  0  0
   10.1234   15.5178   21.5350 C   0  0  0  0  0  0  0  0  0  0  0  0
   11.4892   14.8732   21.7676 C   0  0  0  0  0  0  0  0  0  0  0  0
    6.9507   10.6731   25.4160 N   0  0  0  0  0  0  0  0  0  0  0  0
    9.7835   12.2320   23.4746 N   0  0  0  0  0  0  0  0  0  0  0  0
   10.6381   14.2466   24.2922 O   0  0  0  0  0  0  0  0  0  0  0  0
    9.6676    8.9059   24.9106 O   0  0  0  0  0  0  0  0  0  0  0  0
    7.4868    8.5553   23.6667 O   0  0  0  0  0  0  0  0  0  0  0  0
   11.2878   13.5327   22.2315 O   0  0  0  0  0  0  0  0  0  0  0  0
    8.6317    9.3739   24.0136 S   0  0  0  0  0  0  0  0  0  0  0  0
    5.7827   14.5582   26.1795 Br  0  0  0  0  0  0  0  0  0  0  0  0
    8.1810   14.2319   24.5141 H   0  0  0  0  0  0  0  0  0  0  0  0
    5.4681   11.5887   26.4973 H   0  0  0  0  0  0  0  0  0  0  0  0
   11.2050   10.7071   23.3650 H   0  0  0  0  0  0  0  0  0  0  0  0
   10.7654   11.3576   21.7921 H   0  0  0  0  0  0  0  0  0  0  0  0
    8.5659   10.2279   21.8198 H   0  0  0  0  0  0  0  0  0  0  0  0
    9.8840    9.0626   22.0639 H   0  0  0  0  0  0  0  0  0  0  0  0
   11.7196   15.6990   23.7655 H   0  0  0  0  0  0  0  0  0  0  0  0
   13.2477   15.1682   23.0272 H   0  0  0  0  0  0  0  0  0  0  0  0
   12.4594   16.6738   22.5077 H   0  0  0  0  0  0  0  0  0  0  0  0
   11.7113   14.2450   19.6985 H   0  0  0  0  0  0  0  0  0  0  0  0
   13.2151   14.2486   20.6028 H   0  0  0  0  0  0  0  0  0  0  0  0
   12.5086   15.7900   20.0690 H   0  0  0  0  0  0  0  0  0  0  0  0
    9.5556   14.9678   20.7759 H   0  0  0  0  0  0  0  0  0  0  0  0
    9.5304   15.5493   22.4548 H   0  0  0  0  0  0  0  0  0  0  0  0
   10.2346   16.5406   21.1572 H   0  0  0  0  0  0  0  0  0  0  0  0
  1  3  2  0  0  0  0
  1  4  1  0  0  0  0
  2  4  2  0  0  0  0
  2 13  1  0  0  0  0
  3  5  1  0  0  0  0
  3 14  1  0  0  0  0
  4 20  1  0  0  0  0
  5 13  2  0  0  0  0
  5 19  1  0  0  0  0
  6 14  1  0  0  0  0
  6 15  2  0  0  0  0
  6 18  1  0  0  0  0
  7  8  1  0  0  0  0
  7 14  1  0  0  0  0
  8 19  1  0  0  0  0
  9 12  1  0  0  0  0
 10 12  1  0  0  0  0
 11 12  1  0  0  0  0
 12 18  1  0  0  0  0
 16 19  2  0  0  0  0
 17 19  2  0  0  0  0
  1 21  1  0  0  0  0
  2 22  1  0  0  0  0
  7 23  1  0  0  0  0
  7 24  1  0  0  0  0
  8 25  1  0  0  0  0
  8 26  1  0  0  0  0
  9 27  1  0  0  0  0
  9 28  1  0  0  0  0
  9 29  1  0  0  0  0
 10 30  1  0  0  0  0
 10 31  1  0  0  0  0
 10 32  1  0  0  0  0
 11 33  1  0  0  0  0
 11 34  1  0  0  0  0
 11 35  1  0  0  0  0
M  END
> <id>
EN300-28300105

> <smiles>
CC(C)(C)OC(=O)N1CCS(=O)(=O)C=2N=CC(Br)=CC12

> <IUPAC Name>
tert-butyl 7-bromo-4,4-dioxo-1H,2H,3H-4lambda6-pyrido[2,3-b][1,4]thiazine-1-carboxylate

> <CAS>
2680806-41-9

> <URL>
https://www.enaminestore.com/catalog/EN300-28300105

> <ROCS_ShapeQuery>
A71EV2A-x0451_0A_A71EV2A-x0310_0A_A71EV2A-x0416_0A_peptide

> <ROCS_TanimotoCombo>
0.501 

> <ROCS_ShapeTanimoto>
0.361 

> <ROCS_ColorTanimoto>
0.139 

> <ROCS_RefTversky>
0.311 

> <ROCS_RefColorTversky>
0.159 

> <ROCS_RefTverskyCombo>
0.470 

> <ROCS_FitTversky>
1.815 

> <ROCS_FitColorTversky>
0.529 

> <ROCS_FitTverskyCombo>
2.344 

> <ROCS_ColorScore>
-4.859

> <ROCS_Overlap>
2158.187

> <ROCS_Rank>
118                 

$$$$
untitled-dbase-45471_17
  -OEChem-11132313473D

 43 45  0     0  0  0  0  0  0999 V2000
    6.9487   10.1565   25.1546 C   0  0  0  0  0  0  0  0  0  0  0  0
    6.3257   11.0841   25.9900 C   0  0  0  0  0  0  0  0  0  0  0  0
    7.8963   12.8091   25.3046 C   0  0  0  0  0  0  0  0  0  0  0  0
    8.0406   10.5643   24.3974 C   0  0  0  0  0  0  0  0  0  0  0  0
    8.5045   11.8819   24.4702 C   0  0  0  0  0  0  0  0  0  0  0  0
    6.7984   12.4003   26.0660 C   0  0  0  0  0  0  0  0  0  0  0  0
   10.3395   13.2172   23.4291 C   0  0  0  0  0  0  0  0  0  0  0  0
    8.1757    7.4720   22.9219 C   0  0  0  0  0  0  0  0  0  0  0  0
    9.5711    7.3803   23.5122 C   0  0  0  0  0  0  0  0  0  0  0  0
    8.1041    8.9137   22.4346 C   0  0  0  0  0  0  0  0  0  0  0  0
    9.7303    8.6946   24.2689 C   0  0  0  0  0  0  0  0  0  0  0  0
    9.7734   10.8201   22.8168 C   0  0  0  0  0  0  0  0  0  0  0  0
    8.8970    9.7279   23.4746 C   0  0  0  0  0  0  0  0  0  0  0  0
   12.8042   14.4841   22.7083 C   0  0  0  0  0  0  0  0  0  0  0  0
   11.9151   14.4637   20.3592 C   0  0  0  0  0  0  0  0  0  0  0  0
   10.7072   15.7557   22.1424 C   0  0  0  0  0  0  0  0  0  0  0  0
   11.5470   14.5154   21.8404 C   0  0  0  0  0  0  0  0  0  0  0  0
    9.5940   12.0588   23.5980 N   0  0  0  0  0  0  0  0  0  0  0  0
   10.6062   14.0353   24.3048 O   0  0  0  0  0  0  0  0  0  0  0  0
   10.7634   13.3522   22.1311 O   0  0  0  0  0  0  0  0  0  0  0  0
    5.9346   13.6385   27.2067 Br  0  0  0  0  0  0  0  0  0  0  0  0
    6.5760    9.1416   25.1156 H   0  0  0  0  0  0  0  0  0  0  0  0
    5.4710   10.7673   26.5820 H   0  0  0  0  0  0  0  0  0  0  0  0
    8.2427   13.8335   25.3688 H   0  0  0  0  0  0  0  0  0  0  0  0
    8.0431    6.7803   22.1012 H   0  0  0  0  0  0  0  0  0  0  0  0
    7.4250    7.2723   23.6744 H   0  0  0  0  0  0  0  0  0  0  0  0
    9.6432    6.5360   24.1931 H   0  0  0  0  0  0  0  0  0  0  0  0
   10.3334    7.2657   22.7474 H   0  0  0  0  0  0  0  0  0  0  0  0
    8.5941    8.9762   21.4590 H   0  0  0  0  0  0  0  0  0  0  0  0
    7.0751    9.2544   22.3166 H   0  0  0  0  0  0  0  0  0  0  0  0
    9.4224    8.6016   25.3154 H   0  0  0  0  0  0  0  0  0  0  0  0
   10.7906    8.9764   24.2576 H   0  0  0  0  0  0  0  0  0  0  0  0
   10.8368   10.5616   22.7862 H   0  0  0  0  0  0  0  0  0  0  0  0
    9.4529   11.0438   21.7924 H   0  0  0  0  0  0  0  0  0  0  0  0
   12.5442   14.5210   23.7722 H   0  0  0  0  0  0  0  0  0  0  0  0
   13.3976   13.5820   22.5264 H   0  0  0  0  0  0  0  0  0  0  0  0
   13.4355   15.3586   22.5138 H   0  0  0  0  0  0  0  0  0  0  0  0
   11.0161   14.4859   19.7327 H   0  0  0  0  0  0  0  0  0  0  0  0
   12.4358   13.5297   20.1188 H   0  0  0  0  0  0  0  0  0  0  0  0
   12.5579   15.3025   20.0731 H   0  0  0  0  0  0  0  0  0  0  0  0
    9.8054   15.7784   21.5200 H   0  0  0  0  0  0  0  0  0  0  0  0
   10.4027   15.7904   23.1934 H   0  0  0  0  0  0  0  0  0  0  0  0
   11.2656   16.6701   21.9112 H   0  0  0  0  0  0  0  0  0  0  0  0
  1  2  1  0  0  0  0
  1  4  2  0  0  0  0
  2  6  2  0  0  0  0
  3  5  2  0  0  0  0
  3  6  1  0  0  0  0
  4  5  1  0  0  0  0
  4 13  1  0  0  0  0
  5 18  1  0  0  0  0
  6 21  1  0  0  0  0
  7 18  1  0  0  0  0
  7 19  2  0  0  0  0
  7 20  1  0  0  0  0
  8  9  1  0  0  0  0
  8 10  1  0  0  0  0
  9 11  1  0  0  0  0
 10 13  1  0  0  0  0
 11 13  1  0  0  0  0
 12 13  1  0  0  0  0
 12 18  1  0  0  0  0
 14 17  1  0  0  0  0
 15 17  1  0  0  0  0
 16 17  1  0  0  0  0
 17 20  1  0  0  0  0
  1 22  1  0  0  0  0
  2 23  1  0  0  0  0
  3 24  1  0  0  0  0
  8 25  1  0  0  0  0
  8 26  1  0  0  0  0
  9 27  1  0  0  0  0
  9 28  1  0  0  0  0
 10 29  1  0  0  0  0
 10 30  1  0  0  0  0
 11 31  1  0  0  0  0
 11 32  1  0  0  0  0
 12 33  1  0  0  0  0
 12 34  1  0  0  0  0
 14 35  1  0  0  0  0
 14 36  1  0  0  0  0
 14 37  1  0  0  0  0
 15 38  1  0  0  0  0
 15 39  1  0  0  0  0
 15 40  1  0  0  0  0
 16 41  1  0  0  0  0
 16 42  1  0  0  0  0
 16 43  1  0  0  0  0
M  END
> <id>
EN300-28298773

> <smiles>
CC(C)(C)OC(=O)N1CC2(CCCC2)C=3C=CC(Br)=CC13

> <IUPAC Name>
tert-butyl 6'-bromo-1',2'-dihydrospiro[cyclopentane-1,3'-indole]-1'-carboxylate

> <CAS>
2680886-73-9

> <URL>
https://www.enaminestore.com/catalog/EN300-28298773

> <ROCS_ShapeQuery>
A71EV2A-x0451_0A_A71EV2A-x0310_0A_A71EV2A-x0416_0A_peptide

> <ROCS_TanimotoCombo>
0.501 

> <ROCS_ShapeTanimoto>
0.370 

> <ROCS_ColorTanimoto>
0.131 

> <ROCS_RefTversky>
0.319 

> <ROCS_RefColorTversky>
0.143 

> <ROCS_RefTverskyCombo>
0.462 

> <ROCS_FitTversky>
1.765 

> <ROCS_FitColorTversky>
0.596 

> <ROCS_FitTverskyCombo>
2.362 

> <ROCS_ColorScore>
-4.356

> <ROCS_Overlap>
2214.536

> <ROCS_Rank>
119                 

$$$$
untitled-dbase-21993_0
  -OEChem-11132313473D

 31 32  0     1  0  0  0  0  0999 V2000
    9.7904   11.5798   23.2045 C   0  0  1  0  0  0  0  0  0  0  0  0
    9.2046   12.3818   24.3955 C   0  0  1  0  0  0  0  0  0  0  0  0
   11.5080   13.4455   22.8035 C   0  0  2  0  0  0  0  0  0  0  0  0
   11.2654   11.9428   22.9833 C   0  0  0  0  0  0  0  0  0  0  0  0
    9.5774   10.0760   23.4155 C   0  0  0  0  0  0  0  0  0  0  0  0
    9.4282   13.8850   24.2082 C   0  0  0  0  0  0  0  0  0  0  0  0
    7.7320   12.0224   24.6172 C   0  0  0  0  0  0  0  0  0  0  0  0
   10.8948   14.2142   23.9747 C   0  0  0  0  0  0  0  0  0  0  0  0
    8.1148    9.7392   23.6476 C   0  0  0  0  0  0  0  0  0  0  0  0
    7.5368   10.5283   24.8050 C   0  0  0  0  0  0  0  0  0  0  0  0
   11.0456   13.9684   21.4443 C   0  0  0  0  0  0  0  0  0  0  0  0
    9.0981   11.9244   22.0774 F   0  0  0  0  0  0  0  0  0  0  0  0
    9.8854   12.0117   25.5254 F   0  0  0  0  0  0  0  0  0  0  0  0
   12.8619   13.6512   22.8377 F   0  0  0  0  0  0  0  0  0  0  0  0
   11.9836   11.5229   24.0629 F   0  0  0  0  0  0  0  0  0  0  0  0
   11.7591   11.2670   21.9164 F   0  0  0  0  0  0  0  0  0  0  0  0
   10.3041    9.6521   24.4813 F   0  0  0  0  0  0  0  0  0  0  0  0
   10.0294    9.3860   22.3396 F   0  0  0  0  0  0  0  0  0  0  0  0
    8.6851   14.3387   23.1689 F   0  0  0  0  0  0  0  0  0  0  0  0
    8.9953   14.5541   25.3070 F   0  0  0  0  0  0  0  0  0  0  0  0
    7.2501   12.6762   25.7023 F   0  0  0  0  0  0  0  0  0  0  0  0
    6.9936   12.4363   23.5555 F   0  0  0  0  0  0  0  0  0  0  0  0
   11.5859   13.9009   25.1062 F   0  0  0  0  0  0  0  0  0  0  0  0
   11.0462   15.5483   23.7955 F   0  0  0  0  0  0  0  0  0  0  0  0
    7.9789    8.4123   23.8808 F   0  0  0  0  0  0  0  0  0  0  0  0
    7.4071   10.0116   22.5215 F   0  0  0  0  0  0  0  0  0  0  0  0
    8.1392   10.1388   25.9577 F   0  0  0  0  0  0  0  0  0  0  0  0
    6.2190   10.2490   24.9414 F   0  0  0  0  0  0  0  0  0  0  0  0
    9.7299   13.7550   21.2937 F   0  0  0  0  0  0  0  0  0  0  0  0
   11.2862   15.2849   21.3529 F   0  0  0  0  0  0  0  0  0  0  0  0
   11.7042   13.3364   20.4613 F   0  0  0  0  0  0  0  0  0  0  0  0
  1  2  1  0  0  0  0
  1  4  1  0  0  0  0
  1  5  1  0  0  0  0
  1 12  1  0  0  0  0
  2  6  1  0  0  0  0
  2  7  1  0  0  0  0
  2 13  1  0  0  0  0
  3  4  1  0  0  0  0
  3  8  1  0  0  0  0
  3 11  1  0  0  0  0
  3 14  1  0  0  0  0
  4 15  1  0  0  0  0
  4 16  1  0  0  0  0
  5  9  1  0  0  0  0
  5 17  1  0  0  0  0
  5 18  1  0  0  0  0
  6  8  1  0  0  0  0
  6 19  1  0  0  0  0
  6 20  1  0  0  0  0
  7 10  1  0  0  0  0
  7 21  1  0  0  0  0
  7 22  1  0  0  0  0
  8 23  1  0  0  0  0
  8 24  1  0  0  0  0
  9 10  1  0  0  0  0
  9 25  1  0  0  0  0
  9 26  1  0  0  0  0
 10 27  1  0  0  0  0
 10 28  1  0  0  0  0
 11 29  1  0  0  0  0
 11 30  1  0  0  0  0
 11 31  1  0  0  0  0
M  END
> <id>
EN300-6739856

> <smiles>
FC(F)(F)C1(F)C(F)(F)C(F)(F)C2(F)C(F)(F)C(F)(F)C(F)(F)C(F)(F)C2(F)C1(F)F.FC(F)(F)C1(F)C(F)(F)C(F)(F)C(F)(F)C2(F)C(F)(F)C(F)(F)C(F)(F)C(F)(F)C12F

> <MDLNUMBER>
MFCD32640294

> <IUPAC Name>
1,1,2,2,3,3,4,4,4a,5,5,6,6,7,7,8,8a-heptadecafluoro-8-(trifluoromethyl)-decahydronaphthalene; 1,1,2,2,3,3,4,4,4a,5,5,6,6,7,8,8,8a-heptadecafluoro-7-(trifluoromethyl)-decahydronaphthalene

> <CAS>
51294-16-7

> <Purity>
95

> <URL>
https://www.enaminestore.com/catalog/EN300-6739856

> <Saltdate>
FC(F)(F)C1(F)C(F)(F)C(F)(F)C(F)(F)C2(F)C(F)(F)C(F)(F)C(F)(F)C(F)(F)C12F

> <ROCS_ShapeQuery>
A71EV2A-x0451_0A_A71EV2A-x0310_0A_A71EV2A-x0416_0A_peptide

> <ROCS_TanimotoCombo>
0.501 

> <ROCS_ShapeTanimoto>
0.448 

> <ROCS_ColorTanimoto>
0.053 

> <ROCS_RefTversky>
0.393 

> <ROCS_RefColorTversky>
0.056 

> <ROCS_RefTverskyCombo>
0.449 

> <ROCS_FitTversky>
1.452 

> <ROCS_FitColorTversky>
0.484 

> <ROCS_FitTverskyCombo>
1.936 

> <ROCS_ColorScore>
-1.687

> <ROCS_Overlap>
2742.510

> <ROCS_Rank>
120                 

$$$$
untitled-dbase-44796_6
  -OEChem-11132313473D

 35 36  0     0  0  0  0  0  0999 V2000
    7.8277   13.1716   25.1990 C   0  0  0  0  0  0  0  0  0  0  0  0
    6.6681   13.1029   25.9817 C   0  0  0  0  0  0  0  0  0  0  0  0
    6.4654   10.7624   25.4925 C   0  0  0  0  0  0  0  0  0  0  0  0
    8.3359   12.0358   24.5504 C   0  0  0  0  0  0  0  0  0  0  0  0
    7.6346   10.8253   24.7241 C   0  0  0  0  0  0  0  0  0  0  0  0
    5.9857   11.9014   26.1264 C   0  0  0  0  0  0  0  0  0  0  0  0
   10.3131   13.1893   23.4954 C   0  0  0  0  0  0  0  0  0  0  0  0
    9.7554   10.8115   22.9659 C   0  0  0  0  0  0  0  0  0  0  0  0
    9.3905    9.6077   23.8062 C   0  0  0  0  0  0  0  0  0  0  0  0
   12.8786   14.3129   22.8681 C   0  0  0  0  0  0  0  0  0  0  0  0
   12.1497   14.1698   20.4686 C   0  0  0  0  0  0  0  0  0  0  0  0
   10.8824   15.6253   22.0760 C   0  0  0  0  0  0  0  0  0  0  0  0
   11.6853   14.3354   21.9140 C   0  0  0  0  0  0  0  0  0  0  0  0
    9.4956   12.0601   23.6971 N   0  0  0  0  0  0  0  0  0  0  0  0
   10.5680   14.0632   24.3190 O   0  0  0  0  0  0  0  0  0  0  0  0
    8.0108    9.6350   24.1515 O   0  0  0  0  0  0  0  0  0  0  0  0
    4.8552   11.8423   26.8795 O   0  0  0  0  0  0  0  0  0  0  0  0
   10.8332   13.2258   22.2234 O   0  0  0  0  0  0  0  0  0  0  0  0
    8.2816   14.1507   25.1104 H   0  0  0  0  0  0  0  0  0  0  0  0
    6.2991   14.0029   26.4674 H   0  0  0  0  0  0  0  0  0  0  0  0
    5.9356    9.8189   25.6018 H   0  0  0  0  0  0  0  0  0  0  0  0
   10.8084   10.7407   22.6767 H   0  0  0  0  0  0  0  0  0  0  0  0
    9.1510   10.8512   22.0514 H   0  0  0  0  0  0  0  0  0  0  0  0
    9.5663    8.6908   23.2335 H   0  0  0  0  0  0  0  0  0  0  0  0
   10.0006    9.5428   24.7164 H   0  0  0  0  0  0  0  0  0  0  0  0
   12.5494   14.4314   23.9066 H   0  0  0  0  0  0  0  0  0  0  0  0
   13.4426   13.3780   22.7867 H   0  0  0  0  0  0  0  0  0  0  0  0
   13.5594   15.1468   22.6625 H   0  0  0  0  0  0  0  0  0  0  0  0
   11.2967   14.1854   19.7806 H   0  0  0  0  0  0  0  0  0  0  0  0
   12.6438   13.2020   20.3259 H   0  0  0  0  0  0  0  0  0  0  0  0
   12.8465   14.9615   20.1750 H   0  0  0  0  0  0  0  0  0  0  0  0
   10.0264   15.6417   21.3918 H   0  0  0  0  0  0  0  0  0  0  0  0
   10.5096   15.7426   23.0987 H   0  0  0  0  0  0  0  0  0  0  0  0
   11.4947   16.4994   21.8262 H   0  0  0  0  0  0  0  0  0  0  0  0
    4.6506   12.7158   27.2508 H   0  0  0  0  0  0  0  0  0  0  0  0
  1  2  1  0  0  0  0
  1  4  2  0  0  0  0
  2  6  2  0  0  0  0
  3  5  2  0  0  0  0
  3  6  1  0  0  0  0
  4  5  1  0  0  0  0
  4 14  1  0  0  0  0
  5 16  1  0  0  0  0
  6 17  1  0  0  0  0
  7 14  1  0  0  0  0
  7 15  2  0  0  0  0
  7 18  1  0  0  0  0
  8  9  1  0  0  0  0
  8 14  1  0  0  0  0
  9 16  1  0  0  0  0
 10 13  1  0  0  0  0
 11 13  1  0  0  0  0
 12 13  1  0  0  0  0
 13 18  1  0  0  0  0
  1 19  1  0  0  0  0
  2 20  1  0  0  0  0
  3 21  1  0  0  0  0
  8 22  1  0  0  0  0
  8 23  1  0  0  0  0
  9 24  1  0  0  0  0
  9 25  1  0  0  0  0
 10 26  1  0  0  0  0
 10 27  1  0  0  0  0
 10 28  1  0  0  0  0
 11 29  1  0  0  0  0
 11 30  1  0  0  0  0
 11 31  1  0  0  0  0
 12 32  1  0  0  0  0
 12 33  1  0  0  0  0
 12 34  1  0  0  0  0
 17 35  1  0  0  0  0
M  END
> <id>
EN300-28278948

> <smiles>
CC(C)(C)OC(=O)N1CCOC=2C=C(O)C=CC12

> <IUPAC Name>
tert-butyl 7-hydroxy-3,4-dihydro-2H-1,4-benzoxazine-4-carboxylate

> <CAS>
957204-44-3

> <URL>
https://www.enaminestore.com/catalog/EN300-28278948

> <ROCS_ShapeQuery>
A71EV2A-x0451_0A_A71EV2A-x0310_0A_A71EV2A-x0416_0A_peptide

> <ROCS_TanimotoCombo>
0.501 

> <ROCS_ShapeTanimoto>
0.342 

> <ROCS_ColorTanimoto>
0.159 

> <ROCS_RefTversky>
0.297 

> <ROCS_RefColorTversky>
0.174 

> <ROCS_RefTverskyCombo>
0.470 

> <ROCS_FitTversky>
1.812 

> <ROCS_FitColorTversky>
0.643 

> <ROCS_FitTverskyCombo>
2.455 

> <ROCS_ColorScore>
-5.298

> <ROCS_Overlap>
2057.263

> <ROCS_Rank>
121                 

$$$$
untitled-dbase-45441_3
  -OEChem-11132313473D

 34 35  0     0  0  0  0  0  0999 V2000
    7.9511   13.0326   25.3074 C   0  0  0  0  0  0  0  0  0  0  0  0
    6.6953   10.5597   25.5394 C   0  0  0  0  0  0  0  0  0  0  0  0
    8.4443   11.9613   24.5471 C   0  0  0  0  0  0  0  0  0  0  0  0
    7.7986   10.7165   24.6911 C   0  0  0  0  0  0  0  0  0  0  0  0
    6.2293   11.6364   26.2831 C   0  0  0  0  0  0  0  0  0  0  0  0
    6.8587   12.8697   26.1688 C   0  0  0  0  0  0  0  0  0  0  0  0
   10.2948   13.2546   23.4265 C   0  0  0  0  0  0  0  0  0  0  0  0
    9.7757   10.8968   22.7812 C   0  0  0  0  0  0  0  0  0  0  0  0
    9.5168    9.6281   23.5635 C   0  0  0  0  0  0  0  0  0  0  0  0
   12.7657   14.5126   22.6849 C   0  0  0  0  0  0  0  0  0  0  0  0
   11.8576   14.4979   20.3430 C   0  0  0  0  0  0  0  0  0  0  0  0
   10.6721   15.7973   22.1359 C   0  0  0  0  0  0  0  0  0  0  0  0
   11.5018   14.5518   21.8272 C   0  0  0  0  0  0  0  0  0  0  0  0
    9.5327   12.0847   23.6125 N   0  0  0  0  0  0  0  0  0  0  0  0
   10.5842   14.0823   24.2857 O   0  0  0  0  0  0  0  0  0  0  0  0
    8.1679    9.5809   24.0128 O   0  0  0  0  0  0  0  0  0  0  0  0
   10.7130   13.3931   22.1243 O   0  0  0  0  0  0  0  0  0  0  0  0
    5.1782   11.4677   27.0974 F   0  0  0  0  0  0  0  0  0  0  0  0
    6.2294   14.3497   27.1686 Br  0  0  0  0  0  0  0  0  0  0  0  0
    8.3776   14.0259   25.2369 H   0  0  0  0  0  0  0  0  0  0  0  0
    6.2035    9.5946   25.6292 H   0  0  0  0  0  0  0  0  0  0  0  0
   10.8047   10.8844   22.4093 H   0  0  0  0  0  0  0  0  0  0  0  0
    9.1012   10.9728   21.9196 H   0  0  0  0  0  0  0  0  0  0  0  0
    9.6783    8.7578   22.9186 H   0  0  0  0  0  0  0  0  0  0  0  0
   10.1979    9.5279   24.4185 H   0  0  0  0  0  0  0  0  0  0  0  0
   12.5145   14.5511   23.7510 H   0  0  0  0  0  0  0  0  0  0  0  0
   13.3519   13.6070   22.4983 H   0  0  0  0  0  0  0  0  0  0  0  0
   13.4008   15.3833   22.4854 H   0  0  0  0  0  0  0  0  0  0  0  0
   10.9537   14.5258   19.7238 H   0  0  0  0  0  0  0  0  0  0  0  0
   12.3705   13.5607   20.0985 H   0  0  0  0  0  0  0  0  0  0  0  0
   12.5033   15.3327   20.0518 H   0  0  0  0  0  0  0  0  0  0  0  0
    9.7655   15.8256   21.5208 H   0  0  0  0  0  0  0  0  0  0  0  0
   10.3763   15.8339   23.1894 H   0  0  0  0  0  0  0  0  0  0  0  0
   11.2343   16.7082   21.9003 H   0  0  0  0  0  0  0  0  0  0  0  0
  1  3  2  0  0  0  0
  1  6  1  0  0  0  0
  2  4  2  0  0  0  0
  2  5  1  0  0  0  0
  3  4  1  0  0  0  0
  3 14  1  0  0  0  0
  4 16  1  0  0  0  0
  5  6  2  0  0  0  0
  5 18  1  0  0  0  0
  6 19  1  0  0  0  0
  7 14  1  0  0  0  0
  7 15  2  0  0  0  0
  7 17  1  0  0  0  0
  8  9  1  0  0  0  0
  8 14  1  0  0  0  0
  9 16  1  0  0  0  0
 10 13  1  0  0  0  0
 11 13  1  0  0  0  0
 12 13  1  0  0  0  0
 13 17  1  0  0  0  0
  1 20  1  0  0  0  0
  2 21  1  0  0  0  0
  8 22  1  0  0  0  0
  8 23  1  0  0  0  0
  9 24  1  0  0  0  0
  9 25  1  0  0  0  0
 10 26  1  0  0  0  0
 10 27  1  0  0  0  0
 10 28  1  0  0  0  0
 11 29  1  0  0  0  0
 11 30  1  0  0  0  0
 11 31  1  0  0  0  0
 12 32  1  0  0  0  0
 12 33  1  0  0  0  0
 12 34  1  0  0  0  0
M  END
> <id>
EN300-28295862

> <smiles>
CC(C)(C)OC(=O)N1CCOC=2C=C(F)C(Br)=CC12

> <IUPAC Name>
tert-butyl 6-bromo-7-fluoro-3,4-dihydro-2H-1,4-benzoxazine-4-carboxylate

> <CAS>
2680764-00-3

> <URL>
https://www.enaminestore.com/catalog/EN300-28295862

> <ROCS_ShapeQuery>
A71EV2A-x0451_0A_A71EV2A-x0310_0A_A71EV2A-x0416_0A_peptide

> <ROCS_TanimotoCombo>
0.500 

> <ROCS_ShapeTanimoto>
0.346 

> <ROCS_ColorTanimoto>
0.154 

> <ROCS_RefTversky>
0.300 

> <ROCS_RefColorTversky>
0.166 

> <ROCS_RefTverskyCombo>
0.466 

> <ROCS_FitTversky>
1.786 

> <ROCS_FitColorTversky>
0.691 

> <ROCS_FitTverskyCombo>
2.477 

> <ROCS_ColorScore>
-5.039

> <ROCS_Overlap>
2084.027

> <ROCS_Rank>
122                 

$$$$
untitled-dbase-18124_30
  -OEChem-11132313473D

 39 41  0     1  0  0  0  0  0999 V2000
   10.0465   13.2069   23.4846 C   0  0  0  0  0  0  0  0  0  0  0  0
    9.0236   10.0526   22.7592 C   0  0  0  0  0  0  0  0  0  0  0  0
    9.8406    9.8864   24.0694 C   0  0  0  0  0  0  0  0  0  0  0  0
    6.3073   12.3879   24.2939 C   0  0  0  0  0  0  0  0  0  0  0  0
    7.5283   12.1400   26.2520 C   0  0  0  0  0  0  0  0  0  0  0  0
    7.1967   11.1743   24.0378 C   0  0  2  0  0  0  0  0  0  0  0  0
    8.0166   11.0079   25.3524 C   0  0  1  0  0  0  0  0  0  0  0  0
    8.3042   11.3978   22.9794 C   0  0  1  0  0  0  0  0  0  0  0  0
    9.4753   11.1595   24.8572 C   0  0  2  0  0  0  0  0  0  0  0  0
   12.2807   12.0552   22.1274 C   0  0  0  0  0  0  0  0  0  0  0  0
   11.6446   13.5427   20.2060 C   0  0  0  0  0  0  0  0  0  0  0  0
   12.3263   14.5568   22.4003 C   0  0  0  0  0  0  0  0  0  0  0  0
   11.6292   13.3772   21.7240 C   0  0  0  0  0  0  0  0  0  0  0  0
    6.9702   13.1572   25.3533 N   0  0  0  0  0  0  0  0  0  0  0  0
    9.3123   12.0831   23.7592 N   0  0  0  0  0  0  0  0  0  0  0  0
   10.4589   13.9883   24.3379 O   0  0  0  0  0  0  0  0  0  0  0  0
   10.2599   13.3564   22.1418 O   0  0  0  0  0  0  0  0  0  0  0  0
    9.7037   10.1066   21.9014 H   0  0  0  0  0  0  0  0  0  0  0  0
    8.3319    9.2190   22.6026 H   0  0  0  0  0  0  0  0  0  0  0  0
    9.5769    8.9658   24.5994 H   0  0  0  0  0  0  0  0  0  0  0  0
   10.9116    9.8605   23.8388 H   0  0  0  0  0  0  0  0  0  0  0  0
    6.1479   12.9945   23.3971 H   0  0  0  0  0  0  0  0  0  0  0  0
    5.3240   12.0641   24.6549 H   0  0  0  0  0  0  0  0  0  0  0  0
    6.7322   11.7780   26.9135 H   0  0  0  0  0  0  0  0  0  0  0  0
    8.3212   12.5532   26.8830 H   0  0  0  0  0  0  0  0  0  0  0  0
    6.5916   10.2891   23.8130 H   0  0  0  0  0  0  0  0  0  0  0  0
    7.8467   10.0346   25.8256 H   0  0  0  0  0  0  0  0  0  0  0  0
    7.9894   11.9029   22.0645 H   0  0  0  0  0  0  0  0  0  0  0  0
   10.2060   11.4589   25.6112 H   0  0  0  0  0  0  0  0  0  0  0  0
   12.2717   11.9326   23.2164 H   0  0  0  0  0  0  0  0  0  0  0  0
   11.7683   11.1989   21.6768 H   0  0  0  0  0  0  0  0  0  0  0  0
   13.3330   12.0287   21.8222 H   0  0  0  0  0  0  0  0  0  0  0  0
   11.1781   14.4899   19.9120 H   0  0  0  0  0  0  0  0  0  0  0  0
   11.0645   12.7493   19.7209 H   0  0  0  0  0  0  0  0  0  0  0  0
   12.6640   13.5199   19.8074 H   0  0  0  0  0  0  0  0  0  0  0  0
   11.8592   15.5052   22.1111 H   0  0  0  0  0  0  0  0  0  0  0  0
   12.2927   14.4736   23.4914 H   0  0  0  0  0  0  0  0  0  0  0  0
   13.3750   14.6208   22.0881 H   0  0  0  0  0  0  0  0  0  0  0  0
    7.7429   13.6779   24.9374 H   0  0  0  0  0  0  0  0  0  0  0  0
  1 15  1  0  0  0  0
  1 16  2  0  0  0  0
  1 17  1  0  0  0  0
  2  3  1  0  0  0  0
  2  8  1  1  0  0  0
  3  9  1  1  0  0  0
  4  6  1  0  0  0  0
  4 14  1  0  0  0  0
  5  7  1  0  0  0  0
  5 14  1  0  0  0  0
  6  7  1  0  0  0  0
  6  8  1  0  0  0  0
  7  9  1  0  0  0  0
  8 15  1  0  0  0  0
  9 15  1  0  0  0  0
 10 13  1  0  0  0  0
 11 13  1  0  0  0  0
 12 13  1  0  0  0  0
 13 17  1  0  0  0  0
  2 18  1  0  0  0  0
  2 19  1  0  0  0  0
  3 20  1  0  0  0  0
  3 21  1  0  0  0  0
  4 22  1  0  0  0  0
  4 23  1  0  0  0  0
  5 24  1  0  0  0  0
  5 25  1  0  0  0  0
  6 26  1  0  0  0  0
  7 27  1  0  0  0  0
  8 28  1  0  0  0  0
  9 29  1  0  0  0  0
 10 30  1  0  0  0  0
 10 31  1  0  0  0  0
 10 32  1  0  0  0  0
 11 33  1  0  0  0  0
 11 34  1  0  0  0  0
 11 35  1  0  0  0  0
 12 36  1  0  0  0  0
 12 37  1  0  0  0  0
 12 38  1  0  0  0  0
 14 39  1  0  0  0  0
M  END
> <id>
EN300-1653066

> <smiles>
CC(C)(C)OC(=O)N1[C@H]2CC[C@@H]1C3CNCC32

> <IUPAC Name>
tert-butyl (1R,7S)-4,10-diazatricyclo[5.2.1.0,2,6]decane-10-carboxylate

> <CAS>
2171420-73-6

> <URL>
https://www.enaminestore.com/catalog/EN300-1653066

> <ROCS_ShapeQuery>
A71EV2A-x0451_0A_A71EV2A-x0310_0A_A71EV2A-x0416_0A_peptide

> <ROCS_TanimotoCombo>
0.500 

> <ROCS_ShapeTanimoto>
0.284 

> <ROCS_ColorTanimoto>
0.216 

> <ROCS_RefTversky>
0.256 

> <ROCS_RefColorTversky>
0.250 

> <ROCS_RefTverskyCombo>
0.506 

> <ROCS_FitTversky>
1.616 

> <ROCS_FitColorTversky>
0.615 

> <ROCS_FitTverskyCombo>
2.231 

> <ROCS_ColorScore>
-7.682

> <ROCS_Overlap>
1775.986

> <ROCS_Rank>
123                 

$$$$
untitled-dbase-45518_5
  -OEChem-11132313473D

 37 38  0     0  0  0  0  0  0999 V2000
    6.2303   11.6329   26.2779 C   0  0  0  0  0  0  0  0  0  0  0  0
    7.9516   13.0311   25.3044 C   0  0  0  0  0  0  0  0  0  0  0  0
    6.6979   10.5570   25.5341 C   0  0  0  0  0  0  0  0  0  0  0  0
    8.4465   11.9606   24.5440 C   0  0  0  0  0  0  0  0  0  0  0  0
    7.8017   10.7151   24.6868 C   0  0  0  0  0  0  0  0  0  0  0  0
    6.8587   12.8668   26.1647 C   0  0  0  0  0  0  0  0  0  0  0  0
   10.2967   13.2561   23.4255 C   0  0  0  0  0  0  0  0  0  0  0  0
    9.7803   10.8981   22.7787 C   0  0  0  0  0  0  0  0  0  0  0  0
    9.5218    9.6288   23.5601 C   0  0  0  0  0  0  0  0  0  0  0  0
   12.7671   14.5165   22.6866 C   0  0  0  0  0  0  0  0  0  0  0  0
   11.8611   14.5021   20.3440 C   0  0  0  0  0  0  0  0  0  0  0  0
   10.6729   15.7996   22.1364 C   0  0  0  0  0  0  0  0  0  0  0  0
    6.0081    9.2374   25.6675 C   0  0  0  0  0  0  0  0  0  0  0  0
   11.5039   14.5550   21.8278 C   0  0  0  0  0  0  0  0  0  0  0  0
    9.5356   12.0853   23.6104 N   0  0  0  0  0  0  0  0  0  0  0  0
   10.5847   14.0836   24.2853 O   0  0  0  0  0  0  0  0  0  0  0  0
    8.1726    9.5801   24.0083 O   0  0  0  0  0  0  0  0  0  0  0  0
   10.7159   13.3955   22.1237 O   0  0  0  0  0  0  0  0  0  0  0  0
    4.9603    9.2572   26.5415 F   0  0  0  0  0  0  0  0  0  0  0  0
    5.4881    8.7752   24.4938 F   0  0  0  0  0  0  0  0  0  0  0  0
    6.8424    8.2555   26.1138 F   0  0  0  0  0  0  0  0  0  0  0  0
    6.2206   14.3391   27.1682 Br  0  0  0  0  0  0  0  0  0  0  0  0
    5.3773   11.5043   26.9398 H   0  0  0  0  0  0  0  0  0  0  0  0
    8.3766   14.0251   25.2354 H   0  0  0  0  0  0  0  0  0  0  0  0
   10.8096   10.8866   22.4078 H   0  0  0  0  0  0  0  0  0  0  0  0
    9.1066   10.9739   21.9165 H   0  0  0  0  0  0  0  0  0  0  0  0
    9.6842    8.7589   22.9149 H   0  0  0  0  0  0  0  0  0  0  0  0
   10.2020    9.5286   24.4157 H   0  0  0  0  0  0  0  0  0  0  0  0
   12.5150   14.5543   23.7525 H   0  0  0  0  0  0  0  0  0  0  0  0
   13.3543   13.6115   22.5001 H   0  0  0  0  0  0  0  0  0  0  0  0
   13.4017   15.3878   22.4880 H   0  0  0  0  0  0  0  0  0  0  0  0
   10.9577   14.5295   19.7240 H   0  0  0  0  0  0  0  0  0  0  0  0
   12.3750   13.5655   20.0994 H   0  0  0  0  0  0  0  0  0  0  0  0
   12.5062   15.3376   20.0537 H   0  0  0  0  0  0  0  0  0  0  0  0
    9.7668   15.8274   21.5205 H   0  0  0  0  0  0  0  0  0  0  0  0
   10.3761   15.8354   23.1897 H   0  0  0  0  0  0  0  0  0  0  0  0
   11.2345   16.7111   21.9017 H   0  0  0  0  0  0  0  0  0  0  0  0
  1  3  1  0  0  0  0
  1  6  2  0  0  0  0
  2  4  2  0  0  0  0
  2  6  1  0  0  0  0
  3  5  2  0  0  0  0
  3 13  1  0  0  0  0
  4  5  1  0  0  0  0
  4 15  1  0  0  0  0
  5 17  1  0  0  0  0
  6 22  1  0  0  0  0
  7 15  1  0  0  0  0
  7 16  2  0  0  0  0
  7 18  1  0  0  0  0
  8  9  1  0  0  0  0
  8 15  1  0  0  0  0
  9 17  1  0  0  0  0
 10 14  1  0  0  0  0
 11 14  1  0  0  0  0
 12 14  1  0  0  0  0
 13 19  1  0  0  0  0
 13 20  1  0  0  0  0
 13 21  1  0  0  0  0
 14 18  1  0  0  0  0
  1 23  1  0  0  0  0
  2 24  1  0  0  0  0
  8 25  1  0  0  0  0
  8 26  1  0  0  0  0
  9 27  1  0  0  0  0
  9 28  1  0  0  0  0
 10 29  1  0  0  0  0
 10 30  1  0  0  0  0
 10 31  1  0  0  0  0
 11 32  1  0  0  0  0
 11 33  1  0  0  0  0
 11 34  1  0  0  0  0
 12 35  1  0  0  0  0
 12 36  1  0  0  0  0
 12 37  1  0  0  0  0
M  END
> <id>
EN300-28301970

> <smiles>
CC(C)(C)OC(=O)N1CCOC=2C(=CC(Br)=CC12)C(F)(F)F

> <IUPAC Name>
tert-butyl 6-bromo-8-(trifluoromethyl)-3,4-dihydro-2H-1,4-benzoxazine-4-carboxylate

> <CAS>
2680895-10-5

> <URL>
https://www.enaminestore.com/catalog/EN300-28301970

> <ROCS_ShapeQuery>
A71EV2A-x0451_0A_A71EV2A-x0310_0A_A71EV2A-x0416_0A_peptide

> <ROCS_TanimotoCombo>
0.500 

> <ROCS_ShapeTanimoto>
0.346 

> <ROCS_ColorTanimoto>
0.154 

> <ROCS_RefTversky>
0.305 

> <ROCS_RefColorTversky>
0.166 

> <ROCS_RefTverskyCombo>
0.471 

> <ROCS_FitTversky>
1.623 

> <ROCS_FitColorTversky>
0.691 

> <ROCS_FitTverskyCombo>
2.314 

> <ROCS_ColorScore>
-5.039

> <ROCS_Overlap>
2120.920

> <ROCS_Rank>
124                 

$$$$
untitled-dbase-43919_125
  -OEChem-11132313473D

 35 36  0     1  0  0  0  0  0999 V2000
   10.7699   13.1040   23.7301 C   0  0  0  0  0  0  0  0  0  0  0  0
    7.9736   11.0795   22.6855 C   0  0  0  0  0  0  0  0  0  0  0  0
   10.2751   10.6954   23.0917 C   0  0  0  0  0  0  0  0  0  0  0  0
    8.9179    9.9768   23.1875 C   0  0  1  0  0  0  0  0  0  0  0  0
    8.4624   12.0907   23.7256 C   0  0  1  0  0  0  0  0  0  0  0  0
    8.5039    9.8763   24.6761 C   0  0  1  0  0  0  0  0  0  0  0  0
    8.1769   11.3461   25.0454 C   0  0  2  0  0  0  0  0  0  0  0  0
   12.2290   15.4033   22.8649 C   0  0  0  0  0  0  0  0  0  0  0  0
   13.3752   13.8449   21.2628 C   0  0  0  0  0  0  0  0  0  0  0  0
   10.8964   14.2124   21.0928 C   0  0  0  0  0  0  0  0  0  0  0  0
   12.0912   14.1238   22.0412 C   0  0  0  0  0  0  0  0  0  0  0  0
    9.9111   12.0477   23.5120 N   0  0  0  0  0  0  0  0  0  0  0  0
   10.5647   14.0072   24.5372 O   0  0  0  0  0  0  0  0  0  0  0  0
    7.3797    9.0211   24.8018 O   0  0  0  0  0  0  0  0  0  0  0  0
    6.8201   11.5320   25.4136 O   0  0  0  0  0  0  0  0  0  0  0  0
   11.8824   13.0259   22.9363 O   0  0  0  0  0  0  0  0  0  0  0  0
    8.1826   11.3897   21.6557 H   0  0  0  0  0  0  0  0  0  0  0  0
    6.9131   10.8249   22.7811 H   0  0  0  0  0  0  0  0  0  0  0  0
   11.0453   10.2820   23.7495 H   0  0  0  0  0  0  0  0  0  0  0  0
   10.6515   10.7427   22.0645 H   0  0  0  0  0  0  0  0  0  0  0  0
    8.8551    9.0394   22.6313 H   0  0  0  0  0  0  0  0  0  0  0  0
    8.0345   13.0928   23.6533 H   0  0  0  0  0  0  0  0  0  0  0  0
    9.3215    9.4749   25.2845 H   0  0  0  0  0  0  0  0  0  0  0  0
    8.8132   11.7176   25.8564 H   0  0  0  0  0  0  0  0  0  0  0  0
   11.3094   15.6070   23.4252 H   0  0  0  0  0  0  0  0  0  0  0  0
   13.0610   15.3391   23.5738 H   0  0  0  0  0  0  0  0  0  0  0  0
   12.3938   16.2707   22.2155 H   0  0  0  0  0  0  0  0  0  0  0  0
   13.2808   12.9277   20.6703 H   0  0  0  0  0  0  0  0  0  0  0  0
   14.2184   13.6865   21.9447 H   0  0  0  0  0  0  0  0  0  0  0  0
   13.6256   14.6696   20.5876 H   0  0  0  0  0  0  0  0  0  0  0  0
   10.7974   13.2947   20.5018 H   0  0  0  0  0  0  0  0  0  0  0  0
    9.9607   14.3755   21.6372 H   0  0  0  0  0  0  0  0  0  0  0  0
   11.0286   15.0298   20.3748 H   0  0  0  0  0  0  0  0  0  0  0  0
    7.1544    8.9864   25.7465 H   0  0  0  0  0  0  0  0  0  0  0  0
    6.2787   11.1702   24.6922 H   0  0  0  0  0  0  0  0  0  0  0  0
  1 12  1  0  0  0  0
  1 13  2  0  0  0  0
  1 16  1  0  0  0  0
  2  4  1  0  0  0  0
  2  5  1  0  0  0  0
  3  4  1  6  0  0  0
  3 12  1  0  0  0  0
  4  6  1  0  0  0  0
  5  7  1  0  0  0  0
  5 12  1  6  0  0  0
  6  7  1  0  0  0  0
  6 14  1  1  0  0  0
  7 15  1  1  0  0  0
  8 11  1  0  0  0  0
  9 11  1  0  0  0  0
 10 11  1  0  0  0  0
 11 16  1  0  0  0  0
  2 17  1  0  0  0  0
  2 18  1  0  0  0  0
  3 19  1  0  0  0  0
  3 20  1  0  0  0  0
  4 21  1  0  0  0  0
  5 22  1  0  0  0  0
  6 23  1  0  0  0  0
  7 24  1  0  0  0  0
  8 25  1  0  0  0  0
  8 26  1  0  0  0  0
  8 27  1  0  0  0  0
  9 28  1  0  0  0  0
  9 29  1  0  0  0  0
  9 30  1  0  0  0  0
 10 31  1  0  0  0  0
 10 32  1  0  0  0  0
 10 33  1  0  0  0  0
 14 34  1  0  0  0  0
 15 35  1  0  0  0  0
M  END
> <id>
EN300-7254121

> <smiles>
CC(C)(C)OC(=O)N1C[C@@H]2C[C@H]1[C@@H](O)[C@H]2O |&1:9,11,12,14,r|

> <IUPAC Name>
rac-tert-butyl (1R,4R,5R,6S)-5,6-dihydroxy-2-azabicyclo[2.2.1]heptane-2-carboxylate

> <CAS>
2639390-14-8

> <URL>
https://www.enaminestore.com/catalog/EN300-7254121

> <ROCS_ShapeQuery>
A71EV2A-x0451_0A_A71EV2A-x0310_0A_A71EV2A-x0416_0A_peptide

> <ROCS_TanimotoCombo>
0.500 

> <ROCS_ShapeTanimoto>
0.300 

> <ROCS_ColorTanimoto>
0.200 

> <ROCS_RefTversky>
0.265 

> <ROCS_RefColorTversky>
0.239 

> <ROCS_RefTverskyCombo>
0.504 

> <ROCS_FitTversky>
1.762 

> <ROCS_FitColorTversky>
0.551 

> <ROCS_FitTverskyCombo>
2.314 

> <ROCS_ColorScore>
-7.352

> <ROCS_Overlap>
1839.026

> <ROCS_Rank>
125                 

$$$$
untitled-dbase-50288_71
  -OEChem-11132313473D

 35 36  0     0  0  0  0  0  0999 V2000
   10.3768   13.3363   23.3609 C   0  0  0  0  0  0  0  0  0  0  0  0
    8.4977   11.3004   25.6125 C   0  0  0  0  0  0  0  0  0  0  0  0
    7.1519   11.3179   23.9392 C   0  0  0  0  0  0  0  0  0  0  0  0
    9.8465    9.7633   23.5917 C   0  0  0  0  0  0  0  0  0  0  0  0
    9.8165   11.0127   22.7148 C   0  0  0  0  0  0  0  0  0  0  0  0
    7.7191   10.2119   24.8510 C   0  0  0  0  0  0  0  0  0  0  0  0
    8.3280   12.2247   24.3793 C   0  0  0  0  0  0  0  0  0  0  0  0
   12.2434   15.3818   22.6382 C   0  0  0  0  0  0  0  0  0  0  0  0
   11.9282   14.5781   20.2793 C   0  0  0  0  0  0  0  0  0  0  0  0
    9.9787   15.5239   21.5494 C   0  0  0  0  0  0  0  0  0  0  0  0
   11.2773   14.7254   21.6530 C   0  0  0  0  0  0  0  0  0  0  0  0
    8.5447    9.2896   24.0605 N   0  0  0  0  0  0  0  0  0  0  0  0
    9.5215   12.2288   23.4771 N   0  0  0  0  0  0  0  0  0  0  0  0
   10.5789   14.1596   24.2513 O   0  0  0  0  0  0  0  0  0  0  0  0
   10.9671   13.4098   22.1267 O   0  0  0  0  0  0  0  0  0  0  0  0
    7.9530   11.6749   26.4899 H   0  0  0  0  0  0  0  0  0  0  0  0
    9.5142   11.0714   25.9450 H   0  0  0  0  0  0  0  0  0  0  0  0
    7.0401   11.1090   22.8723 H   0  0  0  0  0  0  0  0  0  0  0  0
    6.1819   11.6956   24.2904 H   0  0  0  0  0  0  0  0  0  0  0  0
   10.4126    8.9592   23.1076 H   0  0  0  0  0  0  0  0  0  0  0  0
   10.4235   10.0176   24.4898 H   0  0  0  0  0  0  0  0  0  0  0  0
   10.7652   11.1593   22.1868 H   0  0  0  0  0  0  0  0  0  0  0  0
    9.0548   10.8721   21.9400 H   0  0  0  0  0  0  0  0  0  0  0  0
    6.9521    9.6943   25.4363 H   0  0  0  0  0  0  0  0  0  0  0  0
    8.0363   13.2361   24.6851 H   0  0  0  0  0  0  0  0  0  0  0  0
   11.7799   15.4893   23.6254 H   0  0  0  0  0  0  0  0  0  0  0  0
   13.1646   14.8002   22.7479 H   0  0  0  0  0  0  0  0  0  0  0  0
   12.5096   16.3930   22.3099 H   0  0  0  0  0  0  0  0  0  0  0  0
   11.2386   14.1076   19.5693 H   0  0  0  0  0  0  0  0  0  0  0  0
   12.8084   13.9271   20.3323 H   0  0  0  0  0  0  0  0  0  0  0  0
   12.2372   15.5465   19.8727 H   0  0  0  0  0  0  0  0  0  0  0  0
    9.2855   15.0533   20.8428 H   0  0  0  0  0  0  0  0  0  0  0  0
    9.4787   15.6083   22.5197 H   0  0  0  0  0  0  0  0  0  0  0  0
   10.1713   16.5332   21.1679 H   0  0  0  0  0  0  0  0  0  0  0  0
    8.0408    8.9074   23.2597 H   0  0  0  0  0  0  0  0  0  0  0  0
  1 13  1  0  0  0  0
  1 14  2  0  0  0  0
  1 15  1  0  0  0  0
  2  6  1  0  0  0  0
  2  7  1  0  0  0  0
  3  6  1  0  0  0  0
  3  7  1  0  0  0  0
  4  5  1  0  0  0  0
  4 12  1  0  0  0  0
  5 13  1  0  0  0  0
  6 12  1  0  0  0  0
  7 13  1  0  0  0  0
  8 11  1  0  0  0  0
  9 11  1  0  0  0  0
 10 11  1  0  0  0  0
 11 15  1  0  0  0  0
  2 16  1  0  0  0  0
  2 17  1  0  0  0  0
  3 18  1  0  0  0  0
  3 19  1  0  0  0  0
  4 20  1  0  0  0  0
  4 21  1  0  0  0  0
  5 22  1  0  0  0  0
  5 23  1  0  0  0  0
  6 24  1  0  0  0  0
  7 25  1  0  0  0  0
  8 26  1  0  0  0  0
  8 27  1  0  0  0  0
  8 28  1  0  0  0  0
  9 29  1  0  0  0  0
  9 30  1  0  0  0  0
  9 31  1  0  0  0  0
 10 32  1  0  0  0  0
 10 33  1  0  0  0  0
 10 34  1  0  0  0  0
 12 35  1  0  0  0  0
M  END
> <id>
EN300-7279672

> <smiles>
CC(C)(C)OC(=O)N1CCNC2CC1C2

> <MDLNUMBER>
MFCD28611487

> <IUPAC Name>
tert-butyl 2,5-diazabicyclo[4.1.1]octane-2-carboxylate

> <CAS>
1780378-18-8

> <Purity>
95

> <URL>
https://www.enaminestore.com/catalog/EN300-7279672

> <ROCS_ShapeQuery>
A71EV2A-x0451_0A_A71EV2A-x0310_0A_A71EV2A-x0416_0A_peptide

> <ROCS_TanimotoCombo>
0.500 

> <ROCS_ShapeTanimoto>
0.289 

> <ROCS_ColorTanimoto>
0.211 

> <ROCS_RefTversky>
0.256 

> <ROCS_RefColorTversky>
0.236 

> <ROCS_RefTverskyCombo>
0.492 

> <ROCS_FitTversky>
1.799 

> <ROCS_FitColorTversky>
0.665 

> <ROCS_FitTverskyCombo>
2.465 

> <ROCS_ColorScore>
-7.212

> <ROCS_Overlap>
1776.024

> <ROCS_Rank>
126                 

$$$$
untitled-dbase-47306_41
  -OEChem-11132313473D

 35 36  0     0  0  0  0  0  0999 V2000
   10.3758   13.3361   23.3608 C   0  0  0  0  0  0  0  0  0  0  0  0
    8.4981   11.2994   25.6128 C   0  0  0  0  0  0  0  0  0  0  0  0
    7.1513   11.3176   23.9403 C   0  0  0  0  0  0  0  0  0  0  0  0
    9.8457    9.7631   23.5908 C   0  0  0  0  0  0  0  0  0  0  0  0
    9.8153   11.0127   22.7144 C   0  0  0  0  0  0  0  0  0  0  0  0
    7.7189   10.2112   24.8513 C   0  0  0  0  0  0  0  0  0  0  0  0
    8.3277   12.2242   24.3801 C   0  0  0  0  0  0  0  0  0  0  0  0
   12.2419   15.3817   22.6376 C   0  0  0  0  0  0  0  0  0  0  0  0
   11.9254   14.5787   20.2787 C   0  0  0  0  0  0  0  0  0  0  0  0
    9.9766   15.5240   21.5501 C   0  0  0  0  0  0  0  0  0  0  0  0
   11.2753   14.7256   21.6528 C   0  0  0  0  0  0  0  0  0  0  0  0
    8.5441    9.2892   24.0602 N   0  0  0  0  0  0  0  0  0  0  0  0
    9.5206   12.2285   23.4771 N   0  0  0  0  0  0  0  0  0  0  0  0
   10.5784   14.1591   24.2514 O   0  0  0  0  0  0  0  0  0  0  0  0
   10.9655   13.4099   22.1263 O   0  0  0  0  0  0  0  0  0  0  0  0
    7.9517   11.6731   26.4896 H   0  0  0  0  0  0  0  0  0  0  0  0
    9.5147   11.0785   25.9478 H   0  0  0  0  0  0  0  0  0  0  0  0
    7.0396   11.1037   22.8736 H   0  0  0  0  0  0  0  0  0  0  0  0
    6.1811   11.6955   24.2908 H   0  0  0  0  0  0  0  0  0  0  0  0
   10.2785    8.9501   22.9942 H   0  0  0  0  0  0  0  0  0  0  0  0
   10.5418    9.8913   24.4276 H   0  0  0  0  0  0  0  0  0  0  0  0
   10.7905   11.1146   22.2257 H   0  0  0  0  0  0  0  0  0  0  0  0
    9.0778   10.9245   21.9088 H   0  0  0  0  0  0  0  0  0  0  0  0
    6.9632    9.6906   25.4477 H   0  0  0  0  0  0  0  0  0  0  0  0
    7.9888   13.2361   24.6261 H   0  0  0  0  0  0  0  0  0  0  0  0
   11.7790   15.4889   23.6251 H   0  0  0  0  0  0  0  0  0  0  0  0
   13.1631   14.8002   22.7467 H   0  0  0  0  0  0  0  0  0  0  0  0
   12.5078   16.3931   22.3094 H   0  0  0  0  0  0  0  0  0  0  0  0
   11.2354   14.1083   19.5689 H   0  0  0  0  0  0  0  0  0  0  0  0
   12.8056   13.9278   20.3310 H   0  0  0  0  0  0  0  0  0  0  0  0
   12.2341   15.5472   19.8722 H   0  0  0  0  0  0  0  0  0  0  0  0
    9.2830   15.0536   20.8438 H   0  0  0  0  0  0  0  0  0  0  0  0
    9.4771   15.6081   22.5207 H   0  0  0  0  0  0  0  0  0  0  0  0
   10.1688   16.5334   21.1688 H   0  0  0  0  0  0  0  0  0  0  0  0
    8.0376    8.8716   23.2795 H   0  0  0  0  0  0  0  0  0  0  0  0
  1 13  1  0  0  0  0
  1 14  2  0  0  0  0
  1 15  1  0  0  0  0
  2  6  1  1  0  0  0
  2  7  1  1  0  0  0
  3  6  1  0  0  0  0
  3  7  1  0  0  0  0
  4  5  1  0  0  0  0
  4 12  1  0  0  0  0
  5 13  1  0  0  0  0
  6 12  1  0  0  0  0
  7 13  1  0  0  0  0
  8 11  1  0  0  0  0
  9 11  1  0  0  0  0
 10 11  1  0  0  0  0
 11 15  1  0  0  0  0
  2 16  1  0  0  0  0
  2 17  1  0  0  0  0
  3 18  1  0  0  0  0
  3 19  1  0  0  0  0
  4 20  1  0  0  0  0
  4 21  1  0  0  0  0
  5 22  1  0  0  0  0
  5 23  1  0  0  0  0
  6 24  1  0  0  0  0
  7 25  1  0  0  0  0
  8 26  1  0  0  0  0
  8 27  1  0  0  0  0
  8 28  1  0  0  0  0
  9 29  1  0  0  0  0
  9 30  1  0  0  0  0
  9 31  1  0  0  0  0
 10 32  1  0  0  0  0
 10 33  1  0  0  0  0
 10 34  1  0  0  0  0
 12 35  1  0  0  0  0
M  END
> <id>
EN300-37468189

> <smiles>
CC(C)(C)OC(=O)N1CCN[C@H]2C[C@@H]1C2

> <IUPAC Name>
tert-butyl (1s,6s)-2,5-diazabicyclo[4.1.1]octane-2-carboxylate

> <URL>
https://www.enaminestore.com/catalog/EN300-37468189

> <ROCS_ShapeQuery>
A71EV2A-x0451_0A_A71EV2A-x0310_0A_A71EV2A-x0416_0A_peptide

> <ROCS_TanimotoCombo>
0.500 

> <ROCS_ShapeTanimoto>
0.289 

> <ROCS_ColorTanimoto>
0.211 

> <ROCS_RefTversky>
0.256 

> <ROCS_RefColorTversky>
0.236 

> <ROCS_RefTverskyCombo>
0.492 

> <ROCS_FitTversky>
1.799 

> <ROCS_FitColorTversky>
0.665 

> <ROCS_FitTverskyCombo>
2.464 

> <ROCS_ColorScore>
-7.212

> <ROCS_Overlap>
1775.975

> <ROCS_Rank>
127                 

$$$$
untitled-dbase-36822_16
  -OEChem-11132313473D

 39 40  0     1  0  0  0  0  0999 V2000
   10.3774   13.1220   23.4820 C   0  0  0  0  0  0  0  0  0  0  0  0
    9.0680    9.6057   22.7552 C   0  0  0  0  0  0  0  0  0  0  0  0
   10.0680   10.7524   22.7780 C   0  0  0  0  0  0  0  0  0  0  0  0
    6.7729   10.8677   24.2914 C   0  0  0  0  0  0  0  0  0  0  0  0
    8.2423   12.6596   25.5938 C   0  0  0  0  0  0  0  0  0  0  0  0
    8.1105   10.3510   24.8447 C   0  0  2  0  0  0  0  0  0  0  0  0
    9.0853   11.5507   24.9320 C   0  0  1  0  0  0  0  0  0  0  0  0
   12.0101   14.5011   20.3850 C   0  0  0  0  0  0  0  0  0  0  0  0
   10.7166   15.7741   22.1155 C   0  0  0  0  0  0  0  0  0  0  0  0
   12.8655   14.6399   22.7353 C   0  0  0  0  0  0  0  0  0  0  0  0
   11.6076   14.5533   21.8633 C   0  0  0  0  0  0  0  0  0  0  0  0
    8.6408    9.2157   24.0950 N   0  0  0  0  0  0  0  0  0  0  0  0
    9.6737   11.8953   23.6206 N   0  0  0  0  0  0  0  0  0  0  0  0
   10.8738   13.3551   22.2012 N   0  0  0  0  0  0  0  0  0  0  0  0
   10.5371   13.9280   24.4022 O   0  0  0  0  0  0  0  0  0  0  0  0
    5.6617   12.4690   26.0639 O   0  0  0  0  0  0  0  0  0  0  0  0
    6.4349   13.4382   23.8506 O   0  0  0  0  0  0  0  0  0  0  0  0
    6.5885   12.5105   24.9521 S   0  0  0  0  0  0  0  0  0  0  0  0
    8.1823    9.9060   22.1754 H   0  0  0  0  0  0  0  0  0  0  0  0
    9.4932    8.7373   22.2267 H   0  0  0  0  0  0  0  0  0  0  0  0
   11.0504   10.3741   23.0968 H   0  0  0  0  0  0  0  0  0  0  0  0
   10.2111   11.1520   21.7614 H   0  0  0  0  0  0  0  0  0  0  0  0
    6.7301   10.8960   23.2039 H   0  0  0  0  0  0  0  0  0  0  0  0
    5.9486   10.2662   24.6777 H   0  0  0  0  0  0  0  0  0  0  0  0
    8.2205   12.5620   26.6892 H   0  0  0  0  0  0  0  0  0  0  0  0
    8.6063   13.6669   25.3391 H   0  0  0  0  0  0  0  0  0  0  0  0
    7.9044    9.9754   25.8989 H   0  0  0  0  0  0  0  0  0  0  0  0
    9.8708   11.2368   25.6288 H   0  0  0  0  0  0  0  0  0  0  0  0
   12.6493   13.6346   20.1788 H   0  0  0  0  0  0  0  0  0  0  0  0
   11.1312   14.4331   19.7345 H   0  0  0  0  0  0  0  0  0  0  0  0
   12.5747   15.3957   20.0975 H   0  0  0  0  0  0  0  0  0  0  0  0
   10.4153   15.8330   23.1679 H   0  0  0  0  0  0  0  0  0  0  0  0
    9.7987   15.7237   21.5184 H   0  0  0  0  0  0  0  0  0  0  0  0
   11.2342   16.7054   21.8603 H   0  0  0  0  0  0  0  0  0  0  0  0
   12.6065   14.6787   23.7997 H   0  0  0  0  0  0  0  0  0  0  0  0
   13.5200   13.7754   22.5784 H   0  0  0  0  0  0  0  0  0  0  0  0
   13.4425   15.5442   22.5092 H   0  0  0  0  0  0  0  0  0  0  0  0
    7.9266    8.4801   24.0213 H   0  0  0  0  0  0  0  0  0  0  0  0
   10.7140   12.6595   21.4825 H   0  0  0  0  0  0  0  0  0  0  0  0
  1 13  1  0  0  0  0
  1 14  1  0  0  0  0
  1 15  2  0  0  0  0
  2  3  1  0  0  0  0
  2 12  1  0  0  0  0
  3 13  1  0  0  0  0
  4  6  1  6  0  0  0
  4 18  1  0  0  0  0
  5  7  1  6  0  0  0
  5 18  1  0  0  0  0
  6  7  1  0  0  0  0
  6 12  1  0  0  0  0
  7 13  1  0  0  0  0
  8 11  1  0  0  0  0
  9 11  1  0  0  0  0
 10 11  1  0  0  0  0
 11 14  1  0  0  0  0
 16 18  2  0  0  0  0
 17 18  2  0  0  0  0
  2 19  1  0  0  0  0
  2 20  1  0  0  0  0
  3 21  1  0  0  0  0
  3 22  1  0  0  0  0
  4 23  1  0  0  0  0
  4 24  1  0  0  0  0
  5 25  1  0  0  0  0
  5 26  1  0  0  0  0
  6 27  1  0  0  0  0
  7 28  1  0  0  0  0
  8 29  1  0  0  0  0
  8 30  1  0  0  0  0
  8 31  1  0  0  0  0
  9 32  1  0  0  0  0
  9 33  1  0  0  0  0
  9 34  1  0  0  0  0
 10 35  1  0  0  0  0
 10 36  1  0  0  0  0
 10 37  1  0  0  0  0
 12 38  1  0  0  0  0
 14 39  1  0  0  0  0
M  END
> <id>
EN300-714820

> <smiles>
CC(C)(C)NC(=O)N1CCN[C@@H]2CS(=O)(=O)C[C@@H]21 |&1:11,17,r|

> <IUPAC Name>
rac-(4aR,7aS)-N-tert-butyl-6,6-dioxo-octahydro-6lambda6-thieno[3,4-b]piperazine-1-carboxamide

> <CAS>
2137661-12-0

> <URL>
https://www.enaminestore.com/catalog/EN300-714820

> <ROCS_ShapeQuery>
A71EV2A-x0451_0A_A71EV2A-x0310_0A_A71EV2A-x0416_0A_peptide

> <ROCS_TanimotoCombo>
0.500 

> <ROCS_ShapeTanimoto>
0.320 

> <ROCS_ColorTanimoto>
0.180 

> <ROCS_RefTversky>
0.280 

> <ROCS_RefColorTversky>
0.203 

> <ROCS_RefTverskyCombo>
0.484 

> <ROCS_FitTversky>
1.783 

> <ROCS_FitColorTversky>
0.611 

> <ROCS_FitTverskyCombo>
2.394 

> <ROCS_ColorScore>
-6.214

> <ROCS_Overlap>
1944.867

> <ROCS_Rank>
128                 

$$$$
untitled-dbase-45046_19
  -OEChem-11132313473D

 41 42  0     0  0  0  0  0  0999 V2000
    6.3971   11.6504   26.3384 C   0  0  0  0  0  0  0  0  0  0  0  0
    6.8757   12.9343   26.1121 C   0  0  0  0  0  0  0  0  0  0  0  0
    6.9231   10.5827   25.6185 C   0  0  0  0  0  0  0  0  0  0  0  0
    7.8821   13.1548   25.1664 C   0  0  0  0  0  0  0  0  0  0  0  0
    7.9354   10.7999   24.6704 C   0  0  0  0  0  0  0  0  0  0  0  0
    8.4372   12.0943   24.4304 C   0  0  0  0  0  0  0  0  0  0  0  0
    8.4965    9.6162   23.9679 C   0  0  0  0  0  0  0  0  0  0  0  0
   10.2451   13.4681   23.3748 C   0  0  0  0  0  0  0  0  0  0  0  0
    9.5838   11.2353   22.4307 C   0  0  0  0  0  0  0  0  0  0  0  0
    9.6960    9.8420   23.0583 C   0  0  0  0  0  0  0  0  0  0  0  0
   10.9803    9.6970   23.8876 C   0  0  0  0  0  0  0  0  0  0  0  0
    9.6966    8.7911   21.9363 C   0  0  0  0  0  0  0  0  0  0  0  0
   12.9720   13.5231   22.4863 C   0  0  0  0  0  0  0  0  0  0  0  0
   12.0890   14.6866   20.4428 C   0  0  0  0  0  0  0  0  0  0  0  0
   11.8411   15.7615   22.6991 C   0  0  0  0  0  0  0  0  0  0  0  0
   11.8800   14.4388   21.9351 C   0  0  0  0  0  0  0  0  0  0  0  0
    9.4509   12.3057   23.4320 N   0  0  0  0  0  0  0  0  0  0  0  0
    8.0270    8.4998   24.1713 O   0  0  0  0  0  0  0  0  0  0  0  0
   10.6071   14.1405   24.3375 O   0  0  0  0  0  0  0  0  0  0  0  0
   10.6149   13.7847   22.0910 O   0  0  0  0  0  0  0  0  0  0  0  0
    5.6146   11.4813   27.0718 H   0  0  0  0  0  0  0  0  0  0  0  0
    6.4590   13.7729   26.6630 H   0  0  0  0  0  0  0  0  0  0  0  0
    6.5369    9.5862   25.8161 H   0  0  0  0  0  0  0  0  0  0  0  0
    8.1725   14.1869   25.0013 H   0  0  0  0  0  0  0  0  0  0  0  0
   10.4508   11.4082   21.7849 H   0  0  0  0  0  0  0  0  0  0  0  0
    8.6968   11.3051   21.7859 H   0  0  0  0  0  0  0  0  0  0  0  0
   11.8429    9.8565   23.2474 H   0  0  0  0  0  0  0  0  0  0  0  0
   11.0238    8.6992   24.3137 H   0  0  0  0  0  0  0  0  0  0  0  0
   10.9793   10.4333   24.6858 H   0  0  0  0  0  0  0  0  0  0  0  0
   10.5533    8.9559   21.2904 H   0  0  0  0  0  0  0  0  0  0  0  0
    8.7821    8.8818   21.3588 H   0  0  0  0  0  0  0  0  0  0  0  0
    9.7551    7.7992   22.3733 H   0  0  0  0  0  0  0  0  0  0  0  0
   12.8255   13.3428   23.5573 H   0  0  0  0  0  0  0  0  0  0  0  0
   12.9874   12.5577   21.9701 H   0  0  0  0  0  0  0  0  0  0  0  0
   13.9598   13.9866   22.3832 H   0  0  0  0  0  0  0  0  0  0  0  0
   11.3077   15.3431   20.0431 H   0  0  0  0  0  0  0  0  0  0  0  0
   12.0230   13.7493   19.8785 H   0  0  0  0  0  0  0  0  0  0  0  0
   13.0629   15.1444   20.2418 H   0  0  0  0  0  0  0  0  0  0  0  0
   11.0579   16.4185   22.3040 H   0  0  0  0  0  0  0  0  0  0  0  0
   11.6551   15.6053   23.7667 H   0  0  0  0  0  0  0  0  0  0  0  0
   12.7864   16.3046   22.5862 H   0  0  0  0  0  0  0  0  0  0  0  0
  1  2  2  0  0  0  0
  1  3  1  0  0  0  0
  2  4  1  0  0  0  0
  3  5  2  0  0  0  0
  4  6  2  0  0  0  0
  5  6  1  0  0  0  0
  5  7  1  0  0  0  0
  6 17  1  0  0  0  0
  7 10  1  0  0  0  0
  7 18  2  0  0  0  0
  8 17  1  0  0  0  0
  8 19  2  0  0  0  0
  8 20  1  0  0  0  0
  9 10  1  0  0  0  0
  9 17  1  0  0  0  0
 10 11  1  0  0  0  0
 10 12  1  0  0  0  0
 13 16  1  0  0  0  0
 14 16  1  0  0  0  0
 15 16  1  0  0  0  0
 16 20  1  0  0  0  0
  1 21  1  0  0  0  0
  2 22  1  0  0  0  0
  3 23  1  0  0  0  0
  4 24  1  0  0  0  0
  9 25  1  0  0  0  0
  9 26  1  0  0  0  0
 11 27  1  0  0  0  0
 11 28  1  0  0  0  0
 11 29  1  0  0  0  0
 12 30  1  0  0  0  0
 12 31  1  0  0  0  0
 12 32  1  0  0  0  0
 13 33  1  0  0  0  0
 13 34  1  0  0  0  0
 13 35  1  0  0  0  0
 14 36  1  0  0  0  0
 14 37  1  0  0  0  0
 14 38  1  0  0  0  0
 15 39  1  0  0  0  0
 15 40  1  0  0  0  0
 15 41  1  0  0  0  0
M  END
> <id>
EN300-12453125

> <smiles>
CC(C)(C)OC(=O)N1CC(C)(C)C(=O)C=2C=CC=CC12

> <MDLNUMBER>
MFCD24465869

> <IUPAC Name>
tert-butyl 3,3-dimethyl-4-oxo-1,2,3,4-tetrahydroquinoline-1-carboxylate

> <CAS>
179898-81-8

> <URL>
https://www.enaminestore.com/catalog/EN300-12453125

> <ROCS_ShapeQuery>
A71EV2A-x0451_0A_A71EV2A-x0310_0A_A71EV2A-x0416_0A_peptide

> <ROCS_TanimotoCombo>
0.499 

> <ROCS_ShapeTanimoto>
0.369 

> <ROCS_ColorTanimoto>
0.130 

> <ROCS_RefTversky>
0.317 

> <ROCS_RefColorTversky>
0.143 

> <ROCS_RefTverskyCombo>
0.460 

> <ROCS_FitTversky>
1.810 

> <ROCS_FitColorTversky>
0.596 

> <ROCS_FitTverskyCombo>
2.406 

> <ROCS_ColorScore>
-4.345

> <ROCS_Overlap>
2199.452

> <ROCS_Rank>
129                 

$$$$
untitled-dbase-10841_148
  -OEChem-11132313473D

 39 41  0     1  0  0  0  0  0999 V2000
    6.9743   12.1185   25.8581 C   0  0  0  0  0  0  0  0  0  0  0  0
    8.0135   12.8204   25.2688 C   0  0  0  0  0  0  0  0  0  0  0  0
    7.7906   10.7789   24.4316 C   0  0  0  0  0  0  0  0  0  0  0  0
   10.9038   14.9200   22.4985 C   0  0  0  0  0  0  0  0  0  0  0  0
    9.6648   10.4014   23.0429 C   0  0  0  0  0  0  0  0  0  0  0  0
   10.8381   12.6710   23.7672 C   0  0  0  0  0  0  0  0  0  0  0  0
    9.3358   12.9049   22.2366 C   0  0  0  0  0  0  0  0  0  0  0  0
    8.2790    9.7969   23.4387 C   0  0  1  0  0  0  0  0  0  0  0  0
    9.5627   11.9037   23.3861 C   0  0  0  0  0  0  0  0  0  0  0  0
   13.0270   14.6935   20.9861 C   0  0  0  0  0  0  0  0  0  0  0  0
   11.5762   15.0722   18.9709 C   0  0  0  0  0  0  0  0  0  0  0  0
   12.1541   16.9983   20.4756 C   0  0  0  0  0  0  0  0  0  0  0  0
   11.8645   15.4995   20.4084 C   0  0  0  0  0  0  0  0  0  0  0  0
    6.8371   10.8433   25.3268 N   0  0  0  0  0  0  0  0  0  0  0  0
    8.4964   11.9307   24.3787 N   0  0  0  0  0  0  0  0  0  0  0  0
   10.4292   13.6741   22.8013 N   0  0  0  0  0  0  0  0  0  0  0  0
    8.4123    8.4566   23.9825 N   0  0  0  0  0  0  0  0  0  0  0  0
   11.4500   15.6660   23.3064 O   0  0  0  0  0  0  0  0  0  0  0  0
   10.6915   15.2267   21.1830 O   0  0  0  0  0  0  0  0  0  0  0  0
    6.3121   12.4657   26.6383 H   0  0  0  0  0  0  0  0  0  0  0  0
    8.4086   13.8155   25.4139 H   0  0  0  0  0  0  0  0  0  0  0  0
   10.4636    9.9486   23.6463 H   0  0  0  0  0  0  0  0  0  0  0  0
    9.9031   10.2143   21.9905 H   0  0  0  0  0  0  0  0  0  0  0  0
   10.9046   13.0465   24.7917 H   0  0  0  0  0  0  0  0  0  0  0  0
   11.7801   12.1879   23.4890 H   0  0  0  0  0  0  0  0  0  0  0  0
    9.5629   12.5373   21.2315 H   0  0  0  0  0  0  0  0  0  0  0  0
    8.3839   13.4432   22.2277 H   0  0  0  0  0  0  0  0  0  0  0  0
    7.6147    9.7892   22.5742 H   0  0  0  0  0  0  0  0  0  0  0  0
   13.2370   14.9973   22.0179 H   0  0  0  0  0  0  0  0  0  0  0  0
   12.8173   13.6190   20.9758 H   0  0  0  0  0  0  0  0  0  0  0  0
   13.9471   14.8721   20.4179 H   0  0  0  0  0  0  0  0  0  0  0  0
   10.7428   15.6480   18.5524 H   0  0  0  0  0  0  0  0  0  0  0  0
   11.2753   14.0191   18.9296 H   0  0  0  0  0  0  0  0  0  0  0  0
   12.4502   15.2086   18.3259 H   0  0  0  0  0  0  0  0  0  0  0  0
   11.3203   17.5767   20.0613 H   0  0  0  0  0  0  0  0  0  0  0  0
   12.3270   17.3299   21.5046 H   0  0  0  0  0  0  0  0  0  0  0  0
   13.0351   17.2523   19.8752 H   0  0  0  0  0  0  0  0  0  0  0  0
    7.5122    8.1345   24.2576 H   0  0  0  0  0  0  0  0  0  0  0  0
    8.7907    7.8649   23.2782 H   0  0  0  0  0  0  0  0  0  0  0  0
  1  2  2  0  0  0  0
  1 14  1  0  0  0  0
  2 15  1  0  0  0  0
  3  8  1  0  0  0  0
  3 14  2  0  0  0  0
  3 15  1  0  0  0  0
  4 16  1  0  0  0  0
  4 18  2  0  0  0  0
  4 19  1  0  0  0  0
  5  8  1  0  0  0  0
  5  9  1  0  0  0  0
  6  9  1  0  0  0  0
  6 16  1  0  0  0  0
  7  9  1  0  0  0  0
  7 16  1  0  0  0  0
  8 17  1  0  0  0  0
  9 15  1  0  0  0  0
 10 13  1  0  0  0  0
 11 13  1  0  0  0  0
 12 13  1  0  0  0  0
 13 19  1  0  0  0  0
  1 20  1  0  0  0  0
  2 21  1  0  0  0  0
  5 22  1  0  0  0  0
  5 23  1  0  0  0  0
  6 24  1  0  0  0  0
  6 25  1  0  0  0  0
  7 26  1  0  0  0  0
  7 27  1  0  0  0  0
  8 28  1  0  0  0  0
 10 29  1  0  0  0  0
 10 30  1  0  0  0  0
 10 31  1  0  0  0  0
 11 32  1  0  0  0  0
 11 33  1  0  0  0  0
 11 34  1  0  0  0  0
 12 35  1  0  0  0  0
 12 36  1  0  0  0  0
 12 37  1  0  0  0  0
 17 38  1  0  0  0  0
 17 39  1  0  0  0  0
M  END
> <id>
EN300-373415

> <smiles>
CC(C)(C)OC(=O)N1CC2(C1)CC(N)C3=NC=CN32

> <MDLNUMBER>
MFCD30731608

> <IUPAC Name>
tert-butyl 7'-amino-6',7'-dihydrospiro[azetidine-3,5'-pyrrolo[1,2-a]imidazole]-1-carboxylate

> <CAS>
2095409-25-7

> <Purity>
95

> <URL>
https://www.enaminestore.com/catalog/EN300-373415

> <ROCS_ShapeQuery>
A71EV2A-x0451_0A_A71EV2A-x0310_0A_A71EV2A-x0416_0A_peptide

> <ROCS_TanimotoCombo>
0.499 

> <ROCS_ShapeTanimoto>
0.335 

> <ROCS_ColorTanimoto>
0.164 

> <ROCS_RefTversky>
0.294 

> <ROCS_RefColorTversky>
0.188 

> <ROCS_RefTverskyCombo>
0.482 

> <ROCS_FitTversky>
1.709 

> <ROCS_FitColorTversky>
0.564 

> <ROCS_FitTverskyCombo>
2.273 

> <ROCS_ColorScore>
-5.751

> <ROCS_Overlap>
2042.213

> <ROCS_Rank>
130                 

$$$$
untitled-dbase-43725_34
  -OEChem-11132313473D

 40 41  0     1  0  0  0  0  0999 V2000
    9.8393   13.4428   23.5550 C   0  0  0  0  0  0  0  0  0  0  0  0
    7.8503   11.3205   25.6927 C   0  0  0  0  0  0  0  0  0  0  0  0
    6.9419   11.5259   24.4636 C   0  0  0  0  0  0  0  0  0  0  0  0
    9.9395   10.2819   24.6399 C   0  0  0  0  0  0  0  0  0  0  0  0
    8.4108   10.6178   22.5736 C   0  0  0  0  0  0  0  0  0  0  0  0
    9.2730   11.5661   25.1778 C   0  0  1  0  0  0  0  0  0  0  0  0
    7.9001   11.8698   23.3189 C   0  0  2  0  0  0  0  0  0  0  0  0
    9.1309    9.5998   23.5006 C   0  0  0  0  0  0  0  0  0  0  0  0
   12.0309   13.1088   21.7512 C   0  0  0  0  0  0  0  0  0  0  0  0
   10.5448   14.1880   20.0377 C   0  0  0  0  0  0  0  0  0  0  0  0
   11.2290   15.4709   22.0856 C   0  0  0  0  0  0  0  0  0  0  0  0
   10.0346    8.6783   22.6763 C   0  0  0  0  0  0  0  0  0  0  0  0
   10.8841   14.0925   21.5236 C   0  0  0  0  0  0  0  0  0  0  0  0
    9.0368   12.4236   24.0284 N   0  0  0  0  0  0  0  0  0  0  0  0
   10.5725   14.1299   24.2625 O   0  0  0  0  0  0  0  0  0  0  0  0
    8.1249    8.7630   24.0863 O   0  0  0  0  0  0  0  0  0  0  0  0
    9.7218   13.6020   22.2008 O   0  0  0  0  0  0  0  0  0  0  0  0
   10.7196    7.4173   23.7337 Cl  0  0  0  0  0  0  0  0  0  0  0  0
    9.0793    7.9128   21.3803 Cl  0  0  0  0  0  0  0  0  0  0  0  0
   11.3568    9.6317   21.9553 Cl  0  0  0  0  0  0  0  0  0  0  0  0
    7.5923   12.0661   26.4546 H   0  0  0  0  0  0  0  0  0  0  0  0
    7.7203   10.3330   26.1454 H   0  0  0  0  0  0  0  0  0  0  0  0
    6.3209   10.6493   24.2564 H   0  0  0  0  0  0  0  0  0  0  0  0
    6.2667   12.3684   24.6556 H   0  0  0  0  0  0  0  0  0  0  0  0
   10.9378   10.5519   24.2705 H   0  0  0  0  0  0  0  0  0  0  0  0
   10.0815    9.5790   25.4704 H   0  0  0  0  0  0  0  0  0  0  0  0
    7.5654   10.1362   22.0669 H   0  0  0  0  0  0  0  0  0  0  0  0
    9.1051   10.9534   21.7916 H   0  0  0  0  0  0  0  0  0  0  0  0
    9.9091   12.0441   25.9284 H   0  0  0  0  0  0  0  0  0  0  0  0
    7.4722   12.5885   22.6131 H   0  0  0  0  0  0  0  0  0  0  0  0
   12.2774   13.0374   22.8166 H   0  0  0  0  0  0  0  0  0  0  0  0
   11.7824   12.1077   21.3840 H   0  0  0  0  0  0  0  0  0  0  0  0
   12.9423   13.4468   21.2449 H   0  0  0  0  0  0  0  0  0  0  0  0
    9.7225   14.8928   19.8697 H   0  0  0  0  0  0  0  0  0  0  0  0
   10.2053   13.2199   19.6519 H   0  0  0  0  0  0  0  0  0  0  0  0
   11.4068   14.5137   19.4465 H   0  0  0  0  0  0  0  0  0  0  0  0
   10.4066   16.1768   21.9224 H   0  0  0  0  0  0  0  0  0  0  0  0
   11.4395   15.4276   23.1591 H   0  0  0  0  0  0  0  0  0  0  0  0
   12.1034   15.8918   21.5760 H   0  0  0  0  0  0  0  0  0  0  0  0
    8.5975    8.1120   24.6236 H   0  0  0  0  0  0  0  0  0  0  0  0
  1 14  1  0  0  0  0
  1 15  2  0  0  0  0
  1 17  1  0  0  0  0
  2  3  1  0  0  0  0
  2  6  1  1  0  0  0
  3  7  1  1  0  0  0
  4  6  1  0  0  0  0
  4  8  1  0  0  0  0
  5  7  1  0  0  0  0
  5  8  1  0  0  0  0
  6 14  1  0  0  0  0
  7 14  1  0  0  0  0
  8 12  1  0  0  0  0
  8 16  1  1  0  0  0
  9 13  1  0  0  0  0
 10 13  1  0  0  0  0
 11 13  1  0  0  0  0
 12 18  1  0  0  0  0
 12 19  1  0  0  0  0
 12 20  1  0  0  0  0
 13 17  1  0  0  0  0
  2 21  1  0  0  0  0
  2 22  1  0  0  0  0
  3 23  1  0  0  0  0
  3 24  1  0  0  0  0
  4 25  1  0  0  0  0
  4 26  1  0  0  0  0
  5 27  1  0  0  0  0
  5 28  1  0  0  0  0
  6 29  1  0  0  0  0
  7 30  1  0  0  0  0
  9 31  1  0  0  0  0
  9 32  1  0  0  0  0
  9 33  1  0  0  0  0
 10 34  1  0  0  0  0
 10 35  1  0  0  0  0
 10 36  1  0  0  0  0
 11 37  1  0  0  0  0
 11 38  1  0  0  0  0
 11 39  1  0  0  0  0
 16 40  1  0  0  0  0
M  END
> <id>
EN300-28229065

> <smiles>
CC(C)(C)OC(=O)N1[C@H]2CC[C@@H]1C[C@](O)(C2)C(Cl)(Cl)Cl

> <IUPAC Name>
tert-butyl (1R,3R,5S)-3-hydroxy-3-(trichloromethyl)-8-azabicyclo[3.2.1]octane-8-carboxylate

> <CAS>
2639371-68-7

> <URL>
https://www.enaminestore.com/catalog/EN300-28229065

> <ROCS_ShapeQuery>
A71EV2A-x0451_0A_A71EV2A-x0310_0A_A71EV2A-x0416_0A_peptide

> <ROCS_TanimotoCombo>
0.499 

> <ROCS_ShapeTanimoto>
0.295 

> <ROCS_ColorTanimoto>
0.205 

> <ROCS_RefTversky>
0.266 

> <ROCS_RefColorTversky>
0.230 

> <ROCS_RefTverskyCombo>
0.497 

> <ROCS_FitTversky>
1.568 

> <ROCS_FitColorTversky>
0.646 

> <ROCS_FitTverskyCombo>
2.214 

> <ROCS_ColorScore>
-7.053

> <ROCS_Overlap>
1847.940

> <ROCS_Rank>
131                 

$$$$
untitled-dbase-30703_154
  -OEChem-11132313473D

 37 38  0     1  0  0  0  0  0999 V2000
    8.2824   13.0373   25.5413 C   0  0  0  0  0  0  0  0  0  0  0  0
    7.1454   12.8988   26.3436 C   0  0  0  0  0  0  0  0  0  0  0  0
    6.6400   10.8150   25.2663 C   0  0  0  0  0  0  0  0  0  0  0  0
    7.7799   10.9421   24.4502 C   0  0  0  0  0  0  0  0  0  0  0  0
    8.6101   12.0817   24.5642 C   0  0  0  0  0  0  0  0  0  0  0  0
    6.3191   11.7930   26.2008 C   0  0  0  0  0  0  0  0  0  0  0  0
   10.5072   13.3861   23.4892 C   0  0  0  0  0  0  0  0  0  0  0  0
    9.1004   10.2161   22.4342 C   0  0  0  0  0  0  0  0  0  0  0  0
   10.2498   10.9753   23.0779 C   0  0  0  0  0  0  0  0  0  0  0  0
    8.0831    9.8129   23.4919 C   0  0  1  0  0  0  0  0  0  0  0  0
   12.2918   15.4884   22.7106 C   0  0  0  0  0  0  0  0  0  0  0  0
   12.2183   14.4500   20.4246 C   0  0  0  0  0  0  0  0  0  0  0  0
   10.1172   15.3689   21.4490 C   0  0  0  0  0  0  0  0  0  0  0  0
   11.4514   14.6771   21.7255 C   0  0  0  0  0  0  0  0  0  0  0  0
    9.7768   12.2041   23.7265 N   0  0  0  0  0  0  0  0  0  0  0  0
   10.5939   14.3074   24.3017 O   0  0  0  0  0  0  0  0  0  0  0  0
    8.5900    8.6824   24.2035 O   0  0  0  0  0  0  0  0  0  0  0  0
   11.1881   13.3920   22.3014 O   0  0  0  0  0  0  0  0  0  0  0  0
    4.9180   11.6260   27.1835 Cl  0  0  0  0  0  0  0  0  0  0  0  0
    8.8988   13.9023   25.7460 H   0  0  0  0  0  0  0  0  0  0  0  0
    6.9261   13.6631   27.0845 H   0  0  0  0  0  0  0  0  0  0  0  0
    6.0048    9.9373   25.1641 H   0  0  0  0  0  0  0  0  0  0  0  0
    8.6273   10.8479   21.6724 H   0  0  0  0  0  0  0  0  0  0  0  0
    9.4943    9.3275   21.9282 H   0  0  0  0  0  0  0  0  0  0  0  0
   10.7526   10.3742   23.8366 H   0  0  0  0  0  0  0  0  0  0  0  0
   10.9747   11.2053   22.2983 H   0  0  0  0  0  0  0  0  0  0  0  0
    7.1599    9.4909   22.9756 H   0  0  0  0  0  0  0  0  0  0  0  0
   11.7448   15.6536   23.6457 H   0  0  0  0  0  0  0  0  0  0  0  0
   13.2362   14.9860   22.9443 H   0  0  0  0  0  0  0  0  0  0  0  0
   12.5189   16.4812   22.3057 H   0  0  0  0  0  0  0  0  0  0  0  0
   11.6190   13.8683   19.7149 H   0  0  0  0  0  0  0  0  0  0  0  0
   13.1308   13.8705   20.6056 H   0  0  0  0  0  0  0  0  0  0  0  0
   12.4969   15.3960   19.9494 H   0  0  0  0  0  0  0  0  0  0  0  0
    9.5142   14.7872   20.7425 H   0  0  0  0  0  0  0  0  0  0  0  0
    9.5367   15.5070   22.3669 H   0  0  0  0  0  0  0  0  0  0  0  0
   10.2755   16.3497   20.9861 H   0  0  0  0  0  0  0  0  0  0  0  0
    7.8998    8.4194   24.8318 H   0  0  0  0  0  0  0  0  0  0  0  0
  1  2  1  0  0  0  0
  1  5  2  0  0  0  0
  2  6  2  0  0  0  0
  3  4  2  0  0  0  0
  3  6  1  0  0  0  0
  4  5  1  0  0  0  0
  4 10  1  0  0  0  0
  5 15  1  0  0  0  0
  6 19  1  0  0  0  0
  7 15  1  0  0  0  0
  7 16  2  0  0  0  0
  7 18  1  0  0  0  0
  8  9  1  0  0  0  0
  8 10  1  0  0  0  0
  9 15  1  0  0  0  0
 10 17  1  0  0  0  0
 11 14  1  0  0  0  0
 12 14  1  0  0  0  0
 13 14  1  0  0  0  0
 14 18  1  0  0  0  0
  1 20  1  0  0  0  0
  2 21  1  0  0  0  0
  3 22  1  0  0  0  0
  8 23  1  0  0  0  0
  8 24  1  0  0  0  0
  9 25  1  0  0  0  0
  9 26  1  0  0  0  0
 10 27  1  0  0  0  0
 11 28  1  0  0  0  0
 11 29  1  0  0  0  0
 11 30  1  0  0  0  0
 12 31  1  0  0  0  0
 12 32  1  0  0  0  0
 12 33  1  0  0  0  0
 13 34  1  0  0  0  0
 13 35  1  0  0  0  0
 13 36  1  0  0  0  0
 17 37  1  0  0  0  0
M  END
> <id>
EN300-22047432

> <smiles>
CC(C)(C)OC(=O)N1CCC(O)C=2C=C(Cl)C=CC12

> <MDLNUMBER>
MFCD30294750

> <IUPAC Name>
tert-butyl 6-chloro-4-hydroxy-1,2,3,4-tetrahydroquinoline-1-carboxylate

> <CAS>
1795771-75-3

> <URL>
https://www.enaminestore.com/catalog/EN300-22047432

> <ROCS_ShapeQuery>
A71EV2A-x0451_0A_A71EV2A-x0310_0A_A71EV2A-x0416_0A_peptide

> <ROCS_TanimotoCombo>
0.499 

> <ROCS_ShapeTanimoto>
0.345 

> <ROCS_ColorTanimoto>
0.154 

> <ROCS_RefTversky>
0.299 

> <ROCS_RefColorTversky>
0.166 

> <ROCS_RefTverskyCombo>
0.465 

> <ROCS_FitTversky>
1.791 

> <ROCS_FitColorTversky>
0.692 

> <ROCS_FitTverskyCombo>
2.483 

> <ROCS_ColorScore>
-5.043

> <ROCS_Overlap>
2077.008

> <ROCS_Rank>
132                 

$$$$
untitled-dbase-45534_3
  -OEChem-11132313473D

 34 35  0     0  0  0  0  0  0999 V2000
    7.9525   13.0322   25.3087 C   0  0  0  0  0  0  0  0  0  0  0  0
    6.6956   10.5598   25.5402 C   0  0  0  0  0  0  0  0  0  0  0  0
    8.4450   11.9608   24.5479 C   0  0  0  0  0  0  0  0  0  0  0  0
    7.7987   10.7163   24.6916 C   0  0  0  0  0  0  0  0  0  0  0  0
    6.8603   12.8695   26.1703 C   0  0  0  0  0  0  0  0  0  0  0  0
    6.2303   11.6364   26.2844 C   0  0  0  0  0  0  0  0  0  0  0  0
   10.2958   13.2537   23.4271 C   0  0  0  0  0  0  0  0  0  0  0  0
    9.7754   10.8963   22.7812 C   0  0  0  0  0  0  0  0  0  0  0  0
    9.5161    9.6275   23.5632 C   0  0  0  0  0  0  0  0  0  0  0  0
   12.7671   14.5107   22.6853 C   0  0  0  0  0  0  0  0  0  0  0  0
   11.8584   14.4972   20.3437 C   0  0  0  0  0  0  0  0  0  0  0  0
   10.6740   15.7965   22.1373 C   0  0  0  0  0  0  0  0  0  0  0  0
   11.5029   14.5508   21.8279 C   0  0  0  0  0  0  0  0  0  0  0  0
    9.5333   12.0840   23.6130 N   0  0  0  0  0  0  0  0  0  0  0  0
   10.5858   14.0809   24.2865 O   0  0  0  0  0  0  0  0  0  0  0  0
    8.1674    9.5807   24.0128 O   0  0  0  0  0  0  0  0  0  0  0  0
   10.7137   13.3923   22.1249 O   0  0  0  0  0  0  0  0  0  0  0  0
    6.3341   14.2594   27.0591 Cl  0  0  0  0  0  0  0  0  0  0  0  0
    4.7390   11.3415   27.4224 Br  0  0  0  0  0  0  0  0  0  0  0  0
    8.3802   14.0250   25.2375 H   0  0  0  0  0  0  0  0  0  0  0  0
    6.2165    9.5857   25.6151 H   0  0  0  0  0  0  0  0  0  0  0  0
   10.8042   10.8834   22.4087 H   0  0  0  0  0  0  0  0  0  0  0  0
    9.1005   10.9729   21.9201 H   0  0  0  0  0  0  0  0  0  0  0  0
    9.6765    8.7574   22.9177 H   0  0  0  0  0  0  0  0  0  0  0  0
   10.1973    9.5263   24.4179 H   0  0  0  0  0  0  0  0  0  0  0  0
   12.5162   14.5490   23.7514 H   0  0  0  0  0  0  0  0  0  0  0  0
   13.3528   13.6048   22.4983 H   0  0  0  0  0  0  0  0  0  0  0  0
   13.4026   15.3811   22.4859 H   0  0  0  0  0  0  0  0  0  0  0  0
   10.9543   14.5257   19.7247 H   0  0  0  0  0  0  0  0  0  0  0  0
   12.3708   13.5598   20.0986 H   0  0  0  0  0  0  0  0  0  0  0  0
   12.5043   15.3318   20.0525 H   0  0  0  0  0  0  0  0  0  0  0  0
    9.7672   15.8255   21.5224 H   0  0  0  0  0  0  0  0  0  0  0  0
   10.3784   15.8329   23.1908 H   0  0  0  0  0  0  0  0  0  0  0  0
   11.2365   16.7072   21.9018 H   0  0  0  0  0  0  0  0  0  0  0  0
  1  3  2  0  0  0  0
  1  5  1  0  0  0  0
  2  4  2  0  0  0  0
  2  6  1  0  0  0  0
  3  4  1  0  0  0  0
  3 14  1  0  0  0  0
  4 16  1  0  0  0  0
  5  6  2  0  0  0  0
  5 18  1  0  0  0  0
  6 19  1  0  0  0  0
  7 14  1  0  0  0  0
  7 15  2  0  0  0  0
  7 17  1  0  0  0  0
  8  9  1  0  0  0  0
  8 14  1  0  0  0  0
  9 16  1  0  0  0  0
 10 13  1  0  0  0  0
 11 13  1  0  0  0  0
 12 13  1  0  0  0  0
 13 17  1  0  0  0  0
  1 20  1  0  0  0  0
  2 21  1  0  0  0  0
  8 22  1  0  0  0  0
  8 23  1  0  0  0  0
  9 24  1  0  0  0  0
  9 25  1  0  0  0  0
 10 26  1  0  0  0  0
 10 27  1  0  0  0  0
 10 28  1  0  0  0  0
 11 29  1  0  0  0  0
 11 30  1  0  0  0  0
 11 31  1  0  0  0  0
 12 32  1  0  0  0  0
 12 33  1  0  0  0  0
 12 34  1  0  0  0  0
M  END
> <id>
EN300-28298304

> <smiles>
CC(C)(C)OC(=O)N1CCOC=2C=C(Br)C(Cl)=CC12

> <IUPAC Name>
tert-butyl 7-bromo-6-chloro-3,4-dihydro-2H-1,4-benzoxazine-4-carboxylate

> <CAS>
2680716-73-6

> <URL>
https://www.enaminestore.com/catalog/EN300-28298304

> <ROCS_ShapeQuery>
A71EV2A-x0451_0A_A71EV2A-x0310_0A_A71EV2A-x0416_0A_peptide

> <ROCS_TanimotoCombo>
0.499 

> <ROCS_ShapeTanimoto>
0.345 

> <ROCS_ColorTanimoto>
0.154 

> <ROCS_RefTversky>
0.299 

> <ROCS_RefColorTversky>
0.166 

> <ROCS_RefTverskyCombo>
0.465 

> <ROCS_FitTversky>
1.797 

> <ROCS_FitColorTversky>
0.691 

> <ROCS_FitTverskyCombo>
2.488 

> <ROCS_ColorScore>
-5.039

> <ROCS_Overlap>
2076.294

> <ROCS_Rank>
133                 

$$$$
untitled-dbase-45568_4
  -OEChem-11132313473D

 34 35  0     0  0  0  0  0  0999 V2000
    7.9509   13.0311   25.3057 C   0  0  0  0  0  0  0  0  0  0  0  0
    6.2289   11.6340   26.2798 C   0  0  0  0  0  0  0  0  0  0  0  0
    8.4451   11.9600   24.5456 C   0  0  0  0  0  0  0  0  0  0  0  0
    7.7997   10.7150   24.6889 C   0  0  0  0  0  0  0  0  0  0  0  0
    6.6959   10.5576   25.5363 C   0  0  0  0  0  0  0  0  0  0  0  0
    6.8579   12.8676   26.1662 C   0  0  0  0  0  0  0  0  0  0  0  0
   10.2960   13.2542   23.4266 C   0  0  0  0  0  0  0  0  0  0  0  0
    9.7783   10.8963   22.7806 C   0  0  0  0  0  0  0  0  0  0  0  0
    9.5192    9.6274   23.5625 C   0  0  0  0  0  0  0  0  0  0  0  0
   12.7669   14.5133   22.6872 C   0  0  0  0  0  0  0  0  0  0  0  0
   11.8607   14.4985   20.3446 C   0  0  0  0  0  0  0  0  0  0  0  0
   10.6733   15.7972   22.1367 C   0  0  0  0  0  0  0  0  0  0  0  0
   11.5037   14.5521   21.8285 C   0  0  0  0  0  0  0  0  0  0  0  0
    9.5342   12.0840   23.6119 N   0  0  0  0  0  0  0  0  0  0  0  0
   10.5843   14.0819   24.2862 O   0  0  0  0  0  0  0  0  0  0  0  0
    8.1701    9.5796   24.0107 O   0  0  0  0  0  0  0  0  0  0  0  0
   10.7151   13.3930   22.1248 O   0  0  0  0  0  0  0  0  0  0  0  0
    6.0897    9.3669   25.6446 F   0  0  0  0  0  0  0  0  0  0  0  0
    6.2198   14.3399   27.1696 Br  0  0  0  0  0  0  0  0  0  0  0  0
    8.3765   14.0247   25.2365 H   0  0  0  0  0  0  0  0  0  0  0  0
    5.3761   11.4948   26.9385 H   0  0  0  0  0  0  0  0  0  0  0  0
   10.8076   10.8841   22.4098 H   0  0  0  0  0  0  0  0  0  0  0  0
    9.1049   10.9722   21.9182 H   0  0  0  0  0  0  0  0  0  0  0  0
    9.6807    8.7575   22.9170 H   0  0  0  0  0  0  0  0  0  0  0  0
   10.1999    9.5265   24.4177 H   0  0  0  0  0  0  0  0  0  0  0  0
   12.5149   14.5515   23.7530 H   0  0  0  0  0  0  0  0  0  0  0  0
   13.3537   13.6078   22.5009 H   0  0  0  0  0  0  0  0  0  0  0  0
   13.4019   15.3842   22.4883 H   0  0  0  0  0  0  0  0  0  0  0  0
   10.9573   14.5261   19.7247 H   0  0  0  0  0  0  0  0  0  0  0  0
   12.3742   13.5616   20.1003 H   0  0  0  0  0  0  0  0  0  0  0  0
   12.5063   15.3336   20.0540 H   0  0  0  0  0  0  0  0  0  0  0  0
    9.7672   15.8253   21.5209 H   0  0  0  0  0  0  0  0  0  0  0  0
   10.3766   15.8335   23.1900 H   0  0  0  0  0  0  0  0  0  0  0  0
   11.2353   16.7083   21.9016 H   0  0  0  0  0  0  0  0  0  0  0  0
  1  3  2  0  0  0  0
  1  6  1  0  0  0  0
  2  5  1  0  0  0  0
  2  6  2  0  0  0  0
  3  4  1  0  0  0  0
  3 14  1  0  0  0  0
  4  5  2  0  0  0  0
  4 16  1  0  0  0  0
  5 18  1  0  0  0  0
  6 19  1  0  0  0  0
  7 14  1  0  0  0  0
  7 15  2  0  0  0  0
  7 17  1  0  0  0  0
  8  9  1  0  0  0  0
  8 14  1  0  0  0  0
  9 16  1  0  0  0  0
 10 13  1  0  0  0  0
 11 13  1  0  0  0  0
 12 13  1  0  0  0  0
 13 17  1  0  0  0  0
  1 20  1  0  0  0  0
  2 21  1  0  0  0  0
  8 22  1  0  0  0  0
  8 23  1  0  0  0  0
  9 24  1  0  0  0  0
  9 25  1  0  0  0  0
 10 26  1  0  0  0  0
 10 27  1  0  0  0  0
 10 28  1  0  0  0  0
 11 29  1  0  0  0  0
 11 30  1  0  0  0  0
 11 31  1  0  0  0  0
 12 32  1  0  0  0  0
 12 33  1  0  0  0  0
 12 34  1  0  0  0  0
M  END
> <id>
EN300-28295863

> <smiles>
CC(C)(C)OC(=O)N1CCOC=2C(F)=CC(Br)=CC12

> <IUPAC Name>
tert-butyl 6-bromo-8-fluoro-3,4-dihydro-2H-1,4-benzoxazine-4-carboxylate

> <CAS>
2680727-86-8

> <URL>
https://www.enaminestore.com/catalog/EN300-28295863

> <ROCS_ShapeQuery>
A71EV2A-x0451_0A_A71EV2A-x0310_0A_A71EV2A-x0416_0A_peptide

> <ROCS_TanimotoCombo>
0.499 

> <ROCS_ShapeTanimoto>
0.345 

> <ROCS_ColorTanimoto>
0.154 

> <ROCS_RefTversky>
0.300 

> <ROCS_RefColorTversky>
0.166 

> <ROCS_RefTverskyCombo>
0.465 

> <ROCS_FitTversky>
1.779 

> <ROCS_FitColorTversky>
0.691 

> <ROCS_FitTverskyCombo>
2.470 

> <ROCS_ColorScore>
-5.039

> <ROCS_Overlap>
2078.781

> <ROCS_Rank>
134                 

$$$$
untitled-dbase-45229_5
  -OEChem-11132313473D

 33 34  0     0  0  0  0  0  0999 V2000
    7.9496   12.9902   25.2588 C   0  0  0  0  0  0  0  0  0  0  0  0
    6.7250   10.5642   25.4511 C   0  0  0  0  0  0  0  0  0  0  0  0
    8.4709   11.9349   24.5040 C   0  0  0  0  0  0  0  0  0  0  0  0
    7.8362   10.6884   24.6253 C   0  0  0  0  0  0  0  0  0  0  0  0
    6.8423   12.7595   26.0689 C   0  0  0  0  0  0  0  0  0  0  0  0
   10.3228   13.2545   23.4220 C   0  0  0  0  0  0  0  0  0  0  0  0
    9.8577   10.8847   22.7734 C   0  0  0  0  0  0  0  0  0  0  0  0
    9.5802    9.6105   23.5427 C   0  0  0  0  0  0  0  0  0  0  0  0
   12.7814   14.5590   22.7215 C   0  0  0  0  0  0  0  0  0  0  0  0
   11.9154   14.5224   20.3640 C   0  0  0  0  0  0  0  0  0  0  0  0
   10.6733   15.8016   22.1329 C   0  0  0  0  0  0  0  0  0  0  0  0
   11.5324   14.5720   21.8415 C   0  0  0  0  0  0  0  0  0  0  0  0
    6.2134   11.5730   26.1825 N   0  0  0  0  0  0  0  0  0  0  0  0
    9.5789   12.0715   23.5965 N   0  0  0  0  0  0  0  0  0  0  0  0
   10.5804   14.0888   24.2848 O   0  0  0  0  0  0  0  0  0  0  0  0
    8.2206    9.5563   23.9606 O   0  0  0  0  0  0  0  0  0  0  0  0
   10.7611   13.3987   22.1271 O   0  0  0  0  0  0  0  0  0  0  0  0
    6.1774   14.0140   27.0354 Cl  0  0  0  0  0  0  0  0  0  0  0  0
    8.3830   13.9814   25.2641 H   0  0  0  0  0  0  0  0  0  0  0  0
    6.1956    9.6207   25.5422 H   0  0  0  0  0  0  0  0  0  0  0  0
   10.9135   10.9462   22.4832 H   0  0  0  0  0  0  0  0  0  0  0  0
    9.2527   10.8923   21.8617 H   0  0  0  0  0  0  0  0  0  0  0  0
    9.8230    8.7170   22.9533 H   0  0  0  0  0  0  0  0  0  0  0  0
   10.2015    9.5814   24.4441 H   0  0  0  0  0  0  0  0  0  0  0  0
   12.5107   14.5945   23.7829 H   0  0  0  0  0  0  0  0  0  0  0  0
   13.3884   13.6646   22.5472 H   0  0  0  0  0  0  0  0  0  0  0  0
   13.4029   15.4415   22.5314 H   0  0  0  0  0  0  0  0  0  0  0  0
   11.0223   14.5316   19.7289 H   0  0  0  0  0  0  0  0  0  0  0  0
   12.4507   13.5950   20.1305 H   0  0  0  0  0  0  0  0  0  0  0  0
   12.5498   15.3692   20.0825 H   0  0  0  0  0  0  0  0  0  0  0  0
    9.7773   15.8112   21.5018 H   0  0  0  0  0  0  0  0  0  0  0  0
   10.3582   15.8343   23.1809 H   0  0  0  0  0  0  0  0  0  0  0  0
   11.2217   16.7229   21.9053 H   0  0  0  0  0  0  0  0  0  0  0  0
  1  3  2  0  0  0  0
  1  5  1  0  0  0  0
  2  4  2  0  0  0  0
  2 13  1  0  0  0  0
  3  4  1  0  0  0  0
  3 14  1  0  0  0  0
  4 16  1  0  0  0  0
  5 13  2  0  0  0  0
  5 18  1  0  0  0  0
  6 14  1  0  0  0  0
  6 15  2  0  0  0  0
  6 17  1  0  0  0  0
  7  8  1  0  0  0  0
  7 14  1  0  0  0  0
  8 16  1  0  0  0  0
  9 12  1  0  0  0  0
 10 12  1  0  0  0  0
 11 12  1  0  0  0  0
 12 17  1  0  0  0  0
  1 19  1  0  0  0  0
  2 20  1  0  0  0  0
  7 21  1  0  0  0  0
  7 22  1  0  0  0  0
  8 23  1  0  0  0  0
  8 24  1  0  0  0  0
  9 25  1  0  0  0  0
  9 26  1  0  0  0  0
  9 27  1  0  0  0  0
 10 28  1  0  0  0  0
 10 29  1  0  0  0  0
 10 30  1  0  0  0  0
 11 31  1  0  0  0  0
 11 32  1  0  0  0  0
 11 33  1  0  0  0  0
M  END
> <id>
EN300-28283406

> <smiles>
CC(C)(C)OC(=O)N1CCOC=2C=NC(Cl)=CC12

> <IUPAC Name>
tert-butyl 7-chloro-1H,2H,3H-pyrido[3,4-b][1,4]oxazine-1-carboxylate

> <CAS>
1006688-26-1

> <URL>
https://www.enaminestore.com/catalog/EN300-28283406

> <ROCS_ShapeQuery>
A71EV2A-x0451_0A_A71EV2A-x0310_0A_A71EV2A-x0416_0A_peptide

> <ROCS_TanimotoCombo>
0.499 

> <ROCS_ShapeTanimoto>
0.342 

> <ROCS_ColorTanimoto>
0.157 

> <ROCS_RefTversky>
0.296 

> <ROCS_RefColorTversky>
0.168 

> <ROCS_RefTverskyCombo>
0.465 

> <ROCS_FitTversky>
1.819 

> <ROCS_FitColorTversky>
0.702 

> <ROCS_FitTverskyCombo>
2.521 

> <ROCS_ColorScore>
-5.117

> <ROCS_Overlap>
2056.040

> <ROCS_Rank>
135                 

$$$$
untitled-dbase-25543_2
  -OEChem-11132313473D

 49 53  0     1  0  0  0  0  0999 V2000
   13.0305   15.2510   20.6706 C   0  0  0  0  0  0  0  0  0  0  0  0
   12.1803   16.2641   20.2119 C   0  0  0  0  0  0  0  0  0  0  0  0
   12.5974   14.3544   21.6477 C   0  0  0  0  0  0  0  0  0  0  0  0
   10.8865   16.3893   20.7230 C   0  0  0  0  0  0  0  0  0  0  0  0
   11.3083   14.4884   22.1555 C   0  0  0  0  0  0  0  0  0  0  0  0
   10.4452   15.4900   21.6902 C   0  0  0  0  0  0  0  0  0  0  0  0
    6.7885   14.5999   23.4531 C   0  0  0  0  0  0  0  0  0  0  0  0
    6.9722   14.5983   22.1221 C   0  0  0  0  0  0  0  0  0  0  0  0
   10.7962   13.5571   23.1649 C   0  0  0  0  0  0  0  0  0  0  0  0
    5.9459   11.6531   24.6583 C   0  0  0  0  0  0  0  0  0  0  0  0
    5.5048   14.1807   24.1140 C   0  0  0  0  0  0  0  0  0  0  0  0
    8.1922   15.0596   21.3646 C   0  0  0  0  0  0  0  0  0  0  0  0
    9.6037   10.9366   24.9409 C   0  0  0  0  0  0  0  0  0  0  0  0
    7.6264    9.9296   23.8883 C   0  0  0  0  0  0  0  0  0  0  0  0
    4.4593   13.1888   26.1899 C   0  0  0  0  0  0  0  0  0  0  0  0
    6.4697   13.5679   26.5184 C   0  0  0  0  0  0  0  0  0  0  0  0
    9.1095   10.2635   23.6206 C   0  0  1  0  0  0  0  0  0  0  0  0
    8.5198   11.9815   24.4924 C   0  0  1  0  0  0  0  0  0  0  0  0
    9.0727   11.7216   23.0489 C   0  0  1  0  0  0  0  0  0  0  0  0
    5.7077   13.1227   25.2247 C   0  0  0  0  0  0  0  0  0  0  0  0
   10.3287   12.3729   22.6156 N   0  0  0  0  0  0  0  0  0  0  0  0
    5.3671   13.0311   27.3380 N   0  0  0  0  0  0  0  0  0  0  0  0
    7.2531   11.2270   24.4768 N   0  0  0  0  0  0  0  0  0  0  0  0
   10.7034   13.9476   24.3215 O   0  0  0  0  0  0  0  0  0  0  0  0
    4.9984   10.8997   24.3835 O   0  0  0  0  0  0  0  0  0  0  0  0
    9.1898   15.6091   22.2338 O   0  0  0  0  0  0  0  0  0  0  0  0
   14.0329   15.1625   20.2611 H   0  0  0  0  0  0  0  0  0  0  0  0
   12.5315   16.9600   19.4547 H   0  0  0  0  0  0  0  0  0  0  0  0
   13.2591   13.5669   21.9907 H   0  0  0  0  0  0  0  0  0  0  0  0
   10.2406   17.1872   20.3704 H   0  0  0  0  0  0  0  0  0  0  0  0
    7.5603   15.0070   24.0853 H   0  0  0  0  0  0  0  0  0  0  0  0
    6.1171   14.2671   21.4864 H   0  0  0  0  0  0  0  0  0  0  0  0
    5.0628   15.0954   24.5311 H   0  0  0  0  0  0  0  0  0  0  0  0
    4.7840   13.8086   23.3746 H   0  0  0  0  0  0  0  0  0  0  0  0
    8.6352   14.1852   20.8497 H   0  0  0  0  0  0  0  0  0  0  0  0
    7.9004   15.7755   20.5672 H   0  0  0  0  0  0  0  0  0  0  0  0
    9.3990   10.3960   25.8703 H   0  0  0  0  0  0  0  0  0  0  0  0
   10.6454   11.2707   24.9604 H   0  0  0  0  0  0  0  0  0  0  0  0
    7.0522    9.7396   22.9773 H   0  0  0  0  0  0  0  0  0  0  0  0
    7.4837    9.1329   24.6234 H   0  0  0  0  0  0  0  0  0  0  0  0
    3.8803   14.1196   26.1875 H   0  0  0  0  0  0  0  0  0  0  0  0
    3.7490   12.3560   26.0905 H   0  0  0  0  0  0  0  0  0  0  0  0
    7.4231   13.0494   26.6905 H   0  0  0  0  0  0  0  0  0  0  0  0
    6.6451   14.6386   26.6640 H   0  0  0  0  0  0  0  0  0  0  0  0
    9.7398    9.5154   23.1428 H   0  0  0  0  0  0  0  0  0  0  0  0
    8.5345   12.9732   24.9313 H   0  0  0  0  0  0  0  0  0  0  0  0
    8.3346   11.8689   22.2495 H   0  0  0  0  0  0  0  0  0  0  0  0
   10.8700   11.9321   21.8844 H   0  0  0  0  0  0  0  0  0  0  0  0
    5.1266   13.6313   28.1262 H   0  0  0  0  0  0  0  0  0  0  0  0
  1  2  2  0  0  0  0
  1  3  1  0  0  0  0
  2  4  1  0  0  0  0
  3  5  2  0  0  0  0
  4  6  2  0  0  0  0
  5  6  1  0  0  0  0
  5  9  1  0  0  0  0
  6 26  1  0  0  0  0
  7  8  2  3  0  0  0
  7 11  1  0  0  0  0
  8 12  1  0  0  0  0
  9 21  1  0  0  0  0
  9 24  2  0  0  0  0
 10 20  1  0  0  0  0
 10 23  1  0  0  0  0
 10 25  2  0  0  0  0
 11 20  1  0  0  0  0
 12 26  1  0  0  0  0
 13 17  1  0  0  0  0
 13 18  1  0  0  0  0
 14 17  1  0  0  0  0
 14 23  1  0  0  0  0
 15 20  1  0  0  0  0
 15 22  1  0  0  0  0
 16 20  1  0  0  0  0
 16 22  1  0  0  0  0
 17 19  1  0  0  0  0
 18 19  1  0  0  0  0
 18 23  1  0  0  0  0
 19 21  1  0  0  0  0
  1 27  1  0  0  0  0
  2 28  1  0  0  0  0
  3 29  1  0  0  0  0
  4 30  1  0  0  0  0
  7 31  1  0  0  0  0
  8 32  1  0  0  0  0
 11 33  1  0  0  0  0
 11 34  1  0  0  0  0
 12 35  1  0  0  0  0
 12 36  1  0  0  0  0
 13 37  1  0  0  0  0
 13 38  1  0  0  0  0
 14 39  1  0  0  0  0
 14 40  1  0  0  0  0
 15 41  1  0  0  0  0
 15 42  1  0  0  0  0
 16 43  1  0  0  0  0
 16 44  1  0  0  0  0
 17 45  1  0  0  0  0
 18 46  1  0  0  0  0
 19 47  1  0  0  0  0
 21 48  1  0  0  0  0
 22 49  1  0  0  0  0
M  END
> <id>
EN300-6486449

> <smiles>
OC(=O)C(F)(F)F.O=C1NC2C3CC2N(C3)C(=O)C4(CNC4)CC=CCOC=5C=CC=CC15

> <IUPAC Name>
16'-oxa-3',9'-diazaspiro[azetidine-3,11'-tetracyclo[15.4.0.0^{4,7}.0^{5,9}]henicosane]-1'(17'),13',18',20'-tetraene-2',10'-dione; trifluoroacetic acid

> <URL>
https://www.enaminestore.com/catalog/EN300-6486449

> <Saltdate>
OC(=O)C(F)(F)F

> <ROCS_ShapeQuery>
A71EV2A-x0451_0A_A71EV2A-x0310_0A_A71EV2A-x0416_0A_peptide

> <ROCS_TanimotoCombo>
0.499 

> <ROCS_ShapeTanimoto>
0.313 

> <ROCS_ColorTanimoto>
0.186 

> <ROCS_RefTversky>
0.290 

> <ROCS_RefColorTversky>
0.236 

> <ROCS_RefTverskyCombo>
0.526 

> <ROCS_FitTversky>
1.346 

> <ROCS_FitColorTversky>
0.466 

> <ROCS_FitTverskyCombo>
1.811 

> <ROCS_ColorScore>
-7.289

> <ROCS_Overlap>
2014.938

> <ROCS_Rank>
136                 

$$$$
untitled-dbase-45432_12
  -OEChem-11132313473D

 41 42  0     0  0  0  0  0  0999 V2000
    6.4337   11.7409   26.2978 C   0  0  0  0  0  0  0  0  0  0  0  0
    6.9795   12.9937   26.0684 C   0  0  0  0  0  0  0  0  0  0  0  0
    6.9154   10.6476   25.5882 C   0  0  0  0  0  0  0  0  0  0  0  0
    8.0147   13.1499   25.1402 C   0  0  0  0  0  0  0  0  0  0  0  0
    7.9558   10.8032   24.6532 C   0  0  0  0  0  0  0  0  0  0  0  0
    8.5471   12.0582   24.4244 C   0  0  0  0  0  0  0  0  0  0  0  0
    8.4056    9.5928   23.9408 C   0  0  0  0  0  0  0  0  0  0  0  0
   10.3089   13.4623   23.3788 C   0  0  0  0  0  0  0  0  0  0  0  0
    9.8325   11.1070   22.4643 C   0  0  0  0  0  0  0  0  0  0  0  0
   11.3387   10.9505   22.1244 C   0  0  0  0  0  0  0  0  0  0  0  0
    9.0247   11.3860   21.1808 C   0  0  0  0  0  0  0  0  0  0  0  0
   13.0230   13.7970   22.5149 C   0  0  0  0  0  0  0  0  0  0  0  0
   12.0403   14.8495   20.4568 C   0  0  0  0  0  0  0  0  0  0  0  0
   11.6626   15.9061   22.7038 C   0  0  0  0  0  0  0  0  0  0  0  0
   11.8459   14.5901   21.9492 C   0  0  0  0  0  0  0  0  0  0  0  0
    9.6090   12.2335   23.4497 N   0  0  0  0  0  0  0  0  0  0  0  0
    9.3924    9.8109   23.0269 N   0  0  0  0  0  0  0  0  0  0  0  0
    7.9106    8.4982   24.1920 O   0  0  0  0  0  0  0  0  0  0  0  0
   10.5898   14.1745   24.3415 O   0  0  0  0  0  0  0  0  0  0  0  0
    9.6892    8.6838   22.2369 O   0  0  0  0  0  0  0  0  0  0  0  0
   10.6548   13.8082   22.0998 O   0  0  0  0  0  0  0  0  0  0  0  0
    5.6501   11.6113   27.0370 H   0  0  0  0  0  0  0  0  0  0  0  0
    6.6138   13.8558   26.6193 H   0  0  0  0  0  0  0  0  0  0  0  0
    6.4726    9.6730   25.7820 H   0  0  0  0  0  0  0  0  0  0  0  0
    8.4143   14.1556   25.0353 H   0  0  0  0  0  0  0  0  0  0  0  0
   11.8908   10.7551   23.0370 H   0  0  0  0  0  0  0  0  0  0  0  0
   11.6972   11.8661   21.6675 H   0  0  0  0  0  0  0  0  0  0  0  0
   11.4637   10.1227   21.4353 H   0  0  0  0  0  0  0  0  0  0  0  0
    7.9819   11.4904   21.4454 H   0  0  0  0  0  0  0  0  0  0  0  0
    9.1581   10.5556   20.5019 H   0  0  0  0  0  0  0  0  0  0  0  0
    9.3917   12.2991   20.7338 H   0  0  0  0  0  0  0  0  0  0  0  0
   12.8873   13.6088   23.5859 H   0  0  0  0  0  0  0  0  0  0  0  0
   13.1436   12.8354   22.0053 H   0  0  0  0  0  0  0  0  0  0  0  0
   13.9578   14.3606   22.4161 H   0  0  0  0  0  0  0  0  0  0  0  0
   11.1980   15.4184   20.0467 H   0  0  0  0  0  0  0  0  0  0  0  0
   12.0773   13.9071   19.8984 H   0  0  0  0  0  0  0  0  0  0  0  0
   12.9626   15.4055   20.2601 H   0  0  0  0  0  0  0  0  0  0  0  0
   10.8183   16.4752   22.2983 H   0  0  0  0  0  0  0  0  0  0  0  0
   11.4851   15.7377   23.7710 H   0  0  0  0  0  0  0  0  0  0  0  0
   12.5468   16.5444   22.5944 H   0  0  0  0  0  0  0  0  0  0  0  0
    9.0627    8.0169   22.5888 H   0  0  0  0  0  0  0  0  0  0  0  0
  1  2  2  0  0  0  0
  1  3  1  0  0  0  0
  2  4  1  0  0  0  0
  3  5  2  0  0  0  0
  4  6  2  0  0  0  0
  5  6  1  0  0  0  0
  5  7  1  0  0  0  0
  6 16  1  0  0  0  0
  7 17  1  0  0  0  0
  7 18  2  0  0  0  0
  8 16  1  0  0  0  0
  8 19  2  0  0  0  0
  8 21  1  0  0  0  0
  9 10  1  0  0  0  0
  9 11  1  0  0  0  0
  9 16  1  0  0  0  0
  9 17  1  0  0  0  0
 12 15  1  0  0  0  0
 13 15  1  0  0  0  0
 14 15  1  0  0  0  0
 15 21  1  0  0  0  0
 17 20  1  0  0  0  0
  1 22  1  0  0  0  0
  2 23  1  0  0  0  0
  3 24  1  0  0  0  0
  4 25  1  0  0  0  0
 10 26  1  0  0  0  0
 10 27  1  0  0  0  0
 10 28  1  0  0  0  0
 11 29  1  0  0  0  0
 11 30  1  0  0  0  0
 11 31  1  0  0  0  0
 12 32  1  0  0  0  0
 12 33  1  0  0  0  0
 12 34  1  0  0  0  0
 13 35  1  0  0  0  0
 13 36  1  0  0  0  0
 13 37  1  0  0  0  0
 14 38  1  0  0  0  0
 14 39  1  0  0  0  0
 14 40  1  0  0  0  0
 20 41  1  0  0  0  0
M  END
> <id>
EN300-28288662

> <smiles>
CC(C)(C)OC(=O)N1C=2C=CC=CC2C(=O)N(O)C1(C)C

> <IUPAC Name>
tert-butyl 3-hydroxy-2,2-dimethyl-4-oxo-1,2,3,4-tetrahydroquinazoline-1-carboxylate

> <CAS>
2680789-42-6

> <URL>
https://www.enaminestore.com/catalog/EN300-28288662

> <ROCS_ShapeQuery>
A71EV2A-x0451_0A_A71EV2A-x0310_0A_A71EV2A-x0416_0A_peptide

> <ROCS_TanimotoCombo>
0.499 

> <ROCS_ShapeTanimoto>
0.370 

> <ROCS_ColorTanimoto>
0.128 

> <ROCS_RefTversky>
0.319 

> <ROCS_RefColorTversky>
0.141 

> <ROCS_RefTverskyCombo>
0.461 

> <ROCS_FitTversky>
1.749 

> <ROCS_FitColorTversky>
0.589 

> <ROCS_FitTverskyCombo>
2.338 

> <ROCS_ColorScore>
-4.294

> <ROCS_Overlap>
2218.093

> <ROCS_Rank>
137                 

$$$$
untitled-dbase-30755_66
  -OEChem-11132313473D

 35 36  0     1  0  0  0  0  0999 V2000
   10.5121   13.1537   23.5351 C   0  0  0  0  0  0  0  0  0  0  0  0
    9.0131   11.3687   22.7141 C   0  0  0  0  0  0  0  0  0  0  0  0
    9.5676   11.4973   25.1752 C   0  0  0  0  0  0  0  0  0  0  0  0
    6.7468   11.4511   23.8311 C   0  0  0  0  0  0  0  0  0  0  0  0
    7.7770   10.5593   23.1402 C   0  0  2  0  0  0  0  0  0  0  0  0
    8.2974   10.6637   25.3739 C   0  0  2  0  0  0  0  0  0  0  0  0
    8.1228    9.6235   24.2825 C   0  0  2  0  0  0  0  0  0  0  0  0
   12.3776   15.0686   22.5170 C   0  0  0  0  0  0  0  0  0  0  0  0
   12.1176   13.8794   20.3199 C   0  0  0  0  0  0  0  0  0  0  0  0
   10.1350   15.0022   21.3765 C   0  0  0  0  0  0  0  0  0  0  0  0
   11.4372   14.2465   21.6369 C   0  0  0  0  0  0  0  0  0  0  0  0
    9.6640   12.0766   23.8239 N   0  0  0  0  0  0  0  0  0  0  0  0
   10.6871   14.1152   24.2813 O   0  0  0  0  0  0  0  0  0  0  0  0
    7.1610   11.5399   25.2128 O   0  0  0  0  0  0  0  0  0  0  0  0
    9.2712    8.8413   24.0467 O   0  0  0  0  0  0  0  0  0  0  0  0
   11.1274   13.0253   22.3175 O   0  0  0  0  0  0  0  0  0  0  0  0
    9.7684   10.7091   22.2704 H   0  0  0  0  0  0  0  0  0  0  0  0
    8.7376   12.0978   21.9430 H   0  0  0  0  0  0  0  0  0  0  0  0
    9.5859   12.3160   25.9029 H   0  0  0  0  0  0  0  0  0  0  0  0
   10.4647   10.8875   25.3306 H   0  0  0  0  0  0  0  0  0  0  0  0
    6.6769   12.4559   23.4040 H   0  0  0  0  0  0  0  0  0  0  0  0
    5.7522   10.9931   23.8172 H   0  0  0  0  0  0  0  0  0  0  0  0
    7.3669   10.0402   22.2685 H   0  0  0  0  0  0  0  0  0  0  0  0
    8.2853   10.2262   26.3768 H   0  0  0  0  0  0  0  0  0  0  0  0
    7.2751    8.9616   24.4988 H   0  0  0  0  0  0  0  0  0  0  0  0
   11.8929   15.3341   23.4634 H   0  0  0  0  0  0  0  0  0  0  0  0
   13.3007   14.5236   22.7401 H   0  0  0  0  0  0  0  0  0  0  0  0
   12.6429   16.0138   22.0297 H   0  0  0  0  0  0  0  0  0  0  0  0
   11.4465   13.2894   19.6852 H   0  0  0  0  0  0  0  0  0  0  0  0
   13.0015   13.2560   20.4977 H   0  0  0  0  0  0  0  0  0  0  0  0
   12.4276   14.7697   19.7633 H   0  0  0  0  0  0  0  0  0  0  0  0
    9.4603   14.4128   20.7452 H   0  0  0  0  0  0  0  0  0  0  0  0
    9.6143   15.2418   22.3093 H   0  0  0  0  0  0  0  0  0  0  0  0
   10.3277   15.9358   20.8356 H   0  0  0  0  0  0  0  0  0  0  0  0
    9.4079    8.2793   24.8309 H   0  0  0  0  0  0  0  0  0  0  0  0
  1 12  1  0  0  0  0
  1 13  2  0  0  0  0
  1 16  1  0  0  0  0
  2  5  1  1  0  0  0
  2 12  1  0  0  0  0
  3  6  1  1  0  0  0
  3 12  1  0  0  0  0
  4  5  1  0  0  0  0
  4 14  1  0  0  0  0
  5  7  1  0  0  0  0
  6  7  1  0  0  0  0
  6 14  1  0  0  0  0
  7 15  1  6  0  0  0
  8 11  1  0  0  0  0
  9 11  1  0  0  0  0
 10 11  1  0  0  0  0
 11 16  1  0  0  0  0
  2 17  1  0  0  0  0
  2 18  1  0  0  0  0
  3 19  1  0  0  0  0
  3 20  1  0  0  0  0
  4 21  1  0  0  0  0
  4 22  1  0  0  0  0
  5 23  1  0  0  0  0
  6 24  1  0  0  0  0
  7 25  1  0  0  0  0
  8 26  1  0  0  0  0
  8 27  1  0  0  0  0
  8 28  1  0  0  0  0
  9 29  1  0  0  0  0
  9 30  1  0  0  0  0
  9 31  1  0  0  0  0
 10 32  1  0  0  0  0
 10 33  1  0  0  0  0
 10 34  1  0  0  0  0
 15 35  1  0  0  0  0
M  END
> <id>
EN300-26666272

> <smiles>
CC(C)(C)OC(=O)N1C[C@@H]2CO[C@H](C1)[C@@H]2O |&1:9,12,14,r|

> <IUPAC Name>
rac-tert-butyl (1R,5R,8R)-8-hydroxy-6-oxa-3-azabicyclo[3.2.1]octane-3-carboxylate

> <CAS>
1228676-24-1

> <URL>
https://www.enaminestore.com/catalog/EN300-26666272

> <ROCS_ShapeQuery>
A71EV2A-x0451_0A_A71EV2A-x0310_0A_A71EV2A-x0416_0A_peptide

> <ROCS_TanimotoCombo>
0.498 

> <ROCS_ShapeTanimoto>
0.284 

> <ROCS_ColorTanimoto>
0.214 

> <ROCS_RefTversky>
0.254 

> <ROCS_RefColorTversky>
0.245 

> <ROCS_RefTverskyCombo>
0.500 

> <ROCS_FitTversky>
1.694 

> <ROCS_FitColorTversky>
0.631 

> <ROCS_FitTverskyCombo>
2.325 

> <ROCS_ColorScore>
-7.515

> <ROCS_Overlap>
1763.936

> <ROCS_Rank>
138                 

$$$$
untitled-dbase-45692_39
  -OEChem-11132313473D

 36 37  0     0  0  0  0  0  0999 V2000
    8.1420   12.9558   25.3298 C   0  0  0  0  0  0  0  0  0  0  0  0
    8.6033   11.8882   24.5537 C   0  0  0  0  0  0  0  0  0  0  0  0
    7.8540   10.7014   24.5901 C   0  0  0  0  0  0  0  0  0  0  0  0
    6.9793   12.7955   26.0770 C   0  0  0  0  0  0  0  0  0  0  0  0
    6.6964   10.6468   25.3576 C   0  0  0  0  0  0  0  0  0  0  0  0
   10.6179   13.0744   23.6177 C   0  0  0  0  0  0  0  0  0  0  0  0
    9.9749   10.7853   22.8439 C   0  0  0  0  0  0  0  0  0  0  0  0
    9.5460    9.5121   23.5422 C   0  0  0  0  0  0  0  0  0  0  0  0
   11.1010   15.1782   22.1103 C   0  0  0  0  0  0  0  0  0  0  0  0
   13.0854   13.9766   21.1473 C   0  0  0  0  0  0  0  0  0  0  0  0
   10.7642   13.3098   20.4580 C   0  0  0  0  0  0  0  0  0  0  0  0
    6.4961   13.9282   26.9217 C   0  0  0  0  0  0  0  0  0  0  0  0
   11.6326   13.8405   21.5977 C   0  0  0  0  0  0  0  0  0  0  0  0
    6.2416   11.6682   26.1087 N   0  0  0  0  0  0  0  0  0  0  0  0
    9.7630   11.9587   23.7051 N   0  0  0  0  0  0  0  0  0  0  0  0
   10.5424   14.1055   24.2796 O   0  0  0  0  0  0  0  0  0  0  0  0
    8.1679    9.5663   23.8942 O   0  0  0  0  0  0  0  0  0  0  0  0
   11.6010   12.8949   22.6738 O   0  0  0  0  0  0  0  0  0  0  0  0
    7.2911   15.0361   26.8554 F   0  0  0  0  0  0  0  0  0  0  0  0
    5.2467   14.3639   26.5859 F   0  0  0  0  0  0  0  0  0  0  0  0
    6.4288   13.6027   28.2447 F   0  0  0  0  0  0  0  0  0  0  0  0
    5.6897    9.2510   25.4231 Cl  0  0  0  0  0  0  0  0  0  0  0  0
    8.6587   13.9034   25.4008 H   0  0  0  0  0  0  0  0  0  0  0  0
   11.0451   10.7607   22.6050 H   0  0  0  0  0  0  0  0  0  0  0  0
    9.4188   10.8849   21.9067 H   0  0  0  0  0  0  0  0  0  0  0  0
    9.7366    8.6244   22.9256 H   0  0  0  0  0  0  0  0  0  0  0  0
   10.1163    9.3898   24.4691 H   0  0  0  0  0  0  0  0  0  0  0  0
   10.0584   15.0848   22.4346 H   0  0  0  0  0  0  0  0  0  0  0  0
   11.6943   15.5528   22.9508 H   0  0  0  0  0  0  0  0  0  0  0  0
   11.1111   15.9333   21.3159 H   0  0  0  0  0  0  0  0  0  0  0  0
   13.4710   13.0191   20.7788 H   0  0  0  0  0  0  0  0  0  0  0  0
   13.7287   14.2660   21.9862 H   0  0  0  0  0  0  0  0  0  0  0  0
   13.1941   14.7228   20.3536 H   0  0  0  0  0  0  0  0  0  0  0  0
   11.1453   12.3502   20.0902 H   0  0  0  0  0  0  0  0  0  0  0  0
    9.7251   13.1708   20.7738 H   0  0  0  0  0  0  0  0  0  0  0  0
   10.7797   13.9965   19.6040 H   0  0  0  0  0  0  0  0  0  0  0  0
  1  2  2  0  0  0  0
  1  4  1  0  0  0  0
  2  3  1  0  0  0  0
  2 15  1  0  0  0  0
  3  5  2  0  0  0  0
  3 17  1  0  0  0  0
  4 12  1  0  0  0  0
  4 14  2  0  0  0  0
  5 14  1  0  0  0  0
  5 22  1  0  0  0  0
  6 15  1  0  0  0  0
  6 16  2  0  0  0  0
  6 18  1  0  0  0  0
  7  8  1  0  0  0  0
  7 15  1  0  0  0  0
  8 17  1  0  0  0  0
  9 13  1  0  0  0  0
 10 13  1  0  0  0  0
 11 13  1  0  0  0  0
 12 19  1  0  0  0  0
 12 20  1  0  0  0  0
 12 21  1  0  0  0  0
 13 18  1  0  0  0  0
  1 23  1  0  0  0  0
  7 24  1  0  0  0  0
  7 25  1  0  0  0  0
  8 26  1  0  0  0  0
  8 27  1  0  0  0  0
  9 28  1  0  0  0  0
  9 29  1  0  0  0  0
  9 30  1  0  0  0  0
 10 31  1  0  0  0  0
 10 32  1  0  0  0  0
 10 33  1  0  0  0  0
 11 34  1  0  0  0  0
 11 35  1  0  0  0  0
 11 36  1  0  0  0  0
M  END
> <id>
EN300-7563330

> <smiles>
CC(C)(C)OC(=O)N1CCOC=2C(Cl)=NC(=CC12)C(F)(F)F

> <MDLNUMBER>
MFCD34570894

> <IUPAC Name>
tert-butyl 5-chloro-7-(trifluoromethyl)-1H,2H,3H-pyrido[3,4-b][1,4]oxazine-1-carboxylate

> <CAS>
2680901-11-3

> <URL>
https://www.enaminestore.com/catalog/EN300-7563330

> <ROCS_ShapeQuery>
A71EV2A-x0451_0A_A71EV2A-x0310_0A_A71EV2A-x0416_0A_peptide

> <ROCS_TanimotoCombo>
0.498 

> <ROCS_ShapeTanimoto>
0.344 

> <ROCS_ColorTanimoto>
0.154 

> <ROCS_RefTversky>
0.305 

> <ROCS_RefColorTversky>
0.166 

> <ROCS_RefTverskyCombo>
0.470 

> <ROCS_FitTversky>
1.611 

> <ROCS_FitColorTversky>
0.691 

> <ROCS_FitTverskyCombo>
2.301 

> <ROCS_ColorScore>
-5.036

> <ROCS_Overlap>
2115.152

> <ROCS_Rank>
139                 

$$$$
untitled-dbase-43535_11
  -OEChem-11132313473D

 39 40  0     1  0  0  0  0  0999 V2000
    7.2168   12.1843   25.7832 C   0  0  0  0  0  0  0  0  0  0  0  0
    8.2900   12.5988   24.9951 C   0  0  0  0  0  0  0  0  0  0  0  0
    6.7333   10.8936   25.6649 C   0  0  0  0  0  0  0  0  0  0  0  0
    8.9116   11.7273   24.0791 C   0  0  0  0  0  0  0  0  0  0  0  0
    8.4175   10.3984   23.9465 C   0  0  0  0  0  0  0  0  0  0  0  0
    7.3220   10.0180   24.7545 C   0  0  0  0  0  0  0  0  0  0  0  0
   10.7226   13.3636   23.4561 C   0  0  0  0  0  0  0  0  0  0  0  0
   10.3213   11.3039   22.1006 C   0  0  0  0  0  0  0  0  0  0  0  0
   10.2829    9.8377   22.4774 C   0  0  0  0  0  0  0  0  0  0  0  0
   11.6706   15.9553   22.6707 C   0  0  0  0  0  0  0  0  0  0  0  0
   12.7771   14.7669   20.7543 C   0  0  0  0  0  0  0  0  0  0  0  0
   10.2749   14.7347   20.9687 C   0  0  0  0  0  0  0  0  0  0  0  0
    8.5329    8.1224   22.9317 C   0  0  0  0  0  0  0  0  0  0  0  0
   11.6007   14.7548   21.7280 C   0  0  0  0  0  0  0  0  0  0  0  0
   10.0040   12.1690   23.2431 N   0  0  0  0  0  0  0  0  0  0  0  0
    8.9901    9.4997   23.0449 N   0  0  1  0  0  0  0  0  0  0  0  0
   10.5470   14.1623   24.3726 O   0  0  0  0  0  0  0  0  0  0  0  0
    6.7683    8.7682   24.7307 O   0  0  0  0  0  0  0  0  0  0  0  0
   11.6980   13.5566   22.5077 O   0  0  0  0  0  0  0  0  0  0  0  0
    6.7539   12.8786   26.4784 H   0  0  0  0  0  0  0  0  0  0  0  0
    8.5829   13.6370   25.1013 H   0  0  0  0  0  0  0  0  0  0  0  0
    5.8951   10.5750   26.2787 H   0  0  0  0  0  0  0  0  0  0  0  0
   11.3164   11.5293   21.7042 H   0  0  0  0  0  0  0  0  0  0  0  0
    9.5991   11.5288   21.3054 H   0  0  0  0  0  0  0  0  0  0  0  0
   10.4908    9.2445   21.5791 H   0  0  0  0  0  0  0  0  0  0  0  0
   11.0748    9.6077   23.2016 H   0  0  0  0  0  0  0  0  0  0  0  0
   10.8279   15.9502   23.3713 H   0  0  0  0  0  0  0  0  0  0  0  0
   12.6017   15.9621   23.2468 H   0  0  0  0  0  0  0  0  0  0  0  0
   11.6025   16.8957   22.1120 H   0  0  0  0  0  0  0  0  0  0  0  0
   12.7310   13.9072   20.0760 H   0  0  0  0  0  0  0  0  0  0  0  0
   13.7291   14.6856   21.2913 H   0  0  0  0  0  0  0  0  0  0  0  0
   12.7950   15.6820   20.1536 H   0  0  0  0  0  0  0  0  0  0  0  0
   10.2245   13.8737   20.2925 H   0  0  0  0  0  0  0  0  0  0  0  0
    9.4200   14.6887   21.6511 H   0  0  0  0  0  0  0  0  0  0  0  0
   10.1718   15.6273   20.3411 H   0  0  0  0  0  0  0  0  0  0  0  0
    9.1233    7.6015   22.1635 H   0  0  0  0  0  0  0  0  0  0  0  0
    8.6593    7.6136   23.8987 H   0  0  0  0  0  0  0  0  0  0  0  0
    7.4703    8.1111   22.6475 H   0  0  0  0  0  0  0  0  0  0  0  0
    6.0440    8.7156   25.3712 H   0  0  0  0  0  0  0  0  0  0  0  0
  1  2  1  0  0  0  0
  1  3  2  0  0  0  0
  2  4  2  0  0  0  0
  3  6  1  0  0  0  0
  4  5  1  0  0  0  0
  4 15  1  0  0  0  0
  5  6  2  0  0  0  0
  5 16  1  0  0  0  0
  6 18  1  0  0  0  0
  7 15  1  0  0  0  0
  7 17  2  0  0  0  0
  7 19  1  0  0  0  0
  8  9  1  0  0  0  0
  8 15  1  0  0  0  0
  9 16  1  0  0  0  0
 10 14  1  0  0  0  0
 11 14  1  0  0  0  0
 12 14  1  0  0  0  0
 13 16  1  0  0  0  0
 14 19  1  0  0  0  0
  1 20  1  0  0  0  0
  2 21  1  0  0  0  0
  3 22  1  0  0  0  0
  8 23  1  0  0  0  0
  8 24  1  0  0  0  0
  9 25  1  0  0  0  0
  9 26  1  0  0  0  0
 10 27  1  0  0  0  0
 10 28  1  0  0  0  0
 10 29  1  0  0  0  0
 11 30  1  0  0  0  0
 11 31  1  0  0  0  0
 11 32  1  0  0  0  0
 12 33  1  0  0  0  0
 12 34  1  0  0  0  0
 12 35  1  0  0  0  0
 13 36  1  0  0  0  0
 13 37  1  0  0  0  0
 13 38  1  0  0  0  0
 18 39  1  0  0  0  0
M  END
> <id>
EN300-27782862

> <smiles>
CN1CCN(C(=O)OC(C)(C)C)C=2C=CC=C(O)C12

> <IUPAC Name>
tert-butyl 5-hydroxy-4-methyl-1,2,3,4-tetrahydroquinoxaline-1-carboxylate

> <CAS>
2639433-87-5

> <URL>
https://www.enaminestore.com/catalog/EN300-27782862

> <ROCS_ShapeQuery>
A71EV2A-x0451_0A_A71EV2A-x0310_0A_A71EV2A-x0416_0A_peptide

> <ROCS_TanimotoCombo>
0.498 

> <ROCS_ShapeTanimoto>
0.357 

> <ROCS_ColorTanimoto>
0.141 

> <ROCS_RefTversky>
0.308 

> <ROCS_RefColorTversky>
0.153 

> <ROCS_RefTverskyCombo>
0.461 

> <ROCS_FitTversky>
1.814 

> <ROCS_FitColorTversky>
0.640 

> <ROCS_FitTverskyCombo>
2.454 

> <ROCS_ColorScore>
-4.667

> <ROCS_Overlap>
2134.955

> <ROCS_Rank>
140                 

$$$$
untitled-dbase-52086_101
  -OEChem-11132313473D

 34 35  0     0  0  0  0  0  0999 V2000
    7.7897   13.5439   24.7026 C   0  0  0  0  0  0  0  0  0  0  0  0
    8.3864   12.3424   24.3702 C   0  0  0  0  0  0  0  0  0  0  0  0
    7.4832   11.3702   24.9048 C   0  0  0  0  0  0  0  0  0  0  0  0
   10.4479   13.2638   23.4332 C   0  0  0  0  0  0  0  0  0  0  0  0
    7.5902    9.8898   24.9673 C   0  0  0  0  0  0  0  0  0  0  0  0
    9.9027   10.8595   23.0133 C   0  0  0  0  0  0  0  0  0  0  0  0
    9.6688    9.6236   23.8661 C   0  0  0  0  0  0  0  0  0  0  0  0
   12.3416   15.2311   22.5508 C   0  0  0  0  0  0  0  0  0  0  0  0
   12.0842   14.1918   20.2786 C   0  0  0  0  0  0  0  0  0  0  0  0
   10.1061   15.2636   21.3950 C   0  0  0  0  0  0  0  0  0  0  0  0
   11.3989   14.4787   21.6128 C   0  0  0  0  0  0  0  0  0  0  0  0
    6.4251   11.9349   25.5047 N   0  0  0  0  0  0  0  0  0  0  0  0
    6.6375   13.2442   25.3612 N   0  0  0  0  0  0  0  0  0  0  0  0
    9.5904   12.1539   23.6505 N   0  0  0  0  0  0  0  0  0  0  0  0
   10.6482   14.1838   24.2237 O   0  0  0  0  0  0  0  0  0  0  0  0
    8.2866    9.2970   23.8790 O   0  0  0  0  0  0  0  0  0  0  0  0
   11.0719   13.2180   22.2100 O   0  0  0  0  0  0  0  0  0  0  0  0
    8.0564   14.5773   24.5123 H   0  0  0  0  0  0  0  0  0  0  0  0
    8.1480    9.6006   25.8868 H   0  0  0  0  0  0  0  0  0  0  0  0
    6.5874    9.4152   25.0933 H   0  0  0  0  0  0  0  0  0  0  0  0
   10.9455   10.8432   22.6534 H   0  0  0  0  0  0  0  0  0  0  0  0
    9.2986   10.8134   22.0877 H   0  0  0  0  0  0  0  0  0  0  0  0
   10.2063    8.7950   23.4554 H   0  0  0  0  0  0  0  0  0  0  0  0
    9.9712    9.8050   24.8751 H   0  0  0  0  0  0  0  0  0  0  0  0
   11.8534   15.4389   23.5096 H   0  0  0  0  0  0  0  0  0  0  0  0
   13.2576   14.6629   22.7430 H   0  0  0  0  0  0  0  0  0  0  0  0
   12.6197   16.2034   22.1283 H   0  0  0  0  0  0  0  0  0  0  0  0
   11.4114   13.6520   19.6025 H   0  0  0  0  0  0  0  0  0  0  0  0
   12.9605   13.5488   20.4203 H   0  0  0  0  0  0  0  0  0  0  0  0
   12.4069   15.1135   19.7837 H   0  0  0  0  0  0  0  0  0  0  0  0
    9.4297   14.7241   20.7222 H   0  0  0  0  0  0  0  0  0  0  0  0
    9.5816   15.4468   22.3384 H   0  0  0  0  0  0  0  0  0  0  0  0
   10.3119   16.2287   20.9179 H   0  0  0  0  0  0  0  0  0  0  0  0
    5.9553   13.8883   25.7414 H   0  0  0  0  0  0  0  0  0  0  0  0
  1  2  2  0  0  0  0
  1 13  1  0  0  0  0
  2  3  1  0  0  0  0
  2 14  1  0  0  0  0
  3  5  1  0  0  0  0
  3 12  2  0  0  0  0
  4 14  1  0  0  0  0
  4 15  2  0  0  0  0
  4 17  1  0  0  0  0
  5 16  1  0  0  0  0
  6  7  1  0  0  0  0
  6 14  1  0  0  0  0
  7 16  1  0  0  0  0
  8 11  1  0  0  0  0
  9 11  1  0  0  0  0
 10 11  1  0  0  0  0
 11 17  1  0  0  0  0
 12 13  1  0  0  0  0
  1 18  1  0  0  0  0
  5 19  1  0  0  0  0
  5 20  1  0  0  0  0
  6 21  1  0  0  0  0
  6 22  1  0  0  0  0
  7 23  1  0  0  0  0
  7 24  1  0  0  0  0
  8 25  1  0  0  0  0
  8 26  1  0  0  0  0
  8 27  1  0  0  0  0
  9 28  1  0  0  0  0
  9 29  1  0  0  0  0
  9 30  1  0  0  0  0
 10 31  1  0  0  0  0
 10 32  1  0  0  0  0
 10 33  1  0  0  0  0
 13 34  1  0  0  0  0
M  END
> <id>
EN300-39923878

> <smiles>
CC(C)(C)OC(=O)N1CCOCC2=NNC=C12

> <IUPAC Name>
tert-butyl 2H,4H,5H,6H,8H-pyrazolo[4,3-e][1,4]oxazepine-4-carboxylate

> <Purity>
95

> <URL>
https://www.enaminestore.com/catalog/EN300-39923878

> <ROCS_ShapeQuery>
A71EV2A-x0451_0A_A71EV2A-x0310_0A_A71EV2A-x0416_0A_peptide

> <ROCS_TanimotoCombo>
0.498 

> <ROCS_ShapeTanimoto>
0.330 

> <ROCS_ColorTanimoto>
0.168 

> <ROCS_RefTversky>
0.287 

> <ROCS_RefColorTversky>
0.183 

> <ROCS_RefTverskyCombo>
0.470 

> <ROCS_FitTversky>
1.820 

> <ROCS_FitColorTversky>
0.677 

> <ROCS_FitTverskyCombo>
2.497 

> <ROCS_ColorScore>
-5.580

> <ROCS_Overlap>
1991.001

> <ROCS_Rank>
141                 

$$$$
untitled-dbase-45555_55
  -OEChem-11132313473D

 44 46  0     0  0  0  0  0  0999 V2000
    6.9474   10.1573   25.1481 C   0  0  0  0  0  0  0  0  0  0  0  0
    6.3217   11.0841   25.9834 C   0  0  0  0  0  0  0  0  0  0  0  0
    7.8947   12.8072   25.3088 C   0  0  0  0  0  0  0  0  0  0  0  0
    8.0480   10.5587   24.3994 C   0  0  0  0  0  0  0  0  0  0  0  0
    8.5043   11.8809   24.4736 C   0  0  0  0  0  0  0  0  0  0  0  0
    6.7958   12.3982   26.0670 C   0  0  0  0  0  0  0  0  0  0  0  0
   10.3240   13.2319   23.4253 C   0  0  0  0  0  0  0  0  0  0  0  0
    8.1295    8.8967   22.4411 C   0  0  0  0  0  0  0  0  0  0  0  0
    9.8557    8.8058   24.2922 C   0  0  0  0  0  0  0  0  0  0  0  0
    9.7462   10.8444   22.7910 C   0  0  0  0  0  0  0  0  0  0  0  0
    8.1202    7.3992   22.7511 C   0  0  0  0  0  0  0  0  0  0  0  0
    9.1447    7.5861   24.8830 C   0  0  0  0  0  0  0  0  0  0  0  0
    8.9208    9.7218   23.4784 C   0  0  0  0  0  0  0  0  0  0  0  0
   12.7722   14.5121   22.6718 C   0  0  0  0  0  0  0  0  0  0  0  0
   11.8335   14.5264   20.3420 C   0  0  0  0  0  0  0  0  0  0  0  0
   10.6628   15.7901   22.1698 C   0  0  0  0  0  0  0  0  0  0  0  0
   11.4968   14.5553   21.8313 C   0  0  0  0  0  0  0  0  0  0  0  0
    9.5837   12.0699   23.5928 N   0  0  0  0  0  0  0  0  0  0  0  0
   10.6088   14.0371   24.3073 O   0  0  0  0  0  0  0  0  0  0  0  0
    7.9939    7.1751   24.1473 O   0  0  0  0  0  0  0  0  0  0  0  0
   10.7203   13.3871   22.1209 O   0  0  0  0  0  0  0  0  0  0  0  0
    5.9377   13.6298   27.2186 Br  0  0  0  0  0  0  0  0  0  0  0  0
    6.5717    9.1400   25.0916 H   0  0  0  0  0  0  0  0  0  0  0  0
    5.4602   10.7658   26.5671 H   0  0  0  0  0  0  0  0  0  0  0  0
    8.2495   13.8282   25.3833 H   0  0  0  0  0  0  0  0  0  0  0  0
    8.5157    9.0656   21.4217 H   0  0  0  0  0  0  0  0  0  0  0  0
    7.0817    9.2435   22.4274 H   0  0  0  0  0  0  0  0  0  0  0  0
   10.2859    9.3815   25.1319 H   0  0  0  0  0  0  0  0  0  0  0  0
   10.7178    8.4767   23.6848 H   0  0  0  0  0  0  0  0  0  0  0  0
   10.8168   10.6176   22.7398 H   0  0  0  0  0  0  0  0  0  0  0  0
    9.4053   11.0634   21.7731 H   0  0  0  0  0  0  0  0  0  0  0  0
    7.2629    6.9293   22.2573 H   0  0  0  0  0  0  0  0  0  0  0  0
    9.0233    6.9026   22.3773 H   0  0  0  0  0  0  0  0  0  0  0  0
    9.8363    6.7244   24.9837 H   0  0  0  0  0  0  0  0  0  0  0  0
    8.8111    7.8199   25.9125 H   0  0  0  0  0  0  0  0  0  0  0  0
   12.5348   14.5327   23.7415 H   0  0  0  0  0  0  0  0  0  0  0  0
   13.3621   13.6134   22.4638 H   0  0  0  0  0  0  0  0  0  0  0  0
   13.3986   15.3901   22.4772 H   0  0  0  0  0  0  0  0  0  0  0  0
   10.9213   14.5572   19.7352 H   0  0  0  0  0  0  0  0  0  0  0  0
   12.3495   13.5966   20.0765 H   0  0  0  0  0  0  0  0  0  0  0  0
   12.4695   15.3700   20.0551 H   0  0  0  0  0  0  0  0  0  0  0  0
    9.7480   15.8213   21.5670 H   0  0  0  0  0  0  0  0  0  0  0  0
   10.3806   15.8086   23.2275 H   0  0  0  0  0  0  0  0  0  0  0  0
   11.2156   16.7084   21.9407 H   0  0  0  0  0  0  0  0  0  0  0  0
  1  2  1  0  0  0  0
  1  4  2  0  0  0  0
  2  6  2  0  0  0  0
  3  5  2  0  0  0  0
  3  6  1  0  0  0  0
  4  5  1  0  0  0  0
  4 13  1  0  0  0  0
  5 18  1  0  0  0  0
  6 22  1  0  0  0  0
  7 18  1  0  0  0  0
  7 19  2  0  0  0  0
  7 21  1  0  0  0  0
  8 11  1  0  0  0  0
  8 13  1  0  0  0  0
  9 12  1  0  0  0  0
  9 13  1  0  0  0  0
 10 13  1  0  0  0  0
 10 18  1  0  0  0  0
 11 20  1  0  0  0  0
 12 20  1  0  0  0  0
 14 17  1  0  0  0  0
 15 17  1  0  0  0  0
 16 17  1  0  0  0  0
 17 21  1  0  0  0  0
  1 23  1  0  0  0  0
  2 24  1  0  0  0  0
  3 25  1  0  0  0  0
  8 26  1  0  0  0  0
  8 27  1  0  0  0  0
  9 28  1  0  0  0  0
  9 29  1  0  0  0  0
 10 30  1  0  0  0  0
 10 31  1  0  0  0  0
 11 32  1  0  0  0  0
 11 33  1  0  0  0  0
 12 34  1  0  0  0  0
 12 35  1  0  0  0  0
 14 36  1  0  0  0  0
 14 37  1  0  0  0  0
 14 38  1  0  0  0  0
 15 39  1  0  0  0  0
 15 40  1  0  0  0  0
 15 41  1  0  0  0  0
 16 42  1  0  0  0  0
 16 43  1  0  0  0  0
 16 44  1  0  0  0  0
M  END
> <id>
EN300-28300669

> <smiles>
CC(C)(C)OC(=O)N1CC2(CCOCC2)C=3C=CC(Br)=CC13

> <IUPAC Name>
tert-butyl 6-bromo-1,2-dihydrospiro[indole-3,4'-oxane]-1-carboxylate

> <CAS>
2408698-62-2

> <URL>
https://www.enaminestore.com/catalog/EN300-28300669

> <ROCS_ShapeQuery>
A71EV2A-x0451_0A_A71EV2A-x0310_0A_A71EV2A-x0416_0A_peptide

> <ROCS_TanimotoCombo>
0.498 

> <ROCS_ShapeTanimoto>
0.371 

> <ROCS_ColorTanimoto>
0.127 

> <ROCS_RefTversky>
0.321 

> <ROCS_RefColorTversky>
0.143 

> <ROCS_RefTverskyCombo>
0.464 

> <ROCS_FitTversky>
1.721 

> <ROCS_FitColorTversky>
0.528 

> <ROCS_FitTverskyCombo>
2.249 

> <ROCS_ColorScore>
-4.358

> <ROCS_Overlap>
2231.532

> <ROCS_Rank>
142                 

$$$$
untitled-dbase-45409_32
  -OEChem-11132313473D

 44 46  0     0  0  0  0  0  0999 V2000
    6.1605   10.2455   25.0248 C   0  0  0  0  0  0  0  0  0  0  0  0
    5.4159   11.0952   25.8397 C   0  0  0  0  0  0  0  0  0  0  0  0
    7.3584   12.4889   26.1227 C   0  0  0  0  0  0  0  0  0  0  0  0
    8.1229   11.6390   25.3021 C   0  0  0  0  0  0  0  0  0  0  0  0
    7.5093   10.5137   24.7465 C   0  0  0  0  0  0  0  0  0  0  0  0
    6.0156   12.2213   26.3880 C   0  0  0  0  0  0  0  0  0  0  0  0
   10.4425   13.4324   23.2923 C   0  0  0  0  0  0  0  0  0  0  0  0
    9.5688   11.9650   25.0815 C   0  0  0  0  0  0  0  0  0  0  0  0
   11.0073    8.5275   22.5725 C   0  0  0  0  0  0  0  0  0  0  0  0
   10.6086    9.1040   23.9374 C   0  0  0  0  0  0  0  0  0  0  0  0
    9.5525    8.7099   22.1283 C   0  0  0  0  0  0  0  0  0  0  0  0
    9.5335   11.1885   22.6615 C   0  0  0  0  0  0  0  0  0  0  0  0
    9.3702    9.7903   23.2620 C   0  0  0  0  0  0  0  0  0  0  0  0
   12.5781   14.9727   22.1685 C   0  0  0  0  0  0  0  0  0  0  0  0
   11.4344   14.6077   19.9622 C   0  0  0  0  0  0  0  0  0  0  0  0
   10.2570   15.8683   21.7878 C   0  0  0  0  0  0  0  0  0  0  0  0
   11.2386   14.7410   21.4708 C   0  0  0  0  0  0  0  0  0  0  0  0
    9.8921   12.1942   23.6729 N   0  0  0  0  0  0  0  0  0  0  0  0
   10.6792   14.3585   24.0660 O   0  0  0  0  0  0  0  0  0  0  0  0
    8.0935    9.5885   23.9209 O   0  0  0  0  0  0  0  0  0  0  0  0
   10.6853   13.5079   21.9447 O   0  0  0  0  0  0  0  0  0  0  0  0
    5.0221   13.3797   27.5010 Br  0  0  0  0  0  0  0  0  0  0  0  0
    5.6813    9.3638   24.5909 H   0  0  0  0  0  0  0  0  0  0  0  0
    4.3740   10.8609   26.0358 H   0  0  0  0  0  0  0  0  0  0  0  0
    7.8330   13.3685   26.5616 H   0  0  0  0  0  0  0  0  0  0  0  0
    9.8572   12.8503   25.6693 H   0  0  0  0  0  0  0  0  0  0  0  0
   10.1990   11.1442   25.4613 H   0  0  0  0  0  0  0  0  0  0  0  0
   11.7223    9.1484   22.0182 H   0  0  0  0  0  0  0  0  0  0  0  0
   11.3759    7.4967   22.5822 H   0  0  0  0  0  0  0  0  0  0  0  0
   10.3383    8.3369   24.6770 H   0  0  0  0  0  0  0  0  0  0  0  0
   11.3486    9.7700   24.3971 H   0  0  0  0  0  0  0  0  0  0  0  0
    9.4192    9.0523   21.0982 H   0  0  0  0  0  0  0  0  0  0  0  0
    8.9425    7.8082   22.2689 H   0  0  0  0  0  0  0  0  0  0  0  0
   10.3177   11.1974   21.8743 H   0  0  0  0  0  0  0  0  0  0  0  0
    8.6040   11.5154   22.1496 H   0  0  0  0  0  0  0  0  0  0  0  0
   12.4419   15.0689   23.2516 H   0  0  0  0  0  0  0  0  0  0  0  0
   13.2793   14.1538   21.9776 H   0  0  0  0  0  0  0  0  0  0  0  0
   13.0383   15.9083   21.8305 H   0  0  0  0  0  0  0  0  0  0  0  0
   10.4758   14.4414   19.4575 H   0  0  0  0  0  0  0  0  0  0  0  0
   12.0624   13.7414   19.7251 H   0  0  0  0  0  0  0  0  0  0  0  0
   11.9007   15.5013   19.5348 H   0  0  0  0  0  0  0  0  0  0  0  0
    9.2961   15.7023   21.2875 H   0  0  0  0  0  0  0  0  0  0  0  0
   10.0759   15.9547   22.8641 H   0  0  0  0  0  0  0  0  0  0  0  0
   10.6352   16.8291   21.4201 H   0  0  0  0  0  0  0  0  0  0  0  0
  1  2  1  0  0  0  0
  1  5  2  0  0  0  0
  2  6  2  0  0  0  0
  3  4  2  0  0  0  0
  3  6  1  0  0  0  0
  4  5  1  0  0  0  0
  4  8  1  0  0  0  0
  5 20  1  0  0  0  0
  6 22  1  0  0  0  0
  7 18  1  0  0  0  0
  7 19  2  0  0  0  0
  7 21  1  0  0  0  0
  8 18  1  0  0  0  0
  9 10  1  0  0  0  0
  9 11  1  0  0  0  0
 10 13  1  0  0  0  0
 11 13  1  0  0  0  0
 12 13  1  0  0  0  0
 12 18  1  0  0  0  0
 13 20  1  0  0  0  0
 14 17  1  0  0  0  0
 15 17  1  0  0  0  0
 16 17  1  0  0  0  0
 17 21  1  0  0  0  0
  1 23  1  0  0  0  0
  2 24  1  0  0  0  0
  3 25  1  0  0  0  0
  8 26  1  0  0  0  0
  8 27  1  0  0  0  0
  9 28  1  0  0  0  0
  9 29  1  0  0  0  0
 10 30  1  0  0  0  0
 10 31  1  0  0  0  0
 11 32  1  0  0  0  0
 11 33  1  0  0  0  0
 12 34  1  0  0  0  0
 12 35  1  0  0  0  0
 14 36  1  0  0  0  0
 14 37  1  0  0  0  0
 14 38  1  0  0  0  0
 15 39  1  0  0  0  0
 15 40  1  0  0  0  0
 15 41  1  0  0  0  0
 16 42  1  0  0  0  0
 16 43  1  0  0  0  0
 16 44  1  0  0  0  0
M  END
> <id>
EN300-28300668

> <smiles>
CC(C)(C)OC(=O)N1CC=2C=C(Br)C=CC2OC3(CCC3)C1

> <IUPAC Name>
tert-butyl 7-bromo-4,5-dihydro-3H-spiro[1,4-benzoxazepine-2,1'-cyclobutane]-4-carboxylate

> <CAS>
2680751-80-6

> <URL>
https://www.enaminestore.com/catalog/EN300-28300668

> <ROCS_ShapeQuery>
A71EV2A-x0451_0A_A71EV2A-x0310_0A_A71EV2A-x0416_0A_peptide

> <ROCS_TanimotoCombo>
0.497 

> <ROCS_ShapeTanimoto>
0.362 

> <ROCS_ColorTanimoto>
0.135 

> <ROCS_RefTversky>
0.315 

> <ROCS_RefColorTversky>
0.151 

> <ROCS_RefTverskyCombo>
0.467 

> <ROCS_FitTversky>
1.692 

> <ROCS_FitColorTversky>
0.560 

> <ROCS_FitTverskyCombo>
2.252 

> <ROCS_ColorScore>
-4.614

> <ROCS_Overlap>
2189.814

> <ROCS_Rank>
143                 

$$$$
untitled-dbase-45062_29
  -OEChem-11132313473D

 34 35  0     0  0  0  0  0  0999 V2000
    6.4064   11.2459   26.1355 C   0  0  0  0  0  0  0  0  0  0  0  0
    6.7182   12.5629   25.8177 C   0  0  0  0  0  0  0  0  0  0  0  0
    7.1345   10.2094   25.5611 C   0  0  0  0  0  0  0  0  0  0  0  0
    7.7711   12.8470   24.9416 C   0  0  0  0  0  0  0  0  0  0  0  0
    8.1793   10.4947   24.6727 C   0  0  0  0  0  0  0  0  0  0  0  0
    8.5367   11.8177   24.3732 C   0  0  0  0  0  0  0  0  0  0  0  0
    9.8422    9.5655   23.1468 C   0  0  0  0  0  0  0  0  0  0  0  0
   10.3517   13.2630   23.3685 C   0  0  0  0  0  0  0  0  0  0  0  0
   10.0188   10.9623   22.5988 C   0  0  0  0  0  0  0  0  0  0  0  0
   13.0838   13.6765   22.6121 C   0  0  0  0  0  0  0  0  0  0  0  0
   12.1564   14.5602   20.4515 C   0  0  0  0  0  0  0  0  0  0  0  0
   11.6208   15.7245   22.6115 C   0  0  0  0  0  0  0  0  0  0  0  0
   11.9009   14.3778   21.9460 C   0  0  0  0  0  0  0  0  0  0  0  0
    8.8786    9.4178   24.1123 N   0  0  0  0  0  0  0  0  0  0  0  0
    9.6414   12.0522   23.4945 N   0  0  0  0  0  0  0  0  0  0  0  0
   10.4337    8.6084   22.6456 O   0  0  0  0  0  0  0  0  0  0  0  0
   10.5485   14.0359   24.3069 O   0  0  0  0  0  0  0  0  0  0  0  0
   10.7411   13.5491   22.0876 O   0  0  0  0  0  0  0  0  0  0  0  0
    5.5934   11.0275   26.8225 H   0  0  0  0  0  0  0  0  0  0  0  0
    6.1382   13.3745   26.2472 H   0  0  0  0  0  0  0  0  0  0  0  0
    6.8774    9.1836   25.8089 H   0  0  0  0  0  0  0  0  0  0  0  0
    7.9323   13.8918   24.7167 H   0  0  0  0  0  0  0  0  0  0  0  0
   11.0670   11.0674   22.3430 H   0  0  0  0  0  0  0  0  0  0  0  0
    9.4128   11.0480   21.7046 H   0  0  0  0  0  0  0  0  0  0  0  0
   12.9043   13.5437   23.6850 H   0  0  0  0  0  0  0  0  0  0  0  0
   13.2731   12.6942   22.1670 H   0  0  0  0  0  0  0  0  0  0  0  0
   13.9956   14.2782   22.5233 H   0  0  0  0  0  0  0  0  0  0  0  0
   11.3102   15.0630   19.9695 H   0  0  0  0  0  0  0  0  0  0  0  0
   12.2639   13.5902   19.9527 H   0  0  0  0  0  0  0  0  0  0  0  0
   13.0610   15.1481   20.2650 H   0  0  0  0  0  0  0  0  0  0  0  0
   10.7724   16.2278   22.1339 H   0  0  0  0  0  0  0  0  0  0  0  0
   11.3989   15.6092   23.6774 H   0  0  0  0  0  0  0  0  0  0  0  0
   12.4792   16.3976   22.5053 H   0  0  0  0  0  0  0  0  0  0  0  0
    8.6630    8.4833   24.4350 H   0  0  0  0  0  0  0  0  0  0  0  0
  1  2  2  0  0  0  0
  1  3  1  0  0  0  0
  2  4  1  0  0  0  0
  3  5  2  0  0  0  0
  4  6  2  0  0  0  0
  5  6  1  0  0  0  0
  5 14  1  0  0  0  0
  6 15  1  0  0  0  0
  7  9  1  0  0  0  0
  7 14  1  0  0  0  0
  7 16  2  0  0  0  0
  8 15  1  0  0  0  0
  8 17  2  0  0  0  0
  8 18  1  0  0  0  0
  9 15  1  0  0  0  0
 10 13  1  0  0  0  0
 11 13  1  0  0  0  0
 12 13  1  0  0  0  0
 13 18  1  0  0  0  0
  1 19  1  0  0  0  0
  2 20  1  0  0  0  0
  3 21  1  0  0  0  0
  4 22  1  0  0  0  0
  9 23  1  0  0  0  0
  9 24  1  0  0  0  0
 10 25  1  0  0  0  0
 10 26  1  0  0  0  0
 10 27  1  0  0  0  0
 11 28  1  0  0  0  0
 11 29  1  0  0  0  0
 11 30  1  0  0  0  0
 12 31  1  0  0  0  0
 12 32  1  0  0  0  0
 12 33  1  0  0  0  0
 14 34  1  0  0  0  0
M  END
> <id>
EN300-65760

> <smiles>
CC(C)(C)OC(=O)N1CC(=O)NC=2C=CC=CC12

> <MDLNUMBER>
MFCD17170819

> <IUPAC Name>
tert-butyl 3-oxo-1,2,3,4-tetrahydroquinoxaline-1-carboxylate

> <CAS>
148858-04-2

> <URL>
https://www.enaminestore.com/catalog/EN300-65760

> <ROCS_ShapeQuery>
A71EV2A-x0451_0A_A71EV2A-x0310_0A_A71EV2A-x0416_0A_peptide

> <ROCS_TanimotoCombo>
0.497 

> <ROCS_ShapeTanimoto>
0.348 

> <ROCS_ColorTanimoto>
0.149 

> <ROCS_RefTversky>
0.301 

> <ROCS_RefColorTversky>
0.161 

> <ROCS_RefTverskyCombo>
0.461 

> <ROCS_FitTversky>
1.833 

> <ROCS_FitColorTversky>
0.671 

> <ROCS_FitTverskyCombo>
2.505 

> <ROCS_ColorScore>
-4.894

> <ROCS_Overlap>
2085.071

> <ROCS_Rank>
144                 

$$$$
untitled-dbase-45571_10
  -OEChem-11132313473D

 42 44  0     1  0  0  0  0  0999 V2000
    7.8990   12.9821   25.1709 C   0  0  0  0  0  0  0  0  0  0  0  0
    6.8677   12.7426   26.0797 C   0  0  0  0  0  0  0  0  0  0  0  0
    6.9276   10.4077   25.5165 C   0  0  0  0  0  0  0  0  0  0  0  0
    8.4717   11.9361   24.4240 C   0  0  0  0  0  0  0  0  0  0  0  0
    7.9795   10.6136   24.6021 C   0  0  0  0  0  0  0  0  0  0  0  0
    6.3803   11.4570   26.2516 C   0  0  0  0  0  0  0  0  0  0  0  0
   10.2543   13.3726   23.3804 C   0  0  0  0  0  0  0  0  0  0  0  0
    9.0251    7.4726   22.9492 C   0  0  0  0  0  0  0  0  0  0  0  0
    9.6570    8.5813   22.1135 C   0  0  0  0  0  0  0  0  0  0  0  0
    7.9993    8.2076   23.8152 C   0  0  0  0  0  0  0  0  0  0  0  0
    9.7032   11.1122   22.4417 C   0  0  0  0  0  0  0  0  0  0  0  0
    9.7185    9.7477   23.0990 C   0  0  1  0  0  0  0  0  0  0  0  0
   12.9869   13.5272   22.5215 C   0  0  0  0  0  0  0  0  0  0  0  0
   12.0818   14.6295   20.4538 C   0  0  0  0  0  0  0  0  0  0  0  0
   11.7643   15.7205   22.6937 C   0  0  0  0  0  0  0  0  0  0  0  0
   11.8654   14.3914   21.9467 C   0  0  0  0  0  0  0  0  0  0  0  0
    9.5036   12.1817   23.4384 N   0  0  0  0  0  0  0  0  0  0  0  0
    8.5293    9.5600   23.9083 N   0  0  3  0  0  0  0  0  0  0  0  0
   10.5776   14.0705   24.3383 O   0  0  0  0  0  0  0  0  0  0  0  0
   10.6259   13.6885   22.0964 O   0  0  0  0  0  0  0  0  0  0  0  0
    4.9760   11.1306   27.4728 Br  0  0  0  0  0  0  0  0  0  0  0  0
    8.1941   14.0172   25.0410 H   0  0  0  0  0  0  0  0  0  0  0  0
    6.4475   13.5792   26.6322 H   0  0  0  0  0  0  0  0  0  0  0  0
    6.5323    9.4052   25.6688 H   0  0  0  0  0  0  0  0  0  0  0  0
    8.5670    6.6966   22.3295 H   0  0  0  0  0  0  0  0  0  0  0  0
    9.7860    7.0038   23.5849 H   0  0  0  0  0  0  0  0  0  0  0  0
   10.6457    8.2999   21.7392 H   0  0  0  0  0  0  0  0  0  0  0  0
    9.0156    8.8155   21.2554 H   0  0  0  0  0  0  0  0  0  0  0  0
    7.0213    8.2176   23.3213 H   0  0  0  0  0  0  0  0  0  0  0  0
    7.9070    7.7231   24.7926 H   0  0  0  0  0  0  0  0  0  0  0  0
   10.6428   11.2507   21.8975 H   0  0  0  0  0  0  0  0  0  0  0  0
    8.8919   11.2034   21.7079 H   0  0  0  0  0  0  0  0  0  0  0  0
   10.6066    9.6458   23.7373 H   0  0  0  0  0  0  0  0  0  0  0  0
   12.8352   13.3540   23.5929 H   0  0  0  0  0  0  0  0  0  0  0  0
   13.0473   12.5571   22.0175 H   0  0  0  0  0  0  0  0  0  0  0  0
   13.9564   14.0290   22.4237 H   0  0  0  0  0  0  0  0  0  0  0  0
   11.2795   15.2491   20.0372 H   0  0  0  0  0  0  0  0  0  0  0  0
   12.0603   13.6836   19.9005 H   0  0  0  0  0  0  0  0  0  0  0  0
   13.0388   15.1239   20.2581 H   0  0  0  0  0  0  0  0  0  0  0  0
   10.9599   16.3405   22.2816 H   0  0  0  0  0  0  0  0  0  0  0  0
   11.5721   15.5697   23.7609 H   0  0  0  0  0  0  0  0  0  0  0  0
   12.6882   16.3000   22.5847 H   0  0  0  0  0  0  0  0  0  0  0  0
  1  2  1  0  0  0  0
  1  4  2  0  0  0  0
  2  6  2  0  0  0  0
  3  5  2  0  0  0  0
  3  6  1  0  0  0  0
  4  5  1  0  0  0  0
  4 17  1  0  0  0  0
  5 18  1  0  0  0  0
  6 21  1  0  0  0  0
  7 17  1  0  0  0  0
  7 19  2  0  0  0  0
  7 20  1  0  0  0  0
  8  9  1  0  0  0  0
  8 10  1  0  0  0  0
  9 12  1  0  0  0  0
 10 18  1  0  0  0  0
 11 12  1  0  0  0  0
 11 17  1  0  0  0  0
 12 18  1  0  0  0  0
 13 16  1  0  0  0  0
 14 16  1  0  0  0  0
 15 16  1  0  0  0  0
 16 20  1  0  0  0  0
  1 22  1  0  0  0  0
  2 23  1  0  0  0  0
  3 24  1  0  0  0  0
  8 25  1  0  0  0  0
  8 26  1  0  0  0  0
  9 27  1  0  0  0  0
  9 28  1  0  0  0  0
 10 29  1  0  0  0  0
 10 30  1  0  0  0  0
 11 31  1  0  0  0  0
 11 32  1  0  0  0  0
 12 33  1  0  0  0  0
 13 34  1  0  0  0  0
 13 35  1  0  0  0  0
 13 36  1  0  0  0  0
 14 37  1  0  0  0  0
 14 38  1  0  0  0  0
 14 39  1  0  0  0  0
 15 40  1  0  0  0  0
 15 41  1  0  0  0  0
 15 42  1  0  0  0  0
M  END
> <id>
EN300-28298853

> <smiles>
CC(C)(C)OC(=O)N1CC2CCCN2C=3C=C(Br)C=CC13

> <IUPAC Name>
tert-butyl 8-bromo-1H,2H,3H,3aH,4H,5H-pyrrolo[1,2-a]quinoxaline-5-carboxylate

> <CAS>
2680685-10-1

> <URL>
https://www.enaminestore.com/catalog/EN300-28298853

> <ROCS_ShapeQuery>
A71EV2A-x0451_0A_A71EV2A-x0310_0A_A71EV2A-x0416_0A_peptide

> <ROCS_TanimotoCombo>
0.497 

> <ROCS_ShapeTanimoto>
0.376 

> <ROCS_ColorTanimoto>
0.121 

> <ROCS_RefTversky>
0.323 

> <ROCS_RefColorTversky>
0.134 

> <ROCS_RefTverskyCombo>
0.457 

> <ROCS_FitTversky>
1.779 

> <ROCS_FitColorTversky>
0.559 

> <ROCS_FitTverskyCombo>
2.337 

> <ROCS_ColorScore>
-4.083

> <ROCS_Overlap>
2239.570

> <ROCS_Rank>
145                 

$$$$
untitled-dbase-43907_3
  -OEChem-11132313473D

 33 34  0     0  0  0  0  0  0999 V2000
    6.0707   11.6266   25.9622 C   0  0  0  0  0  0  0  0  0  0  0  0
    6.5872   12.9128   25.8695 C   0  0  0  0  0  0  0  0  0  0  0  0
    6.7327   10.5543   25.3608 C   0  0  0  0  0  0  0  0  0  0  0  0
    7.7754   13.1631   25.1753 C   0  0  0  0  0  0  0  0  0  0  0  0
    7.9327   10.7824   24.6553 C   0  0  0  0  0  0  0  0  0  0  0  0
    8.4451   12.0840   24.5672 C   0  0  0  0  0  0  0  0  0  0  0  0
    8.8185    9.9312   23.9540 C   0  0  0  0  0  0  0  0  0  0  0  0
    9.8360   10.7074   23.4585 C   0  0  0  0  0  0  0  0  0  0  0  0
   10.4617   13.1086   23.4931 C   0  0  0  0  0  0  0  0  0  0  0  0
   13.0566   14.1017   22.9166 C   0  0  0  0  0  0  0  0  0  0  0  0
   12.5635   13.4740   20.5350 C   0  0  0  0  0  0  0  0  0  0  0  0
   11.1509   15.1985   21.6919 C   0  0  0  0  0  0  0  0  0  0  0  0
   11.9616   13.9152   21.8673 C   0  0  0  0  0  0  0  0  0  0  0  0
    9.6274   12.0267   23.8214 N   0  0  0  0  0  0  0  0  0  0  0  0
    8.6827    8.5944   23.8022 N   0  0  0  0  0  0  0  0  0  0  0  0
   10.5623   14.0824   24.2210 O   0  0  0  0  0  0  0  0  0  0  0  0
   11.0812   12.8768   22.3075 O   0  0  0  0  0  0  0  0  0  0  0  0
   11.1676   10.1510   22.5343 Cl  0  0  0  0  0  0  0  0  0  0  0  0
    5.1459   11.4518   26.5052 H   0  0  0  0  0  0  0  0  0  0  0  0
    6.0612   13.7384   26.3419 H   0  0  0  0  0  0  0  0  0  0  0  0
    6.3180    9.5531   25.4411 H   0  0  0  0  0  0  0  0  0  0  0  0
    8.1413   14.1819   25.1271 H   0  0  0  0  0  0  0  0  0  0  0  0
   12.6285   14.4184   23.8744 H   0  0  0  0  0  0  0  0  0  0  0  0
   13.6228   13.1784   23.0771 H   0  0  0  0  0  0  0  0  0  0  0  0
   13.7568   14.8892   22.6154 H   0  0  0  0  0  0  0  0  0  0  0  0
   11.7814   13.3390   19.7791 H   0  0  0  0  0  0  0  0  0  0  0  0
   13.0661   12.5052   20.6355 H   0  0  0  0  0  0  0  0  0  0  0  0
   13.2881   14.2029   20.1578 H   0  0  0  0  0  0  0  0  0  0  0  0
   10.3654   15.0650   20.9393 H   0  0  0  0  0  0  0  0  0  0  0  0
   10.6809   15.5101   22.6304 H   0  0  0  0  0  0  0  0  0  0  0  0
   11.7873   16.0155   21.3331 H   0  0  0  0  0  0  0  0  0  0  0  0
    9.3411    8.0392   23.2379 H   0  0  0  0  0  0  0  0  0  0  0  0
    7.8648    8.0843   24.1639 H   0  0  0  0  0  0  0  0  0  0  0  0
  1  2  2  0  0  0  0
  1  3  1  0  0  0  0
  2  4  1  0  0  0  0
  3  5  2  0  0  0  0
  4  6  2  0  0  0  0
  5  6  1  0  0  0  0
  5  7  1  0  0  0  0
  6 14  1  0  0  0  0
  7  8  2  0  0  0  0
  7 15  1  0  0  0  0
  8 14  1  0  0  0  0
  8 18  1  0  0  0  0
  9 14  1  0  0  0  0
  9 16  2  0  0  0  0
  9 17  1  0  0  0  0
 10 13  1  0  0  0  0
 11 13  1  0  0  0  0
 12 13  1  0  0  0  0
 13 17  1  0  0  0  0
  1 19  1  0  0  0  0
  2 20  1  0  0  0  0
  3 21  1  0  0  0  0
  4 22  1  0  0  0  0
 10 23  1  0  0  0  0
 10 24  1  0  0  0  0
 10 25  1  0  0  0  0
 11 26  1  0  0  0  0
 11 27  1  0  0  0  0
 11 28  1  0  0  0  0
 12 29  1  0  0  0  0
 12 30  1  0  0  0  0
 12 31  1  0  0  0  0
 15 32  1  0  0  0  0
 15 33  1  0  0  0  0
M  END
> <id>
EN300-28228769

> <smiles>
CC(C)(C)OC(=O)N1C(Cl)=C(N)C=2C=CC=CC12

> <IUPAC Name>
tert-butyl 3-amino-2-chloro-1H-indole-1-carboxylate

> <CAS>
2639419-76-2

> <URL>
https://www.enaminestore.com/catalog/EN300-28228769

> <ROCS_ShapeQuery>
A71EV2A-x0451_0A_A71EV2A-x0310_0A_A71EV2A-x0416_0A_peptide

> <ROCS_TanimotoCombo>
0.497 

> <ROCS_ShapeTanimoto>
0.343 

> <ROCS_ColorTanimoto>
0.154 

> <ROCS_RefTversky>
0.297 

> <ROCS_RefColorTversky>
0.165 

> <ROCS_RefTverskyCombo>
0.463 

> <ROCS_FitTversky>
1.812 

> <ROCS_FitColorTversky>
0.689 

> <ROCS_FitTverskyCombo>
2.501 

> <ROCS_ColorScore>
-5.034

> <ROCS_Overlap>
2062.147

> <ROCS_Rank>
146                 

$$$$
untitled-dbase-44799_1
  -OEChem-11132313473D

 39 41  0     0  0  0  0  0  0999 V2000
    6.2026   11.5329   26.1498 C   0  0  0  0  0  0  0  0  0  0  0  0
    6.8045   12.7995   26.1187 C   0  0  0  0  0  0  0  0  0  0  0  0
    6.7231   10.4880   25.3915 C   0  0  0  0  0  0  0  0  0  0  0  0
    7.9370   13.0436   25.3289 C   0  0  0  0  0  0  0  0  0  0  0  0
    7.8417   10.7549   24.6201 C   0  0  0  0  0  0  0  0  0  0  0  0
    8.4636   12.0077   24.5686 C   0  0  0  0  0  0  0  0  0  0  0  0
    8.5566    9.8240   23.7504 C   0  0  0  0  0  0  0  0  0  0  0  0
   10.3957   13.1504   23.4684 C   0  0  0  0  0  0  0  0  0  0  0  0
   10.9907    9.5007   21.7619 C   0  0  0  0  0  0  0  0  0  0  0  0
   11.1553    9.9859   23.2152 C   0  0  0  0  0  0  0  0  0  0  0  0
    9.8801   10.5502   21.5627 C   0  0  0  0  0  0  0  0  0  0  0  0
    9.7531   10.6356   23.1045 C   0  0  0  0  0  0  0  0  0  0  0  0
   12.9502   14.3092   22.8694 C   0  0  0  0  0  0  0  0  0  0  0  0
   12.2891   14.0570   20.4593 C   0  0  0  0  0  0  0  0  0  0  0  0
   10.9475   15.5437   21.9752 C   0  0  0  0  0  0  0  0  0  0  0  0
   11.7826   14.2674   21.8846 C   0  0  0  0  0  0  0  0  0  0  0  0
    9.5983   12.0237   23.6984 N   0  0  0  0  0  0  0  0  0  0  0  0
    8.2150    8.6606   23.6161 O   0  0  0  0  0  0  0  0  0  0  0  0
   10.6034   14.0569   24.2709 O   0  0  0  0  0  0  0  0  0  0  0  0
   10.9474   13.1514   22.2150 O   0  0  0  0  0  0  0  0  0  0  0  0
    5.3259   11.3687   26.7699 H   0  0  0  0  0  0  0  0  0  0  0  0
    6.3855   13.6045   26.7172 H   0  0  0  0  0  0  0  0  0  0  0  0
    6.2624    9.5069   25.4116 H   0  0  0  0  0  0  0  0  0  0  0  0
    8.3613   14.0396   25.3421 H   0  0  0  0  0  0  0  0  0  0  0  0
   11.8703    9.6196   21.1237 H   0  0  0  0  0  0  0  0  0  0  0  0
   10.6340    8.4674   21.6843 H   0  0  0  0  0  0  0  0  0  0  0  0
   11.2456    9.1819   23.9527 H   0  0  0  0  0  0  0  0  0  0  0  0
   11.9977   10.6675   23.3624 H   0  0  0  0  0  0  0  0  0  0  0  0
   10.2136   11.4570   21.0505 H   0  0  0  0  0  0  0  0  0  0  0  0
    8.9953   10.1777   21.0366 H   0  0  0  0  0  0  0  0  0  0  0  0
   12.5908   14.4600   23.8936 H   0  0  0  0  0  0  0  0  0  0  0  0
   13.5366   13.3851   22.8392 H   0  0  0  0  0  0  0  0  0  0  0  0
   13.6177   15.1500   22.6490 H   0  0  0  0  0  0  0  0  0  0  0  0
   11.4547   14.0263   19.7493 H   0  0  0  0  0  0  0  0  0  0  0  0
   12.8080   13.0960   20.3673 H   0  0  0  0  0  0  0  0  0  0  0  0
   12.9759   14.8526   20.1530 H   0  0  0  0  0  0  0  0  0  0  0  0
   10.1099   15.5140   21.2689 H   0  0  0  0  0  0  0  0  0  0  0  0
   10.5450   15.6917   22.9825 H   0  0  0  0  0  0  0  0  0  0  0  0
   11.5469   16.4214   21.7073 H   0  0  0  0  0  0  0  0  0  0  0  0
  1  2  2  0  0  0  0
  1  3  1  0  0  0  0
  2  4  1  0  0  0  0
  3  5  2  0  0  0  0
  4  6  2  0  0  0  0
  5  6  1  0  0  0  0
  5  7  1  0  0  0  0
  6 17  1  0  0  0  0
  7 12  1  0  0  0  0
  7 18  2  0  0  0  0
  8 17  1  0  0  0  0
  8 19  2  0  0  0  0
  8 20  1  0  0  0  0
  9 10  1  0  0  0  0
  9 11  1  0  0  0  0
 10 12  1  0  0  0  0
 11 12  1  0  0  0  0
 12 17  1  0  0  0  0
 13 16  1  0  0  0  0
 14 16  1  0  0  0  0
 15 16  1  0  0  0  0
 16 20  1  0  0  0  0
  1 21  1  0  0  0  0
  2 22  1  0  0  0  0
  3 23  1  0  0  0  0
  4 24  1  0  0  0  0
  9 25  1  0  0  0  0
  9 26  1  0  0  0  0
 10 27  1  0  0  0  0
 10 28  1  0  0  0  0
 11 29  1  0  0  0  0
 11 30  1  0  0  0  0
 13 31  1  0  0  0  0
 13 32  1  0  0  0  0
 13 33  1  0  0  0  0
 14 34  1  0  0  0  0
 14 35  1  0  0  0  0
 14 36  1  0  0  0  0
 15 37  1  0  0  0  0
 15 38  1  0  0  0  0
 15 39  1  0  0  0  0
M  END
> <id>
EN300-28283999

> <smiles>
CC(C)(C)OC(=O)N1C=2C=CC=CC2C(=O)C31CCC3

> <IUPAC Name>
tert-butyl 3'-oxo-1',3'-dihydrospiro[cyclobutane-1,2'-indole]-1'-carboxylate

> <CAS>
2680768-38-9

> <URL>
https://www.enaminestore.com/catalog/EN300-28283999

> <ROCS_ShapeQuery>
A71EV2A-x0451_0A_A71EV2A-x0310_0A_A71EV2A-x0416_0A_peptide

> <ROCS_TanimotoCombo>
0.497 

> <ROCS_ShapeTanimoto>
0.359 

> <ROCS_ColorTanimoto>
0.138 

> <ROCS_RefTversky>
0.311 

> <ROCS_RefColorTversky>
0.150 

> <ROCS_RefTverskyCombo>
0.461 

> <ROCS_FitTversky>
1.754 

> <ROCS_FitColorTversky>
0.626 

> <ROCS_FitTverskyCombo>
2.381 

> <ROCS_ColorScore>
-4.577

> <ROCS_Overlap>
2157.862

> <ROCS_Rank>
147                 

$$$$
untitled-dbase-45126_10
  -OEChem-11132313473D

 34 35  0     0  0  0  0  0  0999 V2000
    5.7189   13.5853   26.0362 C   0  0  0  0  0  0  0  0  0  0  0  0
    6.0730   11.2328   25.4637 C   0  0  0  0  0  0  0  0  0  0  0  0
    6.8485   10.2161   24.9062 C   0  0  0  0  0  0  0  0  0  0  0  0
    7.7677   12.8873   24.8985 C   0  0  0  0  0  0  0  0  0  0  0  0
    6.5298   12.5585   25.4596 C   0  0  0  0  0  0  0  0  0  0  0  0
    8.0745   10.5502   24.3520 C   0  0  0  0  0  0  0  0  0  0  0  0
    8.5314   11.8697   24.3467 C   0  0  0  0  0  0  0  0  0  0  0  0
   10.5625   13.0754   23.5378 C   0  0  0  0  0  0  0  0  0  0  0  0
    9.0548    9.6243   23.7071 C   0  0  0  0  0  0  0  0  0  0  0  0
   10.1859   10.5777   23.3066 C   0  0  0  0  0  0  0  0  0  0  0  0
   12.3936   15.1096   22.6973 C   0  0  0  0  0  0  0  0  0  0  0  0
   12.5107   13.8501   20.5272 C   0  0  0  0  0  0  0  0  0  0  0  0
   10.3286   14.8364   21.2846 C   0  0  0  0  0  0  0  0  0  0  0  0
   11.6400   14.1937   21.7338 C   0  0  0  0  0  0  0  0  0  0  0  0
    5.0607   14.4188   26.5042 N   0  0  0  0  0  0  0  0  0  0  0  0
    9.7943   11.9359   23.7291 N   0  0  0  0  0  0  0  0  0  0  0  0
   10.5713   14.0672   24.2613 O   0  0  0  0  0  0  0  0  0  0  0  0
   11.3388   12.9684   22.4114 O   0  0  0  0  0  0  0  0  0  0  0  0
    5.1096   10.9807   25.9016 H   0  0  0  0  0  0  0  0  0  0  0  0
    6.4961    9.1900   24.9094 H   0  0  0  0  0  0  0  0  0  0  0  0
    8.1052   13.9177   24.9034 H   0  0  0  0  0  0  0  0  0  0  0  0
    9.4057    8.8698   24.4177 H   0  0  0  0  0  0  0  0  0  0  0  0
    8.6161    9.1408   22.8289 H   0  0  0  0  0  0  0  0  0  0  0  0
   11.1315   10.3132   23.7936 H   0  0  0  0  0  0  0  0  0  0  0  0
   10.3534   10.5770   22.2233 H   0  0  0  0  0  0  0  0  0  0  0  0
   11.7720   15.3585   23.5648 H   0  0  0  0  0  0  0  0  0  0  0  0
   13.3190   14.6458   23.0541 H   0  0  0  0  0  0  0  0  0  0  0  0
   12.6467   16.0608   22.2152 H   0  0  0  0  0  0  0  0  0  0  0  0
   11.9740   13.1931   19.8332 H   0  0  0  0  0  0  0  0  0  0  0  0
   13.4091   13.3040   20.8369 H   0  0  0  0  0  0  0  0  0  0  0  0
   12.8212   14.7486   19.9840 H   0  0  0  0  0  0  0  0  0  0  0  0
    9.7878   14.1796   20.5935 H   0  0  0  0  0  0  0  0  0  0  0  0
    9.6751   15.0562   22.1351 H   0  0  0  0  0  0  0  0  0  0  0  0
   10.5178   15.7689   20.7407 H   0  0  0  0  0  0  0  0  0  0  0  0
  1  5  1  0  0  0  0
  1 15  3  0  0  0  0
  2  3  1  0  0  0  0
  2  5  2  0  0  0  0
  3  6  2  0  0  0  0
  4  5  1  0  0  0  0
  4  7  2  0  0  0  0
  6  7  1  0  0  0  0
  6  9  1  0  0  0  0
  7 16  1  0  0  0  0
  8 16  1  0  0  0  0
  8 17  2  0  0  0  0
  8 18  1  0  0  0  0
  9 10  1  0  0  0  0
 10 16  1  0  0  0  0
 11 14  1  0  0  0  0
 12 14  1  0  0  0  0
 13 14  1  0  0  0  0
 14 18  1  0  0  0  0
  2 19  1  0  0  0  0
  3 20  1  0  0  0  0
  4 21  1  0  0  0  0
  9 22  1  0  0  0  0
  9 23  1  0  0  0  0
 10 24  1  0  0  0  0
 10 25  1  0  0  0  0
 11 26  1  0  0  0  0
 11 27  1  0  0  0  0
 11 28  1  0  0  0  0
 12 29  1  0  0  0  0
 12 30  1  0  0  0  0
 12 31  1  0  0  0  0
 13 32  1  0  0  0  0
 13 33  1  0  0  0  0
 13 34  1  0  0  0  0
M  END
> <id>
EN300-6898744

> <smiles>
CC(C)(C)OC(=O)N1CCC=2C=CC(C#N)=CC12

> <MDLNUMBER>
MFCD09954779

> <IUPAC Name>
tert-butyl 6-cyano-2,3-dihydro-1H-indole-1-carboxylate

> <CAS>
959236-08-9

> <URL>
https://www.enaminestore.com/catalog/EN300-6898744

> <ROCS_ShapeQuery>
A71EV2A-x0451_0A_A71EV2A-x0310_0A_A71EV2A-x0416_0A_peptide

> <ROCS_TanimotoCombo>
0.497 

> <ROCS_ShapeTanimoto>
0.333 

> <ROCS_ColorTanimoto>
0.163 

> <ROCS_RefTversky>
0.291 

> <ROCS_RefColorTversky>
0.170 

> <ROCS_RefTverskyCombo>
0.461 

> <ROCS_FitTversky>
1.781 

> <ROCS_FitColorTversky>
0.812 

> <ROCS_FitTverskyCombo>
2.594 

> <ROCS_ColorScore>
-5.159

> <ROCS_Overlap>
2016.892

> <ROCS_Rank>
148                 

$$$$
untitled-dbase-34916_29
  -OEChem-11132313473D

 47 48  0     1  0  0  0  0  0999 V2000
    6.3846   11.2860   26.0671 C   0  0  0  0  0  0  0  0  0  0  0  0
    6.7918   12.5910   25.8308 C   0  0  0  0  0  0  0  0  0  0  0  0
    7.0691   10.2344   25.4659 C   0  0  0  0  0  0  0  0  0  0  0  0
    7.8813   12.8468   24.9938 C   0  0  0  0  0  0  0  0  0  0  0  0
    8.1766   10.4702   24.6312 C   0  0  0  0  0  0  0  0  0  0  0  0
    8.5921   11.7992   24.3834 C   0  0  0  0  0  0  0  0  0  0  0  0
   10.3624   13.2698   23.3777 C   0  0  0  0  0  0  0  0  0  0  0  0
   10.0749   10.8932   22.6291 C   0  0  0  0  0  0  0  0  0  0  0  0
   10.0771    9.5574   23.3658 C   0  0  1  0  0  0  0  0  0  0  0  0
   12.5773    9.5594   23.5837 C   0  0  0  0  0  0  0  0  0  0  0  0
   11.1937    8.0653   25.0464 C   0  0  0  0  0  0  0  0  0  0  0  0
   11.1607   10.5470   25.4016 C   0  0  0  0  0  0  0  0  0  0  0  0
   12.7580   14.7468   22.8211 C   0  0  0  0  0  0  0  0  0  0  0  0
   11.9774   14.7564   20.4336 C   0  0  0  0  0  0  0  0  0  0  0  0
   10.5989   15.8839   22.2046 C   0  0  0  0  0  0  0  0  0  0  0  0
   11.2450    9.4330   24.3433 C   0  0  0  0  0  0  0  0  0  0  0  0
   11.5415   14.7213   21.8968 C   0  0  0  0  0  0  0  0  0  0  0  0
    8.8262    9.3790   24.0691 N   0  0  0  0  0  0  0  0  0  0  0  0
    9.6994   12.0316   23.4881 N   0  0  0  0  0  0  0  0  0  0  0  0
   10.5369   14.0801   24.2843 O   0  0  0  0  0  0  0  0  0  0  0  0
   10.8347   13.4930   22.1073 O   0  0  0  0  0  0  0  0  0  0  0  0
    5.5419   11.0859   26.7219 H   0  0  0  0  0  0  0  0  0  0  0  0
    6.2727   13.4162   26.3099 H   0  0  0  0  0  0  0  0  0  0  0  0
    6.7272    9.2170   25.6459 H   0  0  0  0  0  0  0  0  0  0  0  0
    8.1653   13.8863   24.8818 H   0  0  0  0  0  0  0  0  0  0  0  0
   11.0674   11.1232   22.2111 H   0  0  0  0  0  0  0  0  0  0  0  0
    9.3881   10.8164   21.7754 H   0  0  0  0  0  0  0  0  0  0  0  0
   10.1700    8.7399   22.6185 H   0  0  0  0  0  0  0  0  0  0  0  0
   13.4355    9.4741   24.2597 H   0  0  0  0  0  0  0  0  0  0  0  0
   12.6490   10.5272   23.0745 H   0  0  0  0  0  0  0  0  0  0  0  0
   12.6721    8.7754   22.8241 H   0  0  0  0  0  0  0  0  0  0  0  0
   12.0241    7.9554   25.7530 H   0  0  0  0  0  0  0  0  0  0  0  0
   10.2603    7.9471   25.6080 H   0  0  0  0  0  0  0  0  0  0  0  0
   11.2567    7.2407   24.3274 H   0  0  0  0  0  0  0  0  0  0  0  0
   11.9906   10.4758   26.1138 H   0  0  0  0  0  0  0  0  0  0  0  0
   10.2266   10.4905   25.9716 H   0  0  0  0  0  0  0  0  0  0  0  0
   11.2068   11.5371   24.9342 H   0  0  0  0  0  0  0  0  0  0  0  0
   12.4492   14.7218   23.8723 H   0  0  0  0  0  0  0  0  0  0  0  0
   13.4245   13.8986   22.6341 H   0  0  0  0  0  0  0  0  0  0  0  0
   13.3301   15.6723   22.6889 H   0  0  0  0  0  0  0  0  0  0  0  0
   11.1078   14.7383   19.7669 H   0  0  0  0  0  0  0  0  0  0  0  0
   12.5765   13.8733   20.1836 H   0  0  0  0  0  0  0  0  0  0  0  0
   12.5677   15.6507   20.2092 H   0  0  0  0  0  0  0  0  0  0  0  0
    9.7262   15.8658   21.5418 H   0  0  0  0  0  0  0  0  0  0  0  0
   10.2465   15.8539   23.2407 H   0  0  0  0  0  0  0  0  0  0  0  0
   11.0970   16.8451   22.0339 H   0  0  0  0  0  0  0  0  0  0  0  0
    8.2885    8.5247   23.9122 H   0  0  0  0  0  0  0  0  0  0  0  0
  1  2  2  0  0  0  0
  1  3  1  0  0  0  0
  2  4  1  0  0  0  0
  3  5  2  0  0  0  0
  4  6  2  0  0  0  0
  5  6  1  0  0  0  0
  5 18  1  0  0  0  0
  6 19  1  0  0  0  0
  7 19  1  0  0  0  0
  7 20  2  0  0  0  0
  7 21  1  0  0  0  0
  8  9  1  0  0  0  0
  8 19  1  0  0  0  0
  9 16  1  1  0  0  0
  9 18  1  0  0  0  0
 10 16  1  0  0  0  0
 11 16  1  0  0  0  0
 12 16  1  0  0  0  0
 13 17  1  0  0  0  0
 14 17  1  0  0  0  0
 15 17  1  0  0  0  0
 17 21  1  0  0  0  0
  1 22  1  0  0  0  0
  2 23  1  0  0  0  0
  3 24  1  0  0  0  0
  4 25  1  0  0  0  0
  8 26  1  0  0  0  0
  8 27  1  0  0  0  0
  9 28  1  0  0  0  0
 10 29  1  0  0  0  0
 10 30  1  0  0  0  0
 10 31  1  0  0  0  0
 11 32  1  0  0  0  0
 11 33  1  0  0  0  0
 11 34  1  0  0  0  0
 12 35  1  0  0  0  0
 12 36  1  0  0  0  0
 12 37  1  0  0  0  0
 13 38  1  0  0  0  0
 13 39  1  0  0  0  0
 13 40  1  0  0  0  0
 14 41  1  0  0  0  0
 14 42  1  0  0  0  0
 14 43  1  0  0  0  0
 15 44  1  0  0  0  0
 15 45  1  0  0  0  0
 15 46  1  0  0  0  0
 18 47  1  0  0  0  0
M  END
> <id>
EN300-2010581

> <smiles>
CC(C)(C)OC(=O)N1C[C@H](NC=2C=CC=CC12)C(C)(C)C

> <MDLNUMBER>
MFCD31690979

> <IUPAC Name>
tert-butyl (3R)-3-tert-butyl-1,2,3,4-tetrahydroquinoxaline-1-carboxylate

> <CAS>
2230789-60-1

> <Purity>
95

> <URL>
https://www.enaminestore.com/catalog/EN300-2010581

> <ROCS_ShapeQuery>
A71EV2A-x0451_0A_A71EV2A-x0310_0A_A71EV2A-x0416_0A_peptide

> <ROCS_TanimotoCombo>
0.497 

> <ROCS_ShapeTanimoto>
0.350 

> <ROCS_ColorTanimoto>
0.147 

> <ROCS_RefTversky>
0.306 

> <ROCS_RefColorTversky>
0.159 

> <ROCS_RefTverskyCombo>
0.464 

> <ROCS_FitTversky>
1.700 

> <ROCS_FitColorTversky>
0.663 

> <ROCS_FitTverskyCombo>
2.362 

> <ROCS_ColorScore>
-4.831

> <ROCS_Overlap>
2122.079

> <ROCS_Rank>
149                 

$$$$
untitled-dbase-45327_7
  -OEChem-11132313473D

 38 39  0     0  0  0  0  0  0999 V2000
    6.1856   11.5171   26.1285 C   0  0  0  0  0  0  0  0  0  0  0  0
    6.7805   12.7880   26.1075 C   0  0  0  0  0  0  0  0  0  0  0  0
    6.7208   10.4786   25.3714 C   0  0  0  0  0  0  0  0  0  0  0  0
    7.9191   13.0388   25.3293 C   0  0  0  0  0  0  0  0  0  0  0  0
    7.8443   10.7600   24.6150 C   0  0  0  0  0  0  0  0  0  0  0  0
    8.4527   12.0038   24.5749 C   0  0  0  0  0  0  0  0  0  0  0  0
    8.5932    9.8734   23.7463 C   0  0  0  0  0  0  0  0  0  0  0  0
   10.3933   13.1070   23.4796 C   0  0  0  0  0  0  0  0  0  0  0  0
    9.7619   10.6291   23.1179 C   0  0  0  0  0  0  0  0  0  0  0  0
    9.5842   10.6242   21.5983 C   0  0  0  0  0  0  0  0  0  0  0  0
   11.0660    9.9605   23.5572 C   0  0  0  0  0  0  0  0  0  0  0  0
   12.1903   15.1223   22.5160 C   0  0  0  0  0  0  0  0  0  0  0  0
   11.8322   14.0943   20.2524 C   0  0  0  0  0  0  0  0  0  0  0  0
    9.8948   15.1129   21.4840 C   0  0  0  0  0  0  0  0  0  0  0  0
   11.2146   14.3558   21.6243 C   0  0  0  0  0  0  0  0  0  0  0  0
    9.5822   11.9947   23.7164 N   0  0  0  0  0  0  0  0  0  0  0  0
    8.3023    8.7032   23.5688 O   0  0  0  0  0  0  0  0  0  0  0  0
   10.6090   14.0195   24.2731 O   0  0  0  0  0  0  0  0  0  0  0  0
   10.9488   13.0839   22.2275 O   0  0  0  0  0  0  0  0  0  0  0  0
    5.3033   11.3453   26.7387 H   0  0  0  0  0  0  0  0  0  0  0  0
    6.3517   13.5892   26.7042 H   0  0  0  0  0  0  0  0  0  0  0  0
    6.2689    9.4936   25.3806 H   0  0  0  0  0  0  0  0  0  0  0  0
    8.3434   14.0348   25.3450 H   0  0  0  0  0  0  0  0  0  0  0  0
   10.4085   11.1589   21.1312 H   0  0  0  0  0  0  0  0  0  0  0  0
    8.6471   11.1113   21.3374 H   0  0  0  0  0  0  0  0  0  0  0  0
    9.5693    9.5991   21.2344 H   0  0  0  0  0  0  0  0  0  0  0  0
   11.9124   10.4851   23.1192 H   0  0  0  0  0  0  0  0  0  0  0  0
   11.0760    8.9242   23.2262 H   0  0  0  0  0  0  0  0  0  0  0  0
   11.1466    9.9917   24.6416 H   0  0  0  0  0  0  0  0  0  0  0  0
   11.7507   15.3120   23.5018 H   0  0  0  0  0  0  0  0  0  0  0  0
   13.1278   14.5736   22.6531 H   0  0  0  0  0  0  0  0  0  0  0  0
   12.4233   16.1038   22.0874 H   0  0  0  0  0  0  0  0  0  0  0  0
   11.1356   13.5445   19.6092 H   0  0  0  0  0  0  0  0  0  0  0  0
   12.7289   13.4702   20.3405 H   0  0  0  0  0  0  0  0  0  0  0  0
   12.1068   15.0267   19.7486 H   0  0  0  0  0  0  0  0  0  0  0  0
    9.1947   14.5633   20.8444 H   0  0  0  0  0  0  0  0  0  0  0  0
    9.4187   15.2772   22.4561 H   0  0  0  0  0  0  0  0  0  0  0  0
   10.0528   16.0858   21.0047 H   0  0  0  0  0  0  0  0  0  0  0  0
  1  2  2  0  0  0  0
  1  3  1  0  0  0  0
  2  4  1  0  0  0  0
  3  5  2  0  0  0  0
  4  6  2  0  0  0  0
  5  6  1  0  0  0  0
  5  7  1  0  0  0  0
  6 16  1  0  0  0  0
  7  9  1  0  0  0  0
  7 17  2  0  0  0  0
  8 16  1  0  0  0  0
  8 18  2  0  0  0  0
  8 19  1  0  0  0  0
  9 10  1  0  0  0  0
  9 11  1  0  0  0  0
  9 16  1  0  0  0  0
 12 15  1  0  0  0  0
 13 15  1  0  0  0  0
 14 15  1  0  0  0  0
 15 19  1  0  0  0  0
  1 20  1  0  0  0  0
  2 21  1  0  0  0  0
  3 22  1  0  0  0  0
  4 23  1  0  0  0  0
 10 24  1  0  0  0  0
 10 25  1  0  0  0  0
 10 26  1  0  0  0  0
 11 27  1  0  0  0  0
 11 28  1  0  0  0  0
 11 29  1  0  0  0  0
 12 30  1  0  0  0  0
 12 31  1  0  0  0  0
 12 32  1  0  0  0  0
 13 33  1  0  0  0  0
 13 34  1  0  0  0  0
 13 35  1  0  0  0  0
 14 36  1  0  0  0  0
 14 37  1  0  0  0  0
 14 38  1  0  0  0  0
M  END
> <id>
EN300-28281012

> <smiles>
CC(C)(C)OC(=O)N1C=2C=CC=CC2C(=O)C1(C)C

> <IUPAC Name>
tert-butyl 2,2-dimethyl-3-oxo-2,3-dihydro-1H-indole-1-carboxylate

> <CAS>
2680831-77-8

> <URL>
https://www.enaminestore.com/catalog/EN300-28281012

> <ROCS_ShapeQuery>
A71EV2A-x0451_0A_A71EV2A-x0310_0A_A71EV2A-x0416_0A_peptide

> <ROCS_TanimotoCombo>
0.497 

> <ROCS_ShapeTanimoto>
0.359 

> <ROCS_ColorTanimoto>
0.138 

> <ROCS_RefTversky>
0.309 

> <ROCS_RefColorTversky>
0.150 

> <ROCS_RefTverskyCombo>
0.459 

> <ROCS_FitTversky>
1.814 

> <ROCS_FitColorTversky>
0.626 

> <ROCS_FitTverskyCombo>
2.440 

> <ROCS_ColorScore>
-4.568

> <ROCS_Overlap>
2144.600

> <ROCS_Rank>
150                 

$$$$
untitled-dbase-45543_17
  -OEChem-11132313473D

 43 45  0     0  0  0  0  0  0999 V2000
    7.8982   12.8130   25.3083 C   0  0  0  0  0  0  0  0  0  0  0  0
    6.8007   12.4067   26.0717 C   0  0  0  0  0  0  0  0  0  0  0  0
    6.9460   10.1618   25.1622 C   0  0  0  0  0  0  0  0  0  0  0  0
    8.0375   10.5671   24.4031 C   0  0  0  0  0  0  0  0  0  0  0  0
    8.5037   11.8840   24.4739 C   0  0  0  0  0  0  0  0  0  0  0  0
    6.3257   11.0911   25.9976 C   0  0  0  0  0  0  0  0  0  0  0  0
   10.3393   13.2152   23.4288 C   0  0  0  0  0  0  0  0  0  0  0  0
    8.1654    7.4731   22.9304 C   0  0  0  0  0  0  0  0  0  0  0  0
    9.5615    7.3797   23.5188 C   0  0  0  0  0  0  0  0  0  0  0  0
    8.0955    8.9145   22.4418 C   0  0  0  0  0  0  0  0  0  0  0  0
    9.7240    8.6944   24.2740 C   0  0  0  0  0  0  0  0  0  0  0  0
    9.7684   10.8185   22.8198 C   0  0  0  0  0  0  0  0  0  0  0  0
    8.8912    9.7283   23.4799 C   0  0  0  0  0  0  0  0  0  0  0  0
   12.8050   14.4774   22.7032 C   0  0  0  0  0  0  0  0  0  0  0  0
   11.9125   14.4561   20.3554 C   0  0  0  0  0  0  0  0  0  0  0  0
   10.7093   15.7519   22.1391 C   0  0  0  0  0  0  0  0  0  0  0  0
   11.5466   14.5099   21.8371 C   0  0  0  0  0  0  0  0  0  0  0  0
    9.5922   12.0582   23.5999 N   0  0  0  0  0  0  0  0  0  0  0  0
   10.6086   14.0338   24.3033 O   0  0  0  0  0  0  0  0  0  0  0  0
   10.7616   13.3483   22.1302 O   0  0  0  0  0  0  0  0  0  0  0  0
    4.8373   10.5713   27.0413 Br  0  0  0  0  0  0  0  0  0  0  0  0
    8.2333   13.8397   25.3826 H   0  0  0  0  0  0  0  0  0  0  0  0
    6.3179   13.1329   26.7221 H   0  0  0  0  0  0  0  0  0  0  0  0
    6.5835    9.1429   25.1129 H   0  0  0  0  0  0  0  0  0  0  0  0
    8.0309    6.7811   22.1102 H   0  0  0  0  0  0  0  0  0  0  0  0
    7.4153    7.2750   23.6838 H   0  0  0  0  0  0  0  0  0  0  0  0
    9.6336    6.5357   24.2003 H   0  0  0  0  0  0  0  0  0  0  0  0
   10.3226    7.2631   22.7530 H   0  0  0  0  0  0  0  0  0  0  0  0
    8.5838    8.9753   21.4653 H   0  0  0  0  0  0  0  0  0  0  0  0
    7.0667    9.2566   22.3253 H   0  0  0  0  0  0  0  0  0  0  0  0
    9.4171    8.6029   25.3209 H   0  0  0  0  0  0  0  0  0  0  0  0
   10.7846    8.9747   24.2613 H   0  0  0  0  0  0  0  0  0  0  0  0
   10.8314   10.5585   22.7877 H   0  0  0  0  0  0  0  0  0  0  0  0
    9.4467   11.0418   21.7955 H   0  0  0  0  0  0  0  0  0  0  0  0
   12.5467   14.5158   23.7675 H   0  0  0  0  0  0  0  0  0  0  0  0
   13.3967   13.5742   22.5214 H   0  0  0  0  0  0  0  0  0  0  0  0
   13.4375   15.3507   22.5070 H   0  0  0  0  0  0  0  0  0  0  0  0
   11.0126   14.4792   19.7303 H   0  0  0  0  0  0  0  0  0  0  0  0
   12.4313   13.5211   20.1152 H   0  0  0  0  0  0  0  0  0  0  0  0
   12.5562   15.2936   20.0676 H   0  0  0  0  0  0  0  0  0  0  0  0
    9.8066   15.7754   21.5180 H   0  0  0  0  0  0  0  0  0  0  0  0
   10.4064   15.7881   23.1906 H   0  0  0  0  0  0  0  0  0  0  0  0
   11.2688   16.6651   21.9062 H   0  0  0  0  0  0  0  0  0  0  0  0
  1  2  1  0  0  0  0
  1  5  2  0  0  0  0
  2  6  2  0  0  0  0
  3  4  2  0  0  0  0
  3  6  1  0  0  0  0
  4  5  1  0  0  0  0
  4 13  1  0  0  0  0
  5 18  1  0  0  0  0
  6 21  1  0  0  0  0
  7 18  1  0  0  0  0
  7 19  2  0  0  0  0
  7 20  1  0  0  0  0
  8  9  1  0  0  0  0
  8 10  1  0  0  0  0
  9 11  1  0  0  0  0
 10 13  1  0  0  0  0
 11 13  1  0  0  0  0
 12 13  1  0  0  0  0
 12 18  1  0  0  0  0
 14 17  1  0  0  0  0
 15 17  1  0  0  0  0
 16 17  1  0  0  0  0
 17 20  1  0  0  0  0
  1 22  1  0  0  0  0
  2 23  1  0  0  0  0
  3 24  1  0  0  0  0
  8 25  1  0  0  0  0
  8 26  1  0  0  0  0
  9 27  1  0  0  0  0
  9 28  1  0  0  0  0
 10 29  1  0  0  0  0
 10 30  1  0  0  0  0
 11 31  1  0  0  0  0
 11 32  1  0  0  0  0
 12 33  1  0  0  0  0
 12 34  1  0  0  0  0
 14 35  1  0  0  0  0
 14 36  1  0  0  0  0
 14 37  1  0  0  0  0
 15 38  1  0  0  0  0
 15 39  1  0  0  0  0
 15 40  1  0  0  0  0
 16 41  1  0  0  0  0
 16 42  1  0  0  0  0
 16 43  1  0  0  0  0
M  END
> <id>
EN300-28298775

> <smiles>
CC(C)(C)OC(=O)N1CC2(CCCC2)C=3C=C(Br)C=CC13

> <IUPAC Name>
tert-butyl 5'-bromo-1',2'-dihydrospiro[cyclopentane-1,3'-indole]-1'-carboxylate

> <CAS>
2680858-44-8

> <URL>
https://www.enaminestore.com/catalog/EN300-28298775

> <ROCS_ShapeQuery>
A71EV2A-x0451_0A_A71EV2A-x0310_0A_A71EV2A-x0416_0A_peptide

> <ROCS_TanimotoCombo>
0.497 

> <ROCS_ShapeTanimoto>
0.366 

> <ROCS_ColorTanimoto>
0.131 

> <ROCS_RefTversky>
0.316 

> <ROCS_RefColorTversky>
0.143 

> <ROCS_RefTverskyCombo>
0.460 

> <ROCS_FitTversky>
1.751 

> <ROCS_FitColorTversky>
0.596 

> <ROCS_FitTverskyCombo>
2.347 

> <ROCS_ColorScore>
-4.356

> <ROCS_Overlap>
2196.420

> <ROCS_Rank>
151                 

$$$$
untitled-dbase-7450_7
  -OEChem-11132313473D

 38 39  0     1  0  0  0  0  0999 V2000
    6.3808   11.2867   26.0580 C   0  0  0  0  0  0  0  0  0  0  0  0
    6.7874   12.5914   25.8190 C   0  0  0  0  0  0  0  0  0  0  0  0
    7.0680   10.2340   25.4618 C   0  0  0  0  0  0  0  0  0  0  0  0
    7.8793   12.8457   24.9846 C   0  0  0  0  0  0  0  0  0  0  0  0
    8.1779   10.4682   24.6300 C   0  0  0  0  0  0  0  0  0  0  0  0
    8.5931   11.7969   24.3799 C   0  0  0  0  0  0  0  0  0  0  0  0
   10.3674   13.2656   23.3783 C   0  0  0  0  0  0  0  0  0  0  0  0
   10.0829   10.8873   22.6335 C   0  0  0  0  0  0  0  0  0  0  0  0
   10.0838    9.5535   23.3739 C   0  0  1  0  0  0  0  0  0  0  0  0
   11.2482    9.4329   24.3561 C   0  0  0  0  0  0  0  0  0  0  0  0
   12.7656   14.7412   22.8296 C   0  0  0  0  0  0  0  0  0  0  0  0
   11.9959   14.7461   20.4386 C   0  0  0  0  0  0  0  0  0  0  0  0
   10.6094   15.8772   22.2010 C   0  0  0  0  0  0  0  0  0  0  0  0
   11.5533   14.7140   21.8998 C   0  0  0  0  0  0  0  0  0  0  0  0
    8.8305    9.3760   24.0734 N   0  0  0  0  0  0  0  0  0  0  0  0
    9.7039   12.0276   23.4883 N   0  0  0  0  0  0  0  0  0  0  0  0
   10.5379   14.0778   24.2840 O   0  0  0  0  0  0  0  0  0  0  0  0
   10.8455   13.4862   22.1095 O   0  0  0  0  0  0  0  0  0  0  0  0
    5.5365   11.0875   26.7110 H   0  0  0  0  0  0  0  0  0  0  0  0
    6.2659   13.4177   26.2937 H   0  0  0  0  0  0  0  0  0  0  0  0
    6.7259    9.2169   25.6429 H   0  0  0  0  0  0  0  0  0  0  0  0
    8.1626   13.8852   24.8705 H   0  0  0  0  0  0  0  0  0  0  0  0
   11.0764   11.1168   22.2179 H   0  0  0  0  0  0  0  0  0  0  0  0
    9.3989   10.8078   21.7778 H   0  0  0  0  0  0  0  0  0  0  0  0
   10.1800    8.7341   22.6291 H   0  0  0  0  0  0  0  0  0  0  0  0
   11.1866   10.2229   25.1038 H   0  0  0  0  0  0  0  0  0  0  0  0
   12.1942    9.5218   23.8229 H   0  0  0  0  0  0  0  0  0  0  0  0
   11.2125    8.4661   24.8572 H   0  0  0  0  0  0  0  0  0  0  0  0
   12.4521   14.7183   23.8794 H   0  0  0  0  0  0  0  0  0  0  0  0
   13.4329   13.8925   22.6473 H   0  0  0  0  0  0  0  0  0  0  0  0
   13.3385   15.6663   22.6982 H   0  0  0  0  0  0  0  0  0  0  0  0
   11.1293   14.7267   19.7679 H   0  0  0  0  0  0  0  0  0  0  0  0
   12.5961   13.8625   20.1930 H   0  0  0  0  0  0  0  0  0  0  0  0
   12.5873   15.6399   20.2151 H   0  0  0  0  0  0  0  0  0  0  0  0
    9.7398   15.8579   21.5343 H   0  0  0  0  0  0  0  0  0  0  0  0
   10.2523   15.8494   23.2356 H   0  0  0  0  0  0  0  0  0  0  0  0
   11.1084   16.8381   22.0306 H   0  0  0  0  0  0  0  0  0  0  0  0
    8.2928    8.5220   23.9140 H   0  0  0  0  0  0  0  0  0  0  0  0
  1  2  2  0  0  0  0
  1  3  1  0  0  0  0
  2  4  1  0  0  0  0
  3  5  2  0  0  0  0
  4  6  2  0  0  0  0
  5  6  1  0  0  0  0
  5 15  1  0  0  0  0
  6 16  1  0  0  0  0
  7 16  1  0  0  0  0
  7 17  2  0  0  0  0
  7 18  1  0  0  0  0
  8  9  1  0  0  0  0
  8 16  1  0  0  0  0
  9 10  1  0  0  0  0
  9 15  1  0  0  0  0
 11 14  1  0  0  0  0
 12 14  1  0  0  0  0
 13 14  1  0  0  0  0
 14 18  1  0  0  0  0
  1 19  1  0  0  0  0
  2 20  1  0  0  0  0
  3 21  1  0  0  0  0
  4 22  1  0  0  0  0
  8 23  1  0  0  0  0
  8 24  1  0  0  0  0
  9 25  1  0  0  0  0
 10 26  1  0  0  0  0
 10 27  1  0  0  0  0
 10 28  1  0  0  0  0
 11 29  1  0  0  0  0
 11 30  1  0  0  0  0
 11 31  1  0  0  0  0
 12 32  1  0  0  0  0
 12 33  1  0  0  0  0
 12 34  1  0  0  0  0
 13 35  1  0  0  0  0
 13 36  1  0  0  0  0
 13 37  1  0  0  0  0
 15 38  1  0  0  0  0
M  END
> <id>
EN300-95990

> <smiles>
CC1CN(C(=O)OC(C)(C)C)C=2C=CC=CC2N1

> <MDLNUMBER>
MFCD21602492

> <IUPAC Name>
tert-butyl 3-methyl-1,2,3,4-tetrahydroquinoxaline-1-carboxylate

> <CAS>
1375188-73-0

> <Purity>
95

> <URL>
https://www.enaminestore.com/catalog/EN300-95990

> <ROCS_ShapeQuery>
A71EV2A-x0451_0A_A71EV2A-x0310_0A_A71EV2A-x0416_0A_peptide

> <ROCS_TanimotoCombo>
0.496 

> <ROCS_ShapeTanimoto>
0.345 

> <ROCS_ColorTanimoto>
0.152 

> <ROCS_RefTversky>
0.298 

> <ROCS_RefColorTversky>
0.159 

> <ROCS_RefTverskyCombo>
0.457 

> <ROCS_FitTversky>
1.834 

> <ROCS_FitColorTversky>
0.762 

> <ROCS_FitTverskyCombo>
2.596 

> <ROCS_ColorScore>
-4.832

> <ROCS_Overlap>
2067.679

> <ROCS_Rank>
152                 

$$$$
untitled-dbase-26613_25
  -OEChem-11132313473D

 39 41  0     1  0  0  0  0  0999 V2000
   10.2920   13.6248   23.2901 C   0  0  0  0  0  0  0  0  0  0  0  0
    7.6663   11.1564   25.6163 C   0  0  0  0  0  0  0  0  0  0  0  0
    6.8015   11.2892   24.3590 C   0  0  0  0  0  0  0  0  0  0  0  0
    9.1402    9.1276   24.8358 C   0  0  0  0  0  0  0  0  0  0  0  0
    7.8694    9.3823   22.9085 C   0  0  0  0  0  0  0  0  0  0  0  0
   10.0412   11.5375   24.6056 C   0  0  0  0  0  0  0  0  0  0  0  0
    8.6690   11.8222   22.6138 C   0  0  0  0  0  0  0  0  0  0  0  0
    8.8409   10.6221   24.7544 C   0  0  2  0  0  0  0  0  0  0  0  0
    7.9857   10.7882   23.4896 C   0  0  1  0  0  0  0  0  0  0  0  0
   12.6922   13.9592   21.7733 C   0  0  0  0  0  0  0  0  0  0  0  0
   11.2257   15.0230   20.0336 C   0  0  0  0  0  0  0  0  0  0  0  0
   11.4249   16.0667   22.3093 C   0  0  0  0  0  0  0  0  0  0  0  0
   11.4116   14.7552   21.5255 C   0  0  0  0  0  0  0  0  0  0  0  0
    8.1109    8.4691   24.0279 N   0  0  0  0  0  0  0  0  0  0  0  0
    9.6522   12.4113   23.5121 N   0  0  0  0  0  0  0  0  0  0  0  0
   10.8001   14.3096   24.1754 O   0  0  0  0  0  0  0  0  0  0  0  0
   10.2962   13.9724   21.9655 O   0  0  0  0  0  0  0  0  0  0  0  0
    7.8588   12.1092   26.1215 H   0  0  0  0  0  0  0  0  0  0  0  0
    7.2747   10.4508   26.3566 H   0  0  0  0  0  0  0  0  0  0  0  0
    5.9185   10.6412   24.3554 H   0  0  0  0  0  0  0  0  0  0  0  0
    6.4732   12.3134   24.1527 H   0  0  0  0  0  0  0  0  0  0  0  0
   10.1242    8.8950   24.4116 H   0  0  0  0  0  0  0  0  0  0  0  0
    9.1238    8.7619   25.8669 H   0  0  0  0  0  0  0  0  0  0  0  0
    6.8871    9.2039   22.4602 H   0  0  0  0  0  0  0  0  0  0  0  0
    8.6280    9.2055   22.1365 H   0  0  0  0  0  0  0  0  0  0  0  0
   10.2694   12.1133   25.5076 H   0  0  0  0  0  0  0  0  0  0  0  0
   10.9459   11.0081   24.2881 H   0  0  0  0  0  0  0  0  0  0  0  0
    9.2204   11.3789   21.7780 H   0  0  0  0  0  0  0  0  0  0  0  0
    7.9841   12.5803   22.2228 H   0  0  0  0  0  0  0  0  0  0  0  0
   12.8293   13.7649   22.8431 H   0  0  0  0  0  0  0  0  0  0  0  0
   12.6800   13.0006   21.2445 H   0  0  0  0  0  0  0  0  0  0  0  0
   13.5729   14.5237   21.4464 H   0  0  0  0  0  0  0  0  0  0  0  0
   10.3080   15.5939   19.8511 H   0  0  0  0  0  0  0  0  0  0  0  0
   11.1204   14.0839   19.4785 H   0  0  0  0  0  0  0  0  0  0  0  0
   12.0698   15.5805   19.6149 H   0  0  0  0  0  0  0  0  0  0  0  0
   10.5065   16.6378   22.1317 H   0  0  0  0  0  0  0  0  0  0  0  0
   11.5206   15.8922   23.3859 H   0  0  0  0  0  0  0  0  0  0  0  0
   12.2541   16.7060   21.9852 H   0  0  0  0  0  0  0  0  0  0  0  0
    8.4337    7.5623   23.6953 H   0  0  0  0  0  0  0  0  0  0  0  0
  1 15  1  0  0  0  0
  1 16  2  0  0  0  0
  1 17  1  0  0  0  0
  2  3  1  0  0  0  0
  2  8  1  0  0  0  0
  3  9  1  0  0  0  0
  4  8  1  0  0  0  0
  4 14  1  0  0  0  0
  5  9  1  0  0  0  0
  5 14  1  0  0  0  0
  6  8  1  0  0  0  0
  6 15  1  0  0  0  0
  7  9  1  0  0  0  0
  7 15  1  0  0  0  0
  8  9  1  0  0  0  0
 10 13  1  0  0  0  0
 11 13  1  0  0  0  0
 12 13  1  0  0  0  0
 13 17  1  0  0  0  0
  2 18  1  0  0  0  0
  2 19  1  0  0  0  0
  3 20  1  0  0  0  0
  3 21  1  0  0  0  0
  4 22  1  0  0  0  0
  4 23  1  0  0  0  0
  5 24  1  0  0  0  0
  5 25  1  0  0  0  0
  6 26  1  0  0  0  0
  6 27  1  0  0  0  0
  7 28  1  0  0  0  0
  7 29  1  0  0  0  0
 10 30  1  0  0  0  0
 10 31  1  0  0  0  0
 10 32  1  0  0  0  0
 11 33  1  0  0  0  0
 11 34  1  0  0  0  0
 11 35  1  0  0  0  0
 12 36  1  0  0  0  0
 12 37  1  0  0  0  0
 12 38  1  0  0  0  0
 14 39  1  0  0  0  0
M  END
> <id>
EN300-1266388

> <smiles>
CC(C)(C)OC(=O)N1CC23CCC3(CNC2)C1

> <MDLNUMBER>
MFCD32066289

> <IUPAC Name>
tert-butyl 3,7-diazatricyclo[3.3.2.0,1,5]decane-3-carboxylate

> <CAS>
2167347-57-9

> <Purity>
95

> <URL>
https://www.enaminestore.com/catalog/EN300-1266388

> <ROCS_ShapeQuery>
A71EV2A-x0451_0A_A71EV2A-x0310_0A_A71EV2A-x0416_0A_peptide

> <ROCS_TanimotoCombo>
0.496 

> <ROCS_ShapeTanimoto>
0.285 

> <ROCS_ColorTanimoto>
0.211 

> <ROCS_RefTversky>
0.257 

> <ROCS_RefColorTversky>
0.261 

> <ROCS_RefTverskyCombo>
0.518 

> <ROCS_FitTversky>
1.628 

> <ROCS_FitColorTversky>
0.525 

> <ROCS_FitTverskyCombo>
2.152 

> <ROCS_ColorScore>
-8.038

> <ROCS_Overlap>
1782.918

> <ROCS_Rank>
153                 

$$$$
untitled-dbase-43312_11
  -OEChem-11132313473D

 35 36  0     1  0  0  0  0  0999 V2000
   10.3236   13.0505   23.4822 C   0  0  0  0  0  0  0  0  0  0  0  0
    7.1619   12.0476   24.1784 C   0  0  0  0  0  0  0  0  0  0  0  0
    7.0690   10.6408   23.5486 C   0  0  0  0  0  0  0  0  0  0  0  0
    8.5497   10.5622   25.4143 C   0  0  0  0  0  0  0  0  0  0  0  0
    9.5705   10.6345   23.2690 C   0  0  0  0  0  0  0  0  0  0  0  0
    8.5193   12.0041   24.8997 C   0  0  1  0  0  0  0  0  0  0  0  0
    8.3874    9.9702   24.0060 C   0  0  2  0  0  0  0  0  0  0  0  0
   12.7643   14.0951   22.4253 C   0  0  0  0  0  0  0  0  0  0  0  0
   11.6790   13.8501   20.1734 C   0  0  0  0  0  0  0  0  0  0  0  0
   10.6807   15.3977   21.8811 C   0  0  0  0  0  0  0  0  0  0  0  0
   11.4403   14.0901   21.6625 C   0  0  0  0  0  0  0  0  0  0  0  0
    9.5517   11.9718   23.8591 N   0  0  0  0  0  0  0  0  0  0  0  0
    8.3716    8.5306   23.9184 N   0  0  0  0  0  0  0  0  0  0  0  0
   10.6881   13.9413   24.2457 O   0  0  0  0  0  0  0  0  0  0  0  0
   10.6375   13.0094   22.1504 O   0  0  0  0  0  0  0  0  0  0  0  0
    7.1070   12.8418   23.4267 H   0  0  0  0  0  0  0  0  0  0  0  0
    6.3447   12.1957   24.8932 H   0  0  0  0  0  0  0  0  0  0  0  0
    6.1885   10.1178   23.9411 H   0  0  0  0  0  0  0  0  0  0  0  0
    6.9793   10.6869   22.4580 H   0  0  0  0  0  0  0  0  0  0  0  0
    9.4995   10.2987   25.8933 H   0  0  0  0  0  0  0  0  0  0  0  0
    7.7203   10.3236   26.0893 H   0  0  0  0  0  0  0  0  0  0  0  0
   10.5369   10.1731   23.5013 H   0  0  0  0  0  0  0  0  0  0  0  0
    9.4437   10.6919   22.1831 H   0  0  0  0  0  0  0  0  0  0  0  0
    8.6730   12.7966   25.6341 H   0  0  0  0  0  0  0  0  0  0  0  0
   12.5973   14.2671   23.4947 H   0  0  0  0  0  0  0  0  0  0  0  0
   13.3027   13.1493   22.3052 H   0  0  0  0  0  0  0  0  0  0  0  0
   13.4121   14.9085   22.0789 H   0  0  0  0  0  0  0  0  0  0  0  0
   10.7317   13.8457   19.6222 H   0  0  0  0  0  0  0  0  0  0  0  0
   12.1387   12.8695   20.0048 H   0  0  0  0  0  0  0  0  0  0  0  0
   12.3289   14.6169   19.7396 H   0  0  0  0  0  0  0  0  0  0  0  0
    9.7310   15.3944   21.3340 H   0  0  0  0  0  0  0  0  0  0  0  0
   10.4681   15.5683   22.9414 H   0  0  0  0  0  0  0  0  0  0  0  0
   11.2543   16.2501   21.4994 H   0  0  0  0  0  0  0  0  0  0  0  0
    7.6397    8.1745   24.4963 H   0  0  0  0  0  0  0  0  0  0  0  0
    8.2140    8.2616   22.9701 H   0  0  0  0  0  0  0  0  0  0  0  0
  1 12  1  0  0  0  0
  1 14  2  0  0  0  0
  1 15  1  0  0  0  0
  2  3  1  0  0  0  0
  2  6  1  0  0  0  0
  3  7  1  0  0  0  0
  4  6  1  0  0  0  0
  4  7  1  0  0  0  0
  5  7  1  0  0  0  0
  5 12  1  0  0  0  0
  6 12  1  0  0  0  0
  7 13  1  0  0  0  0
  8 11  1  0  0  0  0
  9 11  1  0  0  0  0
 10 11  1  0  0  0  0
 11 15  1  0  0  0  0
  2 16  1  0  0  0  0
  2 17  1  0  0  0  0
  3 18  1  0  0  0  0
  3 19  1  0  0  0  0
  4 20  1  0  0  0  0
  4 21  1  0  0  0  0
  5 22  1  0  0  0  0
  5 23  1  0  0  0  0
  6 24  1  0  0  0  0
  8 25  1  0  0  0  0
  8 26  1  0  0  0  0
  8 27  1  0  0  0  0
  9 28  1  0  0  0  0
  9 29  1  0  0  0  0
  9 30  1  0  0  0  0
 10 31  1  0  0  0  0
 10 32  1  0  0  0  0
 10 33  1  0  0  0  0
 13 34  1  0  0  0  0
 13 35  1  0  0  0  0
M  END
> <id>
EN300-9500459

> <smiles>
CC(C)(C)OC(=O)N1CC2(N)CCC1C2

> <MDLNUMBER>
MFCD24644358

> <IUPAC Name>
tert-butyl 4-amino-2-azabicyclo[2.2.1]heptane-2-carboxylate

> <CAS>
1311390-88-1

> <URL>
https://www.enaminestore.com/catalog/EN300-9500459

> <ROCS_ShapeQuery>
A71EV2A-x0451_0A_A71EV2A-x0310_0A_A71EV2A-x0416_0A_peptide

> <ROCS_TanimotoCombo>
0.496 

> <ROCS_ShapeTanimoto>
0.281 

> <ROCS_ColorTanimoto>
0.216 

> <ROCS_RefTversky>
0.251 

> <ROCS_RefColorTversky>
0.243 

> <ROCS_RefTverskyCombo>
0.494 

> <ROCS_FitTversky>
1.739 

> <ROCS_FitColorTversky>
0.653 

> <ROCS_FitTverskyCombo>
2.392 

> <ROCS_ColorScore>
-7.460

> <ROCS_Overlap>
1736.980

> <ROCS_Rank>
154                 

$$$$
untitled-dbase-43249_11
  -OEChem-11132313473D

 35 36  0     1  0  0  0  0  0999 V2000
   10.3236   13.0505   23.4822 C   0  0  0  0  0  0  0  0  0  0  0  0
    7.1619   12.0476   24.1784 C   0  0  0  0  0  0  0  0  0  0  0  0
    7.0690   10.6408   23.5486 C   0  0  0  0  0  0  0  0  0  0  0  0
    8.5497   10.5622   25.4143 C   0  0  0  0  0  0  0  0  0  0  0  0
    9.5705   10.6345   23.2690 C   0  0  0  0  0  0  0  0  0  0  0  0
    8.5193   12.0041   24.8997 C   0  0  1  0  0  0  0  0  0  0  0  0
    8.3874    9.9702   24.0060 C   0  0  2  0  0  0  0  0  0  0  0  0
   12.7643   14.0951   22.4253 C   0  0  0  0  0  0  0  0  0  0  0  0
   11.6790   13.8501   20.1734 C   0  0  0  0  0  0  0  0  0  0  0  0
   10.6807   15.3977   21.8811 C   0  0  0  0  0  0  0  0  0  0  0  0
   11.4403   14.0901   21.6625 C   0  0  0  0  0  0  0  0  0  0  0  0
    9.5517   11.9718   23.8591 N   0  0  0  0  0  0  0  0  0  0  0  0
    8.3716    8.5306   23.9184 N   0  0  0  0  0  0  0  0  0  0  0  0
   10.6881   13.9413   24.2457 O   0  0  0  0  0  0  0  0  0  0  0  0
   10.6375   13.0094   22.1504 O   0  0  0  0  0  0  0  0  0  0  0  0
    7.1070   12.8418   23.4267 H   0  0  0  0  0  0  0  0  0  0  0  0
    6.3447   12.1957   24.8932 H   0  0  0  0  0  0  0  0  0  0  0  0
    6.1885   10.1178   23.9411 H   0  0  0  0  0  0  0  0  0  0  0  0
    6.9793   10.6869   22.4580 H   0  0  0  0  0  0  0  0  0  0  0  0
    9.4995   10.2987   25.8933 H   0  0  0  0  0  0  0  0  0  0  0  0
    7.7203   10.3236   26.0893 H   0  0  0  0  0  0  0  0  0  0  0  0
   10.5369   10.1731   23.5013 H   0  0  0  0  0  0  0  0  0  0  0  0
    9.4437   10.6919   22.1831 H   0  0  0  0  0  0  0  0  0  0  0  0
    8.6730   12.7966   25.6341 H   0  0  0  0  0  0  0  0  0  0  0  0
   12.5973   14.2671   23.4947 H   0  0  0  0  0  0  0  0  0  0  0  0
   13.3027   13.1493   22.3052 H   0  0  0  0  0  0  0  0  0  0  0  0
   13.4121   14.9085   22.0789 H   0  0  0  0  0  0  0  0  0  0  0  0
   10.7317   13.8457   19.6222 H   0  0  0  0  0  0  0  0  0  0  0  0
   12.1387   12.8695   20.0048 H   0  0  0  0  0  0  0  0  0  0  0  0
   12.3289   14.6169   19.7396 H   0  0  0  0  0  0  0  0  0  0  0  0
    9.7310   15.3944   21.3340 H   0  0  0  0  0  0  0  0  0  0  0  0
   10.4681   15.5683   22.9414 H   0  0  0  0  0  0  0  0  0  0  0  0
   11.2543   16.2501   21.4994 H   0  0  0  0  0  0  0  0  0  0  0  0
    7.6397    8.1745   24.4963 H   0  0  0  0  0  0  0  0  0  0  0  0
    8.2140    8.2616   22.9701 H   0  0  0  0  0  0  0  0  0  0  0  0
  1 12  1  0  0  0  0
  1 14  2  0  0  0  0
  1 15  1  0  0  0  0
  2  3  1  0  0  0  0
  2  6  1  0  0  0  0
  3  7  1  0  0  0  0
  4  6  1  0  0  0  0
  4  7  1  0  0  0  0
  5  7  1  0  0  0  0
  5 12  1  0  0  0  0
  6 12  1  0  0  0  0
  7 13  1  0  0  0  0
  8 11  1  0  0  0  0
  9 11  1  0  0  0  0
 10 11  1  0  0  0  0
 11 15  1  0  0  0  0
  2 16  1  0  0  0  0
  2 17  1  0  0  0  0
  3 18  1  0  0  0  0
  3 19  1  0  0  0  0
  4 20  1  0  0  0  0
  4 21  1  0  0  0  0
  5 22  1  0  0  0  0
  5 23  1  0  0  0  0
  6 24  1  0  0  0  0
  8 25  1  0  0  0  0
  8 26  1  0  0  0  0
  8 27  1  0  0  0  0
  9 28  1  0  0  0  0
  9 29  1  0  0  0  0
  9 30  1  0  0  0  0
 10 31  1  0  0  0  0
 10 32  1  0  0  0  0
 10 33  1  0  0  0  0
 13 34  1  0  0  0  0
 13 35  1  0  0  0  0
M  END
> <id>
EN300-27755210

> <smiles>
Cl.CC(C)(C)OC(=O)N1CC2(N)CCC1C2

> <MDLNUMBER>
MFCD33549249

> <IUPAC Name>
tert-butyl 4-amino-2-azabicyclo[2.2.1]heptane-2-carboxylate hydrochloride

> <CAS>
2639412-96-5

> <Purity>
95

> <URL>
https://www.enaminestore.com/catalog/EN300-27755210

> <ROCS_ShapeQuery>
A71EV2A-x0451_0A_A71EV2A-x0310_0A_A71EV2A-x0416_0A_peptide

> <ROCS_TanimotoCombo>
0.496 

> <ROCS_ShapeTanimoto>
0.281 

> <ROCS_ColorTanimoto>
0.216 

> <ROCS_RefTversky>
0.251 

> <ROCS_RefColorTversky>
0.243 

> <ROCS_RefTverskyCombo>
0.494 

> <ROCS_FitTversky>
1.739 

> <ROCS_FitColorTversky>
0.653 

> <ROCS_FitTverskyCombo>
2.392 

> <ROCS_ColorScore>
-7.460

> <ROCS_Overlap>
1736.980

> <ROCS_Rank>
155                 

$$$$
untitled-dbase-30675_92
  -OEChem-11132313473D

 38 39  0     0  0  0  0  0  0999 V2000
    6.5686   10.7658   26.9009 C   0  0  0  0  0  0  0  0  0  0  0  0
    7.2255    9.9064   26.0231 C   0  0  0  0  0  0  0  0  0  0  0  0
    6.4751   12.1243   26.6053 C   0  0  0  0  0  0  0  0  0  0  0  0
    7.6954   11.7752   24.5318 C   0  0  0  0  0  0  0  0  0  0  0  0
    7.8030   10.4133   24.8564 C   0  0  0  0  0  0  0  0  0  0  0  0
    7.0302   12.6255   25.4260 C   0  0  0  0  0  0  0  0  0  0  0  0
   10.6417   13.0646   23.4803 C   0  0  0  0  0  0  0  0  0  0  0  0
    8.2440   12.3219   23.2391 C   0  0  0  0  0  0  0  0  0  0  0  0
   10.1130   10.7467   22.7679 C   0  0  0  0  0  0  0  0  0  0  0  0
    9.8198    9.7654   23.8972 C   0  0  0  0  0  0  0  0  0  0  0  0
   12.3188   15.3096   22.8988 C   0  0  0  0  0  0  0  0  0  0  0  0
   13.4288   13.8099   21.2171 C   0  0  0  0  0  0  0  0  0  0  0  0
   10.9987   14.3912   20.9626 C   0  0  0  0  0  0  0  0  0  0  0  0
   12.1290   14.1228   21.9552 C   0  0  0  0  0  0  0  0  0  0  0  0
    9.6887   12.1011   23.1263 N   0  0  0  0  0  0  0  0  0  0  0  0
   10.4783   13.9128   24.3555 O   0  0  0  0  0  0  0  0  0  0  0  0
    8.4144    9.5125   24.0208 O   0  0  0  0  0  0  0  0  0  0  0  0
    6.9000   13.9605   25.1756 O   0  0  0  0  0  0  0  0  0  0  0  0
   11.7874   12.9709   22.7346 O   0  0  0  0  0  0  0  0  0  0  0  0
    6.1273   10.3762   27.8135 H   0  0  0  0  0  0  0  0  0  0  0  0
    7.2934    8.8474   26.2566 H   0  0  0  0  0  0  0  0  0  0  0  0
    5.9593   12.7880   27.2942 H   0  0  0  0  0  0  0  0  0  0  0  0
    7.7478   11.8279   22.3944 H   0  0  0  0  0  0  0  0  0  0  0  0
    8.0319   13.3889   23.1244 H   0  0  0  0  0  0  0  0  0  0  0  0
   11.1862   10.7416   22.5527 H   0  0  0  0  0  0  0  0  0  0  0  0
    9.5813   10.4622   21.8529 H   0  0  0  0  0  0  0  0  0  0  0  0
   10.2819    8.8029   23.6494 H   0  0  0  0  0  0  0  0  0  0  0  0
   10.2630   10.0866   24.8498 H   0  0  0  0  0  0  0  0  0  0  0  0
   11.3880   15.5374   23.4305 H   0  0  0  0  0  0  0  0  0  0  0  0
   13.1030   15.1159   23.6379 H   0  0  0  0  0  0  0  0  0  0  0  0
   12.5853   16.2143   22.3405 H   0  0  0  0  0  0  0  0  0  0  0  0
   13.2972   12.9590   20.5389 H   0  0  0  0  0  0  0  0  0  0  0  0
   14.2185   13.5240   21.9213 H   0  0  0  0  0  0  0  0  0  0  0  0
   13.7786   14.6675   20.6334 H   0  0  0  0  0  0  0  0  0  0  0  0
   10.8624   13.5401   20.2857 H   0  0  0  0  0  0  0  0  0  0  0  0
   10.0496   14.5815   21.4741 H   0  0  0  0  0  0  0  0  0  0  0  0
   11.2327   15.2551   20.3300 H   0  0  0  0  0  0  0  0  0  0  0  0
    6.4127   14.3884   25.8960 H   0  0  0  0  0  0  0  0  0  0  0  0
  1  2  1  0  0  0  0
  1  3  2  0  0  0  0
  2  5  2  0  0  0  0
  3  6  1  0  0  0  0
  4  5  1  0  0  0  0
  4  6  2  0  0  0  0
  4  8  1  0  0  0  0
  5 17  1  0  0  0  0
  6 18  1  0  0  0  0
  7 15  1  0  0  0  0
  7 16  2  0  0  0  0
  7 19  1  0  0  0  0
  8 15  1  0  0  0  0
  9 10  1  0  0  0  0
  9 15  1  0  0  0  0
 10 17  1  0  0  0  0
 11 14  1  0  0  0  0
 12 14  1  0  0  0  0
 13 14  1  0  0  0  0
 14 19  1  0  0  0  0
  1 20  1  0  0  0  0
  2 21  1  0  0  0  0
  3 22  1  0  0  0  0
  8 23  1  0  0  0  0
  8 24  1  0  0  0  0
  9 25  1  0  0  0  0
  9 26  1  0  0  0  0
 10 27  1  0  0  0  0
 10 28  1  0  0  0  0
 11 29  1  0  0  0  0
 11 30  1  0  0  0  0
 11 31  1  0  0  0  0
 12 32  1  0  0  0  0
 12 33  1  0  0  0  0
 12 34  1  0  0  0  0
 13 35  1  0  0  0  0
 13 36  1  0  0  0  0
 13 37  1  0  0  0  0
 18 38  1  0  0  0  0
M  END
> <id>
EN300-19609079

> <smiles>
CC(C)(C)OC(=O)N1CCOC=2C=CC=C(O)C2C1

> <MDLNUMBER>
MFCD28619745

> <IUPAC Name>
tert-butyl 6-hydroxy-2,3,4,5-tetrahydro-1,4-benzoxazepine-4-carboxylate

> <CAS>
1784103-10-1

> <URL>
https://www.enaminestore.com/catalog/EN300-19609079

> <ROCS_ShapeQuery>
A71EV2A-x0451_0A_A71EV2A-x0310_0A_A71EV2A-x0416_0A_peptide

> <ROCS_TanimotoCombo>
0.496 

> <ROCS_ShapeTanimoto>
0.333 

> <ROCS_ColorTanimoto>
0.163 

> <ROCS_RefTversky>
0.292 

> <ROCS_RefColorTversky>
0.178 

> <ROCS_RefTverskyCombo>
0.470 

> <ROCS_FitTversky>
1.728 

> <ROCS_FitColorTversky>
0.659 

> <ROCS_FitTverskyCombo>
2.387 

> <ROCS_ColorScore>
-5.429

> <ROCS_Overlap>
2026.109

> <ROCS_Rank>
156                 

$$$$
untitled-dbase-45430_4
  -OEChem-11132313473D

 34 35  0     0  0  0  0  0  0999 V2000
    7.9521   13.0302   25.3072 C   0  0  0  0  0  0  0  0  0  0  0  0
    6.2312   11.6322   26.2819 C   0  0  0  0  0  0  0  0  0  0  0  0
    8.4459   11.9598   24.5460 C   0  0  0  0  0  0  0  0  0  0  0  0
    7.8009   10.7146   24.6889 C   0  0  0  0  0  0  0  0  0  0  0  0
    6.6978   10.5564   25.5372 C   0  0  0  0  0  0  0  0  0  0  0  0
    6.8599   12.8659   26.1685 C   0  0  0  0  0  0  0  0  0  0  0  0
   10.2955   13.2552   23.4262 C   0  0  0  0  0  0  0  0  0  0  0  0
    9.7777   10.8976   22.7790 C   0  0  0  0  0  0  0  0  0  0  0  0
    9.5196    9.6281   23.5602 C   0  0  0  0  0  0  0  0  0  0  0  0
   12.7656   14.5153   22.6856 C   0  0  0  0  0  0  0  0  0  0  0  0
   11.8574   14.5020   20.3438 C   0  0  0  0  0  0  0  0  0  0  0  0
   10.6713   15.7992   22.1378 C   0  0  0  0  0  0  0  0  0  0  0  0
   11.5016   14.5544   21.8280 C   0  0  0  0  0  0  0  0  0  0  0  0
    9.5342   12.0847   23.6114 N   0  0  0  0  0  0  0  0  0  0  0  0
   10.5845   14.0823   24.2861 O   0  0  0  0  0  0  0  0  0  0  0  0
    8.1708    9.5797   24.0096 O   0  0  0  0  0  0  0  0  0  0  0  0
   10.7135   13.3950   22.1242 O   0  0  0  0  0  0  0  0  0  0  0  0
    5.8901    9.0361   25.7031 Cl  0  0  0  0  0  0  0  0  0  0  0  0
    6.2237   14.3383   27.1732 Br  0  0  0  0  0  0  0  0  0  0  0  0
    8.3773   14.0241   25.2381 H   0  0  0  0  0  0  0  0  0  0  0  0
    5.3791   11.5103   26.9465 H   0  0  0  0  0  0  0  0  0  0  0  0
   10.8072   10.8859   22.4082 H   0  0  0  0  0  0  0  0  0  0  0  0
    9.1041   10.9742   21.9168 H   0  0  0  0  0  0  0  0  0  0  0  0
    9.6809    8.7584   22.9145 H   0  0  0  0  0  0  0  0  0  0  0  0
   10.2006    9.5273   24.4151 H   0  0  0  0  0  0  0  0  0  0  0  0
   12.5145   14.5527   23.7517 H   0  0  0  0  0  0  0  0  0  0  0  0
   13.3523   13.6101   22.4981 H   0  0  0  0  0  0  0  0  0  0  0  0
   13.4002   15.3864   22.4867 H   0  0  0  0  0  0  0  0  0  0  0  0
   10.9534   14.5299   19.7246 H   0  0  0  0  0  0  0  0  0  0  0  0
   12.3708   13.5653   20.0983 H   0  0  0  0  0  0  0  0  0  0  0  0
   12.5025   15.3374   20.0532 H   0  0  0  0  0  0  0  0  0  0  0  0
    9.7646   15.8275   21.5228 H   0  0  0  0  0  0  0  0  0  0  0  0
   10.3755   15.8347   23.1913 H   0  0  0  0  0  0  0  0  0  0  0  0
   11.2329   16.7106   21.9029 H   0  0  0  0  0  0  0  0  0  0  0  0
  1  3  2  0  0  0  0
  1  6  1  0  0  0  0
  2  5  1  0  0  0  0
  2  6  2  0  0  0  0
  3  4  1  0  0  0  0
  3 14  1  0  0  0  0
  4  5  2  0  0  0  0
  4 16  1  0  0  0  0
  5 18  1  0  0  0  0
  6 19  1  0  0  0  0
  7 14  1  0  0  0  0
  7 15  2  0  0  0  0
  7 17  1  0  0  0  0
  8  9  1  0  0  0  0
  8 14  1  0  0  0  0
  9 16  1  0  0  0  0
 10 13  1  0  0  0  0
 11 13  1  0  0  0  0
 12 13  1  0  0  0  0
 13 17  1  0  0  0  0
  1 20  1  0  0  0  0
  2 21  1  0  0  0  0
  8 22  1  0  0  0  0
  8 23  1  0  0  0  0
  9 24  1  0  0  0  0
  9 25  1  0  0  0  0
 10 26  1  0  0  0  0
 10 27  1  0  0  0  0
 10 28  1  0  0  0  0
 11 29  1  0  0  0  0
 11 30  1  0  0  0  0
 11 31  1  0  0  0  0
 12 32  1  0  0  0  0
 12 33  1  0  0  0  0
 12 34  1  0  0  0  0
M  END
> <id>
EN300-28298302

> <smiles>
CC(C)(C)OC(=O)N1CCOC=2C(Cl)=CC(Br)=CC12

> <IUPAC Name>
tert-butyl 6-bromo-8-chloro-3,4-dihydro-2H-1,4-benzoxazine-4-carboxylate

> <CAS>
2680885-74-7

> <URL>
https://www.enaminestore.com/catalog/EN300-28298302

> <ROCS_ShapeQuery>
A71EV2A-x0451_0A_A71EV2A-x0310_0A_A71EV2A-x0416_0A_peptide

> <ROCS_TanimotoCombo>
0.496 

> <ROCS_ShapeTanimoto>
0.342 

> <ROCS_ColorTanimoto>
0.154 

> <ROCS_RefTversky>
0.297 

> <ROCS_RefColorTversky>
0.166 

> <ROCS_RefTverskyCombo>
0.463 

> <ROCS_FitTversky>
1.783 

> <ROCS_FitColorTversky>
0.691 

> <ROCS_FitTverskyCombo>
2.474 

> <ROCS_ColorScore>
-5.039

> <ROCS_Overlap>
2061.887

> <ROCS_Rank>
157                 

$$$$
untitled-dbase-34853_0
  -OEChem-11132313473D

 41 42  0     1  0  0  0  0  0999 V2000
   10.1406   13.3355   23.5784 C   0  0  0  0  0  0  0  0  0  0  0  0
    7.5398   11.4506   25.3852 C   0  0  0  0  0  0  0  0  0  0  0  0
    8.8272   12.2668   25.4144 C   0  0  0  0  0  0  0  0  0  0  0  0
    7.6345   10.5700   24.1386 C   0  0  1  0  0  0  0  0  0  0  0  0
    8.5645   11.3591   23.1759 C   0  0  2  0  0  0  0  0  0  0  0  0
    8.6779    9.4264   24.1567 C   0  0  2  0  0  0  0  0  0  0  0  0
    9.3253   10.0254   22.8649 C   0  0  0  0  0  0  0  0  0  0  0  0
   10.8527   10.0482   22.9595 C   0  0  0  0  0  0  0  0  0  0  0  0
    8.8957    9.4800   21.4938 C   0  0  0  0  0  0  0  0  0  0  0  0
   12.6358   14.0268   22.3695 C   0  0  0  0  0  0  0  0  0  0  0  0
   11.4040   13.8913   20.1847 C   0  0  0  0  0  0  0  0  0  0  0  0
   10.7162   15.5869   21.9051 C   0  0  0  0  0  0  0  0  0  0  0  0
   11.2825   14.1860   21.6782 C   0  0  0  0  0  0  0  0  0  0  0  0
    9.2467   12.3728   24.0205 N   0  0  0  0  0  0  0  0  0  0  0  0
    7.9995    8.1684   23.8695 N   0  0  0  0  0  0  0  0  0  0  0  0
   10.6614   14.1819   24.3008 O   0  0  0  0  0  0  0  0  0  0  0  0
   10.3721   13.2310   22.2336 O   0  0  0  0  0  0  0  0  0  0  0  0
    7.4069   10.8604   26.2968 H   0  0  0  0  0  0  0  0  0  0  0  0
    6.6815   12.1261   25.2896 H   0  0  0  0  0  0  0  0  0  0  0  0
    8.6921   13.2564   25.8609 H   0  0  0  0  0  0  0  0  0  0  0  0
    9.6236   11.7454   25.9562 H   0  0  0  0  0  0  0  0  0  0  0  0
    6.6587   10.3164   23.7063 H   0  0  0  0  0  0  0  0  0  0  0  0
    8.0402   11.8276   22.3354 H   0  0  0  0  0  0  0  0  0  0  0  0
    9.3216    9.3971   25.0422 H   0  0  0  0  0  0  0  0  0  0  0  0
   11.2488    9.0639   22.7204 H   0  0  0  0  0  0  0  0  0  0  0  0
   11.1526   10.3205   23.9689 H   0  0  0  0  0  0  0  0  0  0  0  0
   11.2519   10.7765   22.2572 H   0  0  0  0  0  0  0  0  0  0  0  0
    9.4295    8.5568   21.2907 H   0  0  0  0  0  0  0  0  0  0  0  0
    9.1290   10.2118   20.7266 H   0  0  0  0  0  0  0  0  0  0  0  0
    7.8271    9.2886   21.5017 H   0  0  0  0  0  0  0  0  0  0  0  0
   12.5528   14.2375   23.4418 H   0  0  0  0  0  0  0  0  0  0  0  0
   13.0365   13.0156   22.2438 H   0  0  0  0  0  0  0  0  0  0  0  0
   13.3654   14.7403   21.9699 H   0  0  0  0  0  0  0  0  0  0  0  0
   10.4353   14.0043   19.6846 H   0  0  0  0  0  0  0  0  0  0  0  0
   11.7195   12.8554   20.0157 H   0  0  0  0  0  0  0  0  0  0  0  0
   12.1247   14.5569   19.6989 H   0  0  0  0  0  0  0  0  0  0  0  0
    9.7455   15.7014   21.4093 H   0  0  0  0  0  0  0  0  0  0  0  0
   10.5874   15.8022   22.9708 H   0  0  0  0  0  0  0  0  0  0  0  0
   11.3757   16.3484   21.4732 H   0  0  0  0  0  0  0  0  0  0  0  0
    8.6881    7.4684   23.7194 H   0  0  0  0  0  0  0  0  0  0  0  0
    7.4295    7.9355   24.6490 H   0  0  0  0  0  0  0  0  0  0  0  0
  1 14  1  0  0  0  0
  1 16  2  0  0  0  0
  1 17  1  0  0  0  0
  2  3  1  0  0  0  0
  2  4  1  0  0  0  0
  3 14  1  0  0  0  0
  4  5  1  0  0  0  0
  4  6  1  0  0  0  0
  5  7  1  0  0  0  0
  5 14  1  0  0  0  0
  6  7  1  0  0  0  0
  6 15  1  0  0  0  0
  7  8  1  0  0  0  0
  7  9  1  0  0  0  0
 10 13  1  0  0  0  0
 11 13  1  0  0  0  0
 12 13  1  0  0  0  0
 13 17  1  0  0  0  0
  2 18  1  0  0  0  0
  2 19  1  0  0  0  0
  3 20  1  0  0  0  0
  3 21  1  0  0  0  0
  4 22  1  0  0  0  0
  5 23  1  0  0  0  0
  6 24  1  0  0  0  0
  8 25  1  0  0  0  0
  8 26  1  0  0  0  0
  8 27  1  0  0  0  0
  9 28  1  0  0  0  0
  9 29  1  0  0  0  0
  9 30  1  0  0  0  0
 10 31  1  0  0  0  0
 10 32  1  0  0  0  0
 10 33  1  0  0  0  0
 11 34  1  0  0  0  0
 11 35  1  0  0  0  0
 11 36  1  0  0  0  0
 12 37  1  0  0  0  0
 12 38  1  0  0  0  0
 12 39  1  0  0  0  0
 15 40  1  0  0  0  0
 15 41  1  0  0  0  0
M  END
> <id>
EN300-7438944

> <smiles>
CC(C)(C)OC(=O)N1CCC2C(N)C(C)(C)C21

> <MDLNUMBER>
MFCD32069198

> <IUPAC Name>
tert-butyl 6-amino-7,7-dimethyl-2-azabicyclo[3.2.0]heptane-2-carboxylate

> <CAS>
2375268-07-6

> <Purity>
95

> <URL>
https://www.enaminestore.com/catalog/EN300-7438944

> <ROCS_ShapeQuery>
A71EV2A-x0451_0A_A71EV2A-x0310_0A_A71EV2A-x0416_0A_peptide

> <ROCS_TanimotoCombo>
0.496 

> <ROCS_ShapeTanimoto>
0.303 

> <ROCS_ColorTanimoto>
0.193 

> <ROCS_RefTversky>
0.268 

> <ROCS_RefColorTversky>
0.222 

> <ROCS_RefTverskyCombo>
0.491 

> <ROCS_FitTversky>
1.740 

> <ROCS_FitColorTversky>
0.595 

> <ROCS_FitTverskyCombo>
2.334 

> <ROCS_ColorScore>
-6.816

> <ROCS_Overlap>
1859.981

> <ROCS_Rank>
158                 

$$$$
untitled-dbase-45366_76
  -OEChem-11132313473D

 44 45  0     1  0  0  0  0  0999 V2000
    8.0600   13.0055   25.1725 C   0  0  0  0  0  0  0  0  0  0  0  0
    7.0054   12.8526   26.0690 C   0  0  0  0  0  0  0  0  0  0  0  0
    6.8929   10.5206   25.4988 C   0  0  0  0  0  0  0  0  0  0  0  0
    8.5539   11.9146   24.4298 C   0  0  0  0  0  0  0  0  0  0  0  0
    7.9729   10.6295   24.5914 C   0  0  0  0  0  0  0  0  0  0  0  0
    6.4189   11.6101   26.2303 C   0  0  0  0  0  0  0  0  0  0  0  0
   10.5165   13.1660   23.5078 C   0  0  0  0  0  0  0  0  0  0  0  0
    9.6384   11.0830   22.4131 C   0  0  0  0  0  0  0  0  0  0  0  0
    9.5869    9.6475   22.9607 C   0  0  0  0  0  0  0  0  0  0  0  0
    9.4076    8.7188   21.7415 C   0  0  0  0  0  0  0  0  0  0  0  0
   10.9038    9.3042   23.6803 C   0  0  0  0  0  0  0  0  0  0  0  0
   10.3874   15.2632   22.0842 C   0  0  0  0  0  0  0  0  0  0  0  0
   12.8301   14.8649   21.6556 C   0  0  0  0  0  0  0  0  0  0  0  0
   11.1090   13.7863   20.1783 C   0  0  0  0  0  0  0  0  0  0  0  0
    8.0288    8.1755   24.3313 C   0  0  0  0  0  0  0  0  0  0  0  0
   11.4298   14.2585   21.5957 C   0  0  0  0  0  0  0  0  0  0  0  0
    9.6082   12.0916   23.4740 N   0  0  0  0  0  0  0  0  0  0  0  0
    8.4602    9.5067   23.9047 N   0  0  3  0  0  0  0  0  0  0  0  0
   10.5531   14.0483   24.3625 O   0  0  0  0  0  0  0  0  0  0  0  0
   11.4133   13.1233   22.4693 O   0  0  0  0  0  0  0  0  0  0  0  0
    4.9863   11.3897   27.4432 Br  0  0  0  0  0  0  0  0  0  0  0  0
    8.5115   13.9909   25.1166 H   0  0  0  0  0  0  0  0  0  0  0  0
    6.6706   13.7118   26.6440 H   0  0  0  0  0  0  0  0  0  0  0  0
    6.3976    9.5632   25.6479 H   0  0  0  0  0  0  0  0  0  0  0  0
   10.5623   11.2545   21.8429 H   0  0  0  0  0  0  0  0  0  0  0  0
    8.8135   11.2324   21.7083 H   0  0  0  0  0  0  0  0  0  0  0  0
    9.3657    7.6892   22.0802 H   0  0  0  0  0  0  0  0  0  0  0  0
   10.2475    8.8485   21.0675 H   0  0  0  0  0  0  0  0  0  0  0  0
    8.4853    8.9742   21.2308 H   0  0  0  0  0  0  0  0  0  0  0  0
   10.8462    8.2901   24.0578 H   0  0  0  0  0  0  0  0  0  0  0  0
   11.0482    9.9958   24.5018 H   0  0  0  0  0  0  0  0  0  0  0  0
   11.7236    9.3901   22.9770 H   0  0  0  0  0  0  0  0  0  0  0  0
    9.3809   14.8318   22.0427 H   0  0  0  0  0  0  0  0  0  0  0  0
   10.5864   15.5833   23.1122 H   0  0  0  0  0  0  0  0  0  0  0  0
   10.3696   16.1515   21.4425 H   0  0  0  0  0  0  0  0  0  0  0  0
   13.5813   14.1475   21.3060 H   0  0  0  0  0  0  0  0  0  0  0  0
   13.1019   15.1184   22.6867 H   0  0  0  0  0  0  0  0  0  0  0  0
   12.9048   15.7704   21.0448 H   0  0  0  0  0  0  0  0  0  0  0  0
   11.8566   13.0656   19.8276 H   0  0  0  0  0  0  0  0  0  0  0  0
   10.1224   13.3149   20.1239 H   0  0  0  0  0  0  0  0  0  0  0  0
   11.1335   14.6251   19.4732 H   0  0  0  0  0  0  0  0  0  0  0  0
    8.5003    7.4144   23.6922 H   0  0  0  0  0  0  0  0  0  0  0  0
    8.3267    8.0114   25.3774 H   0  0  0  0  0  0  0  0  0  0  0  0
    6.9348    8.0997   24.2453 H   0  0  0  0  0  0  0  0  0  0  0  0
  1  2  1  0  0  0  0
  1  4  2  0  0  0  0
  2  6  2  0  0  0  0
  3  5  2  0  0  0  0
  3  6  1  0  0  0  0
  4  5  1  0  0  0  0
  4 17  1  0  0  0  0
  5 18  1  0  0  0  0
  6 21  1  0  0  0  0
  7 17  1  0  0  0  0
  7 19  2  0  0  0  0
  7 20  1  0  0  0  0
  8  9  1  0  0  0  0
  8 17  1  0  0  0  0
  9 10  1  0  0  0  0
  9 11  1  0  0  0  0
  9 18  1  0  0  0  0
 12 16  1  0  0  0  0
 13 16  1  0  0  0  0
 14 16  1  0  0  0  0
 15 18  1  0  0  0  0
 16 20  1  0  0  0  0
  1 22  1  0  0  0  0
  2 23  1  0  0  0  0
  3 24  1  0  0  0  0
  8 25  1  0  0  0  0
  8 26  1  0  0  0  0
 10 27  1  0  0  0  0
 10 28  1  0  0  0  0
 10 29  1  0  0  0  0
 11 30  1  0  0  0  0
 11 31  1  0  0  0  0
 11 32  1  0  0  0  0
 12 33  1  0  0  0  0
 12 34  1  0  0  0  0
 12 35  1  0  0  0  0
 13 36  1  0  0  0  0
 13 37  1  0  0  0  0
 13 38  1  0  0  0  0
 14 39  1  0  0  0  0
 14 40  1  0  0  0  0
 14 41  1  0  0  0  0
 15 42  1  0  0  0  0
 15 43  1  0  0  0  0
 15 44  1  0  0  0  0
M  END
> <id>
EN300-28299116

> <smiles>
CN1C=2C=C(Br)C=CC2N(CC1(C)C)C(=O)OC(C)(C)C

> <IUPAC Name>
tert-butyl 6-bromo-3,3,4-trimethyl-1,2,3,4-tetrahydroquinoxaline-1-carboxylate

> <CAS>
2680714-51-4

> <URL>
https://www.enaminestore.com/catalog/EN300-28299116

> <ROCS_ShapeQuery>
A71EV2A-x0451_0A_A71EV2A-x0310_0A_A71EV2A-x0416_0A_peptide

> <ROCS_TanimotoCombo>
0.496 

> <ROCS_ShapeTanimoto>
0.377 

> <ROCS_ColorTanimoto>
0.119 

> <ROCS_RefTversky>
0.323 

> <ROCS_RefColorTversky>
0.132 

> <ROCS_RefTverskyCombo>
0.455 

> <ROCS_FitTversky>
1.803 

> <ROCS_FitColorTversky>
0.550 

> <ROCS_FitTverskyCombo>
2.354 

> <ROCS_ColorScore>
-4.012

> <ROCS_Overlap>
2240.335

> <ROCS_Rank>
159                 

$$$$
untitled-dbase-30492_43
  -OEChem-11132313473D

 32 33  0     1  0  0  0  0  0999 V2000
    9.9598   13.5041   23.4714 C   0  0  0  0  0  0  0  0  0  0  0  0
    7.9310   12.0699   22.9197 C   0  0  0  0  0  0  0  0  0  0  0  0
    8.5224   11.2519   25.5915 C   0  0  0  0  0  0  0  0  0  0  0  0
    9.5333   11.2136   24.4449 C   0  0  1  0  0  0  0  0  0  0  0  0
    7.6036   10.7039   23.5383 C   0  0  1  0  0  0  0  0  0  0  0  0
    8.9836   10.0597   23.6220 C   0  0  2  0  0  0  0  0  0  0  0  0
   12.1107   13.8829   21.6288 C   0  0  0  0  0  0  0  0  0  0  0  0
   10.5416   15.4082   20.3957 C   0  0  0  0  0  0  0  0  0  0  0  0
   11.2362   15.9624   22.7448 C   0  0  0  0  0  0  0  0  0  0  0  0
   10.9244   14.8371   21.7593 C   0  0  0  0  0  0  0  0  0  0  0  0
    9.2086   12.3538   23.5805 N   0  0  0  0  0  0  0  0  0  0  0  0
   10.6867   13.9432   24.3591 O   0  0  0  0  0  0  0  0  0  0  0  0
    7.2624   10.9465   24.9326 O   0  0  0  0  0  0  0  0  0  0  0  0
    8.9776    8.8284   24.3115 O   0  0  0  0  0  0  0  0  0  0  0  0
    9.7988   14.1003   22.2498 O   0  0  0  0  0  0  0  0  0  0  0  0
    8.0968   12.0250   21.8393 H   0  0  0  0  0  0  0  0  0  0  0  0
    7.2101   12.8528   23.1721 H   0  0  0  0  0  0  0  0  0  0  0  0
    8.7098   10.4803   26.3448 H   0  0  0  0  0  0  0  0  0  0  0  0
    8.4516   12.2267   26.0842 H   0  0  0  0  0  0  0  0  0  0  0  0
   10.5774   11.1732   24.7591 H   0  0  0  0  0  0  0  0  0  0  0  0
    6.8174   10.1295   23.0457 H   0  0  0  0  0  0  0  0  0  0  0  0
    9.4768    9.9363   22.6513 H   0  0  0  0  0  0  0  0  0  0  0  0
   12.3886   13.4708   22.6054 H   0  0  0  0  0  0  0  0  0  0  0  0
   11.8875   13.0520   20.9515 H   0  0  0  0  0  0  0  0  0  0  0  0
   12.9956   14.4084   21.2519 H   0  0  0  0  0  0  0  0  0  0  0  0
    9.6908   16.0934   20.4846 H   0  0  0  0  0  0  0  0  0  0  0  0
   10.2257   14.6109   19.7133 H   0  0  0  0  0  0  0  0  0  0  0  0
   11.3752   15.9484   19.9354 H   0  0  0  0  0  0  0  0  0  0  0  0
   10.3854   16.6469   22.8386 H   0  0  0  0  0  0  0  0  0  0  0  0
   11.4772   15.5724   23.7391 H   0  0  0  0  0  0  0  0  0  0  0  0
   12.0811   16.5655   22.3931 H   0  0  0  0  0  0  0  0  0  0  0  0
    8.6113    8.1588   23.7066 H   0  0  0  0  0  0  0  0  0  0  0  0
  1 11  1  0  0  0  0
  1 12  2  0  0  0  0
  1 15  1  0  0  0  0
  2  5  1  1  0  0  0
  2 11  1  0  0  0  0
  3  4  1  0  0  0  0
  3 13  1  0  0  0  0
  4  6  1  0  0  0  0
  4 11  1  0  0  0  0
  5  6  1  0  0  0  0
  5 13  1  0  0  0  0
  6 14  1  6  0  0  0
  7 10  1  0  0  0  0
  8 10  1  0  0  0  0
  9 10  1  0  0  0  0
 10 15  1  0  0  0  0
  2 16  1  0  0  0  0
  2 17  1  0  0  0  0
  3 18  1  0  0  0  0
  3 19  1  0  0  0  0
  4 20  1  0  0  0  0
  5 21  1  0  0  0  0
  6 22  1  0  0  0  0
  7 23  1  0  0  0  0
  7 24  1  0  0  0  0
  7 25  1  0  0  0  0
  8 26  1  0  0  0  0
  8 27  1  0  0  0  0
  8 28  1  0  0  0  0
  9 29  1  0  0  0  0
  9 30  1  0  0  0  0
  9 31  1  0  0  0  0
 14 32  1  0  0  0  0
M  END
> <id>
EN300-26666016

> <smiles>
CC(C)(C)OC(=O)N1C[C@@H]2OCC1[C@H]2O

> <IUPAC Name>
tert-butyl (1S,7R)-7-hydroxy-2-oxa-5-azabicyclo[2.2.1]heptane-5-carboxylate

> <CAS>
2413864-23-8

> <URL>
https://www.enaminestore.com/catalog/EN300-26666016

> <ROCS_ShapeQuery>
A71EV2A-x0451_0A_A71EV2A-x0310_0A_A71EV2A-x0416_0A_peptide

> <ROCS_TanimotoCombo>
0.496 

> <ROCS_ShapeTanimoto>
0.262 

> <ROCS_ColorTanimoto>
0.234 

> <ROCS_RefTversky>
0.238 

> <ROCS_RefColorTversky>
0.267 

> <ROCS_RefTverskyCombo>
0.504 

> <ROCS_FitTversky>
1.633 

> <ROCS_FitColorTversky>
0.658 

> <ROCS_FitTverskyCombo>
2.290 

> <ROCS_ColorScore>
-8.190

> <ROCS_Overlap>
1646.042

> <ROCS_Rank>
160                 

$$$$
untitled-dbase-42875_43
  -OEChem-11132313473D

 32 33  0     1  0  0  0  0  0999 V2000
    9.9596   13.5041   23.4714 C   0  0  0  0  0  0  0  0  0  0  0  0
    7.9312   12.0696   22.9191 C   0  0  0  0  0  0  0  0  0  0  0  0
    8.5230   11.2519   25.5913 C   0  0  0  0  0  0  0  0  0  0  0  0
    9.5336   11.2133   24.4444 C   0  0  1  0  0  0  0  0  0  0  0  0
    7.6036   10.7039   23.5383 C   0  0  1  0  0  0  0  0  0  0  0  0
    8.9835   10.0593   23.6219 C   0  0  2  0  0  0  0  0  0  0  0  0
   12.1099   13.8851   21.6285 C   0  0  0  0  0  0  0  0  0  0  0  0
   10.5398   15.4103   20.3966 C   0  0  0  0  0  0  0  0  0  0  0  0
   11.2346   15.9635   22.7459 C   0  0  0  0  0  0  0  0  0  0  0  0
   10.9232   14.8386   21.7598 C   0  0  0  0  0  0  0  0  0  0  0  0
    9.2089   12.3536   23.5800 N   0  0  0  0  0  0  0  0  0  0  0  0
   10.6864   13.9430   24.3593 O   0  0  0  0  0  0  0  0  0  0  0  0
    7.2627   10.9471   24.9327 O   0  0  0  0  0  0  0  0  0  0  0  0
    8.9773    8.8281   24.3116 O   0  0  0  0  0  0  0  0  0  0  0  0
    9.7981   14.1009   22.2502 O   0  0  0  0  0  0  0  0  0  0  0  0
    8.0970   12.0242   21.8387 H   0  0  0  0  0  0  0  0  0  0  0  0
    7.2105   12.8527   23.1712 H   0  0  0  0  0  0  0  0  0  0  0  0
    8.7102   10.4801   26.3446 H   0  0  0  0  0  0  0  0  0  0  0  0
    8.4531   12.2267   26.0840 H   0  0  0  0  0  0  0  0  0  0  0  0
   10.5778   11.1728   24.7584 H   0  0  0  0  0  0  0  0  0  0  0  0
    6.8171   10.1295   23.0463 H   0  0  0  0  0  0  0  0  0  0  0  0
    9.4765    9.9356   22.6511 H   0  0  0  0  0  0  0  0  0  0  0  0
   12.3883   13.4726   22.6049 H   0  0  0  0  0  0  0  0  0  0  0  0
   11.8870   13.0545   20.9508 H   0  0  0  0  0  0  0  0  0  0  0  0
   12.9945   14.4113   21.2517 H   0  0  0  0  0  0  0  0  0  0  0  0
    9.6887   16.0950   20.4861 H   0  0  0  0  0  0  0  0  0  0  0  0
   10.2241   14.6132   19.7138 H   0  0  0  0  0  0  0  0  0  0  0  0
   11.3730   15.9512   19.9364 H   0  0  0  0  0  0  0  0  0  0  0  0
   10.3835   16.6476   22.8403 H   0  0  0  0  0  0  0  0  0  0  0  0
   11.4761   15.5732   23.7398 H   0  0  0  0  0  0  0  0  0  0  0  0
   12.0791   16.5673   22.3942 H   0  0  0  0  0  0  0  0  0  0  0  0
    8.6108    8.1586   23.7069 H   0  0  0  0  0  0  0  0  0  0  0  0
  1 11  1  0  0  0  0
  1 12  2  0  0  0  0
  1 15  1  0  0  0  0
  2  5  1  1  0  0  0
  2 11  1  0  0  0  0
  3  4  1  1  0  0  0
  3 13  1  0  0  0  0
  4  6  1  0  0  0  0
  4 11  1  0  0  0  0
  5  6  1  0  0  0  0
  5 13  1  0  0  0  0
  6 14  1  6  0  0  0
  7 10  1  0  0  0  0
  8 10  1  0  0  0  0
  9 10  1  0  0  0  0
 10 15  1  0  0  0  0
  2 16  1  0  0  0  0
  2 17  1  0  0  0  0
  3 18  1  0  0  0  0
  3 19  1  0  0  0  0
  4 20  1  0  0  0  0
  5 21  1  0  0  0  0
  6 22  1  0  0  0  0
  7 23  1  0  0  0  0
  7 24  1  0  0  0  0
  7 25  1  0  0  0  0
  8 26  1  0  0  0  0
  8 27  1  0  0  0  0
  8 28  1  0  0  0  0
  9 29  1  0  0  0  0
  9 30  1  0  0  0  0
  9 31  1  0  0  0  0
 14 32  1  0  0  0  0
M  END
> <id>
EN300-27718416

> <smiles>
CC(C)(C)OC(=O)N1C[C@@H]2OC[C@H]1[C@H]2O

> <MDLNUMBER>
MFCD31925820

> <IUPAC Name>
tert-butyl (1S,4S,7R)-7-hydroxy-2-oxa-5-azabicyclo[2.2.1]heptane-5-carboxylate

> <CAS>
1637399-25-7

> <URL>
https://www.enaminestore.com/catalog/EN300-27718416

> <ROCS_ShapeQuery>
A71EV2A-x0451_0A_A71EV2A-x0310_0A_A71EV2A-x0416_0A_peptide

> <ROCS_TanimotoCombo>
0.496 

> <ROCS_ShapeTanimoto>
0.262 

> <ROCS_ColorTanimoto>
0.234 

> <ROCS_RefTversky>
0.238 

> <ROCS_RefColorTversky>
0.267 

> <ROCS_RefTverskyCombo>
0.504 

> <ROCS_FitTversky>
1.633 

> <ROCS_FitColorTversky>
0.658 

> <ROCS_FitTverskyCombo>
2.290 

> <ROCS_ColorScore>
-8.190

> <ROCS_Overlap>
1645.877

> <ROCS_Rank>
161                 

$$$$
untitled-dbase-43481_172
  -OEChem-11132313473D

 38 39  0     1  0  0  0  0  0999 V2000
   10.8236   13.0624   23.6768 C   0  0  0  0  0  0  0  0  0  0  0  0
    7.9447   10.9638   22.9095 C   0  0  0  0  0  0  0  0  0  0  0  0
    8.4078    9.7794   25.1094 C   0  0  0  0  0  0  0  0  0  0  0  0
   10.2012   10.6495   23.5327 C   0  0  0  0  0  0  0  0  0  0  0  0
    8.8376    9.9469   23.6307 C   0  0  2  0  0  0  0  0  0  0  0  0
    8.4058   12.2506   23.5992 C   0  0  1  0  0  0  0  0  0  0  0  0
    7.5309   10.9279   25.6385 C   0  0  1  0  0  0  0  0  0  0  0  0
    7.9256   12.3028   25.0678 C   0  0  2  0  0  0  0  0  0  0  0  0
   13.3966   13.9710   24.5263 C   0  0  0  0  0  0  0  0  0  0  0  0
   14.2296   13.0907   22.3262 C   0  0  0  0  0  0  0  0  0  0  0  0
   12.5391   14.9477   22.3710 C   0  0  0  0  0  0  0  0  0  0  0  0
   13.0344   13.6825   23.0701 C   0  0  0  0  0  0  0  0  0  0  0  0
    9.8673   12.0652   23.6014 N   0  0  0  0  0  0  0  0  0  0  0  0
   10.6520   14.1408   24.2405 O   0  0  0  0  0  0  0  0  0  0  0  0
    6.1718   10.6230   25.3065 O   0  0  0  0  0  0  0  0  0  0  0  0
    6.8269   13.2034   25.1910 O   0  0  0  0  0  0  0  0  0  0  0  0
   11.9856   12.7081   23.0459 O   0  0  0  0  0  0  0  0  0  0  0  0
    8.1777   10.9930   21.8385 H   0  0  0  0  0  0  0  0  0  0  0  0
    6.8784   10.7521   23.0213 H   0  0  0  0  0  0  0  0  0  0  0  0
    7.8744    8.8221   25.2275 H   0  0  0  0  0  0  0  0  0  0  0  0
    9.3011    9.6888   25.7476 H   0  0  0  0  0  0  0  0  0  0  0  0
   10.9016   10.3710   24.3271 H   0  0  0  0  0  0  0  0  0  0  0  0
   10.6761   10.4652   22.5617 H   0  0  0  0  0  0  0  0  0  0  0  0
    8.8539    8.9733   23.1260 H   0  0  0  0  0  0  0  0  0  0  0  0
    8.1230   13.1488   23.0533 H   0  0  0  0  0  0  0  0  0  0  0  0
    7.5937   10.9441   26.7178 H   0  0  0  0  0  0  0  0  0  0  0  0
    8.7323   12.7327   25.7143 H   0  0  0  0  0  0  0  0  0  0  0  0
   12.5412   14.3959   25.0637 H   0  0  0  0  0  0  0  0  0  0  0  0
   13.7201   13.0647   25.0486 H   0  0  0  0  0  0  0  0  0  0  0  0
   14.2009   14.7127   24.5896 H   0  0  0  0  0  0  0  0  0  0  0  0
   13.9742   12.8822   21.2809 H   0  0  0  0  0  0  0  0  0  0  0  0
   14.5290   12.1333   22.7677 H   0  0  0  0  0  0  0  0  0  0  0  0
   15.0914   13.7656   22.3445 H   0  0  0  0  0  0  0  0  0  0  0  0
   12.2793   14.7411   21.3264 H   0  0  0  0  0  0  0  0  0  0  0  0
   11.6588   15.3659   22.8698 H   0  0  0  0  0  0  0  0  0  0  0  0
   13.3233   15.7131   22.3489 H   0  0  0  0  0  0  0  0  0  0  0  0
    5.6310   11.3542   25.6454 H   0  0  0  0  0  0  0  0  0  0  0  0
    7.1506   14.0709   24.9052 H   0  0  0  0  0  0  0  0  0  0  0  0
  1 13  1  0  0  0  0
  1 14  2  0  0  0  0
  1 17  1  0  0  0  0
  2  5  1  0  0  0  0
  2  6  1  0  0  0  0
  3  5  1  0  0  0  0
  3  7  1  0  0  0  0
  4  5  1  6  0  0  0
  4 13  1  0  0  0  0
  6  8  1  0  0  0  0
  6 13  1  6  0  0  0
  7  8  1  0  0  0  0
  7 15  1  1  0  0  0
  8 16  1  1  0  0  0
  9 12  1  0  0  0  0
 10 12  1  0  0  0  0
 11 12  1  0  0  0  0
 12 17  1  0  0  0  0
  2 18  1  0  0  0  0
  2 19  1  0  0  0  0
  3 20  1  0  0  0  0
  3 21  1  0  0  0  0
  4 22  1  0  0  0  0
  4 23  1  0  0  0  0
  5 24  1  0  0  0  0
  6 25  1  0  0  0  0
  7 26  1  0  0  0  0
  8 27  1  0  0  0  0
  9 28  1  0  0  0  0
  9 29  1  0  0  0  0
  9 30  1  0  0  0  0
 10 31  1  0  0  0  0
 10 32  1  0  0  0  0
 10 33  1  0  0  0  0
 11 34  1  0  0  0  0
 11 35  1  0  0  0  0
 11 36  1  0  0  0  0
 15 37  1  0  0  0  0
 16 38  1  0  0  0  0
M  END
> <id>
EN300-28228732

> <smiles>
CC(C)(C)OC(=O)N1C[C@@H]2C[C@H]1[C@@H](O)[C@@H](O)C2 |&1:9,11,12,14,r|

> <IUPAC Name>
rac-tert-butyl (1R,3S,4R,5S)-3,4-dihydroxy-6-azabicyclo[3.2.1]octane-6-carboxylate

> <CAS>
2639370-79-7

> <URL>
https://www.enaminestore.com/catalog/EN300-28228732

> <ROCS_ShapeQuery>
A71EV2A-x0451_0A_A71EV2A-x0310_0A_A71EV2A-x0416_0A_peptide

> <ROCS_TanimotoCombo>
0.496 

> <ROCS_ShapeTanimoto>
0.293 

> <ROCS_ColorTanimoto>
0.202 

> <ROCS_RefTversky>
0.262 

> <ROCS_RefColorTversky>
0.239 

> <ROCS_RefTverskyCombo>
0.501 

> <ROCS_FitTversky>
1.685 

> <ROCS_FitColorTversky>
0.571 

> <ROCS_FitTverskyCombo>
2.256 

> <ROCS_ColorScore>
-7.334

> <ROCS_Overlap>
1816.354

> <ROCS_Rank>
162                 

$$$$
untitled-dbase-10605_96
  -OEChem-11132313473D

 37 38  0     1  0  0  0  0  0999 V2000
    6.2964   12.1111   26.4857 C   0  0  0  0  0  0  0  0  0  0  0  0
    6.8043   13.3130   26.0187 C   0  0  0  0  0  0  0  0  0  0  0  0
    6.7879   10.9160   25.9720 C   0  0  0  0  0  0  0  0  0  0  0  0
    7.8329   13.3192   25.0725 C   0  0  0  0  0  0  0  0  0  0  0  0
    7.7995   10.9065   24.9905 C   0  0  0  0  0  0  0  0  0  0  0  0
    8.3892   12.1253   24.5786 C   0  0  0  0  0  0  0  0  0  0  0  0
   10.4029   13.1871   23.4369 C   0  0  0  0  0  0  0  0  0  0  0  0
    9.8323   10.8706   22.9658 C   0  0  0  0  0  0  0  0  0  0  0  0
    8.2560    9.5830   24.4131 C   0  0  2  0  0  0  0  0  0  0  0  0
    8.7526    9.8085   22.9953 C   0  0  2  0  0  0  0  0  0  0  0  0
   12.2074   15.2362   22.5635 C   0  0  0  0  0  0  0  0  0  0  0  0
   11.8597   14.2976   20.2598 C   0  0  0  0  0  0  0  0  0  0  0  0
    9.9174   15.2710   21.5200 C   0  0  0  0  0  0  0  0  0  0  0  0
   11.2352   14.5066   21.6376 C   0  0  0  0  0  0  0  0  0  0  0  0
    9.4964   12.1205   23.6535 N   0  0  0  0  0  0  0  0  0  0  0  0
   10.6169   14.0705   24.2689 O   0  0  0  0  0  0  0  0  0  0  0  0
    7.1608    8.6673   24.3694 O   0  0  0  0  0  0  0  0  0  0  0  0
   10.9642   13.2125   22.1895 O   0  0  0  0  0  0  0  0  0  0  0  0
    9.5093    8.1413   22.2834 Br  0  0  0  0  0  0  0  0  0  0  0  0
    5.5294   12.1016   27.2538 H   0  0  0  0  0  0  0  0  0  0  0  0
    6.4160   14.2521   26.4014 H   0  0  0  0  0  0  0  0  0  0  0  0
    6.3752    9.9814   26.3447 H   0  0  0  0  0  0  0  0  0  0  0  0
    8.2031   14.2965   24.7810 H   0  0  0  0  0  0  0  0  0  0  0  0
   10.7809   10.4991   23.4201 H   0  0  0  0  0  0  0  0  0  0  0  0
   10.0979   11.0742   21.9046 H   0  0  0  0  0  0  0  0  0  0  0  0
    9.0329    9.1837   25.0561 H   0  0  0  0  0  0  0  0  0  0  0  0
    7.9361   10.0574   22.3069 H   0  0  0  0  0  0  0  0  0  0  0  0
   11.7629   15.3882   23.5536 H   0  0  0  0  0  0  0  0  0  0  0  0
   13.1433   14.6809   22.6841 H   0  0  0  0  0  0  0  0  0  0  0  0
   12.4442   16.2332   22.1747 H   0  0  0  0  0  0  0  0  0  0  0  0
   11.1655   13.7745   19.5921 H   0  0  0  0  0  0  0  0  0  0  0  0
   12.7549   13.6690   20.3283 H   0  0  0  0  0  0  0  0  0  0  0  0
   12.1384   15.2484   19.7941 H   0  0  0  0  0  0  0  0  0  0  0  0
    9.2198   14.7479   20.8559 H   0  0  0  0  0  0  0  0  0  0  0  0
    9.4364   15.3982   22.4952 H   0  0  0  0  0  0  0  0  0  0  0  0
   10.0794   16.2616   21.0798 H   0  0  0  0  0  0  0  0  0  0  0  0
    7.5081    7.8443   23.9943 H   0  0  0  0  0  0  0  0  0  0  0  0
  1  2  2  0  0  0  0
  1  3  1  0  0  0  0
  2  4  1  0  0  0  0
  3  5  2  0  0  0  0
  4  6  2  0  0  0  0
  5  6  1  0  0  0  0
  5  9  1  0  0  0  0
  6 15  1  0  0  0  0
  7 15  1  0  0  0  0
  7 16  2  0  0  0  0
  7 18  1  0  0  0  0
  8 10  1  0  0  0  0
  8 15  1  0  0  0  0
  9 10  1  0  0  0  0
  9 17  1  6  0  0  0
 10 19  1  1  0  0  0
 11 14  1  0  0  0  0
 12 14  1  0  0  0  0
 13 14  1  0  0  0  0
 14 18  1  0  0  0  0
  1 20  1  0  0  0  0
  2 21  1  0  0  0  0
  3 22  1  0  0  0  0
  4 23  1  0  0  0  0
  8 24  1  0  0  0  0
  8 25  1  0  0  0  0
  9 26  1  0  0  0  0
 10 27  1  0  0  0  0
 11 28  1  0  0  0  0
 11 29  1  0  0  0  0
 11 30  1  0  0  0  0
 12 31  1  0  0  0  0
 12 32  1  0  0  0  0
 12 33  1  0  0  0  0
 13 34  1  0  0  0  0
 13 35  1  0  0  0  0
 13 36  1  0  0  0  0
 17 37  1  0  0  0  0
M  END
> <id>
EN300-373561

> <smiles>
CC(C)(C)OC(=O)N1C[C@@H](Br)[C@H](O)C=2C=CC=CC12 |&1:9,11,r|

> <MDLNUMBER>
MFCD30727010

> <IUPAC Name>
rac-tert-butyl (3R,4R)-3-bromo-4-hydroxy-1,2,3,4-tetrahydroquinoline-1-carboxylate

> <CAS>
185943-03-7

> <Purity>
95

> <URL>
https://www.enaminestore.com/catalog/EN300-373561

> <ROCS_ShapeQuery>
A71EV2A-x0451_0A_A71EV2A-x0310_0A_A71EV2A-x0416_0A_peptide

> <ROCS_TanimotoCombo>
0.496 

> <ROCS_ShapeTanimoto>
0.349 

> <ROCS_ColorTanimoto>
0.147 

> <ROCS_RefTversky>
0.302 

> <ROCS_RefColorTversky>
0.163 

> <ROCS_RefTverskyCombo>
0.464 

> <ROCS_FitTversky>
1.811 

> <ROCS_FitColorTversky>
0.602 

> <ROCS_FitTverskyCombo>
2.413 

> <ROCS_ColorScore>
-4.959

> <ROCS_Overlap>
2092.049

> <ROCS_Rank>
163                 

$$$$
untitled-dbase-45572_10
  -OEChem-11132313473D

 42 44  0     1  0  0  0  0  0999 V2000
    6.9300   10.4012   25.5114 C   0  0  0  0  0  0  0  0  0  0  0  0
    6.3790   11.4491   26.2457 C   0  0  0  0  0  0  0  0  0  0  0  0
    7.8969   12.9776   25.1687 C   0  0  0  0  0  0  0  0  0  0  0  0
    7.9835   10.6095   24.5992 C   0  0  0  0  0  0  0  0  0  0  0  0
    8.4733   11.9331   24.4227 C   0  0  0  0  0  0  0  0  0  0  0  0
    6.8641   12.7357   26.0753 C   0  0  0  0  0  0  0  0  0  0  0  0
   10.2551   13.3736   23.3834 C   0  0  0  0  0  0  0  0  0  0  0  0
    9.0391    7.4713   22.9475 C   0  0  0  0  0  0  0  0  0  0  0  0
    9.6705    8.5816   22.1135 C   0  0  0  0  0  0  0  0  0  0  0  0
    8.0099    8.2038   23.8115 C   0  0  0  0  0  0  0  0  0  0  0  0
    9.7107   11.1125   22.4427 C   0  0  0  0  0  0  0  0  0  0  0  0
    9.7274    9.7477   23.0996 C   0  0  1  0  0  0  0  0  0  0  0  0
   12.9892   13.5342   22.5303 C   0  0  0  0  0  0  0  0  0  0  0  0
   12.0863   14.6353   20.4611 C   0  0  0  0  0  0  0  0  0  0  0  0
   11.7618   15.7249   22.7007 C   0  0  0  0  0  0  0  0  0  0  0  0
   11.8672   14.3962   21.9535 C   0  0  0  0  0  0  0  0  0  0  0  0
    9.5068   12.1812   23.4394 N   0  0  0  0  0  0  0  0  0  0  0  0
    8.5369    9.5573   23.9063 N   0  0  3  0  0  0  0  0  0  0  0  0
   10.5750   14.0719   24.3422 O   0  0  0  0  0  0  0  0  0  0  0  0
   10.6289   13.6908   22.1003 O   0  0  0  0  0  0  0  0  0  0  0  0
    6.1075   14.1658   27.0541 Br  0  0  0  0  0  0  0  0  0  0  0  0
    6.5253    9.4047   25.6743 H   0  0  0  0  0  0  0  0  0  0  0  0
    5.5713   11.2399   26.9418 H   0  0  0  0  0  0  0  0  0  0  0  0
    8.2018   14.0085   25.0250 H   0  0  0  0  0  0  0  0  0  0  0  0
    8.5841    6.6944   22.3266 H   0  0  0  0  0  0  0  0  0  0  0  0
    9.7993    7.0039   23.5848 H   0  0  0  0  0  0  0  0  0  0  0  0
   10.6605    8.3024   21.7412 H   0  0  0  0  0  0  0  0  0  0  0  0
    9.0306    8.8149   21.2541 H   0  0  0  0  0  0  0  0  0  0  0  0
    7.0329    8.2124   23.3155 H   0  0  0  0  0  0  0  0  0  0  0  0
    7.9160    7.7190   24.7886 H   0  0  0  0  0  0  0  0  0  0  0  0
   10.6510   11.2529   21.9003 H   0  0  0  0  0  0  0  0  0  0  0  0
    8.9004   11.2021   21.7076 H   0  0  0  0  0  0  0  0  0  0  0  0
   10.6143    9.6474   23.7398 H   0  0  0  0  0  0  0  0  0  0  0  0
   12.8356   13.3603   23.6014 H   0  0  0  0  0  0  0  0  0  0  0  0
   13.0527   12.5644   22.0261 H   0  0  0  0  0  0  0  0  0  0  0  0
   13.9579   14.0380   22.4348 H   0  0  0  0  0  0  0  0  0  0  0  0
   11.2835   15.2534   20.0431 H   0  0  0  0  0  0  0  0  0  0  0  0
   12.0679   13.6896   19.9075 H   0  0  0  0  0  0  0  0  0  0  0  0
   13.0426   15.1318   20.2676 H   0  0  0  0  0  0  0  0  0  0  0  0
   10.9570   16.3434   22.2871 H   0  0  0  0  0  0  0  0  0  0  0  0
   11.5677   15.5733   23.7675 H   0  0  0  0  0  0  0  0  0  0  0  0
   12.6847   16.3063   22.5939 H   0  0  0  0  0  0  0  0  0  0  0  0
  1  2  1  0  0  0  0
  1  4  2  0  0  0  0
  2  6  2  0  0  0  0
  3  5  2  0  0  0  0
  3  6  1  0  0  0  0
  4  5  1  0  0  0  0
  4 18  1  0  0  0  0
  5 17  1  0  0  0  0
  6 21  1  0  0  0  0
  7 17  1  0  0  0  0
  7 19  2  0  0  0  0
  7 20  1  0  0  0  0
  8  9  1  0  0  0  0
  8 10  1  0  0  0  0
  9 12  1  0  0  0  0
 10 18  1  0  0  0  0
 11 12  1  0  0  0  0
 11 17  1  0  0  0  0
 12 18  1  0  0  0  0
 13 16  1  0  0  0  0
 14 16  1  0  0  0  0
 15 16  1  0  0  0  0
 16 20  1  0  0  0  0
  1 22  1  0  0  0  0
  2 23  1  0  0  0  0
  3 24  1  0  0  0  0
  8 25  1  0  0  0  0
  8 26  1  0  0  0  0
  9 27  1  0  0  0  0
  9 28  1  0  0  0  0
 10 29  1  0  0  0  0
 10 30  1  0  0  0  0
 11 31  1  0  0  0  0
 11 32  1  0  0  0  0
 12 33  1  0  0  0  0
 13 34  1  0  0  0  0
 13 35  1  0  0  0  0
 13 36  1  0  0  0  0
 14 37  1  0  0  0  0
 14 38  1  0  0  0  0
 14 39  1  0  0  0  0
 15 40  1  0  0  0  0
 15 41  1  0  0  0  0
 15 42  1  0  0  0  0
M  END
> <id>
EN300-28298854

> <smiles>
CC(C)(C)OC(=O)N1CC2CCCN2C=3C=CC(Br)=CC13

> <IUPAC Name>
tert-butyl 7-bromo-1H,2H,3H,3aH,4H,5H-pyrrolo[1,2-a]quinoxaline-5-carboxylate

> <CAS>
2680779-37-5

> <URL>
https://www.enaminestore.com/catalog/EN300-28298854

> <ROCS_ShapeQuery>
A71EV2A-x0451_0A_A71EV2A-x0310_0A_A71EV2A-x0416_0A_peptide

> <ROCS_TanimotoCombo>
0.496 

> <ROCS_ShapeTanimoto>
0.374 

> <ROCS_ColorTanimoto>
0.121 

> <ROCS_RefTversky>
0.322 

> <ROCS_RefColorTversky>
0.134 

> <ROCS_RefTverskyCombo>
0.456 

> <ROCS_FitTversky>
1.774 

> <ROCS_FitColorTversky>
0.559 

> <ROCS_FitTverskyCombo>
2.333 

> <ROCS_ColorScore>
-4.083

> <ROCS_Overlap>
2233.386

> <ROCS_Rank>
164                 

$$$$
untitled-dbase-51434_68
  -OEChem-11132313473D

 44 46  0     0  0  0  0  0  0999 V2000
    7.0155    9.9195   25.2994 C   0  0  0  0  0  0  0  0  0  0  0  0
    6.1548   10.8263   25.9187 C   0  0  0  0  0  0  0  0  0  0  0  0
    7.4687   12.7099   25.0980 C   0  0  0  0  0  0  0  0  0  0  0  0
    8.3211   11.8069   24.4841 C   0  0  0  0  0  0  0  0  0  0  0  0
    8.0830   10.4393   24.5937 C   0  0  0  0  0  0  0  0  0  0  0  0
    6.3793   12.2106   25.8192 C   0  0  0  0  0  0  0  0  0  0  0  0
    9.9853   10.5884   23.3066 C   0  0  0  0  0  0  0  0  0  0  0  0
   11.8120   15.2835   22.1825 C   0  0  0  0  0  0  0  0  0  0  0  0
    9.2181   12.8252   22.3636 C   0  0  0  0  0  0  0  0  0  0  0  0
   10.6572   12.7460   24.4797 C   0  0  0  0  0  0  0  0  0  0  0  0
   10.4534   13.2926   21.5957 C   0  0  0  0  0  0  0  0  0  0  0  0
   11.8431   13.2173   23.6383 C   0  0  0  0  0  0  0  0  0  0  0  0
    9.5634   12.0502   23.6486 C   0  0  0  0  0  0  0  0  0  0  0  0
   14.2059   15.2179   21.1085 C   0  0  0  0  0  0  0  0  0  0  0  0
   13.1432   15.4112   18.8408 C   0  0  0  0  0  0  0  0  0  0  0  0
   13.2535   17.4191   20.3455 C   0  0  0  0  0  0  0  0  0  0  0  0
   13.1116   15.8988   20.2877 C   0  0  0  0  0  0  0  0  0  0  0  0
    9.0573    9.7316   23.9047 N   0  0  0  0  0  0  0  0  0  0  0  0
   11.3887   13.9842   22.4774 N   0  0  0  0  0  0  0  0  0  0  0  0
   10.9511   10.2530   22.6373 O   0  0  0  0  0  0  0  0  0  0  0  0
   12.1294   16.1176   23.0286 O   0  0  0  0  0  0  0  0  0  0  0  0
   11.8389   15.5383   20.8369 O   0  0  0  0  0  0  0  0  0  0  0  0
    5.5381   13.0611   26.4234 F   0  0  0  0  0  0  0  0  0  0  0  0
    6.8457    8.8515   25.3742 H   0  0  0  0  0  0  0  0  0  0  0  0
    5.3019   10.4611   26.4843 H   0  0  0  0  0  0  0  0  0  0  0  0
    7.6338   13.7794   25.0265 H   0  0  0  0  0  0  0  0  0  0  0  0
    8.6188   13.7118   22.6108 H   0  0  0  0  0  0  0  0  0  0  0  0
    8.5977   12.2113   21.6978 H   0  0  0  0  0  0  0  0  0  0  0  0
   11.0257   12.0771   25.2685 H   0  0  0  0  0  0  0  0  0  0  0  0
   10.2376   13.6227   24.9912 H   0  0  0  0  0  0  0  0  0  0  0  0
   10.9856   12.4430   21.1544 H   0  0  0  0  0  0  0  0  0  0  0  0
   10.1471   13.9420   20.7691 H   0  0  0  0  0  0  0  0  0  0  0  0
   12.5219   13.8023   24.2650 H   0  0  0  0  0  0  0  0  0  0  0  0
   12.4167   12.3641   23.2600 H   0  0  0  0  0  0  0  0  0  0  0  0
   14.1866   15.5653   22.1477 H   0  0  0  0  0  0  0  0  0  0  0  0
   14.0949   14.1287   21.1039 H   0  0  0  0  0  0  0  0  0  0  0  0
   15.1994   15.4662   20.7180 H   0  0  0  0  0  0  0  0  0  0  0  0
   12.3597   15.8972   18.2482 H   0  0  0  0  0  0  0  0  0  0  0  0
   12.9472   14.3342   18.7876 H   0  0  0  0  0  0  0  0  0  0  0  0
   14.1100   15.6114   18.3680 H   0  0  0  0  0  0  0  0  0  0  0  0
   12.4687   17.9078   19.7568 H   0  0  0  0  0  0  0  0  0  0  0  0
   13.1961   17.7907   21.3738 H   0  0  0  0  0  0  0  0  0  0  0  0
   14.2086   17.7381   19.9128 H   0  0  0  0  0  0  0  0  0  0  0  0
    9.0825    8.7203   23.8490 H   0  0  0  0  0  0  0  0  0  0  0  0
  1  2  1  0  0  0  0
  1  5  2  0  0  0  0
  2  6  2  0  0  0  0
  3  4  2  0  0  0  0
  3  6  1  0  0  0  0
  4  5  1  0  0  0  0
  4 13  1  0  0  0  0
  5 18  1  0  0  0  0
  6 23  1  0  0  0  0
  7 13  1  0  0  0  0
  7 18  1  0  0  0  0
  7 20  2  0  0  0  0
  8 19  1  0  0  0  0
  8 21  2  0  0  0  0
  8 22  1  0  0  0  0
  9 11  1  0  0  0  0
  9 13  1  0  0  0  0
 10 12  1  0  0  0  0
 10 13  1  0  0  0  0
 11 19  1  0  0  0  0
 12 19  1  0  0  0  0
 14 17  1  0  0  0  0
 15 17  1  0  0  0  0
 16 17  1  0  0  0  0
 17 22  1  0  0  0  0
  1 24  1  0  0  0  0
  2 25  1  0  0  0  0
  3 26  1  0  0  0  0
  9 27  1  0  0  0  0
  9 28  1  0  0  0  0
 10 29  1  0  0  0  0
 10 30  1  0  0  0  0
 11 31  1  0  0  0  0
 11 32  1  0  0  0  0
 12 33  1  0  0  0  0
 12 34  1  0  0  0  0
 14 35  1  0  0  0  0
 14 36  1  0  0  0  0
 14 37  1  0  0  0  0
 15 38  1  0  0  0  0
 15 39  1  0  0  0  0
 15 40  1  0  0  0  0
 16 41  1  0  0  0  0
 16 42  1  0  0  0  0
 16 43  1  0  0  0  0
 18 44  1  0  0  0  0
M  END
> <id>
EN300-7366372

> <smiles>
CC(C)(C)OC(=O)N1CCC2(CC1)C(=O)NC=3C=CC(F)=CC32

> <MDLNUMBER>
MFCD10566054

> <IUPAC Name>
tert-butyl 5-fluoro-2-oxo-1,2-dihydrospiro[indole-3,4'-piperidine]-1'-carboxylate

> <CAS>
866028-06-0

> <Purity>
95

> <URL>
https://www.enaminestore.com/catalog/EN300-7366372

> <ROCS_ShapeQuery>
A71EV2A-x0451_0A_A71EV2A-x0310_0A_A71EV2A-x0416_0A_peptide

> <ROCS_TanimotoCombo>
0.495 

> <ROCS_ShapeTanimoto>
0.375 

> <ROCS_ColorTanimoto>
0.120 

> <ROCS_RefTversky>
0.326 

> <ROCS_RefColorTversky>
0.136 

> <ROCS_RefTverskyCombo>
0.463 

> <ROCS_FitTversky>
1.668 

> <ROCS_FitColorTversky>
0.504 

> <ROCS_FitTverskyCombo>
2.171 

> <ROCS_ColorScore>
-4.156

> <ROCS_Overlap>
2266.478

> <ROCS_Rank>
165                 

$$$$
untitled-dbase-45824_3
  -OEChem-11132313473D

 34 35  0     0  0  0  0  0  0999 V2000
    7.9543   13.0318   25.3114 C   0  0  0  0  0  0  0  0  0  0  0  0
    6.8637   12.8686   26.1750 C   0  0  0  0  0  0  0  0  0  0  0  0
    6.6977   10.5594   25.5436 C   0  0  0  0  0  0  0  0  0  0  0  0
    8.4453   11.9610   24.5490 C   0  0  0  0  0  0  0  0  0  0  0  0
    7.7992   10.7164   24.6931 C   0  0  0  0  0  0  0  0  0  0  0  0
    6.2338   11.6356   26.2894 C   0  0  0  0  0  0  0  0  0  0  0  0
   10.2941   13.2544   23.4256 C   0  0  0  0  0  0  0  0  0  0  0  0
    9.7723   10.8975   22.7792 C   0  0  0  0  0  0  0  0  0  0  0  0
    9.5144    9.6282   23.5608 C   0  0  0  0  0  0  0  0  0  0  0  0
   12.7640   14.5117   22.6801 C   0  0  0  0  0  0  0  0  0  0  0  0
   11.8510   14.4998   20.3401 C   0  0  0  0  0  0  0  0  0  0  0  0
   10.6701   15.7981   22.1368 C   0  0  0  0  0  0  0  0  0  0  0  0
   11.4983   14.5525   21.8250 C   0  0  0  0  0  0  0  0  0  0  0  0
    9.5318   12.0847   23.6122 N   0  0  0  0  0  0  0  0  0  0  0  0
   10.5857   14.0811   24.2850 O   0  0  0  0  0  0  0  0  0  0  0  0
    8.1665    9.5812   24.0129 O   0  0  0  0  0  0  0  0  0  0  0  0
   10.7096   13.3939   22.1227 O   0  0  0  0  0  0  0  0  0  0  0  0
    4.7560   11.4256   27.4464 Br  0  0  0  0  0  0  0  0  0  0  0  0
    8.3682   14.0309   25.2555 H   0  0  0  0  0  0  0  0  0  0  0  0
    6.5132   13.7266   26.7441 H   0  0  0  0  0  0  0  0  0  0  0  0
    6.2155    9.5873   25.6219 H   0  0  0  0  0  0  0  0  0  0  0  0
   10.8005   10.8851   22.4051 H   0  0  0  0  0  0  0  0  0  0  0  0
    9.0962   10.9747   21.9190 H   0  0  0  0  0  0  0  0  0  0  0  0
    9.6737    8.7584   22.9146 H   0  0  0  0  0  0  0  0  0  0  0  0
   10.1971    9.5266   24.4142 H   0  0  0  0  0  0  0  0  0  0  0  0
   12.5152   14.5493   23.7466 H   0  0  0  0  0  0  0  0  0  0  0  0
   13.3494   13.6059   22.4913 H   0  0  0  0  0  0  0  0  0  0  0  0
   13.3992   15.3822   22.4800 H   0  0  0  0  0  0  0  0  0  0  0  0
   10.9458   14.5288   19.7229 H   0  0  0  0  0  0  0  0  0  0  0  0
   12.3629   13.5626   20.0935 H   0  0  0  0  0  0  0  0  0  0  0  0
   12.4964   15.3346   20.0483 H   0  0  0  0  0  0  0  0  0  0  0  0
    9.7621   15.8275   21.5236 H   0  0  0  0  0  0  0  0  0  0  0  0
   10.3765   15.8338   23.1909 H   0  0  0  0  0  0  0  0  0  0  0  0
   11.2322   16.7089   21.9008 H   0  0  0  0  0  0  0  0  0  0  0  0
  1  2  1  0  0  0  0
  1  4  2  0  0  0  0
  2  6  2  0  0  0  0
  3  5  2  0  0  0  0
  3  6  1  0  0  0  0
  4  5  1  0  0  0  0
  4 14  1  0  0  0  0
  5 16  1  0  0  0  0
  6 18  1  0  0  0  0
  7 14  1  0  0  0  0
  7 15  2  0  0  0  0
  7 17  1  0  0  0  0
  8  9  1  0  0  0  0
  8 14  1  0  0  0  0
  9 16  1  0  0  0  0
 10 13  1  0  0  0  0
 11 13  1  0  0  0  0
 12 13  1  0  0  0  0
 13 17  1  0  0  0  0
  1 19  1  0  0  0  0
  2 20  1  0  0  0  0
  3 21  1  0  0  0  0
  8 22  1  0  0  0  0
  8 23  1  0  0  0  0
  9 24  1  0  0  0  0
  9 25  1  0  0  0  0
 10 26  1  0  0  0  0
 10 27  1  0  0  0  0
 10 28  1  0  0  0  0
 11 29  1  0  0  0  0
 11 30  1  0  0  0  0
 11 31  1  0  0  0  0
 12 32  1  0  0  0  0
 12 33  1  0  0  0  0
 12 34  1  0  0  0  0
M  END
> <id>
EN300-301064

> <smiles>
CC(C)(C)OC(=O)N1CCOC=2C=C(Br)C=CC12

> <MDLNUMBER>
MFCD12913754

> <IUPAC Name>
tert-butyl 7-bromo-3,4-dihydro-2H-1,4-benzoxazine-4-carboxylate

> <CAS>
1220039-59-7

> <Purity>
95

> <URL>
https://www.enaminestore.com/catalog/EN300-301064

> <ROCS_ShapeQuery>
A71EV2A-x0451_0A_A71EV2A-x0310_0A_A71EV2A-x0416_0A_peptide

> <ROCS_TanimotoCombo>
0.495 

> <ROCS_ShapeTanimoto>
0.341 

> <ROCS_ColorTanimoto>
0.154 

> <ROCS_RefTversky>
0.295 

> <ROCS_RefColorTversky>
0.166 

> <ROCS_RefTverskyCombo>
0.461 

> <ROCS_FitTversky>
1.827 

> <ROCS_FitColorTversky>
0.691 

> <ROCS_FitTverskyCombo>
2.519 

> <ROCS_ColorScore>
-5.039

> <ROCS_Overlap>
2049.426

> <ROCS_Rank>
166                 

$$$$
untitled-dbase-45222_3
  -OEChem-11132313473D

 32 33  0     0  0  0  0  0  0999 V2000
    7.0354   12.8199   26.0037 C   0  0  0  0  0  0  0  0  0  0  0  0
    7.8545   10.6913   24.6111 C   0  0  0  0  0  0  0  0  0  0  0  0
    8.5218   11.9066   24.5050 C   0  0  0  0  0  0  0  0  0  0  0  0
    6.7461   10.6482   25.4375 C   0  0  0  0  0  0  0  0  0  0  0  0
   10.3252   13.2180   23.4260 C   0  0  0  0  0  0  0  0  0  0  0  0
    9.9134   10.8213   22.7920 C   0  0  0  0  0  0  0  0  0  0  0  0
    9.5646    9.5534   23.5462 C   0  0  0  0  0  0  0  0  0  0  0  0
   12.7189   14.6272   22.7228 C   0  0  0  0  0  0  0  0  0  0  0  0
   11.8375   14.5780   20.3712 C   0  0  0  0  0  0  0  0  0  0  0  0
   10.5561   15.7860   22.1621 C   0  0  0  0  0  0  0  0  0  0  0  0
   11.4638   14.5966   21.8518 C   0  0  0  0  0  0  0  0  0  0  0  0
    8.1182   12.9846   25.2181 N   0  0  0  0  0  0  0  0  0  0  0  0
    6.3093   11.7002   26.1540 N   0  0  0  0  0  0  0  0  0  0  0  0
    9.6269   12.0124   23.5990 N   0  0  0  0  0  0  0  0  0  0  0  0
   10.5480   14.0471   24.3058 O   0  0  0  0  0  0  0  0  0  0  0  0
    8.1954    9.5518   23.9456 O   0  0  0  0  0  0  0  0  0  0  0  0
   10.7449   13.3893   22.1306 O   0  0  0  0  0  0  0  0  0  0  0  0
    5.8034    9.2255   25.6523 Cl  0  0  0  0  0  0  0  0  0  0  0  0
    6.7159   13.6851   26.5716 H   0  0  0  0  0  0  0  0  0  0  0  0
   10.9681   10.8001   22.5006 H   0  0  0  0  0  0  0  0  0  0  0  0
    9.3102   10.9099   21.8802 H   0  0  0  0  0  0  0  0  0  0  0  0
    9.7179    8.6844   22.8977 H   0  0  0  0  0  0  0  0  0  0  0  0
   10.2048    9.4166   24.4275 H   0  0  0  0  0  0  0  0  0  0  0  0
   12.4549   14.6406   23.7863 H   0  0  0  0  0  0  0  0  0  0  0  0
   13.3615   13.7609   22.5349 H   0  0  0  0  0  0  0  0  0  0  0  0
   13.3014   15.5369   22.5374 H   0  0  0  0  0  0  0  0  0  0  0  0
   10.9400   14.5560   19.7426 H   0  0  0  0  0  0  0  0  0  0  0  0
   12.4095   13.6763   20.1243 H   0  0  0  0  0  0  0  0  0  0  0  0
   12.4336   15.4535   20.0940 H   0  0  0  0  0  0  0  0  0  0  0  0
    9.6558   15.7643   21.5374 H   0  0  0  0  0  0  0  0  0  0  0  0
   10.2478   15.7948   23.2125 H   0  0  0  0  0  0  0  0  0  0  0  0
   11.0637   16.7317   21.9401 H   0  0  0  0  0  0  0  0  0  0  0  0
  1 12  1  0  0  0  0
  1 13  2  0  0  0  0
  2  3  1  0  0  0  0
  2  4  2  0  0  0  0
  2 16  1  0  0  0  0
  3 12  2  0  0  0  0
  3 14  1  0  0  0  0
  4 13  1  0  0  0  0
  4 18  1  0  0  0  0
  5 14  1  0  0  0  0
  5 15  2  0  0  0  0
  5 17  1  0  0  0  0
  6  7  1  0  0  0  0
  6 14  1  0  0  0  0
  7 16  1  0  0  0  0
  8 11  1  0  0  0  0
  9 11  1  0  0  0  0
 10 11  1  0  0  0  0
 11 17  1  0  0  0  0
  1 19  1  0  0  0  0
  6 20  1  0  0  0  0
  6 21  1  0  0  0  0
  7 22  1  0  0  0  0
  7 23  1  0  0  0  0
  8 24  1  0  0  0  0
  8 25  1  0  0  0  0
  8 26  1  0  0  0  0
  9 27  1  0  0  0  0
  9 28  1  0  0  0  0
  9 29  1  0  0  0  0
 10 30  1  0  0  0  0
 10 31  1  0  0  0  0
 10 32  1  0  0  0  0
M  END
> <id>
EN300-28283622

> <smiles>
CC(C)(C)OC(=O)N1CCOC=2C(Cl)=NC=NC12

> <MDLNUMBER>
MFCD34577145

> <IUPAC Name>
tert-butyl 4-chloro-6H,7H,8H-pyrimido[5,4-b][1,4]oxazine-8-carboxylate

> <CAS>
2097013-43-7

> <URL>
https://www.enaminestore.com/catalog/EN300-28283622

> <ROCS_ShapeQuery>
A71EV2A-x0451_0A_A71EV2A-x0310_0A_A71EV2A-x0416_0A_peptide

> <ROCS_TanimotoCombo>
0.495 

> <ROCS_ShapeTanimoto>
0.343 

> <ROCS_ColorTanimoto>
0.152 

> <ROCS_RefTversky>
0.298 

> <ROCS_RefColorTversky>
0.168 

> <ROCS_RefTverskyCombo>
0.465 

> <ROCS_FitTversky>
1.814 

> <ROCS_FitColorTversky>
0.619 

> <ROCS_FitTverskyCombo>
2.433 

> <ROCS_ColorScore>
-5.105

> <ROCS_Overlap>
2063.888

> <ROCS_Rank>
167                 

$$$$
untitled-dbase-45314_2
  -OEChem-11132313473D

 37 38  0     0  0  0  0  0  0999 V2000
    8.3103   14.1356   25.6521 C   0  0  0  0  0  0  0  0  0  0  0  0
    8.0237   12.7987   25.2615 C   0  0  0  0  0  0  0  0  0  0  0  0
    6.9584   12.0366   25.7857 C   0  0  0  0  0  0  0  0  0  0  0  0
    8.6441   11.9665   24.3536 C   0  0  0  0  0  0  0  0  0  0  0  0
   10.4204   13.3095   23.4133 C   0  0  0  0  0  0  0  0  0  0  0  0
    9.6656    9.5959   23.1873 C   0  0  0  0  0  0  0  0  0  0  0  0
    8.2006    9.6244   23.6004 C   0  0  0  0  0  0  0  0  0  0  0  0
   10.1020   10.9464   22.6182 C   0  0  0  0  0  0  0  0  0  0  0  0
    5.9625   12.4362   26.7980 C   0  0  0  0  0  0  0  0  0  0  0  0
   12.8117   14.7970   22.8754 C   0  0  0  0  0  0  0  0  0  0  0  0
   12.0229   14.8504   20.4913 C   0  0  0  0  0  0  0  0  0  0  0  0
   10.6495   15.9432   22.2878 C   0  0  0  0  0  0  0  0  0  0  0  0
   11.5921   14.7876   21.9550 C   0  0  0  0  0  0  0  0  0  0  0  0
    8.5441   15.2267   25.9709 N   0  0  0  0  0  0  0  0  0  0  0  0
    6.8930   10.8115   25.2608 N   0  0  0  0  0  0  0  0  0  0  0  0
    7.9276   10.7969   24.4053 N   0  0  0  0  0  0  0  0  0  0  0  0
    9.7391   12.0824   23.4910 N   0  0  0  0  0  0  0  0  0  0  0  0
   10.5950   14.1001   24.3373 O   0  0  0  0  0  0  0  0  0  0  0  0
   10.8872   13.5549   22.1449 O   0  0  0  0  0  0  0  0  0  0  0  0
   10.2889    9.3599   24.0596 H   0  0  0  0  0  0  0  0  0  0  0  0
    9.8327    8.8034   22.4498 H   0  0  0  0  0  0  0  0  0  0  0  0
    7.5424    9.6801   22.7266 H   0  0  0  0  0  0  0  0  0  0  0  0
    7.9449    8.7346   24.1848 H   0  0  0  0  0  0  0  0  0  0  0  0
   11.1853   10.9232   22.4570 H   0  0  0  0  0  0  0  0  0  0  0  0
    9.6247   11.1246   21.6468 H   0  0  0  0  0  0  0  0  0  0  0  0
    5.0771   12.8938   26.3265 H   0  0  0  0  0  0  0  0  0  0  0  0
    5.6153   11.5783   27.3994 H   0  0  0  0  0  0  0  0  0  0  0  0
    6.3727   13.1656   27.5178 H   0  0  0  0  0  0  0  0  0  0  0  0
   12.5067   14.7520   23.9270 H   0  0  0  0  0  0  0  0  0  0  0  0
   13.4784   13.9530   22.6703 H   0  0  0  0  0  0  0  0  0  0  0  0
   13.3826   15.7253   22.7586 H   0  0  0  0  0  0  0  0  0  0  0  0
   11.1510   14.8438   19.8273 H   0  0  0  0  0  0  0  0  0  0  0  0
   12.6220   13.9727   20.2227 H   0  0  0  0  0  0  0  0  0  0  0  0
   12.6116   15.7493   20.2816 H   0  0  0  0  0  0  0  0  0  0  0  0
    9.7745   15.9367   21.6277 H   0  0  0  0  0  0  0  0  0  0  0  0
   10.3007   15.8936   23.3244 H   0  0  0  0  0  0  0  0  0  0  0  0
   11.1461   16.9080   22.1333 H   0  0  0  0  0  0  0  0  0  0  0  0
  1  2  1  0  0  0  0
  1 14  3  0  0  0  0
  2  3  1  0  0  0  0
  2  4  2  0  0  0  0
  3  9  1  0  0  0  0
  3 15  2  0  0  0  0
  4 16  1  0  0  0  0
  4 17  1  0  0  0  0
  5 17  1  0  0  0  0
  5 18  2  0  0  0  0
  5 19  1  0  0  0  0
  6  7  1  0  0  0  0
  6  8  1  0  0  0  0
  7 16  1  0  0  0  0
  8 17  1  0  0  0  0
 10 13  1  0  0  0  0
 11 13  1  0  0  0  0
 12 13  1  0  0  0  0
 13 19  1  0  0  0  0
 15 16  1  0  0  0  0
  6 20  1  0  0  0  0
  6 21  1  0  0  0  0
  7 22  1  0  0  0  0
  7 23  1  0  0  0  0
  8 24  1  0  0  0  0
  8 25  1  0  0  0  0
  9 26  1  0  0  0  0
  9 27  1  0  0  0  0
  9 28  1  0  0  0  0
 10 29  1  0  0  0  0
 10 30  1  0  0  0  0
 10 31  1  0  0  0  0
 11 32  1  0  0  0  0
 11 33  1  0  0  0  0
 11 34  1  0  0  0  0
 12 35  1  0  0  0  0
 12 36  1  0  0  0  0
 12 37  1  0  0  0  0
M  END
> <id>
EN300-28281260

> <smiles>
CC1=NN2CCCN(C(=O)OC(C)(C)C)C2=C1C#N

> <IUPAC Name>
tert-butyl 3-cyano-2-methyl-4H,5H,6H,7H-pyrazolo[1,5-a]pyrimidine-4-carboxylate

> <CAS>
2680692-78-6

> <URL>
https://www.enaminestore.com/catalog/EN300-28281260

> <ROCS_ShapeQuery>
A71EV2A-x0451_0A_A71EV2A-x0310_0A_A71EV2A-x0416_0A_peptide

> <ROCS_TanimotoCombo>
0.495 

> <ROCS_ShapeTanimoto>
0.341 

> <ROCS_ColorTanimoto>
0.154 

> <ROCS_RefTversky>
0.298 

> <ROCS_RefColorTversky>
0.166 

> <ROCS_RefTverskyCombo>
0.463 

> <ROCS_FitTversky>
1.742 

> <ROCS_FitColorTversky>
0.690 

> <ROCS_FitTverskyCombo>
2.432 

> <ROCS_ColorScore>
-5.039

> <ROCS_Overlap>
2065.718

> <ROCS_Rank>
168                 

$$$$
untitled-dbase-18229_4
  -OEChem-11132313473D

 32 33  0     0  0  0  0  0  0999 V2000
    6.7452   10.6455   25.4338 C   0  0  0  0  0  0  0  0  0  0  0  0
    7.8548   10.6890   24.6090 C   0  0  0  0  0  0  0  0  0  0  0  0
    8.5214   11.9048   24.5032 C   0  0  0  0  0  0  0  0  0  0  0  0
    7.0320   12.8177   25.9994 C   0  0  0  0  0  0  0  0  0  0  0  0
   10.3254   13.2171   23.4263 C   0  0  0  0  0  0  0  0  0  0  0  0
    9.9163   10.8198   22.7928 C   0  0  0  0  0  0  0  0  0  0  0  0
    9.5674    9.5519   23.5472 C   0  0  0  0  0  0  0  0  0  0  0  0
   12.7190   14.6277   22.7260 C   0  0  0  0  0  0  0  0  0  0  0  0
   11.8412   14.5768   20.3732 C   0  0  0  0  0  0  0  0  0  0  0  0
   10.5563   15.7846   22.1615 C   0  0  0  0  0  0  0  0  0  0  0  0
   11.4653   14.5957   21.8532 C   0  0  0  0  0  0  0  0  0  0  0  0
    6.3066   11.6975   26.1491 N   0  0  0  0  0  0  0  0  0  0  0  0
    8.1158   12.9829   25.2152 N   0  0  0  0  0  0  0  0  0  0  0  0
    9.6278   12.0110   23.5989 N   0  0  0  0  0  0  0  0  0  0  0  0
   10.5462   14.0468   24.3060 O   0  0  0  0  0  0  0  0  0  0  0  0
    8.1976    9.5495   23.9446 O   0  0  0  0  0  0  0  0  0  0  0  0
   10.7469   13.3881   22.1315 O   0  0  0  0  0  0  0  0  0  0  0  0
    6.5240   14.1836   26.8907 Cl  0  0  0  0  0  0  0  0  0  0  0  0
    6.1656    9.7357   25.5535 H   0  0  0  0  0  0  0  0  0  0  0  0
   10.9715   10.7992   22.5030 H   0  0  0  0  0  0  0  0  0  0  0  0
    9.3149   10.9080   21.8799 H   0  0  0  0  0  0  0  0  0  0  0  0
    9.7221    8.6829   22.8987 H   0  0  0  0  0  0  0  0  0  0  0  0
   10.2068    9.4151   24.4290 H   0  0  0  0  0  0  0  0  0  0  0  0
   12.4535   14.6414   23.7892 H   0  0  0  0  0  0  0  0  0  0  0  0
   13.3626   13.7618   22.5395 H   0  0  0  0  0  0  0  0  0  0  0  0
   13.3011   15.5378   22.5411 H   0  0  0  0  0  0  0  0  0  0  0  0
   10.9446   14.5538   19.7432 H   0  0  0  0  0  0  0  0  0  0  0  0
   12.4142   13.6754   20.1275 H   0  0  0  0  0  0  0  0  0  0  0  0
   12.4370   15.4525   20.0964 H   0  0  0  0  0  0  0  0  0  0  0  0
    9.6569   15.7619   21.5356 H   0  0  0  0  0  0  0  0  0  0  0  0
   10.2464   15.7937   23.2115 H   0  0  0  0  0  0  0  0  0  0  0  0
   11.0634   16.7306   21.9399 H   0  0  0  0  0  0  0  0  0  0  0  0
  1  2  2  0  0  0  0
  1 12  1  0  0  0  0
  2  3  1  0  0  0  0
  2 16  1  0  0  0  0
  3 13  2  0  0  0  0
  3 14  1  0  0  0  0
  4 12  2  0  0  0  0
  4 13  1  0  0  0  0
  4 18  1  0  0  0  0
  5 14  1  0  0  0  0
  5 15  2  0  0  0  0
  5 17  1  0  0  0  0
  6  7  1  0  0  0  0
  6 14  1  0  0  0  0
  7 16  1  0  0  0  0
  8 11  1  0  0  0  0
  9 11  1  0  0  0  0
 10 11  1  0  0  0  0
 11 17  1  0  0  0  0
  1 19  1  0  0  0  0
  6 20  1  0  0  0  0
  6 21  1  0  0  0  0
  7 22  1  0  0  0  0
  7 23  1  0  0  0  0
  8 24  1  0  0  0  0
  8 25  1  0  0  0  0
  8 26  1  0  0  0  0
  9 27  1  0  0  0  0
  9 28  1  0  0  0  0
  9 29  1  0  0  0  0
 10 30  1  0  0  0  0
 10 31  1  0  0  0  0
 10 32  1  0  0  0  0
M  END
> <id>
EN300-12443248

> <smiles>
CC(C)(C)OC(=O)N1CCOC=2C=NC(Cl)=NC12

> <MDLNUMBER>
MFCD21605208

> <IUPAC Name>
tert-butyl 2-chloro-6H,7H,8H-pyrimido[5,4-b][1,4]oxazine-8-carboxylate

> <CAS>
1375302-01-4

> <URL>
https://www.enaminestore.com/catalog/EN300-12443248

> <ROCS_ShapeQuery>
A71EV2A-x0451_0A_A71EV2A-x0310_0A_A71EV2A-x0416_0A_peptide

> <ROCS_TanimotoCombo>
0.495 

> <ROCS_ShapeTanimoto>
0.343 

> <ROCS_ColorTanimoto>
0.152 

> <ROCS_RefTversky>
0.297 

> <ROCS_RefColorTversky>
0.168 

> <ROCS_RefTverskyCombo>
0.465 

> <ROCS_FitTversky>
1.812 

> <ROCS_FitColorTversky>
0.619 

> <ROCS_FitTverskyCombo>
2.431 

> <ROCS_ColorScore>
-5.105

> <ROCS_Overlap>
2061.492

> <ROCS_Rank>
169                 

$$$$
untitled-dbase-43705_3
  -OEChem-11132313473D

 38 39  0     0  0  0  0  0  0999 V2000
    6.7893   12.5897   25.8039 C   0  0  0  0  0  0  0  0  0  0  0  0
    6.3594   11.2883   26.0188 C   0  0  0  0  0  0  0  0  0  0  0  0
    7.9012   12.8391   24.9941 C   0  0  0  0  0  0  0  0  0  0  0  0
    7.0442   10.2337   25.4244 C   0  0  0  0  0  0  0  0  0  0  0  0
    8.6144   11.7889   24.3910 C   0  0  0  0  0  0  0  0  0  0  0  0
    8.1757   10.4629   24.6206 C   0  0  0  0  0  0  0  0  0  0  0  0
   10.3930   13.2587   23.3884 C   0  0  0  0  0  0  0  0  0  0  0  0
   10.1183    9.5540   23.4617 C   0  0  0  0  0  0  0  0  0  0  0  0
   10.1606   10.8634   22.6958 C   0  0  0  0  0  0  0  0  0  0  0  0
    6.5243    8.8501   25.6669 C   0  0  0  0  0  0  0  0  0  0  0  0
   12.7796   14.7548   22.8423 C   0  0  0  0  0  0  0  0  0  0  0  0
   12.0533   14.6843   20.4388 C   0  0  0  0  0  0  0  0  0  0  0  0
   10.6192   15.8416   22.1453 C   0  0  0  0  0  0  0  0  0  0  0  0
   11.5848   14.6848   21.8924 C   0  0  0  0  0  0  0  0  0  0  0  0
    8.8198    9.3685   24.0560 N   0  0  0  0  0  0  0  0  0  0  0  0
    9.7426   12.0146   23.5173 N   0  0  0  0  0  0  0  0  0  0  0  0
   10.5360   14.0977   24.2739 O   0  0  0  0  0  0  0  0  0  0  0  0
   10.8909   13.4527   22.1226 O   0  0  0  0  0  0  0  0  0  0  0  0
    6.2702   13.4178   26.2784 H   0  0  0  0  0  0  0  0  0  0  0  0
    5.4970   11.1054   26.6538 H   0  0  0  0  0  0  0  0  0  0  0  0
    8.1982   13.8768   24.8973 H   0  0  0  0  0  0  0  0  0  0  0  0
   10.3397    8.7156   22.7901 H   0  0  0  0  0  0  0  0  0  0  0  0
   10.8832    9.5521   24.2456 H   0  0  0  0  0  0  0  0  0  0  0  0
   11.1754   11.0752   22.3348 H   0  0  0  0  0  0  0  0  0  0  0  0
    9.5204   10.7650   21.8131 H   0  0  0  0  0  0  0  0  0  0  0  0
    5.7945    8.5826   24.8960 H   0  0  0  0  0  0  0  0  0  0  0  0
    7.3383    8.1171   25.6520 H   0  0  0  0  0  0  0  0  0  0  0  0
    6.0434    8.7784   26.6486 H   0  0  0  0  0  0  0  0  0  0  0  0
   12.4476   14.7553   23.8867 H   0  0  0  0  0  0  0  0  0  0  0  0
   13.4621   13.9114   22.6948 H   0  0  0  0  0  0  0  0  0  0  0  0
   13.3415   15.6844   22.6961 H   0  0  0  0  0  0  0  0  0  0  0  0
   11.1992   14.6342   19.7537 H   0  0  0  0  0  0  0  0  0  0  0  0
   12.6703   13.8034   20.2279 H   0  0  0  0  0  0  0  0  0  0  0  0
   12.6358   15.5805   20.2018 H   0  0  0  0  0  0  0  0  0  0  0  0
    9.7621   15.7916   21.4641 H   0  0  0  0  0  0  0  0  0  0  0  0
   10.2439   15.8361   23.1738 H   0  0  0  0  0  0  0  0  0  0  0  0
   11.1074   16.8048   21.9579 H   0  0  0  0  0  0  0  0  0  0  0  0
    8.3018    8.5252   23.8442 H   0  0  0  0  0  0  0  0  0  0  0  0
  1  2  1  0  0  0  0
  1  3  2  0  0  0  0
  2  4  2  0  0  0  0
  3  5  1  0  0  0  0
  4  6  1  0  0  0  0
  4 10  1  0  0  0  0
  5  6  2  0  0  0  0
  5 16  1  0  0  0  0
  6 15  1  0  0  0  0
  7 16  1  0  0  0  0
  7 17  2  0  0  0  0
  7 18  1  0  0  0  0
  8  9  1  0  0  0  0
  8 15  1  0  0  0  0
  9 16  1  0  0  0  0
 11 14  1  0  0  0  0
 12 14  1  0  0  0  0
 13 14  1  0  0  0  0
 14 18  1  0  0  0  0
  1 19  1  0  0  0  0
  2 20  1  0  0  0  0
  3 21  1  0  0  0  0
  8 22  1  0  0  0  0
  8 23  1  0  0  0  0
  9 24  1  0  0  0  0
  9 25  1  0  0  0  0
 10 26  1  0  0  0  0
 10 27  1  0  0  0  0
 10 28  1  0  0  0  0
 11 29  1  0  0  0  0
 11 30  1  0  0  0  0
 11 31  1  0  0  0  0
 12 32  1  0  0  0  0
 12 33  1  0  0  0  0
 12 34  1  0  0  0  0
 13 35  1  0  0  0  0
 13 36  1  0  0  0  0
 13 37  1  0  0  0  0
 15 38  1  0  0  0  0
M  END
> <id>
EN300-6839803

> <smiles>
CC=1C=CC=C2N(CCNC12)C(=O)OC(C)(C)C

> <MDLNUMBER>
MFCD29760848

> <IUPAC Name>
tert-butyl 5-methyl-1,2,3,4-tetrahydroquinoxaline-1-carboxylate

> <CAS>
1782846-60-9

> <Purity>
95

> <URL>
https://www.enaminestore.com/catalog/EN300-6839803

> <ROCS_ShapeQuery>
A71EV2A-x0451_0A_A71EV2A-x0310_0A_A71EV2A-x0416_0A_peptide

> <ROCS_TanimotoCombo>
0.494 

> <ROCS_ShapeTanimoto>
0.344 

> <ROCS_ColorTanimoto>
0.151 

> <ROCS_RefTversky>
0.297 

> <ROCS_RefColorTversky>
0.158 

> <ROCS_RefTverskyCombo>
0.456 

> <ROCS_FitTversky>
1.827 

> <ROCS_FitColorTversky>
0.758 

> <ROCS_FitTverskyCombo>
2.585 

> <ROCS_ColorScore>
-4.804

> <ROCS_Overlap>
2062.847

> <ROCS_Rank>
170                 

$$$$
untitled-dbase-45863_21
  -OEChem-11132313473D

 44 45  0     1  0  0  0  0  0999 V2000
    7.0049   10.3979   25.5720 C   0  0  0  0  0  0  0  0  0  0  0  0
    6.4075   11.4522   26.2636 C   0  0  0  0  0  0  0  0  0  0  0  0
    7.8350   12.9929   25.1025 C   0  0  0  0  0  0  0  0  0  0  0  0
    8.0450   10.5996   24.6344 C   0  0  0  0  0  0  0  0  0  0  0  0
    8.4520   11.9391   24.3992 C   0  0  0  0  0  0  0  0  0  0  0  0
    6.8256   12.7502   26.0306 C   0  0  0  0  0  0  0  0  0  0  0  0
   10.2193   13.3849   23.3726 C   0  0  0  0  0  0  0  0  0  0  0  0
    9.5978   11.1554   22.3973 C   0  0  0  0  0  0  0  0  0  0  0  0
    9.7422    9.7538   23.0119 C   0  0  0  0  0  0  0  0  0  0  0  0
    9.6621    8.7510   21.8418 C   0  0  0  0  0  0  0  0  0  0  0  0
   11.1053    9.6178   23.7142 C   0  0  0  0  0  0  0  0  0  0  0  0
   12.9369   13.5234   22.4678 C   0  0  0  0  0  0  0  0  0  0  0  0
   12.0124   14.7082   20.4552 C   0  0  0  0  0  0  0  0  0  0  0  0
   11.7547   15.7291   22.7354 C   0  0  0  0  0  0  0  0  0  0  0  0
    8.4127    8.1633   24.4869 C   0  0  0  0  0  0  0  0  0  0  0  0
   11.8197   14.4241   21.9432 C   0  0  0  0  0  0  0  0  0  0  0  0
    9.4569   12.2027   23.4107 N   0  0  0  0  0  0  0  0  0  0  0  0
    8.6606    9.5163   23.9887 N   0  0  3  0  0  0  0  0  0  0  0  0
   10.5710   14.0440   24.3484 O   0  0  0  0  0  0  0  0  0  0  0  0
   10.5717   13.7368   22.0933 O   0  0  0  0  0  0  0  0  0  0  0  0
    6.0491   14.1823   26.9884 Br  0  0  0  0  0  0  0  0  0  0  0  0
    6.6279    9.4009   25.7885 H   0  0  0  0  0  0  0  0  0  0  0  0
    5.6215   11.2347   26.9820 H   0  0  0  0  0  0  0  0  0  0  0  0
    8.1687   14.0187   24.9787 H   0  0  0  0  0  0  0  0  0  0  0  0
   10.4812   11.4158   21.7973 H   0  0  0  0  0  0  0  0  0  0  0  0
    8.7474   11.1632   21.7072 H   0  0  0  0  0  0  0  0  0  0  0  0
    9.7597    7.7423   22.2287 H   0  0  0  0  0  0  0  0  0  0  0  0
   10.4657    8.9540   21.1421 H   0  0  0  0  0  0  0  0  0  0  0  0
    8.7053    8.8606   21.3425 H   0  0  0  0  0  0  0  0  0  0  0  0
   11.1863    8.6245   24.1396 H   0  0  0  0  0  0  0  0  0  0  0  0
   11.1743   10.3617   24.4990 H   0  0  0  0  0  0  0  0  0  0  0  0
   11.8942    9.7735   22.9879 H   0  0  0  0  0  0  0  0  0  0  0  0
   12.8022   13.3171   23.5357 H   0  0  0  0  0  0  0  0  0  0  0  0
   12.9718   12.5697   21.9311 H   0  0  0  0  0  0  0  0  0  0  0  0
   13.9127   14.0124   22.3682 H   0  0  0  0  0  0  0  0  0  0  0  0
   11.2130   15.3542   20.0746 H   0  0  0  0  0  0  0  0  0  0  0  0
   11.9648   13.7817   19.8716 H   0  0  0  0  0  0  0  0  0  0  0  0
   12.9738   15.1934   20.2577 H   0  0  0  0  0  0  0  0  0  0  0  0
   10.9533   16.3754   22.3593 H   0  0  0  0  0  0  0  0  0  0  0  0
   11.5798   15.5461   23.8006 H   0  0  0  0  0  0  0  0  0  0  0  0
   12.6860   16.2970   22.6280 H   0  0  0  0  0  0  0  0  0  0  0  0
    8.9668    7.4384   23.8724 H   0  0  0  0  0  0  0  0  0  0  0  0
    8.7483    8.0902   25.5319 H   0  0  0  0  0  0  0  0  0  0  0  0
    7.3362    7.9437   24.4314 H   0  0  0  0  0  0  0  0  0  0  0  0
  1  2  1  0  0  0  0
  1  4  2  0  0  0  0
  2  6  2  0  0  0  0
  3  5  2  0  0  0  0
  3  6  1  0  0  0  0
  4  5  1  0  0  0  0
  4 18  1  0  0  0  0
  5 17  1  0  0  0  0
  6 21  1  0  0  0  0
  7 17  1  0  0  0  0
  7 19  2  0  0  0  0
  7 20  1  0  0  0  0
  8  9  1  0  0  0  0
  8 17  1  0  0  0  0
  9 10  1  0  0  0  0
  9 11  1  0  0  0  0
  9 18  1  0  0  0  0
 12 16  1  0  0  0  0
 13 16  1  0  0  0  0
 14 16  1  0  0  0  0
 15 18  1  0  0  0  0
 16 20  1  0  0  0  0
  1 22  1  0  0  0  0
  2 23  1  0  0  0  0
  3 24  1  0  0  0  0
  8 25  1  0  0  0  0
  8 26  1  0  0  0  0
 10 27  1  0  0  0  0
 10 28  1  0  0  0  0
 10 29  1  0  0  0  0
 11 30  1  0  0  0  0
 11 31  1  0  0  0  0
 11 32  1  0  0  0  0
 12 33  1  0  0  0  0
 12 34  1  0  0  0  0
 12 35  1  0  0  0  0
 13 36  1  0  0  0  0
 13 37  1  0  0  0  0
 13 38  1  0  0  0  0
 14 39  1  0  0  0  0
 14 40  1  0  0  0  0
 14 41  1  0  0  0  0
 15 42  1  0  0  0  0
 15 43  1  0  0  0  0
 15 44  1  0  0  0  0
M  END
> <id>
EN300-28299118

> <smiles>
CN1C=2C=CC(Br)=CC2N(CC1(C)C)C(=O)OC(C)(C)C

> <IUPAC Name>
tert-butyl 7-bromo-3,3,4-trimethyl-1,2,3,4-tetrahydroquinoxaline-1-carboxylate

> <CAS>
2680763-73-7

> <URL>
https://www.enaminestore.com/catalog/EN300-28299118

> <ROCS_ShapeQuery>
A71EV2A-x0451_0A_A71EV2A-x0310_0A_A71EV2A-x0416_0A_peptide

> <ROCS_TanimotoCombo>
0.494 

> <ROCS_ShapeTanimoto>
0.373 

> <ROCS_ColorTanimoto>
0.121 

> <ROCS_RefTversky>
0.320 

> <ROCS_RefColorTversky>
0.134 

> <ROCS_RefTverskyCombo>
0.454 

> <ROCS_FitTversky>
1.790 

> <ROCS_FitColorTversky>
0.559 

> <ROCS_FitTverskyCombo>
2.349 

> <ROCS_ColorScore>
-4.078

> <ROCS_Overlap>
2223.089

> <ROCS_Rank>
171                 

$$$$
untitled-dbase-43890_346
  -OEChem-11132313473D

 38 39  0     1  0  0  0  0  0999 V2000
   10.8130   13.0900   23.6384 C   0  0  0  0  0  0  0  0  0  0  0  0
    9.4221    9.6237   24.0845 C   0  0  0  0  0  0  0  0  0  0  0  0
    7.6538   11.0858   23.0804 C   0  0  0  0  0  0  0  0  0  0  0  0
   10.3433   10.6676   23.4419 C   0  0  0  0  0  0  0  0  0  0  0  0
    7.9440   10.0504   24.1646 C   0  0  2  0  0  0  0  0  0  0  0  0
    8.4234   12.2836   23.6413 C   0  0  1  0  0  0  0  0  0  0  0  0
    7.6585   10.8446   25.4580 C   0  0  1  0  0  0  0  0  0  0  0  0
    7.9681   12.3141   25.1114 C   0  0  2  0  0  0  0  0  0  0  0  0
   13.4167   12.9328   24.8138 C   0  0  0  0  0  0  0  0  0  0  0  0
   14.2817   12.9751   22.4559 C   0  0  0  0  0  0  0  0  0  0  0  0
   12.9890   14.9345   23.3492 C   0  0  0  0  0  0  0  0  0  0  0  0
   13.1552   13.4160   23.3880 C   0  0  0  0  0  0  0  0  0  0  0  0
    9.8806   12.0476   23.5886 N   0  0  0  0  0  0  0  0  0  0  0  0
   10.6446   14.1420   24.2518 O   0  0  0  0  0  0  0  0  0  0  0  0
    6.2921   10.6662   25.8126 O   0  0  0  0  0  0  0  0  0  0  0  0
    6.8205   13.1467   25.2196 O   0  0  0  0  0  0  0  0  0  0  0  0
   11.9447   12.8128   22.9173 O   0  0  0  0  0  0  0  0  0  0  0  0
    9.4848    8.6921   23.5014 H   0  0  0  0  0  0  0  0  0  0  0  0
    9.7948    9.3811   25.0902 H   0  0  0  0  0  0  0  0  0  0  0  0
    7.9999   10.7868   22.0878 H   0  0  0  0  0  0  0  0  0  0  0  0
    6.5831   11.3044   23.0202 H   0  0  0  0  0  0  0  0  0  0  0  0
   11.3393   10.6197   23.9081 H   0  0  0  0  0  0  0  0  0  0  0  0
   10.4925   10.4189   22.3814 H   0  0  0  0  0  0  0  0  0  0  0  0
    7.2889    9.1753   24.0672 H   0  0  0  0  0  0  0  0  0  0  0  0
    8.1614   13.2052   23.1144 H   0  0  0  0  0  0  0  0  0  0  0  0
    8.2738   10.4816   26.2882 H   0  0  0  0  0  0  0  0  0  0  0  0
    8.7455   12.7346   25.7598 H   0  0  0  0  0  0  0  0  0  0  0  0
   12.6103   13.2474   25.4859 H   0  0  0  0  0  0  0  0  0  0  0  0
   13.5031   11.8424   24.8607 H   0  0  0  0  0  0  0  0  0  0  0  0
   14.3394   13.3705   25.2119 H   0  0  0  0  0  0  0  0  0  0  0  0
   14.0981   13.3196   21.4318 H   0  0  0  0  0  0  0  0  0  0  0  0
   14.3428   11.8818   22.4075 H   0  0  0  0  0  0  0  0  0  0  0  0
   15.2519   13.3624   22.7834 H   0  0  0  0  0  0  0  0  0  0  0  0
   12.8014   15.2814   22.3266 H   0  0  0  0  0  0  0  0  0  0  0  0
   12.1609   15.2660   23.9839 H   0  0  0  0  0  0  0  0  0  0  0  0
   13.9052   15.4354   23.6823 H   0  0  0  0  0  0  0  0  0  0  0  0
    6.1611    9.7142   25.9501 H   0  0  0  0  0  0  0  0  0  0  0  0
    6.5608   13.1438   26.1548 H   0  0  0  0  0  0  0  0  0  0  0  0
  1 13  1  0  0  0  0
  1 14  2  0  0  0  0
  1 17  1  0  0  0  0
  2  4  1  0  0  0  0
  2  5  1  6  0  0  0
  3  5  1  0  0  0  0
  3  6  1  0  0  0  0
  4 13  1  0  0  0  0
  5  7  1  0  0  0  0
  6  8  1  0  0  0  0
  6 13  1  6  0  0  0
  7  8  1  0  0  0  0
  7 15  1  1  0  0  0
  8 16  1  1  0  0  0
  9 12  1  0  0  0  0
 10 12  1  0  0  0  0
 11 12  1  0  0  0  0
 12 17  1  0  0  0  0
  2 18  1  0  0  0  0
  2 19  1  0  0  0  0
  3 20  1  0  0  0  0
  3 21  1  0  0  0  0
  4 22  1  0  0  0  0
  4 23  1  0  0  0  0
  5 24  1  0  0  0  0
  6 25  1  0  0  0  0
  7 26  1  0  0  0  0
  8 27  1  0  0  0  0
  9 28  1  0  0  0  0
  9 29  1  0  0  0  0
  9 30  1  0  0  0  0
 10 31  1  0  0  0  0
 10 32  1  0  0  0  0
 10 33  1  0  0  0  0
 11 34  1  0  0  0  0
 11 35  1  0  0  0  0
 11 36  1  0  0  0  0
 15 37  1  0  0  0  0
 16 38  1  0  0  0  0
M  END
> <id>
EN300-28228728

> <smiles>
CC(C)(C)OC(=O)N1CC[C@@H]2C[C@H]1[C@@H](O)[C@H]2O |&1:10,12,13,15,r|

> <IUPAC Name>
rac-tert-butyl (1R,5S,6R,7S)-6,7-dihydroxy-2-azabicyclo[3.2.1]octane-2-carboxylate

> <CAS>
2639392-68-8

> <URL>
https://www.enaminestore.com/catalog/EN300-28228728

> <ROCS_ShapeQuery>
A71EV2A-x0451_0A_A71EV2A-x0310_0A_A71EV2A-x0416_0A_peptide

> <ROCS_TanimotoCombo>
0.494 

> <ROCS_ShapeTanimoto>
0.293 

> <ROCS_ColorTanimoto>
0.201 

> <ROCS_RefTversky>
0.262 

> <ROCS_RefColorTversky>
0.237 

> <ROCS_RefTverskyCombo>
0.499 

> <ROCS_FitTversky>
1.687 

> <ROCS_FitColorTversky>
0.567 

> <ROCS_FitTverskyCombo>
2.254 

> <ROCS_ColorScore>
-7.274

> <ROCS_Overlap>
1817.206

> <ROCS_Rank>
172                 

$$$$
untitled-dbase-34551_66
  -OEChem-11132313473D

 48 50  0     1  0  0  0  0  0999 V2000
   10.4120   13.5258   23.2230 C   0  0  0  0  0  0  0  0  0  0  0  0
   10.9549   10.4175   21.4752 C   0  0  0  0  0  0  0  0  0  0  0  0
   10.2313    9.2748   22.1707 C   0  0  0  0  0  0  0  0  0  0  0  0
    8.0472   10.9865   25.9337 C   0  0  0  0  0  0  0  0  0  0  0  0
    7.3696   12.2616   24.3276 C   0  0  0  0  0  0  0  0  0  0  0  0
   10.1690   11.7162   21.5555 C   0  0  0  0  0  0  0  0  0  0  0  0
    9.6435    9.7012   23.5122 C   0  0  1  0  0  0  0  0  0  0  0  0
    7.5592   12.4617   25.8590 C   0  0  0  0  0  0  0  0  0  0  0  0
    9.7735   11.1911   24.0100 C   0  0  2  0  0  0  0  0  0  0  0  0
    8.0939    9.9083   23.5063 C   0  0  2  0  0  0  0  0  0  0  0  0
    8.3077   11.0779   24.4351 C   0  0  0  0  0  0  0  0  0  0  0  0
    6.3134   12.8052   26.6510 C   0  0  0  0  0  0  0  0  0  0  0  0
   12.9879   13.9203   22.9195 C   0  0  0  0  0  0  0  0  0  0  0  0
   12.5299   14.8366   20.6260 C   0  0  0  0  0  0  0  0  0  0  0  0
   11.9825   16.2124   22.6547 C   0  0  0  0  0  0  0  0  0  0  0  0
   12.0624   14.7991   22.0794 C   0  0  0  0  0  0  0  0  0  0  0  0
   10.0987   12.1881   22.9385 N   0  0  0  0  0  0  0  0  0  0  0  0
    7.4792    8.7672   24.1707 N   0  0  0  0  0  0  0  0  0  0  0  0
   10.3863   14.0272   24.3449 O   0  0  0  0  0  0  0  0  0  0  0  0
   10.7504   14.2253   22.0958 O   0  0  0  0  0  0  0  0  0  0  0  0
   11.9555   10.5600   21.9172 H   0  0  0  0  0  0  0  0  0  0  0  0
   11.1178   10.1565   20.4171 H   0  0  0  0  0  0  0  0  0  0  0  0
    9.4420    8.8764   21.4931 H   0  0  0  0  0  0  0  0  0  0  0  0
   10.9289    8.4215   22.3239 H   0  0  0  0  0  0  0  0  0  0  0  0
    8.9164   10.8174   26.5699 H   0  0  0  0  0  0  0  0  0  0  0  0
    7.2599   10.2822   26.2159 H   0  0  0  0  0  0  0  0  0  0  0  0
    6.3427   11.9962   24.0447 H   0  0  0  0  0  0  0  0  0  0  0  0
    7.6733   13.1134   23.7152 H   0  0  0  0  0  0  0  0  0  0  0  0
   10.6460   12.4646   20.9422 H   0  0  0  0  0  0  0  0  0  0  0  0
    9.1565   11.5723   21.2108 H   0  0  0  0  0  0  0  0  0  0  0  0
    9.9895    8.9813   24.2968 H   0  0  0  0  0  0  0  0  0  0  0  0
    8.3619   13.1764   26.0815 H   0  0  0  0  0  0  0  0  0  0  0  0
   10.4641   11.2625   24.8278 H   0  0  0  0  0  0  0  0  0  0  0  0
    7.6489   10.1304   22.5133 H   0  0  0  0  0  0  0  0  0  0  0  0
    5.5139   12.0940   26.4300 H   0  0  0  0  0  0  0  0  0  0  0  0
    5.9656   13.8093   26.3965 H   0  0  0  0  0  0  0  0  0  0  0  0
    6.5226   12.7710   27.7230 H   0  0  0  0  0  0  0  0  0  0  0  0
   12.6557   13.8908   23.9634 H   0  0  0  0  0  0  0  0  0  0  0  0
   13.0267   12.8948   22.5378 H   0  0  0  0  0  0  0  0  0  0  0  0
   14.0068   14.3242   22.9307 H   0  0  0  0  0  0  0  0  0  0  0  0
   11.8687   15.4660   20.0196 H   0  0  0  0  0  0  0  0  0  0  0  0
   12.4982   13.8360   20.1799 H   0  0  0  0  0  0  0  0  0  0  0  0
   13.5508   15.2224   20.5399 H   0  0  0  0  0  0  0  0  0  0  0  0
   11.3186   16.8429   22.0523 H   0  0  0  0  0  0  0  0  0  0  0  0
   11.6134   16.2079   23.6855 H   0  0  0  0  0  0  0  0  0  0  0  0
   12.9661   16.6956   22.6391 H   0  0  0  0  0  0  0  0  0  0  0  0
    6.5168    8.9679   24.2979 H   0  0  0  0  0  0  0  0  0  0  0  0
    7.6009    7.9727   23.5903 H   0  0  0  0  0  0  0  0  0  0  0  0
  1 17  1  0  0  0  0
  1 19  2  0  0  0  0
  1 20  1  0  0  0  0
  2  3  1  0  0  0  0
  2  6  1  0  0  0  0
  3  7  1  0  0  0  0
  4  8  1  0  0  0  0
  4 11  1  0  0  0  0
  5  8  1  0  0  0  0
  5 11  1  0  0  0  0
  6 17  1  0  0  0  0
  7  9  1  0  0  0  0
  7 10  1  0  0  0  0
  8 12  1  0  0  0  0
  9 11  1  0  0  0  0
  9 17  1  0  0  0  0
 10 11  1  0  0  0  0
 10 18  1  0  0  0  0
 13 16  1  0  0  0  0
 14 16  1  0  0  0  0
 15 16  1  0  0  0  0
 16 20  1  0  0  0  0
  2 21  1  0  0  0  0
  2 22  1  0  0  0  0
  3 23  1  0  0  0  0
  3 24  1  0  0  0  0
  4 25  1  0  0  0  0
  4 26  1  0  0  0  0
  5 27  1  0  0  0  0
  5 28  1  0  0  0  0
  6 29  1  0  0  0  0
  6 30  1  0  0  0  0
  7 31  1  0  0  0  0
  8 32  1  0  0  0  0
  9 33  1  0  0  0  0
 10 34  1  0  0  0  0
 12 35  1  0  0  0  0
 12 36  1  0  0  0  0
 12 37  1  0  0  0  0
 13 38  1  0  0  0  0
 13 39  1  0  0  0  0
 13 40  1  0  0  0  0
 14 41  1  0  0  0  0
 14 42  1  0  0  0  0
 14 43  1  0  0  0  0
 15 44  1  0  0  0  0
 15 45  1  0  0  0  0
 15 46  1  0  0  0  0
 18 47  1  0  0  0  0
 18 48  1  0  0  0  0
M  END
> <id>
EN300-701138

> <smiles>
CC1CC2(C1)C(N)C3CCCN(C32)C(=O)OC(C)(C)C

> <IUPAC Name>
tert-butyl 8-amino-3'-methyl-5-azaspiro[bicyclo[4.2.0]octane-7,1'-cyclobutane]-5-carboxylate

> <CAS>
2137803-53-1

> <URL>
https://www.enaminestore.com/catalog/EN300-701138

> <ROCS_ShapeQuery>
A71EV2A-x0451_0A_A71EV2A-x0310_0A_A71EV2A-x0416_0A_peptide

> <ROCS_TanimotoCombo>
0.494 

> <ROCS_ShapeTanimoto>
0.340 

> <ROCS_ColorTanimoto>
0.154 

> <ROCS_RefTversky>
0.297 

> <ROCS_RefColorTversky>
0.170 

> <ROCS_RefTverskyCombo>
0.468 

> <ROCS_FitTversky>
1.717 

> <ROCS_FitColorTversky>
0.623 

> <ROCS_FitTverskyCombo>
2.340 

> <ROCS_ColorScore>
-5.184

> <ROCS_Overlap>
2064.382

> <ROCS_Rank>
173                 

$$$$
untitled-dbase-19346_4
  -OEChem-11132313473D

 36 37  0     0  0  0  0  0  0999 V2000
    5.9640   14.9143   27.5516 C   0  0  0  0  0  0  0  0  0  0  0  0
    6.3700   13.9794   26.9168 C   0  0  0  0  0  0  0  0  0  0  0  0
    6.2246   11.6323   26.2740 C   0  0  0  0  0  0  0  0  0  0  0  0
    6.6937   10.5556   25.5323 C   0  0  0  0  0  0  0  0  0  0  0  0
    7.9477   13.0295   25.3021 C   0  0  0  0  0  0  0  0  0  0  0  0
    6.8532   12.8662   26.1606 C   0  0  0  0  0  0  0  0  0  0  0  0
    8.4441   11.9581   24.5439 C   0  0  0  0  0  0  0  0  0  0  0  0
    7.7991   10.7128   24.6869 C   0  0  0  0  0  0  0  0  0  0  0  0
   10.2963   13.2525   23.4273 C   0  0  0  0  0  0  0  0  0  0  0  0
    9.7812   10.8937   22.7823 C   0  0  0  0  0  0  0  0  0  0  0  0
    9.5214    9.6253   23.5648 C   0  0  0  0  0  0  0  0  0  0  0  0
   12.7680   14.5123   22.6917 C   0  0  0  0  0  0  0  0  0  0  0  0
   11.8664   14.4951   20.3473 C   0  0  0  0  0  0  0  0  0  0  0  0
   10.6748   15.7946   22.1360 C   0  0  0  0  0  0  0  0  0  0  0  0
   11.5064   14.5497   21.8304 C   0  0  0  0  0  0  0  0  0  0  0  0
    9.5349   12.0819   23.6122 N   0  0  0  0  0  0  0  0  0  0  0  0
   10.5826   14.0810   24.2868 O   0  0  0  0  0  0  0  0  0  0  0  0
    8.1714    9.5771   24.0104 O   0  0  0  0  0  0  0  0  0  0  0  0
   10.7180   13.3904   22.1262 O   0  0  0  0  0  0  0  0  0  0  0  0
    5.6040   15.7437   28.1142 H   0  0  0  0  0  0  0  0  0  0  0  0
    5.3702   11.4951   26.9318 H   0  0  0  0  0  0  0  0  0  0  0  0
    6.2021    9.5901   25.6209 H   0  0  0  0  0  0  0  0  0  0  0  0
    8.3721   14.0245   25.2340 H   0  0  0  0  0  0  0  0  0  0  0  0
   10.8114   10.8818   22.4136 H   0  0  0  0  0  0  0  0  0  0  0  0
    9.1093   10.9685   21.9187 H   0  0  0  0  0  0  0  0  0  0  0  0
    9.6849    8.7544   22.9211 H   0  0  0  0  0  0  0  0  0  0  0  0
   10.2000    9.5261   24.4218 H   0  0  0  0  0  0  0  0  0  0  0  0
   12.5139   14.5513   23.7570 H   0  0  0  0  0  0  0  0  0  0  0  0
   13.3556   13.6070   22.5073 H   0  0  0  0  0  0  0  0  0  0  0  0
   13.4029   15.3834   22.4932 H   0  0  0  0  0  0  0  0  0  0  0  0
   10.9641   14.5216   19.7256 H   0  0  0  0  0  0  0  0  0  0  0  0
   12.3808   13.5582   20.1048 H   0  0  0  0  0  0  0  0  0  0  0  0
   12.5120   15.3303   20.0572 H   0  0  0  0  0  0  0  0  0  0  0  0
    9.7698   15.8216   21.5184 H   0  0  0  0  0  0  0  0  0  0  0  0
   10.3760   15.8316   23.1887 H   0  0  0  0  0  0  0  0  0  0  0  0
   11.2367   16.7058   21.9013 H   0  0  0  0  0  0  0  0  0  0  0  0
  1  2  3  0  0  0  0
  2  6  1  0  0  0  0
  3  4  1  0  0  0  0
  3  6  2  0  0  0  0
  4  8  2  0  0  0  0
  5  6  1  0  0  0  0
  5  7  2  0  0  0  0
  7  8  1  0  0  0  0
  7 16  1  0  0  0  0
  8 18  1  0  0  0  0
  9 16  1  0  0  0  0
  9 17  2  0  0  0  0
  9 19  1  0  0  0  0
 10 11  1  0  0  0  0
 10 16  1  0  0  0  0
 11 18  1  0  0  0  0
 12 15  1  0  0  0  0
 13 15  1  0  0  0  0
 14 15  1  0  0  0  0
 15 19  1  0  0  0  0
  1 20  1  0  0  0  0
  3 21  1  0  0  0  0
  4 22  1  0  0  0  0
  5 23  1  0  0  0  0
 10 24  1  0  0  0  0
 10 25  1  0  0  0  0
 11 26  1  0  0  0  0
 11 27  1  0  0  0  0
 12 28  1  0  0  0  0
 12 29  1  0  0  0  0
 12 30  1  0  0  0  0
 13 31  1  0  0  0  0
 13 32  1  0  0  0  0
 13 33  1  0  0  0  0
 14 34  1  0  0  0  0
 14 35  1  0  0  0  0
 14 36  1  0  0  0  0
M  END
> <id>
EN300-155326

> <smiles>
CC(C)(C)OC(=O)N1CCOC=2C=CC(C#C)=CC12

> <MDLNUMBER>
MFCD28061705

> <IUPAC Name>
tert-butyl 6-ethynyl-3,4-dihydro-2H-1,4-benzoxazine-4-carboxylate

> <CAS>
1823265-04-8

> <URL>
https://www.enaminestore.com/catalog/EN300-155326

> <ROCS_ShapeQuery>
A71EV2A-x0451_0A_A71EV2A-x0310_0A_A71EV2A-x0416_0A_peptide

> <ROCS_TanimotoCombo>
0.494 

> <ROCS_ShapeTanimoto>
0.339 

> <ROCS_ColorTanimoto>
0.154 

> <ROCS_RefTversky>
0.296 

> <ROCS_RefColorTversky>
0.166 

> <ROCS_RefTverskyCombo>
0.462 

> <ROCS_FitTversky>
1.750 

> <ROCS_FitColorTversky>
0.691 

> <ROCS_FitTverskyCombo>
2.441 

> <ROCS_ColorScore>
-5.039

> <ROCS_Overlap>
2056.244

> <ROCS_Rank>
174                 

$$$$
untitled-dbase-30794_22
  -OEChem-11132313473D

 40 41  0     1  0  0  0  0  0999 V2000
    9.9513   13.3718   23.5394 C   0  0  0  0  0  0  0  0  0  0  0  0
    6.9701   11.5813   24.5074 C   0  0  0  0  0  0  0  0  0  0  0  0
    7.9155   11.3562   25.7047 C   0  0  0  0  0  0  0  0  0  0  0  0
    8.3314   10.6130   22.5680 C   0  0  0  0  0  0  0  0  0  0  0  0
    9.9186   10.2253   24.5807 C   0  0  0  0  0  0  0  0  0  0  0  0
    7.8963   11.8862   23.3248 C   0  0  2  0  0  0  0  0  0  0  0  0
    9.3251   11.5392   25.1333 C   0  0  1  0  0  0  0  0  0  0  0  0
    9.0441    9.5709   23.4756 C   0  0  0  0  0  0  0  0  0  0  0  0
    9.8865    8.6093   22.6323 C   0  0  0  0  0  0  0  0  0  0  0  0
   12.3250   14.1082   22.1280 C   0  0  0  0  0  0  0  0  0  0  0  0
   10.8564   14.2290   20.0939 C   0  0  0  0  0  0  0  0  0  0  0  0
   10.4306   15.7627   22.0367 C   0  0  0  0  0  0  0  0  0  0  0  0
   10.9115   14.3756   21.6130 C   0  0  0  0  0  0  0  0  0  0  0  0
    9.0820   12.3983   23.9909 N   0  0  0  0  0  0  0  0  0  0  0  0
   10.5836   14.1275   24.2738 O   0  0  0  0  0  0  0  0  0  0  0  0
    8.0494    8.7718   24.1293 O   0  0  0  0  0  0  0  0  0  0  0  0
   10.0297   13.3965   22.1732 O   0  0  0  0  0  0  0  0  0  0  0  0
    6.3124   10.7251   24.3304 H   0  0  0  0  0  0  0  0  0  0  0  0
    6.3305   12.4473   24.7167 H   0  0  0  0  0  0  0  0  0  0  0  0
    7.7156   12.1198   26.4660 H   0  0  0  0  0  0  0  0  0  0  0  0
    7.7650   10.3792   26.1736 H   0  0  0  0  0  0  0  0  0  0  0  0
    7.4500   10.1591   22.0978 H   0  0  0  0  0  0  0  0  0  0  0  0
    9.0082   10.9185   21.7591 H   0  0  0  0  0  0  0  0  0  0  0  0
   10.9125   10.4526   24.1726 H   0  0  0  0  0  0  0  0  0  0  0  0
   10.0655    9.5246   25.4119 H   0  0  0  0  0  0  0  0  0  0  0  0
    7.4612   12.6142   22.6339 H   0  0  0  0  0  0  0  0  0  0  0  0
   10.0129   11.9998   25.8492 H   0  0  0  0  0  0  0  0  0  0  0  0
   10.3772    7.8884   23.2818 H   0  0  0  0  0  0  0  0  0  0  0  0
   10.6392    9.1695   22.0829 H   0  0  0  0  0  0  0  0  0  0  0  0
    9.2452    8.0827   21.9295 H   0  0  0  0  0  0  0  0  0  0  0  0
   12.3688   14.2125   23.2181 H   0  0  0  0  0  0  0  0  0  0  0  0
   12.6684   13.1035   21.8608 H   0  0  0  0  0  0  0  0  0  0  0  0
   13.0346   14.8366   21.7191 H   0  0  0  0  0  0  0  0  0  0  0  0
    9.8440   14.4200   19.7200 H   0  0  0  0  0  0  0  0  0  0  0  0
   11.1095   13.2065   19.7911 H   0  0  0  0  0  0  0  0  0  0  0  0
   11.5457   14.9187   19.5961 H   0  0  0  0  0  0  0  0  0  0  0  0
    9.4167   15.9548   21.6674 H   0  0  0  0  0  0  0  0  0  0  0  0
   10.4284   15.8735   23.1259 H   0  0  0  0  0  0  0  0  0  0  0  0
   11.0688   16.5441   21.6085 H   0  0  0  0  0  0  0  0  0  0  0  0
    7.5458    8.3415   23.4243 H   0  0  0  0  0  0  0  0  0  0  0  0
  1 14  1  0  0  0  0
  1 15  2  0  0  0  0
  1 17  1  0  0  0  0
  2  3  1  0  0  0  0
  2  6  1  0  0  0  0
  3  7  1  0  0  0  0
  4  6  1  0  0  0  0
  4  8  1  0  0  0  0
  5  7  1  0  0  0  0
  5  8  1  0  0  0  0
  6 14  1  0  0  0  0
  7 14  1  0  0  0  0
  8  9  1  0  0  0  0
  8 16  1  0  0  0  0
 10 13  1  0  0  0  0
 11 13  1  0  0  0  0
 12 13  1  0  0  0  0
 13 17  1  0  0  0  0
  2 18  1  0  0  0  0
  2 19  1  0  0  0  0
  3 20  1  0  0  0  0
  3 21  1  0  0  0  0
  4 22  1  0  0  0  0
  4 23  1  0  0  0  0
  5 24  1  0  0  0  0
  5 25  1  0  0  0  0
  6 26  1  0  0  0  0
  7 27  1  0  0  0  0
  9 28  1  0  0  0  0
  9 29  1  0  0  0  0
  9 30  1  0  0  0  0
 10 31  1  0  0  0  0
 10 32  1  0  0  0  0
 10 33  1  0  0  0  0
 11 34  1  0  0  0  0
 11 35  1  0  0  0  0
 11 36  1  0  0  0  0
 12 37  1  0  0  0  0
 12 38  1  0  0  0  0
 12 39  1  0  0  0  0
 16 40  1  0  0  0  0
M  END
> <id>
EN300-5609288

> <smiles>
CC(C)(C)OC(=O)N1C2CCC1CC(C)(O)C2

> <MDLNUMBER>
MFCD23701452

> <IUPAC Name>
tert-butyl 3-hydroxy-3-methyl-8-azabicyclo[3.2.1]octane-8-carboxylate

> <CAS>
870889-20-6

> <URL>
https://www.enaminestore.com/catalog/EN300-5609288

> <ROCS_ShapeQuery>
A71EV2A-x0451_0A_A71EV2A-x0310_0A_A71EV2A-x0416_0A_peptide

> <ROCS_TanimotoCombo>
0.494 

> <ROCS_ShapeTanimoto>
0.290 

> <ROCS_ColorTanimoto>
0.204 

> <ROCS_RefTversky>
0.259 

> <ROCS_RefColorTversky>
0.230 

> <ROCS_RefTverskyCombo>
0.489 

> <ROCS_FitTversky>
1.670 

> <ROCS_FitColorTversky>
0.645 

> <ROCS_FitTverskyCombo>
2.315 

> <ROCS_ColorScore>
-7.034

> <ROCS_Overlap>
1799.089

> <ROCS_Rank>
175                 

$$$$
untitled-dbase-43822_155
  -OEChem-11132313473D

 45 47  0     1  0  0  0  0  0999 V2000
   11.6075    8.2672   23.7793 C   0  0  0  0  0  0  0  0  0  0  0  0
    6.1396   12.3977   26.4156 C   0  0  0  0  0  0  0  0  0  0  0  0
   12.2136    9.3201   24.4547 C   0  0  0  0  0  0  0  0  0  0  0  0
    7.1804   13.3015   26.5236 C   0  0  0  0  0  0  0  0  0  0  0  0
   10.3576    8.4466   23.1861 C   0  0  0  0  0  0  0  0  0  0  0  0
    6.2400   11.3491   25.5067 C   0  0  0  0  0  0  0  0  0  0  0  0
   11.5680   10.5518   24.5398 C   0  0  0  0  0  0  0  0  0  0  0  0
    8.3133   13.1506   25.7230 C   0  0  0  0  0  0  0  0  0  0  0  0
    9.6965    9.6840   23.2593 C   0  0  0  0  0  0  0  0  0  0  0  0
    7.3783   11.1730   24.6800 C   0  0  0  0  0  0  0  0  0  0  0  0
   10.3043   10.7417   23.9526 C   0  0  0  0  0  0  0  0  0  0  0  0
    8.4442   12.0970   24.7868 C   0  0  0  0  0  0  0  0  0  0  0  0
   10.3381   13.1900   23.5832 C   0  0  0  0  0  0  0  0  0  0  0  0
    8.3497    9.9134   22.6222 C   0  0  2  0  0  0  0  0  0  0  0  0
    7.2741   10.0187   23.7025 C   0  0  1  0  0  0  0  0  0  0  0  0
   12.5153   14.5818   22.3392 C   0  0  0  0  0  0  0  0  0  0  0  0
   11.3377   14.1103   20.1712 C   0  0  0  0  0  0  0  0  0  0  0  0
   10.2221   15.5293   21.9175 C   0  0  0  0  0  0  0  0  0  0  0  0
   11.1618   14.3504   21.6690 C   0  0  0  0  0  0  0  0  0  0  0  0
    9.6794   12.0241   24.0429 N   0  0  0  0  0  0  0  0  0  0  0  0
   10.6196   14.1653   24.2782 O   0  0  0  0  0  0  0  0  0  0  0  0
    8.0092    8.8668   21.7136 O   0  0  0  0  0  0  0  0  0  0  0  0
    7.2255    8.7999   24.4540 O   0  0  0  0  0  0  0  0  0  0  0  0
   10.5719   13.1712   22.2286 O   0  0  0  0  0  0  0  0  0  0  0  0
   12.1058    7.3045   23.7135 H   0  0  0  0  0  0  0  0  0  0  0  0
    5.2530   12.5031   27.0329 H   0  0  0  0  0  0  0  0  0  0  0  0
   13.1863    9.1827   24.9176 H   0  0  0  0  0  0  0  0  0  0  0  0
    7.1238   14.1180   27.2371 H   0  0  0  0  0  0  0  0  0  0  0  0
    9.9080    7.6035   22.6683 H   0  0  0  0  0  0  0  0  0  0  0  0
    5.4032   10.6561   25.4307 H   0  0  0  0  0  0  0  0  0  0  0  0
   12.0517   11.3583   25.0864 H   0  0  0  0  0  0  0  0  0  0  0  0
    9.1241   13.8570   25.8885 H   0  0  0  0  0  0  0  0  0  0  0  0
    8.3905   10.8301   22.0205 H   0  0  0  0  0  0  0  0  0  0  0  0
    6.3038   10.1042   23.1939 H   0  0  0  0  0  0  0  0  0  0  0  0
   12.3933   14.7545   23.4145 H   0  0  0  0  0  0  0  0  0  0  0  0
   13.1865   13.7284   22.1980 H   0  0  0  0  0  0  0  0  0  0  0  0
   13.0034   15.4764   21.9359 H   0  0  0  0  0  0  0  0  0  0  0  0
   10.3691   13.9438   19.6863 H   0  0  0  0  0  0  0  0  0  0  0  0
   11.9338   13.2090   19.9877 H   0  0  0  0  0  0  0  0  0  0  0  0
   11.8296   14.9569   19.6814 H   0  0  0  0  0  0  0  0  0  0  0  0
    9.2511   15.3635   21.4369 H   0  0  0  0  0  0  0  0  0  0  0  0
   10.0548   15.6933   22.9870 H   0  0  0  0  0  0  0  0  0  0  0  0
   10.6287   16.4499   21.4835 H   0  0  0  0  0  0  0  0  0  0  0  0
    7.1381    9.0901   21.3522 H   0  0  0  0  0  0  0  0  0  0  0  0
    7.1595    8.0860   23.8041 H   0  0  0  0  0  0  0  0  0  0  0  0
  1  3  2  0  0  0  0
  1  5  1  0  0  0  0
  2  4  2  0  0  0  0
  2  6  1  0  0  0  0
  3  7  1  0  0  0  0
  4  8  1  0  0  0  0
  5  9  2  0  0  0  0
  6 10  2  0  0  0  0
  7 11  2  0  0  0  0
  8 12  2  0  0  0  0
  9 11  1  0  0  0  0
  9 14  1  0  0  0  0
 10 12  1  0  0  0  0
 10 15  1  0  0  0  0
 11 20  1  0  0  0  0
 12 20  1  0  0  0  0
 13 20  1  0  0  0  0
 13 21  2  0  0  0  0
 13 24  1  0  0  0  0
 14 15  1  0  0  0  0
 14 22  1  1  0  0  0
 15 23  1  1  0  0  0
 16 19  1  0  0  0  0
 17 19  1  0  0  0  0
 18 19  1  0  0  0  0
 19 24  1  0  0  0  0
  1 25  1  0  0  0  0
  2 26  1  0  0  0  0
  3 27  1  0  0  0  0
  4 28  1  0  0  0  0
  5 29  1  0  0  0  0
  6 30  1  0  0  0  0
  7 31  1  0  0  0  0
  8 32  1  0  0  0  0
 14 33  1  0  0  0  0
 15 34  1  0  0  0  0
 16 35  1  0  0  0  0
 16 36  1  0  0  0  0
 16 37  1  0  0  0  0
 17 38  1  0  0  0  0
 17 39  1  0  0  0  0
 17 40  1  0  0  0  0
 18 41  1  0  0  0  0
 18 42  1  0  0  0  0
 18 43  1  0  0  0  0
 22 44  1  0  0  0  0
 23 45  1  0  0  0  0
M  END
> <id>
EN300-28229644

> <smiles>
CC(C)(C)OC(=O)N1C=2C=CC=CC2[C@@H](O)[C@@H](O)C=3C=CC=CC13

> <IUPAC Name>
tert-butyl (9R,10S)-9,10-dihydroxy-2-azatricyclo[9.4.0.0,3,8]pentadeca-1(15),3,5,7,11,13-hexaene-2-carboxylate

> <CAS>
2639392-52-0

> <URL>
https://www.enaminestore.com/catalog/EN300-28229644

> <ROCS_ShapeQuery>
A71EV2A-x0451_0A_A71EV2A-x0310_0A_A71EV2A-x0416_0A_peptide

> <ROCS_TanimotoCombo>
0.494 

> <ROCS_ShapeTanimoto>
0.360 

> <ROCS_ColorTanimoto>
0.133 

> <ROCS_RefTversky>
0.318 

> <ROCS_RefColorTversky>
0.157 

> <ROCS_RefTverskyCombo>
0.475 

> <ROCS_FitTversky>
1.573 

> <ROCS_FitColorTversky>
0.472 

> <ROCS_FitTverskyCombo>
2.046 

> <ROCS_ColorScore>
-4.789

> <ROCS_Overlap>
2213.182

> <ROCS_Rank>
176                 

$$$$
untitled-dbase-24830_5
  -OEChem-11132313473D

 33 34  0     0  0  0  0  0  0999 V2000
    7.9524   12.9892   25.2618 C   0  0  0  0  0  0  0  0  0  0  0  0
    6.7253   10.5645   25.4540 C   0  0  0  0  0  0  0  0  0  0  0  0
    8.4723   11.9336   24.5066 C   0  0  0  0  0  0  0  0  0  0  0  0
    7.8364   10.6877   24.6278 C   0  0  0  0  0  0  0  0  0  0  0  0
    6.8451   12.7595   26.0722 C   0  0  0  0  0  0  0  0  0  0  0  0
   10.3252   13.2514   23.4242 C   0  0  0  0  0  0  0  0  0  0  0  0
    9.8574   10.8823   22.7753 C   0  0  0  0  0  0  0  0  0  0  0  0
    9.5789    9.6082   23.5444 C   0  0  0  0  0  0  0  0  0  0  0  0
   12.7850   14.5535   22.7232 C   0  0  0  0  0  0  0  0  0  0  0  0
   11.9182   14.5183   20.3660 C   0  0  0  0  0  0  0  0  0  0  0  0
   10.6780   15.7985   22.1356 C   0  0  0  0  0  0  0  0  0  0  0  0
   11.5357   14.5680   21.8436 C   0  0  0  0  0  0  0  0  0  0  0  0
    6.2150   11.5736   26.1858 N   0  0  0  0  0  0  0  0  0  0  0  0
    9.5801   12.0691   23.5987 N   0  0  0  0  0  0  0  0  0  0  0  0
   10.5840   14.0853   24.2871 O   0  0  0  0  0  0  0  0  0  0  0  0
    8.2193    9.5554   23.9628 O   0  0  0  0  0  0  0  0  0  0  0  0
   10.7633   13.3954   22.1292 O   0  0  0  0  0  0  0  0  0  0  0  0
    6.1666   14.2007   27.1116 Br  0  0  0  0  0  0  0  0  0  0  0  0
    8.3908   13.9779   25.2631 H   0  0  0  0  0  0  0  0  0  0  0  0
    6.1948    9.6215   25.5448 H   0  0  0  0  0  0  0  0  0  0  0  0
   10.9134   10.9424   22.4848 H   0  0  0  0  0  0  0  0  0  0  0  0
    9.2521   10.8905   21.8638 H   0  0  0  0  0  0  0  0  0  0  0  0
    9.8206    8.7144   22.9550 H   0  0  0  0  0  0  0  0  0  0  0  0
   10.2003    9.5784   24.4457 H   0  0  0  0  0  0  0  0  0  0  0  0
   12.5146   14.5890   23.7847 H   0  0  0  0  0  0  0  0  0  0  0  0
   13.3909   13.6585   22.5485 H   0  0  0  0  0  0  0  0  0  0  0  0
   13.4074   15.4354   22.5331 H   0  0  0  0  0  0  0  0  0  0  0  0
   11.0248   14.5286   19.7311 H   0  0  0  0  0  0  0  0  0  0  0  0
   12.4524   13.5904   20.1321 H   0  0  0  0  0  0  0  0  0  0  0  0
   12.5533   15.3644   20.0844 H   0  0  0  0  0  0  0  0  0  0  0  0
    9.7818   15.8091   21.5047 H   0  0  0  0  0  0  0  0  0  0  0  0
   10.3633   15.8312   23.1837 H   0  0  0  0  0  0  0  0  0  0  0  0
   11.2273   16.7192   21.9080 H   0  0  0  0  0  0  0  0  0  0  0  0
  1  3  2  0  0  0  0
  1  5  1  0  0  0  0
  2  4  2  0  0  0  0
  2 13  1  0  0  0  0
  3  4  1  0  0  0  0
  3 14  1  0  0  0  0
  4 16  1  0  0  0  0
  5 13  2  0  0  0  0
  5 18  1  0  0  0  0
  6 14  1  0  0  0  0
  6 15  2  0  0  0  0
  6 17  1  0  0  0  0
  7  8  1  0  0  0  0
  7 14  1  0  0  0  0
  8 16  1  0  0  0  0
  9 12  1  0  0  0  0
 10 12  1  0  0  0  0
 11 12  1  0  0  0  0
 12 17  1  0  0  0  0
  1 19  1  0  0  0  0
  2 20  1  0  0  0  0
  7 21  1  0  0  0  0
  7 22  1  0  0  0  0
  8 23  1  0  0  0  0
  8 24  1  0  0  0  0
  9 25  1  0  0  0  0
  9 26  1  0  0  0  0
  9 27  1  0  0  0  0
 10 28  1  0  0  0  0
 10 29  1  0  0  0  0
 10 30  1  0  0  0  0
 11 31  1  0  0  0  0
 11 32  1  0  0  0  0
 11 33  1  0  0  0  0
M  END
> <id>
EN300-6487987

> <smiles>
CC(C)(C)OC(=O)N1CCOC=2C=NC(Br)=CC12

> <MDLNUMBER>
MFCD20502329

> <IUPAC Name>
tert-butyl 7-bromo-1H,2H,3H-pyrido[3,4-b][1,4]oxazine-1-carboxylate

> <CAS>
1350738-76-9

> <Purity>
95

> <URL>
https://www.enaminestore.com/catalog/EN300-6487987

> <ROCS_ShapeQuery>
A71EV2A-x0451_0A_A71EV2A-x0310_0A_A71EV2A-x0416_0A_peptide

> <ROCS_TanimotoCombo>
0.493 

> <ROCS_ShapeTanimoto>
0.341 

> <ROCS_ColorTanimoto>
0.152 

> <ROCS_RefTversky>
0.296 

> <ROCS_RefColorTversky>
0.168 

> <ROCS_RefTverskyCombo>
0.464 

> <ROCS_FitTversky>
1.821 

> <ROCS_FitColorTversky>
0.621 

> <ROCS_FitTverskyCombo>
2.442 

> <ROCS_ColorScore>
-5.117

> <ROCS_Overlap>
2050.745

> <ROCS_Rank>
177                 

$$$$
untitled-dbase-45639_228
  -OEChem-11132313473D

 53 54  0     1  0  0  0  0  0999 V2000
    7.0299   10.3742   25.5829 C   0  0  0  0  0  0  0  0  0  0  0  0
    6.4419   11.4223   26.2932 C   0  0  0  0  0  0  0  0  0  0  0  0
    7.8116   12.9843   25.0934 C   0  0  0  0  0  0  0  0  0  0  0  0
    8.0144   10.6023   24.6013 C   0  0  0  0  0  0  0  0  0  0  0  0
    8.4458   11.9413   24.3897 C   0  0  0  0  0  0  0  0  0  0  0  0
    6.8213   12.7278   26.0380 C   0  0  0  0  0  0  0  0  0  0  0  0
   10.2564   13.3921   23.3595 C   0  0  0  0  0  0  0  0  0  0  0  0
    8.0995    8.1864   23.8718 C   0  0  0  0  0  0  0  0  0  0  0  0
    9.6829   11.1979   22.4183 C   0  0  0  0  0  0  0  0  0  0  0  0
    9.8045    9.8226   23.0560 C   0  0  1  0  0  0  0  0  0  0  0  0
   11.0814    9.6743   23.8908 C   0  0  0  0  0  0  0  0  0  0  0  0
   12.9493   13.7041   22.4322 C   0  0  0  0  0  0  0  0  0  0  0  0
   11.9337   14.8542   20.4435 C   0  0  0  0  0  0  0  0  0  0  0  0
   11.6388   15.8309   22.7385 C   0  0  0  0  0  0  0  0  0  0  0  0
    6.3208    6.2151   22.7801 C   0  0  0  0  0  0  0  0  0  0  0  0
    8.1927    5.6698   21.1965 C   0  0  0  0  0  0  0  0  0  0  0  0
    8.5101    5.3462   23.6668 C   0  0  0  0  0  0  0  0  0  0  0  0
   11.7742   14.5416   21.9298 C   0  0  0  0  0  0  0  0  0  0  0  0
    7.8363    6.1914   22.5868 C   0  0  0  0  0  0  0  0  0  0  0  0
    9.4680   12.2275   23.4239 N   0  0  0  0  0  0  0  0  0  0  0  0
    8.6075    9.5068   23.8605 N   0  0  0  0  0  0  0  0  0  0  0  0
   10.5753   14.0555   24.3465 O   0  0  0  0  0  0  0  0  0  0  0  0
    7.5024    7.6422   24.7965 O   0  0  0  0  0  0  0  0  0  0  0  0
   10.5717   13.7783   22.0837 O   0  0  0  0  0  0  0  0  0  0  0  0
    8.3293    7.5333   22.6839 O   0  0  0  0  0  0  0  0  0  0  0  0
    5.9981   14.1519   26.9677 Br  0  0  0  0  0  0  0  0  0  0  0  0
    6.7094    9.3780   25.8657 H   0  0  0  0  0  0  0  0  0  0  0  0
    5.6896   11.1928   27.0443 H   0  0  0  0  0  0  0  0  0  0  0  0
    8.0427   14.0235   24.8895 H   0  0  0  0  0  0  0  0  0  0  0  0
   10.5811   11.3932   21.8294 H   0  0  0  0  0  0  0  0  0  0  0  0
    8.8332   11.2302   21.7288 H   0  0  0  0  0  0  0  0  0  0  0  0
    9.8734    9.1074   22.2290 H   0  0  0  0  0  0  0  0  0  0  0  0
   11.0533   10.3698   24.7258 H   0  0  0  0  0  0  0  0  0  0  0  0
   11.9483    9.8896   23.2713 H   0  0  0  0  0  0  0  0  0  0  0  0
   11.1523    8.6580   24.2701 H   0  0  0  0  0  0  0  0  0  0  0  0
   12.8386   13.4776   23.4987 H   0  0  0  0  0  0  0  0  0  0  0  0
   13.0361   12.7606   21.8835 H   0  0  0  0  0  0  0  0  0  0  0  0
   13.8927   14.2525   22.3290 H   0  0  0  0  0  0  0  0  0  0  0  0
   11.0927   15.4549   20.0787 H   0  0  0  0  0  0  0  0  0  0  0  0
   11.9360   13.9334   19.8490 H   0  0  0  0  0  0  0  0  0  0  0  0
   12.8618   15.3990   20.2425 H   0  0  0  0  0  0  0  0  0  0  0  0
   10.7959   16.4318   22.3783 H   0  0  0  0  0  0  0  0  0  0  0  0
   11.4866   15.6252   23.8030 H   0  0  0  0  0  0  0  0  0  0  0  0
   12.5329   16.4553   22.6289 H   0  0  0  0  0  0  0  0  0  0  0  0
    6.0608    6.5889   23.7769 H   0  0  0  0  0  0  0  0  0  0  0  0
    5.8286    6.8461   22.0328 H   0  0  0  0  0  0  0  0  0  0  0  0
    5.9018    5.2047   22.7099 H   0  0  0  0  0  0  0  0  0  0  0  0
    9.2792    5.6511   21.0534 H   0  0  0  0  0  0  0  0  0  0  0  0
    7.7902    6.3276   20.4178 H   0  0  0  0  0  0  0  0  0  0  0  0
    7.8040    4.6596   21.0320 H   0  0  0  0  0  0  0  0  0  0  0  0
    9.5972    5.3291   23.5284 H   0  0  0  0  0  0  0  0  0  0  0  0
    8.2955    5.7281   24.6702 H   0  0  0  0  0  0  0  0  0  0  0  0
    8.1750    4.3042   23.6118 H   0  0  0  0  0  0  0  0  0  0  0  0
  1  2  1  0  0  0  0
  1  4  2  0  0  0  0
  2  6  2  0  0  0  0
  3  5  2  0  0  0  0
  3  6  1  0  0  0  0
  4  5  1  0  0  0  0
  4 21  1  0  0  0  0
  5 20  1  0  0  0  0
  6 26  1  0  0  0  0
  7 20  1  0  0  0  0
  7 22  2  0  0  0  0
  7 24  1  0  0  0  0
  8 21  1  0  0  0  0
  8 23  2  0  0  0  0
  8 25  1  0  0  0  0
  9 10  1  0  0  0  0
  9 20  1  0  0  0  0
 10 11  1  6  0  0  0
 10 21  1  0  0  0  0
 12 18  1  0  0  0  0
 13 18  1  0  0  0  0
 14 18  1  0  0  0  0
 15 19  1  0  0  0  0
 16 19  1  0  0  0  0
 17 19  1  0  0  0  0
 18 24  1  0  0  0  0
 19 25  1  0  0  0  0
  1 27  1  0  0  0  0
  2 28  1  0  0  0  0
  3 29  1  0  0  0  0
  9 30  1  0  0  0  0
  9 31  1  0  0  0  0
 10 32  1  0  0  0  0
 11 33  1  0  0  0  0
 11 34  1  0  0  0  0
 11 35  1  0  0  0  0
 12 36  1  0  0  0  0
 12 37  1  0  0  0  0
 12 38  1  0  0  0  0
 13 39  1  0  0  0  0
 13 40  1  0  0  0  0
 13 41  1  0  0  0  0
 14 42  1  0  0  0  0
 14 43  1  0  0  0  0
 14 44  1  0  0  0  0
 15 45  1  0  0  0  0
 15 46  1  0  0  0  0
 15 47  1  0  0  0  0
 16 48  1  0  0  0  0
 16 49  1  0  0  0  0
 16 50  1  0  0  0  0
 17 51  1  0  0  0  0
 17 52  1  0  0  0  0
 17 53  1  0  0  0  0
M  END
> <id>
EN300-28304093

> <smiles>
C[C@@H]1CN(C(=O)OC(C)(C)C)C=2C=C(Br)C=CC2N1C(=O)OC(C)(C)C

> <IUPAC Name>
1,4-di-tert-butyl (2R)-6-bromo-2-methyl-1,2,3,4-tetrahydroquinoxaline-1,4-dicarboxylate

> <CAS>
2679825-84-2

> <URL>
https://www.enaminestore.com/catalog/EN300-28304093

> <ROCS_ShapeQuery>
A71EV2A-x0451_0A_A71EV2A-x0310_0A_A71EV2A-x0416_0A_peptide

> <ROCS_TanimotoCombo>
0.493 

> <ROCS_ShapeTanimoto>
0.375 

> <ROCS_ColorTanimoto>
0.118 

> <ROCS_RefTversky>
0.330 

> <ROCS_RefColorTversky>
0.134 

> <ROCS_RefTverskyCombo>
0.464 

> <ROCS_FitTversky>
1.574 

> <ROCS_FitColorTversky>
0.497 

> <ROCS_FitTverskyCombo>
2.071 

> <ROCS_ColorScore>
-4.095

> <ROCS_Overlap>
2294.705

> <ROCS_Rank>
178                 

$$$$
untitled-dbase-47800_10
  -OEChem-11132313473D

 33 34  0     0  0  0  0  0  0999 V2000
    7.0093   10.3213   25.3105 C   0  0  0  0  0  0  0  0  0  0  0  0
    7.0237   12.6552   25.6822 C   0  0  0  0  0  0  0  0  0  0  0  0
    8.1893   10.4651   24.5755 C   0  0  0  0  0  0  0  0  0  0  0  0
    6.4101   11.4353   25.8775 C   0  0  0  0  0  0  0  0  0  0  0  0
    8.7503   11.7287   24.4211 C   0  0  0  0  0  0  0  0  0  0  0  0
    9.9215    9.3462   23.2783 C   0  0  0  0  0  0  0  0  0  0  0  0
   10.5542   13.1415   23.4915 C   0  0  0  0  0  0  0  0  0  0  0  0
   10.5754   10.6921   23.0790 C   0  0  0  0  0  0  0  0  0  0  0  0
   12.0032   15.4741   22.6706 C   0  0  0  0  0  0  0  0  0  0  0  0
   12.1048   14.3905   20.4069 C   0  0  0  0  0  0  0  0  0  0  0  0
    9.8810   14.9965   21.4046 C   0  0  0  0  0  0  0  0  0  0  0  0
   11.3036   14.5236   21.7001 C   0  0  0  0  0  0  0  0  0  0  0  0
    8.1649   12.8217   24.9757 N   0  0  0  0  0  0  0  0  0  0  0  0
    8.7697    9.3249   24.0159 N   0  0  0  0  0  0  0  0  0  0  0  0
    9.9574   11.8759   23.6689 N   0  0  0  0  0  0  0  0  0  0  0  0
   10.4186    8.3293   22.7916 O   0  0  0  0  0  0  0  0  0  0  0  0
   10.4941   14.0812   24.2814 O   0  0  0  0  0  0  0  0  0  0  0  0
   11.2368   13.2254   22.3020 O   0  0  0  0  0  0  0  0  0  0  0  0
    4.8210   11.2892   26.8751 Br  0  0  0  0  0  0  0  0  0  0  0  0
    6.5638    9.3368   25.4363 H   0  0  0  0  0  0  0  0  0  0  0  0
    6.6147   13.5723   26.0949 H   0  0  0  0  0  0  0  0  0  0  0  0
   11.5960   10.6216   23.4753 H   0  0  0  0  0  0  0  0  0  0  0  0
   10.6485   10.8630   21.9978 H   0  0  0  0  0  0  0  0  0  0  0  0
   11.4311   15.5723   23.6002 H   0  0  0  0  0  0  0  0  0  0  0  0
   13.0119   15.1275   22.9180 H   0  0  0  0  0  0  0  0  0  0  0  0
   12.0778   16.4816   22.2457 H   0  0  0  0  0  0  0  0  0  0  0  0
   11.6065   13.7094   19.7076 H   0  0  0  0  0  0  0  0  0  0  0  0
   13.0942   13.9618   20.6031 H   0  0  0  0  0  0  0  0  0  0  0  0
   12.2381   15.3582   19.9127 H   0  0  0  0  0  0  0  0  0  0  0  0
    9.3790   14.3149   20.7084 H   0  0  0  0  0  0  0  0  0  0  0  0
    9.2801   15.0625   22.3174 H   0  0  0  0  0  0  0  0  0  0  0  0
    9.8899   15.9804   20.9216 H   0  0  0  0  0  0  0  0  0  0  0  0
    8.3113    8.4303   24.1647 H   0  0  0  0  0  0  0  0  0  0  0  0
  1  3  2  0  0  0  0
  1  4  1  0  0  0  0
  2  4  2  0  0  0  0
  2 13  1  0  0  0  0
  3  5  1  0  0  0  0
  3 14  1  0  0  0  0
  4 19  1  0  0  0  0
  5 13  2  0  0  0  0
  5 15  1  0  0  0  0
  6  8  1  0  0  0  0
  6 14  1  0  0  0  0
  6 16  2  0  0  0  0
  7 15  1  0  0  0  0
  7 17  2  0  0  0  0
  7 18  1  0  0  0  0
  8 15  1  0  0  0  0
  9 12  1  0  0  0  0
 10 12  1  0  0  0  0
 11 12  1  0  0  0  0
 12 18  1  0  0  0  0
  1 20  1  0  0  0  0
  2 21  1  0  0  0  0
  8 22  1  0  0  0  0
  8 23  1  0  0  0  0
  9 24  1  0  0  0  0
  9 25  1  0  0  0  0
  9 26  1  0  0  0  0
 10 27  1  0  0  0  0
 10 28  1  0  0  0  0
 10 29  1  0  0  0  0
 11 30  1  0  0  0  0
 11 31  1  0  0  0  0
 11 32  1  0  0  0  0
 14 33  1  0  0  0  0
M  END
> <id>
EN300-33050457

> <smiles>
CC(C)(C)OC(=O)N1CC(=O)NC=2C=C(Br)C=NC12

> <IUPAC Name>
tert-butyl 7-bromo-2-oxo-1H,2H,3H,4H-pyrido[2,3-b]pyrazine-4-carboxylate

> <CAS>
709652-85-7

> <URL>
https://www.enaminestore.com/catalog/EN300-33050457

> <ROCS_ShapeQuery>
A71EV2A-x0451_0A_A71EV2A-x0310_0A_A71EV2A-x0416_0A_peptide

> <ROCS_TanimotoCombo>
0.493 

> <ROCS_ShapeTanimoto>
0.361 

> <ROCS_ColorTanimoto>
0.133 

> <ROCS_RefTversky>
0.310 

> <ROCS_RefColorTversky>
0.152 

> <ROCS_RefTverskyCombo>
0.462 

> <ROCS_FitTversky>
1.831 

> <ROCS_FitColorTversky>
0.506 

> <ROCS_FitTverskyCombo>
2.337 

> <ROCS_ColorScore>
-4.653

> <ROCS_Overlap>
2150.521

> <ROCS_Rank>
179                 

$$$$
untitled-dbase-11453_176
  -OEChem-11132313473D

 49 51  0     1  0  0  0  0  0999 V2000
    6.6187   11.5216   26.5226 C   0  0  0  0  0  0  0  0  0  0  0  0
    6.6764   12.8030   25.9844 C   0  0  0  0  0  0  0  0  0  0  0  0
    7.3320   10.4800   25.9259 C   0  0  0  0  0  0  0  0  0  0  0  0
    7.4595   13.0459   24.8591 C   0  0  0  0  0  0  0  0  0  0  0  0
    8.1046   10.7008   24.7733 C   0  0  0  0  0  0  0  0  0  0  0  0
    8.1847   12.0060   24.2671 C   0  0  0  0  0  0  0  0  0  0  0  0
   11.5655   15.0919   22.2853 C   0  0  0  0  0  0  0  0  0  0  0  0
   10.2882   11.8265   21.2816 C   0  0  0  0  0  0  0  0  0  0  0  0
   11.2088   11.5767   23.6158 C   0  0  0  0  0  0  0  0  0  0  0  0
    9.3658   10.0014   22.7392 C   0  0  0  0  0  0  0  0  0  0  0  0
   11.4369   12.8347   21.1619 C   0  0  0  0  0  0  0  0  0  0  0  0
   11.7207   13.0204   23.6197 C   0  0  0  0  0  0  0  0  0  0  0  0
    8.8834    9.5769   24.1303 C   0  0  2  0  0  0  0  0  0  0  0  0
    9.9451   11.4255   22.7423 C   0  0  0  0  0  0  0  0  0  0  0  0
   13.8474   15.9086   21.2812 C   0  0  0  0  0  0  0  0  0  0  0  0
   12.7158   16.1859   19.0559 C   0  0  0  0  0  0  0  0  0  0  0  0
   12.2822   17.8412   20.8943 C   0  0  0  0  0  0  0  0  0  0  0  0
   12.5826   16.3797   20.5648 C   0  0  0  0  0  0  0  0  0  0  0  0
   11.5390   13.6951   22.3370 N   0  0  0  0  0  0  0  0  0  0  0  0
    8.1096    8.3396   23.9802 N   0  0  0  0  0  0  0  0  0  0  0  0
   11.6516   15.8155   23.2761 O   0  0  0  0  0  0  0  0  0  0  0  0
    8.9422   12.3653   23.1839 O   0  0  0  0  0  0  0  0  0  0  0  0
   11.4823   15.5770   21.0075 O   0  0  0  0  0  0  0  0  0  0  0  0
    6.0198   11.3305   27.4083 H   0  0  0  0  0  0  0  0  0  0  0  0
    6.1206   13.6136   26.4462 H   0  0  0  0  0  0  0  0  0  0  0  0
    7.2753    9.4922   26.3759 H   0  0  0  0  0  0  0  0  0  0  0  0
    7.5121   14.0530   24.4532 H   0  0  0  0  0  0  0  0  0  0  0  0
    9.3999   12.2690   20.8011 H   0  0  0  0  0  0  0  0  0  0  0  0
   10.5449   10.9262   20.6980 H   0  0  0  0  0  0  0  0  0  0  0  0
   11.9996   10.9182   23.2448 H   0  0  0  0  0  0  0  0  0  0  0  0
   11.0084   11.2999   24.6531 H   0  0  0  0  0  0  0  0  0  0  0  0
   10.1057    9.2824   22.3609 H   0  0  0  0  0  0  0  0  0  0  0  0
    8.5140    9.9755   22.0410 H   0  0  0  0  0  0  0  0  0  0  0  0
   12.3738   12.2911   20.9791 H   0  0  0  0  0  0  0  0  0  0  0  0
   11.2836   13.4909   20.2914 H   0  0  0  0  0  0  0  0  0  0  0  0
   11.1865   13.6167   24.3788 H   0  0  0  0  0  0  0  0  0  0  0  0
   12.7831   13.0307   23.9129 H   0  0  0  0  0  0  0  0  0  0  0  0
    9.7529    9.3616   24.7645 H   0  0  0  0  0  0  0  0  0  0  0  0
   13.7558   16.0461   22.3645 H   0  0  0  0  0  0  0  0  0  0  0  0
   14.0546   14.8523   21.0810 H   0  0  0  0  0  0  0  0  0  0  0  0
   14.7169   16.4974   20.9673 H   0  0  0  0  0  0  0  0  0  0  0  0
   11.8106   16.5226   18.5378 H   0  0  0  0  0  0  0  0  0  0  0  0
   12.8369   15.1252   18.8078 H   0  0  0  0  0  0  0  0  0  0  0  0
   13.5716   16.7363   18.6518 H   0  0  0  0  0  0  0  0  0  0  0  0
   11.3750   18.1794   20.3806 H   0  0  0  0  0  0  0  0  0  0  0  0
   12.1468   17.9925   21.9702 H   0  0  0  0  0  0  0  0  0  0  0  0
   13.0935   18.4930   20.5504 H   0  0  0  0  0  0  0  0  0  0  0  0
    8.6968    7.6630   23.5574 H   0  0  0  0  0  0  0  0  0  0  0  0
    7.8245    8.0483   24.8829 H   0  0  0  0  0  0  0  0  0  0  0  0
  1  2  2  0  0  0  0
  1  3  1  0  0  0  0
  2  4  1  0  0  0  0
  3  5  2  0  0  0  0
  4  6  2  0  0  0  0
  5  6  1  0  0  0  0
  5 13  1  0  0  0  0
  6 22  1  0  0  0  0
  7 19  1  0  0  0  0
  7 21  2  0  0  0  0
  7 23  1  0  0  0  0
  8 11  1  0  0  0  0
  8 14  1  0  0  0  0
  9 12  1  0  0  0  0
  9 14  1  0  0  0  0
 10 13  1  0  0  0  0
 10 14  1  0  0  0  0
 11 19  1  0  0  0  0
 12 19  1  0  0  0  0
 13 20  1  0  0  0  0
 14 22  1  0  0  0  0
 15 18  1  0  0  0  0
 16 18  1  0  0  0  0
 17 18  1  0  0  0  0
 18 23  1  0  0  0  0
  1 24  1  0  0  0  0
  2 25  1  0  0  0  0
  3 26  1  0  0  0  0
  4 27  1  0  0  0  0
  8 28  1  0  0  0  0
  8 29  1  0  0  0  0
  9 30  1  0  0  0  0
  9 31  1  0  0  0  0
 10 32  1  0  0  0  0
 10 33  1  0  0  0  0
 11 34  1  0  0  0  0
 11 35  1  0  0  0  0
 12 36  1  0  0  0  0
 12 37  1  0  0  0  0
 13 38  1  0  0  0  0
 15 39  1  0  0  0  0
 15 40  1  0  0  0  0
 15 41  1  0  0  0  0
 16 42  1  0  0  0  0
 16 43  1  0  0  0  0
 16 44  1  0  0  0  0
 17 45  1  0  0  0  0
 17 46  1  0  0  0  0
 17 47  1  0  0  0  0
 20 48  1  0  0  0  0
 20 49  1  0  0  0  0
M  END
> <id>
EN300-386157

> <smiles>
CC(C)(C)OC(=O)N1CCC2(CC1)CC(N)C=3C=CC=CC3O2

> <MDLNUMBER>
MFCD12198634

> <IUPAC Name>
tert-butyl 4-amino-3,4-dihydrospiro[1-benzopyran-2,4'-piperidine]-1'-carboxylate

> <CAS>
1160247-73-3

> <Purity>
95

> <URL>
https://www.enaminestore.com/catalog/EN300-386157

> <ROCS_ShapeQuery>
A71EV2A-x0451_0A_A71EV2A-x0310_0A_A71EV2A-x0416_0A_peptide

> <ROCS_TanimotoCombo>
0.493 

> <ROCS_ShapeTanimoto>
0.358 

> <ROCS_ColorTanimoto>
0.135 

> <ROCS_RefTversky>
0.315 

> <ROCS_RefColorTversky>
0.155 

> <ROCS_RefTverskyCombo>
0.470 

> <ROCS_FitTversky>
1.624 

> <ROCS_FitColorTversky>
0.515 

> <ROCS_FitTverskyCombo>
2.140 

> <ROCS_ColorScore>
-4.735

> <ROCS_Overlap>
2186.150

> <ROCS_Rank>
180                 

$$$$
untitled-dbase-45022_3
  -OEChem-11132313473D

 33 34  0     0  0  0  0  0  0999 V2000
    6.7045   10.6587   25.5225 C   0  0  0  0  0  0  0  0  0  0  0  0
    7.0687   12.9257   26.0954 C   0  0  0  0  0  0  0  0  0  0  0  0
    7.8111   10.7303   24.6767 C   0  0  0  0  0  0  0  0  0  0  0  0
    6.3227   11.7743   26.2520 C   0  0  0  0  0  0  0  0  0  0  0  0
    8.5004   11.9391   24.5516 C   0  0  0  0  0  0  0  0  0  0  0  0
   10.3002   13.2210   23.4294 C   0  0  0  0  0  0  0  0  0  0  0  0
    9.8454   10.8286   22.8155 C   0  0  0  0  0  0  0  0  0  0  0  0
    9.4957    9.5703   23.5828 C   0  0  0  0  0  0  0  0  0  0  0  0
   12.7002   14.5929   22.6756 C   0  0  0  0  0  0  0  0  0  0  0  0
   11.7761   14.5436   20.3405 C   0  0  0  0  0  0  0  0  0  0  0  0
   10.5441   15.7788   22.1473 C   0  0  0  0  0  0  0  0  0  0  0  0
   11.4294   14.5752   21.8274 C   0  0  0  0  0  0  0  0  0  0  0  0
    8.1348   13.0310   25.2696 N   0  0  0  0  0  0  0  0  0  0  0  0
    9.5884   12.0257   23.6217 N   0  0  0  0  0  0  0  0  0  0  0  0
   10.5505   14.0518   24.3001 O   0  0  0  0  0  0  0  0  0  0  0  0
    8.1317    9.5870   23.9962 O   0  0  0  0  0  0  0  0  0  0  0  0
   10.6989   13.3797   22.1257 O   0  0  0  0  0  0  0  0  0  0  0  0
    4.8450   11.7188   27.4159 Br  0  0  0  0  0  0  0  0  0  0  0  0
    6.1551    9.7244   25.6125 H   0  0  0  0  0  0  0  0  0  0  0  0
    6.8314   13.8363   26.6374 H   0  0  0  0  0  0  0  0  0  0  0  0
   10.8945   10.7927   22.5056 H   0  0  0  0  0  0  0  0  0  0  0  0
    9.2272   10.9204   21.9143 H   0  0  0  0  0  0  0  0  0  0  0  0
    9.6321    8.6956   22.9380 H   0  0  0  0  0  0  0  0  0  0  0  0
   10.1452    9.4328   24.4570 H   0  0  0  0  0  0  0  0  0  0  0  0
   12.4557   14.6156   23.7436 H   0  0  0  0  0  0  0  0  0  0  0  0
   13.3273   13.7167   22.4810 H   0  0  0  0  0  0  0  0  0  0  0  0
   13.2919   15.4934   22.4747 H   0  0  0  0  0  0  0  0  0  0  0  0
   10.8672   14.5309   19.7281 H   0  0  0  0  0  0  0  0  0  0  0  0
   12.3309   13.6327   20.0883 H   0  0  0  0  0  0  0  0  0  0  0  0
   12.3792   15.4092   20.0477 H   0  0  0  0  0  0  0  0  0  0  0  0
    9.6324   15.7664   21.5390 H   0  0  0  0  0  0  0  0  0  0  0  0
   10.2548   15.7975   23.2030 H   0  0  0  0  0  0  0  0  0  0  0  0
   11.0606   16.7162   21.9110 H   0  0  0  0  0  0  0  0  0  0  0  0
  1  3  2  0  0  0  0
  1  4  1  0  0  0  0
  2  4  2  0  0  0  0
  2 13  1  0  0  0  0
  3  5  1  0  0  0  0
  3 16  1  0  0  0  0
  4 18  1  0  0  0  0
  5 13  2  0  0  0  0
  5 14  1  0  0  0  0
  6 14  1  0  0  0  0
  6 15  2  0  0  0  0
  6 17  1  0  0  0  0
  7  8  1  0  0  0  0
  7 14  1  0  0  0  0
  8 16  1  0  0  0  0
  9 12  1  0  0  0  0
 10 12  1  0  0  0  0
 11 12  1  0  0  0  0
 12 17  1  0  0  0  0
  1 19  1  0  0  0  0
  2 20  1  0  0  0  0
  7 21  1  0  0  0  0
  7 22  1  0  0  0  0
  8 23  1  0  0  0  0
  8 24  1  0  0  0  0
  9 25  1  0  0  0  0
  9 26  1  0  0  0  0
  9 27  1  0  0  0  0
 10 28  1  0  0  0  0
 10 29  1  0  0  0  0
 10 30  1  0  0  0  0
 11 31  1  0  0  0  0
 11 32  1  0  0  0  0
 11 33  1  0  0  0  0
M  END
> <id>
EN300-12447067

> <smiles>
CC(C)(C)OC(=O)N1CCOC=2C=C(Br)C=NC12

> <MDLNUMBER>
MFCD21332869

> <IUPAC Name>
tert-butyl 7-bromo-2H,3H,4H-pyrido[3,2-b][1,4]oxazine-4-carboxylate

> <CAS>
335030-30-3

> <URL>
https://www.enaminestore.com/catalog/EN300-12447067

> <ROCS_ShapeQuery>
A71EV2A-x0451_0A_A71EV2A-x0310_0A_A71EV2A-x0416_0A_peptide

> <ROCS_TanimotoCombo>
0.493 

> <ROCS_ShapeTanimoto>
0.344 

> <ROCS_ColorTanimoto>
0.149 

> <ROCS_RefTversky>
0.298 

> <ROCS_RefColorTversky>
0.165 

> <ROCS_RefTverskyCombo>
0.463 

> <ROCS_FitTversky>
1.830 

> <ROCS_FitColorTversky>
0.609 

> <ROCS_FitTverskyCombo>
2.439 

> <ROCS_ColorScore>
-5.021

> <ROCS_Overlap>
2065.520

> <ROCS_Rank>
181                 

$$$$
untitled-dbase-42420_100
  -OEChem-11132313473D

 37 38  0     1  0  0  0  0  0999 V2000
   10.5617   13.0598   23.5207 C   0  0  0  0  0  0  0  0  0  0  0  0
    8.9742    9.7393   23.6929 C   0  0  0  0  0  0  0  0  0  0  0  0
    8.1257   11.9266   25.6000 C   0  0  0  0  0  0  0  0  0  0  0  0
    9.9875   10.6737   23.0417 C   0  0  0  0  0  0  0  0  0  0  0  0
    7.7293   10.6050   23.9348 C   0  0  2  0  0  0  0  0  0  0  0  0
    8.2892   12.0447   24.0721 C   0  0  2  0  0  0  0  0  0  0  0  0
    7.1397   10.7463   25.3733 C   0  0  2  0  0  0  0  0  0  0  0  0
   12.6263   14.9634   22.9925 C   0  0  0  0  0  0  0  0  0  0  0  0
   12.7728   13.8987   20.7222 C   0  0  0  0  0  0  0  0  0  0  0  0
   10.6462   15.0256   21.4401 C   0  0  0  0  0  0  0  0  0  0  0  0
    5.6665   11.1391   25.3983 C   0  0  0  0  0  0  0  0  0  0  0  0
   11.8578   14.2176   21.9025 C   0  0  0  0  0  0  0  0  0  0  0  0
    9.6735   11.9984   23.5653 N   0  0  0  0  0  0  0  0  0  0  0  0
   10.5979   13.9695   24.3456 O   0  0  0  0  0  0  0  0  0  0  0  0
    7.3395    9.6045   26.2331 O   0  0  0  0  0  0  0  0  0  0  0  0
   11.3974   12.9728   22.4401 O   0  0  0  0  0  0  0  0  0  0  0  0
    5.4105   12.0398   24.4357 F   0  0  0  0  0  0  0  0  0  0  0  0
    4.8953   10.0587   25.1946 F   0  0  0  0  0  0  0  0  0  0  0  0
    5.3505   11.6769   26.5875 F   0  0  0  0  0  0  0  0  0  0  0  0
    8.7232    8.9369   22.9961 H   0  0  0  0  0  0  0  0  0  0  0  0
    9.3511    9.2939   24.6118 H   0  0  0  0  0  0  0  0  0  0  0  0
    9.0323   11.6730   26.1490 H   0  0  0  0  0  0  0  0  0  0  0  0
    7.6801   12.8126   26.0551 H   0  0  0  0  0  0  0  0  0  0  0  0
   11.0119   10.4350   23.3411 H   0  0  0  0  0  0  0  0  0  0  0  0
    9.9327   10.6651   21.9505 H   0  0  0  0  0  0  0  0  0  0  0  0
    6.9759   10.4862   23.1570 H   0  0  0  0  0  0  0  0  0  0  0  0
    7.6843   12.8162   23.5921 H   0  0  0  0  0  0  0  0  0  0  0  0
   11.9729   15.1941   23.8415 H   0  0  0  0  0  0  0  0  0  0  0  0
   13.4775   14.3794   23.3574 H   0  0  0  0  0  0  0  0  0  0  0  0
   12.9999   15.9240   22.6199 H   0  0  0  0  0  0  0  0  0  0  0  0
   12.2256   13.3635   19.9378 H   0  0  0  0  0  0  0  0  0  0  0  0
   13.5927   13.2400   21.0308 H   0  0  0  0  0  0  0  0  0  0  0  0
   13.2026   14.8068   20.2873 H   0  0  0  0  0  0  0  0  0  0  0  0
   10.0948   14.4909   20.6583 H   0  0  0  0  0  0  0  0  0  0  0  0
    9.9596   15.2322   22.2675 H   0  0  0  0  0  0  0  0  0  0  0  0
   10.9588   15.9797   21.0005 H   0  0  0  0  0  0  0  0  0  0  0  0
    6.6627    8.9677   25.9754 H   0  0  0  0  0  0  0  0  0  0  0  0
  1 13  1  0  0  0  0
  1 14  2  0  0  0  0
  1 16  1  0  0  0  0
  2  4  1  0  0  0  0
  2  5  1  1  0  0  0
  3  6  1  1  0  0  0
  3  7  1  0  0  0  0
  4 13  1  0  0  0  0
  5  6  1  0  0  0  0
  5  7  1  0  0  0  0
  6 13  1  0  0  0  0
  7 11  1  0  0  0  0
  7 15  1  1  0  0  0
  8 12  1  0  0  0  0
  9 12  1  0  0  0  0
 10 12  1  0  0  0  0
 11 17  1  0  0  0  0
 11 18  1  0  0  0  0
 11 19  1  0  0  0  0
 12 16  1  0  0  0  0
  2 20  1  0  0  0  0
  2 21  1  0  0  0  0
  3 22  1  0  0  0  0
  3 23  1  0  0  0  0
  4 24  1  0  0  0  0
  4 25  1  0  0  0  0
  5 26  1  0  0  0  0
  6 27  1  0  0  0  0
  8 28  1  0  0  0  0
  8 29  1  0  0  0  0
  8 30  1  0  0  0  0
  9 31  1  0  0  0  0
  9 32  1  0  0  0  0
  9 33  1  0  0  0  0
 10 34  1  0  0  0  0
 10 35  1  0  0  0  0
 10 36  1  0  0  0  0
 15 37  1  0  0  0  0
M  END
> <id>
EN300-27101461

> <smiles>
CC(C)(C)OC(=O)N1CC[C@@H]2[C@H]1C[C@@]2(O)C(F)(F)F |&1:10,11,13,r|

> <IUPAC Name>
rac-tert-butyl (1R,5R,6S)-6-hydroxy-6-(trifluoromethyl)-2-azabicyclo[3.2.0]heptane-2-carboxylate

> <CAS>
2580101-08-0

> <URL>
https://www.enaminestore.com/catalog/EN300-27101461

> <ROCS_ShapeQuery>
A71EV2A-x0451_0A_A71EV2A-x0310_0A_A71EV2A-x0416_0A_peptide

> <ROCS_TanimotoCombo>
0.493 

> <ROCS_ShapeTanimoto>
0.315 

> <ROCS_ColorTanimoto>
0.179 

> <ROCS_RefTversky>
0.280 

> <ROCS_RefColorTversky>
0.204 

> <ROCS_RefTverskyCombo>
0.484 

> <ROCS_FitTversky>
1.650 

> <ROCS_FitColorTversky>
0.593 

> <ROCS_FitTverskyCombo>
2.244 

> <ROCS_ColorScore>
-6.229

> <ROCS_Overlap>
1942.318

> <ROCS_Rank>
182                 

$$$$
untitled-dbase-14196_71
  -OEChem-11132313473D

 39 40  0     0  0  0  0  0  0999 V2000
    6.5507   10.8273   26.8705 C   0  0  0  0  0  0  0  0  0  0  0  0
    6.4995   12.1875   26.5734 C   0  0  0  0  0  0  0  0  0  0  0  0
    7.1938    9.9493   26.0011 C   0  0  0  0  0  0  0  0  0  0  0  0
    7.7365   11.8028   24.5150 C   0  0  0  0  0  0  0  0  0  0  0  0
    7.0835   12.6717   25.4008 C   0  0  0  0  0  0  0  0  0  0  0  0
    7.8005   10.4386   24.8415 C   0  0  0  0  0  0  0  0  0  0  0  0
   10.6684   13.0598   23.4928 C   0  0  0  0  0  0  0  0  0  0  0  0
    8.3142   12.3364   23.2289 C   0  0  0  0  0  0  0  0  0  0  0  0
   10.1315   10.6986   22.7676 C   0  0  0  0  0  0  0  0  0  0  0  0
    9.8075    9.7328   23.9013 C   0  0  0  0  0  0  0  0  0  0  0  0
   12.3320   15.3272   22.9639 C   0  0  0  0  0  0  0  0  0  0  0  0
   13.5268   13.8373   21.3324 C   0  0  0  0  0  0  0  0  0  0  0  0
   11.0995   14.3806   20.9842 C   0  0  0  0  0  0  0  0  0  0  0  0
   12.1956   14.1336   22.0197 C   0  0  0  0  0  0  0  0  0  0  0  0
    9.7483   12.0700   23.1234 N   0  0  0  0  0  0  0  0  0  0  0  0
    6.9863   14.0600   25.1442 N   0  0  0  0  0  0  0  0  0  0  0  0
   10.4599   13.9096   24.3571 O   0  0  0  0  0  0  0  0  0  0  0  0
    8.3951    9.5181   24.0158 O   0  0  0  0  0  0  0  0  0  0  0  0
   11.8423   12.9800   22.7915 O   0  0  0  0  0  0  0  0  0  0  0  0
    6.0879   10.4514   27.7782 H   0  0  0  0  0  0  0  0  0  0  0  0
    5.9939   12.8620   27.2600 H   0  0  0  0  0  0  0  0  0  0  0  0
    7.2276    8.8886   26.2353 H   0  0  0  0  0  0  0  0  0  0  0  0
    7.8071   11.8577   22.3803 H   0  0  0  0  0  0  0  0  0  0  0  0
    8.1377   13.4091   23.1035 H   0  0  0  0  0  0  0  0  0  0  0  0
   11.2032   10.6615   22.5528 H   0  0  0  0  0  0  0  0  0  0  0  0
    9.5904   10.4297   21.8546 H   0  0  0  0  0  0  0  0  0  0  0  0
   10.2455    8.7576   23.6623 H   0  0  0  0  0  0  0  0  0  0  0  0
   10.2524   10.0485   24.8543 H   0  0  0  0  0  0  0  0  0  0  0  0
   11.3786   15.5431   23.4593 H   0  0  0  0  0  0  0  0  0  0  0  0
   13.0907   15.1486   23.7328 H   0  0  0  0  0  0  0  0  0  0  0  0
   12.6056   16.2335   22.4116 H   0  0  0  0  0  0  0  0  0  0  0  0
   13.4336   12.9816   20.6539 H   0  0  0  0  0  0  0  0  0  0  0  0
   14.2936   13.5665   22.0671 H   0  0  0  0  0  0  0  0  0  0  0  0
   13.8853   14.6976   20.7581 H   0  0  0  0  0  0  0  0  0  0  0  0
   11.0015   13.5246   20.3067 H   0  0  0  0  0  0  0  0  0  0  0  0
   10.1291   14.5586   21.4587 H   0  0  0  0  0  0  0  0  0  0  0  0
   11.3440   15.2452   20.3565 H   0  0  0  0  0  0  0  0  0  0  0  0
    6.4696   14.6334   25.7765 H   0  0  0  0  0  0  0  0  0  0  0  0
    7.3550   14.4204   24.2900 H   0  0  0  0  0  0  0  0  0  0  0  0
  1  2  2  0  0  0  0
  1  3  1  0  0  0  0
  2  5  1  0  0  0  0
  3  6  2  0  0  0  0
  4  5  2  0  0  0  0
  4  6  1  0  0  0  0
  4  8  1  0  0  0  0
  5 16  1  0  0  0  0
  6 18  1  0  0  0  0
  7 15  1  0  0  0  0
  7 17  2  0  0  0  0
  7 19  1  0  0  0  0
  8 15  1  0  0  0  0
  9 10  1  0  0  0  0
  9 15  1  0  0  0  0
 10 18  1  0  0  0  0
 11 14  1  0  0  0  0
 12 14  1  0  0  0  0
 13 14  1  0  0  0  0
 14 19  1  0  0  0  0
  1 20  1  0  0  0  0
  2 21  1  0  0  0  0
  3 22  1  0  0  0  0
  8 23  1  0  0  0  0
  8 24  1  0  0  0  0
  9 25  1  0  0  0  0
  9 26  1  0  0  0  0
 10 27  1  0  0  0  0
 10 28  1  0  0  0  0
 11 29  1  0  0  0  0
 11 30  1  0  0  0  0
 11 31  1  0  0  0  0
 12 32  1  0  0  0  0
 12 33  1  0  0  0  0
 12 34  1  0  0  0  0
 13 35  1  0  0  0  0
 13 36  1  0  0  0  0
 13 37  1  0  0  0  0
 16 38  1  0  0  0  0
 16 39  1  0  0  0  0
M  END
> <id>
EN300-1129041

> <smiles>
CC(C)(C)OC(=O)N1CCOC=2C=CC=C(N)C2C1

> <IUPAC Name>
tert-butyl 6-amino-2,3,4,5-tetrahydro-1,4-benzoxazepine-4-carboxylate

> <CAS>
2138356-67-7

> <URL>
https://www.enaminestore.com/catalog/EN300-1129041

> <ROCS_ShapeQuery>
A71EV2A-x0451_0A_A71EV2A-x0310_0A_A71EV2A-x0416_0A_peptide

> <ROCS_TanimotoCombo>
0.493 

> <ROCS_ShapeTanimoto>
0.333 

> <ROCS_ColorTanimoto>
0.160 

> <ROCS_RefTversky>
0.292 

> <ROCS_RefColorTversky>
0.175 

> <ROCS_RefTverskyCombo>
0.467 

> <ROCS_FitTversky>
1.731 

> <ROCS_FitColorTversky>
0.648 

> <ROCS_FitTverskyCombo>
2.379 

> <ROCS_ColorScore>
-5.342

> <ROCS_Overlap>
2026.648

> <ROCS_Rank>
183                 

$$$$
untitled-dbase-51666_41
  -OEChem-11132313473D

 35 36  0     1  0  0  0  0  0999 V2000
   10.4457   12.8489   23.5804 C   0  0  0  0  0  0  0  0  0  0  0  0
    6.9205   11.4318   23.9071 C   0  0  0  0  0  0  0  0  0  0  0  0
    7.8447   11.6427   25.7925 C   0  0  0  0  0  0  0  0  0  0  0  0
    9.5714   10.5228   23.5366 C   0  0  0  0  0  0  0  0  0  0  0  0
    7.4673   10.3931   24.9343 C   0  0  0  0  0  0  0  0  0  0  0  0
    8.0823   12.3406   24.4234 C   0  0  0  0  0  0  0  0  0  0  0  0
    8.7195    9.6334   24.4634 C   0  0  1  0  0  0  0  0  0  0  0  0
   12.7125   14.3224   22.6483 C   0  0  0  0  0  0  0  0  0  0  0  0
   12.5732   12.8806   20.5962 C   0  0  0  0  0  0  0  0  0  0  0  0
   10.6667   14.4061   21.1846 C   0  0  0  0  0  0  0  0  0  0  0  0
   11.7844   13.5219   21.7358 C   0  0  0  0  0  0  0  0  0  0  0  0
    9.4138   11.9494   23.8528 N   0  0  0  0  0  0  0  0  0  0  0  0
    8.3396    8.4084   23.7627 N   0  0  0  0  0  0  0  0  0  0  0  0
   10.6624   13.8718   24.2267 O   0  0  0  0  0  0  0  0  0  0  0  0
   11.1942   12.4646   22.5004 O   0  0  0  0  0  0  0  0  0  0  0  0
    6.9422   11.1477   22.8515 H   0  0  0  0  0  0  0  0  0  0  0  0
    5.9172   11.8108   24.1384 H   0  0  0  0  0  0  0  0  0  0  0  0
    7.0142   12.0614   26.3741 H   0  0  0  0  0  0  0  0  0  0  0  0
    8.7123   11.5440   26.4512 H   0  0  0  0  0  0  0  0  0  0  0  0
   10.6276   10.2344   23.5869 H   0  0  0  0  0  0  0  0  0  0  0  0
    9.2678   10.4186   22.4867 H   0  0  0  0  0  0  0  0  0  0  0  0
    6.7129    9.7527   25.4040 H   0  0  0  0  0  0  0  0  0  0  0  0
    7.8730   13.4121   24.3875 H   0  0  0  0  0  0  0  0  0  0  0  0
    9.3128    9.3515   25.3368 H   0  0  0  0  0  0  0  0  0  0  0  0
   12.1501   14.7843   23.4676 H   0  0  0  0  0  0  0  0  0  0  0  0
   13.4980   13.6921   23.0778 H   0  0  0  0  0  0  0  0  0  0  0  0
   13.1886   15.1428   22.0991 H   0  0  0  0  0  0  0  0  0  0  0  0
   11.9112   12.3053   19.9389 H   0  0  0  0  0  0  0  0  0  0  0  0
   13.3141   12.1725   20.9845 H   0  0  0  0  0  0  0  0  0  0  0  0
   13.0939   13.6312   19.9928 H   0  0  0  0  0  0  0  0  0  0  0  0
   10.0008   13.8322   20.5300 H   0  0  0  0  0  0  0  0  0  0  0  0
   10.0668   14.8456   21.9881 H   0  0  0  0  0  0  0  0  0  0  0  0
   11.0775   15.2175   20.5730 H   0  0  0  0  0  0  0  0  0  0  0  0
    9.1694    7.9382   23.4895 H   0  0  0  0  0  0  0  0  0  0  0  0
    7.8071    7.8489   24.3854 H   0  0  0  0  0  0  0  0  0  0  0  0
  1 12  1  0  0  0  0
  1 14  2  0  0  0  0
  1 15  1  0  0  0  0
  2  5  1  0  0  0  0
  2  6  1  0  0  0  0
  3  5  1  0  0  0  0
  3  6  1  0  0  0  0
  4  7  1  0  0  0  0
  4 12  1  0  0  0  0
  5  7  1  0  0  0  0
  6 12  1  0  0  0  0
  7 13  1  0  0  0  0
  8 11  1  0  0  0  0
  9 11  1  0  0  0  0
 10 11  1  0  0  0  0
 11 15  1  0  0  0  0
  2 16  1  0  0  0  0
  2 17  1  0  0  0  0
  3 18  1  0  0  0  0
  3 19  1  0  0  0  0
  4 20  1  0  0  0  0
  4 21  1  0  0  0  0
  5 22  1  0  0  0  0
  6 23  1  0  0  0  0
  7 24  1  0  0  0  0
  8 25  1  0  0  0  0
  8 26  1  0  0  0  0
  8 27  1  0  0  0  0
  9 28  1  0  0  0  0
  9 29  1  0  0  0  0
  9 30  1  0  0  0  0
 10 31  1  0  0  0  0
 10 32  1  0  0  0  0
 10 33  1  0  0  0  0
 13 34  1  0  0  0  0
 13 35  1  0  0  0  0
M  END
> <id>
EN300-39872190

> <smiles>
Cl.CC(C)(C)OC(=O)N1CC(N)C2CC1C2

> <IUPAC Name>
tert-butyl 4-amino-2-azabicyclo[3.1.1]heptane-2-carboxylate hydrochloride

> <CAS>
2866319-43-7

> <Purity>
95

> <URL>
https://www.enaminestore.com/catalog/EN300-39872190

> <ROCS_ShapeQuery>
A71EV2A-x0451_0A_A71EV2A-x0310_0A_A71EV2A-x0416_0A_peptide

> <ROCS_TanimotoCombo>
0.493 

> <ROCS_ShapeTanimoto>
0.282 

> <ROCS_ColorTanimoto>
0.211 

> <ROCS_RefTversky>
0.251 

> <ROCS_RefColorTversky>
0.238 

> <ROCS_RefTverskyCombo>
0.489 

> <ROCS_FitTversky>
1.765 

> <ROCS_FitColorTversky>
0.652 

> <ROCS_FitTverskyCombo>
2.417 

> <ROCS_ColorScore>
-7.290

> <ROCS_Overlap>
1741.122

> <ROCS_Rank>
184                 

$$$$
untitled-dbase-50622_41
  -OEChem-11132313473D

 35 36  0     1  0  0  0  0  0999 V2000
   10.4457   12.8489   23.5804 C   0  0  0  0  0  0  0  0  0  0  0  0
    6.9205   11.4318   23.9071 C   0  0  0  0  0  0  0  0  0  0  0  0
    7.8447   11.6427   25.7925 C   0  0  0  0  0  0  0  0  0  0  0  0
    9.5714   10.5228   23.5366 C   0  0  0  0  0  0  0  0  0  0  0  0
    7.4673   10.3931   24.9343 C   0  0  0  0  0  0  0  0  0  0  0  0
    8.0823   12.3406   24.4234 C   0  0  0  0  0  0  0  0  0  0  0  0
    8.7195    9.6334   24.4634 C   0  0  1  0  0  0  0  0  0  0  0  0
   12.7125   14.3224   22.6483 C   0  0  0  0  0  0  0  0  0  0  0  0
   12.5732   12.8806   20.5962 C   0  0  0  0  0  0  0  0  0  0  0  0
   10.6667   14.4061   21.1846 C   0  0  0  0  0  0  0  0  0  0  0  0
   11.7844   13.5219   21.7358 C   0  0  0  0  0  0  0  0  0  0  0  0
    9.4138   11.9494   23.8528 N   0  0  0  0  0  0  0  0  0  0  0  0
    8.3396    8.4084   23.7627 N   0  0  0  0  0  0  0  0  0  0  0  0
   10.6624   13.8718   24.2267 O   0  0  0  0  0  0  0  0  0  0  0  0
   11.1942   12.4646   22.5004 O   0  0  0  0  0  0  0  0  0  0  0  0
    6.9422   11.1477   22.8515 H   0  0  0  0  0  0  0  0  0  0  0  0
    5.9172   11.8108   24.1384 H   0  0  0  0  0  0  0  0  0  0  0  0
    7.0142   12.0614   26.3741 H   0  0  0  0  0  0  0  0  0  0  0  0
    8.7123   11.5440   26.4512 H   0  0  0  0  0  0  0  0  0  0  0  0
   10.6276   10.2344   23.5869 H   0  0  0  0  0  0  0  0  0  0  0  0
    9.2678   10.4186   22.4867 H   0  0  0  0  0  0  0  0  0  0  0  0
    6.7129    9.7527   25.4040 H   0  0  0  0  0  0  0  0  0  0  0  0
    7.8730   13.4121   24.3875 H   0  0  0  0  0  0  0  0  0  0  0  0
    9.3128    9.3515   25.3368 H   0  0  0  0  0  0  0  0  0  0  0  0
   12.1501   14.7843   23.4676 H   0  0  0  0  0  0  0  0  0  0  0  0
   13.4980   13.6921   23.0778 H   0  0  0  0  0  0  0  0  0  0  0  0
   13.1886   15.1428   22.0991 H   0  0  0  0  0  0  0  0  0  0  0  0
   11.9112   12.3053   19.9389 H   0  0  0  0  0  0  0  0  0  0  0  0
   13.3141   12.1725   20.9845 H   0  0  0  0  0  0  0  0  0  0  0  0
   13.0939   13.6312   19.9928 H   0  0  0  0  0  0  0  0  0  0  0  0
   10.0008   13.8322   20.5300 H   0  0  0  0  0  0  0  0  0  0  0  0
   10.0668   14.8456   21.9881 H   0  0  0  0  0  0  0  0  0  0  0  0
   11.0775   15.2175   20.5730 H   0  0  0  0  0  0  0  0  0  0  0  0
    9.1694    7.9382   23.4895 H   0  0  0  0  0  0  0  0  0  0  0  0
    7.8071    7.8489   24.3854 H   0  0  0  0  0  0  0  0  0  0  0  0
  1 12  1  0  0  0  0
  1 14  2  0  0  0  0
  1 15  1  0  0  0  0
  2  5  1  0  0  0  0
  2  6  1  0  0  0  0
  3  5  1  0  0  0  0
  3  6  1  0  0  0  0
  4  7  1  0  0  0  0
  4 12  1  0  0  0  0
  5  7  1  0  0  0  0
  6 12  1  0  0  0  0
  7 13  1  0  0  0  0
  8 11  1  0  0  0  0
  9 11  1  0  0  0  0
 10 11  1  0  0  0  0
 11 15  1  0  0  0  0
  2 16  1  0  0  0  0
  2 17  1  0  0  0  0
  3 18  1  0  0  0  0
  3 19  1  0  0  0  0
  4 20  1  0  0  0  0
  4 21  1  0  0  0  0
  5 22  1  0  0  0  0
  6 23  1  0  0  0  0
  7 24  1  0  0  0  0
  8 25  1  0  0  0  0
  8 26  1  0  0  0  0
  8 27  1  0  0  0  0
  9 28  1  0  0  0  0
  9 29  1  0  0  0  0
  9 30  1  0  0  0  0
 10 31  1  0  0  0  0
 10 32  1  0  0  0  0
 10 33  1  0  0  0  0
 13 34  1  0  0  0  0
 13 35  1  0  0  0  0
M  END
> <id>
EN300-36600545

> <smiles>
CC(C)(C)OC(=O)N1CC(N)C2CC1C2

> <IUPAC Name>
tert-butyl 4-amino-2-azabicyclo[3.1.1]heptane-2-carboxylate

> <URL>
https://www.enaminestore.com/catalog/EN300-36600545

> <ROCS_ShapeQuery>
A71EV2A-x0451_0A_A71EV2A-x0310_0A_A71EV2A-x0416_0A_peptide

> <ROCS_TanimotoCombo>
0.493 

> <ROCS_ShapeTanimoto>
0.282 

> <ROCS_ColorTanimoto>
0.211 

> <ROCS_RefTversky>
0.251 

> <ROCS_RefColorTversky>
0.238 

> <ROCS_RefTverskyCombo>
0.489 

> <ROCS_FitTversky>
1.765 

> <ROCS_FitColorTversky>
0.652 

> <ROCS_FitTverskyCombo>
2.417 

> <ROCS_ColorScore>
-7.290

> <ROCS_Overlap>
1741.122

> <ROCS_Rank>
185                 

$$$$
untitled-dbase-46201_3586
  -OEChem-11132313473D

 55 56  0     1  0  0  0  0  0999 V2000
    5.2031   13.5369   25.5122 C   0  0  0  0  0  0  0  0  0  0  0  0
   10.2026   13.2128   23.3651 C   0  0  0  0  0  0  0  0  0  0  0  0
    8.5324   11.0535   25.4872 C   0  0  0  0  0  0  0  0  0  0  0  0
    9.3138   10.9789   22.6411 C   0  0  0  0  0  0  0  0  0  0  0  0
    6.6951   12.1384   23.9313 C   0  0  0  0  0  0  0  0  0  0  0  0
    7.7482   13.5192   25.1647 C   0  0  0  0  0  0  0  0  0  0  0  0
    8.7949    9.7162   24.7742 C   0  0  2  0  0  0  0  0  0  0  0  0
    9.7565    9.8646   23.5864 C   0  0  1  0  0  0  0  0  0  0  0  0
    8.1513   12.1725   24.4950 C   0  0  0  0  0  0  0  0  0  0  0  0
    2.7686   13.0904   26.9351 C   0  0  0  0  0  0  0  0  0  0  0  0
    2.1821   11.5160   25.0679 C   0  0  0  0  0  0  0  0  0  0  0  0
    4.1867   11.0551   26.5091 C   0  0  0  0  0  0  0  0  0  0  0  0
   12.3769   14.9880   22.7948 C   0  0  0  0  0  0  0  0  0  0  0  0
   12.0662   14.3012   20.3987 C   0  0  0  0  0  0  0  0  0  0  0  0
   10.2121   15.4849   21.6109 C   0  0  0  0  0  0  0  0  0  0  0  0
    3.3198   12.1406   25.8726 C   0  0  0  0  0  0  0  0  0  0  0  0
   11.3764   14.5046   21.7459 C   0  0  0  0  0  0  0  0  0  0  0  0
    6.3752   13.1089   24.9560 N   0  0  0  0  0  0  0  0  0  0  0  0
    9.2051   12.2253   23.4174 N   0  0  0  0  0  0  0  0  0  0  0  0
    5.1274   14.3900   26.3920 O   0  0  0  0  0  0  0  0  0  0  0  0
   10.4834   13.9773   24.2849 O   0  0  0  0  0  0  0  0  0  0  0  0
    7.5497    9.1736   24.3383 O   0  0  0  0  0  0  0  0  0  0  0  0
    9.8383    8.6442   22.8595 O   0  0  0  0  0  0  0  0  0  0  0  0
    4.1283   12.8946   24.9628 O   0  0  0  0  0  0  0  0  0  0  0  0
   10.8582   13.2355   22.1613 O   0  0  0  0  0  0  0  0  0  0  0  0
    7.7348   10.9284   26.2410 H   0  0  0  0  0  0  0  0  0  0  0  0
    9.4266   11.3321   26.0716 H   0  0  0  0  0  0  0  0  0  0  0  0
   10.0508   11.1342   21.8507 H   0  0  0  0  0  0  0  0  0  0  0  0
    8.3631   10.7193   22.1763 H   0  0  0  0  0  0  0  0  0  0  0  0
    6.5244   12.5584   22.9375 H   0  0  0  0  0  0  0  0  0  0  0  0
    6.1729   11.1848   24.0354 H   0  0  0  0  0  0  0  0  0  0  0  0
    8.0124   13.6447   26.2182 H   0  0  0  0  0  0  0  0  0  0  0  0
    7.9940   14.4311   24.6094 H   0  0  0  0  0  0  0  0  0  0  0  0
    9.2240    9.0058   25.4922 H   0  0  0  0  0  0  0  0  0  0  0  0
   10.7745   10.0743   23.9604 H   0  0  0  0  0  0  0  0  0  0  0  0
    3.5822   13.5408   27.5149 H   0  0  0  0  0  0  0  0  0  0  0  0
    2.1738   13.8938   26.4884 H   0  0  0  0  0  0  0  0  0  0  0  0
    2.1392   12.5516   27.6526 H   0  0  0  0  0  0  0  0  0  0  0  0
    2.5730   10.8337   24.3044 H   0  0  0  0  0  0  0  0  0  0  0  0
    1.6143   12.2856   24.5326 H   0  0  0  0  0  0  0  0  0  0  0  0
    1.4916   10.9592   25.7096 H   0  0  0  0  0  0  0  0  0  0  0  0
    4.5822   10.3737   25.7472 H   0  0  0  0  0  0  0  0  0  0  0  0
    5.0299   11.4840   27.0603 H   0  0  0  0  0  0  0  0  0  0  0  0
    3.5971   10.4398   27.1982 H   0  0  0  0  0  0  0  0  0  0  0  0
   11.8856   15.1352   23.7632 H   0  0  0  0  0  0  0  0  0  0  0  0
   13.1988   14.2767   22.9263 H   0  0  0  0  0  0  0  0  0  0  0  0
   12.8009   15.9585   22.5126 H   0  0  0  0  0  0  0  0  0  0  0  0
   11.3521   13.9544   19.6431 H   0  0  0  0  0  0  0  0  0  0  0  0
   12.8404   13.5287   20.4693 H   0  0  0  0  0  0  0  0  0  0  0  0
   12.5302   15.2252   20.0388 H   0  0  0  0  0  0  0  0  0  0  0  0
    9.4943   15.1384   20.8587 H   0  0  0  0  0  0  0  0  0  0  0  0
    9.6822   15.6149   22.5601 H   0  0  0  0  0  0  0  0  0  0  0  0
   10.5657   16.4655   21.2723 H   0  0  0  0  0  0  0  0  0  0  0  0
    7.7525    8.3347   23.8952 H   0  0  0  0  0  0  0  0  0  0  0  0
   10.1207    7.9671   23.4925 H   0  0  0  0  0  0  0  0  0  0  0  0
  1 18  1  0  0  0  0
  1 20  2  0  0  0  0
  1 24  1  0  0  0  0
  2 19  1  0  0  0  0
  2 21  2  0  0  0  0
  2 25  1  0  0  0  0
  3  7  1  0  0  0  0
  3  9  1  0  0  0  0
  4  8  1  0  0  0  0
  4 19  1  0  0  0  0
  5  9  1  0  0  0  0
  5 18  1  0  0  0  0
  6  9  1  0  0  0  0
  6 18  1  0  0  0  0
  7  8  1  0  0  0  0
  7 22  1  1  0  0  0
  8 23  1  1  0  0  0
  9 19  1  0  0  0  0
 10 16  1  0  0  0  0
 11 16  1  0  0  0  0
 12 16  1  0  0  0  0
 13 17  1  0  0  0  0
 14 17  1  0  0  0  0
 15 17  1  0  0  0  0
 16 24  1  0  0  0  0
 17 25  1  0  0  0  0
  3 26  1  0  0  0  0
  3 27  1  0  0  0  0
  4 28  1  0  0  0  0
  4 29  1  0  0  0  0
  5 30  1  0  0  0  0
  5 31  1  0  0  0  0
  6 32  1  0  0  0  0
  6 33  1  0  0  0  0
  7 34  1  0  0  0  0
  8 35  1  0  0  0  0
 10 36  1  0  0  0  0
 10 37  1  0  0  0  0
 10 38  1  0  0  0  0
 11 39  1  0  0  0  0
 11 40  1  0  0  0  0
 11 41  1  0  0  0  0
 12 42  1  0  0  0  0
 12 43  1  0  0  0  0
 12 44  1  0  0  0  0
 13 45  1  0  0  0  0
 13 46  1  0  0  0  0
 13 47  1  0  0  0  0
 14 48  1  0  0  0  0
 14 49  1  0  0  0  0
 14 50  1  0  0  0  0
 15 51  1  0  0  0  0
 15 52  1  0  0  0  0
 15 53  1  0  0  0  0
 22 54  1  0  0  0  0
 23 55  1  0  0  0  0
M  END
> <id>
EN300-28299552

> <smiles>
CC(C)(C)OC(=O)N1CC2(C1)C[C@@H](O)[C@@H](O)CN2C(=O)OC(C)(C)C |&1:12,14,r|

> <IUPAC Name>
rac-2,5-di-tert-butyl (7R,8S)-7,8-dihydroxy-2,5-diazaspiro[3.5]nonane-2,5-dicarboxylate

> <CAS>
2679940-20-4

> <URL>
https://www.enaminestore.com/catalog/EN300-28299552

> <ROCS_ShapeQuery>
A71EV2A-x0451_0A_A71EV2A-x0310_0A_A71EV2A-x0416_0A_peptide

> <ROCS_TanimotoCombo>
0.493 

> <ROCS_ShapeTanimoto>
0.336 

> <ROCS_ColorTanimoto>
0.158 

> <ROCS_RefTversky>
0.302 

> <ROCS_RefColorTversky>
0.185 

> <ROCS_RefTverskyCombo>
0.488 

> <ROCS_FitTversky>
1.486 

> <ROCS_FitColorTversky>
0.512 

> <ROCS_FitTverskyCombo>
1.998 

> <ROCS_ColorScore>
-5.678

> <ROCS_Overlap>
2102.134

> <ROCS_Rank>
186                 

$$$$
untitled-dbase-30601_144
  -OEChem-11132313473D

 37 38  0     1  0  0  0  0  0999 V2000
    6.6384   10.8102   25.2577 C   0  0  0  0  0  0  0  0  0  0  0  0
    6.3134   11.7884   26.1905 C   0  0  0  0  0  0  0  0  0  0  0  0
    8.2775   13.0345   25.5368 C   0  0  0  0  0  0  0  0  0  0  0  0
    7.7809   10.9381   24.4452 C   0  0  0  0  0  0  0  0  0  0  0  0
    8.6095   12.0787   24.5613 C   0  0  0  0  0  0  0  0  0  0  0  0
    7.1380   12.8952   26.3354 C   0  0  0  0  0  0  0  0  0  0  0  0
   10.5087   13.3845   23.4918 C   0  0  0  0  0  0  0  0  0  0  0  0
    9.1089   10.2125   22.4340 C   0  0  0  0  0  0  0  0  0  0  0  0
   10.2553   10.9733   23.0811 C   0  0  0  0  0  0  0  0  0  0  0  0
    8.0886    9.8087   23.4886 C   0  0  1  0  0  0  0  0  0  0  0  0
   12.2935   15.4884   22.7179 C   0  0  0  0  0  0  0  0  0  0  0  0
   12.2287   14.4486   20.4324 C   0  0  0  0  0  0  0  0  0  0  0  0
   10.1232   15.3658   21.4492 C   0  0  0  0  0  0  0  0  0  0  0  0
   11.4572   14.6757   21.7306 C   0  0  0  0  0  0  0  0  0  0  0  0
    9.7788   12.2019   23.7274 N   0  0  0  0  0  0  0  0  0  0  0  0
   10.5917   14.3065   24.3041 O   0  0  0  0  0  0  0  0  0  0  0  0
    8.5943    8.6791   24.2025 O   0  0  0  0  0  0  0  0  0  0  0  0
   11.1934   13.3906   22.3063 O   0  0  0  0  0  0  0  0  0  0  0  0
    6.8484   13.8275   27.2520 F   0  0  0  0  0  0  0  0  0  0  0  0
    5.9956    9.9382   25.1651 H   0  0  0  0  0  0  0  0  0  0  0  0
    5.4266   11.6819   26.8084 H   0  0  0  0  0  0  0  0  0  0  0  0
    8.8921   13.9001   25.7432 H   0  0  0  0  0  0  0  0  0  0  0  0
    8.6373   10.8432   21.6704 H   0  0  0  0  0  0  0  0  0  0  0  0
    9.5053    9.3239   21.9299 H   0  0  0  0  0  0  0  0  0  0  0  0
   10.7562   10.3733   23.8419 H   0  0  0  0  0  0  0  0  0  0  0  0
   10.9826   11.2037   22.3039 H   0  0  0  0  0  0  0  0  0  0  0  0
    7.1672    9.4854   22.9695 H   0  0  0  0  0  0  0  0  0  0  0  0
   11.7432   15.6536   23.6511 H   0  0  0  0  0  0  0  0  0  0  0  0
   13.2376   14.9872   22.9550 H   0  0  0  0  0  0  0  0  0  0  0  0
   12.5208   16.4813   22.3133 H   0  0  0  0  0  0  0  0  0  0  0  0
   11.6324   13.8658   19.7210 H   0  0  0  0  0  0  0  0  0  0  0  0
   13.1413   13.8703   20.6167 H   0  0  0  0  0  0  0  0  0  0  0  0
   12.5078   15.3947   19.9575 H   0  0  0  0  0  0  0  0  0  0  0  0
    9.5232   14.7830   20.7410 H   0  0  0  0  0  0  0  0  0  0  0  0
    9.5395   15.5038   22.3651 H   0  0  0  0  0  0  0  0  0  0  0  0
   10.2819   16.3465   20.9863 H   0  0  0  0  0  0  0  0  0  0  0  0
    8.7722    7.9920   23.5418 H   0  0  0  0  0  0  0  0  0  0  0  0
  1  2  1  0  0  0  0
  1  4  2  0  0  0  0
  2  6  2  0  0  0  0
  3  5  2  0  0  0  0
  3  6  1  0  0  0  0
  4  5  1  0  0  0  0
  4 10  1  0  0  0  0
  5 15  1  0  0  0  0
  6 19  1  0  0  0  0
  7 15  1  0  0  0  0
  7 16  2  0  0  0  0
  7 18  1  0  0  0  0
  8  9  1  0  0  0  0
  8 10  1  0  0  0  0
  9 15  1  0  0  0  0
 10 17  1  0  0  0  0
 11 14  1  0  0  0  0
 12 14  1  0  0  0  0
 13 14  1  0  0  0  0
 14 18  1  0  0  0  0
  1 20  1  0  0  0  0
  2 21  1  0  0  0  0
  3 22  1  0  0  0  0
  8 23  1  0  0  0  0
  8 24  1  0  0  0  0
  9 25  1  0  0  0  0
  9 26  1  0  0  0  0
 10 27  1  0  0  0  0
 11 28  1  0  0  0  0
 11 29  1  0  0  0  0
 11 30  1  0  0  0  0
 12 31  1  0  0  0  0
 12 32  1  0  0  0  0
 12 33  1  0  0  0  0
 13 34  1  0  0  0  0
 13 35  1  0  0  0  0
 13 36  1  0  0  0  0
 17 37  1  0  0  0  0
M  END
> <id>
EN300-26666141

> <smiles>
CC(C)(C)OC(=O)N1CCC(O)C=2C=CC(F)=CC12

> <IUPAC Name>
tert-butyl 7-fluoro-4-hydroxy-1,2,3,4-tetrahydroquinoline-1-carboxylate

> <CAS>
2413870-21-8

> <URL>
https://www.enaminestore.com/catalog/EN300-26666141

> <ROCS_ShapeQuery>
A71EV2A-x0451_0A_A71EV2A-x0310_0A_A71EV2A-x0416_0A_peptide

> <ROCS_TanimotoCombo>
0.493 

> <ROCS_ShapeTanimoto>
0.339 

> <ROCS_ColorTanimoto>
0.154 

> <ROCS_RefTversky>
0.296 

> <ROCS_RefColorTversky>
0.166 

> <ROCS_RefTverskyCombo>
0.461 

> <ROCS_FitTversky>
1.753 

> <ROCS_FitColorTversky>
0.692 

> <ROCS_FitTverskyCombo>
2.445 

> <ROCS_ColorScore>
-5.043

> <ROCS_Overlap>
2051.939

> <ROCS_Rank>
187                 

$$$$
untitled-dbase-45501_11
  -OEChem-11132313473D

 41 43  0     1  0  0  0  0  0999 V2000
    6.3066   11.1520   26.0042 C   0  0  0  0  0  0  0  0  0  0  0  0
    6.8099   10.2612   25.0567 C   0  0  0  0  0  0  0  0  0  0  0  0
    6.9200   12.3952   26.2036 C   0  0  0  0  0  0  0  0  0  0  0  0
    7.9345   10.6278   24.3290 C   0  0  0  0  0  0  0  0  0  0  0  0
    8.5443   11.8690   24.5245 C   0  0  0  0  0  0  0  0  0  0  0  0
    8.0437   12.7649   25.4589 C   0  0  0  0  0  0  0  0  0  0  0  0
   10.3757   13.1821   23.4613 C   0  0  0  0  0  0  0  0  0  0  0  0
   11.1885   10.0514   23.3078 C   0  0  0  0  0  0  0  0  0  0  0  0
   11.2173    9.4702   24.7139 C   0  0  0  0  0  0  0  0  0  0  0  0
    8.9082    8.3892   23.5527 C   0  0  0  0  0  0  0  0  0  0  0  0
    8.6113    9.8514   23.2298 C   0  0  2  0  0  0  0  0  0  0  0  0
    9.8569   10.7265   22.9292 C   0  0  1  0  0  0  0  0  0  0  0  0
   12.8047   14.5157   22.7348 C   0  0  0  0  0  0  0  0  0  0  0  0
   11.9487   14.3950   20.3764 C   0  0  0  0  0  0  0  0  0  0  0  0
   10.6722   15.6950   22.1052 C   0  0  0  0  0  0  0  0  0  0  0  0
   11.5590   14.4770   21.8508 C   0  0  0  0  0  0  0  0  0  0  0  0
    9.6471   12.0129   23.6560 N   0  0  0  0  0  0  0  0  0  0  0  0
   10.6038   14.0370   24.3128 O   0  0  0  0  0  0  0  0  0  0  0  0
   10.8129   13.2958   22.1662 O   0  0  0  0  0  0  0  0  0  0  0  0
   10.0147    8.1327   24.9783 S   0  0  0  0  0  0  0  0  0  0  0  0
    8.9164   14.3274   26.0984 Br  0  0  0  0  0  0  0  0  0  0  0  0
    5.4343   10.8805   26.5922 H   0  0  0  0  0  0  0  0  0  0  0  0
    6.3218    9.3061   24.8936 H   0  0  0  0  0  0  0  0  0  0  0  0
    6.5153   13.0470   26.9753 H   0  0  0  0  0  0  0  0  0  0  0  0
   12.0202   10.7708   23.1875 H   0  0  0  0  0  0  0  0  0  0  0  0
   11.4218    9.2359   22.6017 H   0  0  0  0  0  0  0  0  0  0  0  0
   12.2045    9.0583   24.9229 H   0  0  0  0  0  0  0  0  0  0  0  0
   11.0245   10.2547   25.4445 H   0  0  0  0  0  0  0  0  0  0  0  0
    7.9752    7.8108   23.7301 H   0  0  0  0  0  0  0  0  0  0  0  0
    9.3716    7.8968   22.6719 H   0  0  0  0  0  0  0  0  0  0  0  0
    7.9448    9.9016   22.3384 H   0  0  0  0  0  0  0  0  0  0  0  0
    9.8772   10.9562   21.8420 H   0  0  0  0  0  0  0  0  0  0  0  0
   12.5292   14.5746   23.7939 H   0  0  0  0  0  0  0  0  0  0  0  0
   13.4317   13.6304   22.5873 H   0  0  0  0  0  0  0  0  0  0  0  0
   13.4075   15.4061   22.5222 H   0  0  0  0  0  0  0  0  0  0  0  0
   11.0580   14.3669   19.7385 H   0  0  0  0  0  0  0  0  0  0  0  0
   12.5050   13.4734   20.1705 H   0  0  0  0  0  0  0  0  0  0  0  0
   12.5654   15.2473   20.0735 H   0  0  0  0  0  0  0  0  0  0  0  0
    9.7786   15.6675   21.4712 H   0  0  0  0  0  0  0  0  0  0  0  0
   10.3525   15.7497   23.1509 H   0  0  0  0  0  0  0  0  0  0  0  0
   11.2012   16.6215   21.8539 H   0  0  0  0  0  0  0  0  0  0  0  0
  1  2  1  0  0  0  0
  1  3  2  0  0  0  0
  2  4  2  0  0  0  0
  3  6  1  0  0  0  0
  4  5  1  0  0  0  0
  4 11  1  0  0  0  0
  5  6  2  0  0  0  0
  5 17  1  0  0  0  0
  6 21  1  0  0  0  0
  7 17  1  0  0  0  0
  7 18  2  0  0  0  0
  7 19  1  0  0  0  0
  8  9  1  0  0  0  0
  8 12  1  0  0  0  0
  9 20  1  0  0  0  0
 10 11  1  0  0  0  0
 10 20  1  0  0  0  0
 11 12  1  0  0  0  0
 12 17  1  0  0  0  0
 13 16  1  0  0  0  0
 14 16  1  0  0  0  0
 15 16  1  0  0  0  0
 16 19  1  0  0  0  0
  1 22  1  0  0  0  0
  2 23  1  0  0  0  0
  3 24  1  0  0  0  0
  8 25  1  0  0  0  0
  8 26  1  0  0  0  0
  9 27  1  0  0  0  0
  9 28  1  0  0  0  0
 10 29  1  0  0  0  0
 10 30  1  0  0  0  0
 11 31  1  0  0  0  0
 12 32  1  0  0  0  0
 13 33  1  0  0  0  0
 13 34  1  0  0  0  0
 13 35  1  0  0  0  0
 14 36  1  0  0  0  0
 14 37  1  0  0  0  0
 14 38  1  0  0  0  0
 15 39  1  0  0  0  0
 15 40  1  0  0  0  0
 15 41  1  0  0  0  0
M  END
> <id>
EN300-28300873

> <smiles>
CC(C)(C)OC(=O)N1C2CCSCC2C=3C=CC=C(Br)C13

> <IUPAC Name>
tert-butyl 6-bromo-1H,3H,4H,4aH,5H,9bH-thiopyrano[4,3-b]indole-5-carboxylate

> <CAS>
2680840-57-5

> <URL>
https://www.enaminestore.com/catalog/EN300-28300873

> <ROCS_ShapeQuery>
A71EV2A-x0451_0A_A71EV2A-x0310_0A_A71EV2A-x0416_0A_peptide

> <ROCS_TanimotoCombo>
0.493 

> <ROCS_ShapeTanimoto>
0.362 

> <ROCS_ColorTanimoto>
0.131 

> <ROCS_RefTversky>
0.313 

> <ROCS_RefColorTversky>
0.144 

> <ROCS_RefTverskyCombo>
0.457 

> <ROCS_FitTversky>
1.754 

> <ROCS_FitColorTversky>
0.598 

> <ROCS_FitTverskyCombo>
2.352 

> <ROCS_ColorScore>
-4.376

> <ROCS_Overlap>
2174.255

> <ROCS_Rank>
188                 

$$$$
untitled-dbase-45602_0
  -OEChem-11132313473D

 36 37  0     0  0  0  0  0  0999 V2000
    8.0239   12.7992   25.2624 C   0  0  0  0  0  0  0  0  0  0  0  0
    6.9590   12.0368   25.7867 C   0  0  0  0  0  0  0  0  0  0  0  0
    8.6441   11.9674   24.3540 C   0  0  0  0  0  0  0  0  0  0  0  0
   10.4199   13.3110   23.4136 C   0  0  0  0  0  0  0  0  0  0  0  0
    9.6656    9.5975   23.1864 C   0  0  0  0  0  0  0  0  0  0  0  0
    8.2008    9.6256   23.6001 C   0  0  0  0  0  0  0  0  0  0  0  0
   10.1016   10.9483   22.6177 C   0  0  0  0  0  0  0  0  0  0  0  0
    5.9485   12.4251   26.7904 C   0  0  0  0  0  0  0  0  0  0  0  0
   12.8110   14.7990   22.8755 C   0  0  0  0  0  0  0  0  0  0  0  0
   12.0213   14.8533   20.4916 C   0  0  0  0  0  0  0  0  0  0  0  0
   10.6484   15.9453   22.2890 C   0  0  0  0  0  0  0  0  0  0  0  0
   11.5910   14.7898   21.9555 C   0  0  0  0  0  0  0  0  0  0  0  0
    6.8935   10.8119   25.2614 N   0  0  0  0  0  0  0  0  0  0  0  0
    7.9279   10.7978   24.4054 N   0  0  0  0  0  0  0  0  0  0  0  0
    9.7388   12.0838   23.4911 N   0  0  0  0  0  0  0  0  0  0  0  0
   10.5948   14.1014   24.3379 O   0  0  0  0  0  0  0  0  0  0  0  0
   10.8863   13.5570   22.1452 O   0  0  0  0  0  0  0  0  0  0  0  0
    8.2379   14.5817   25.8078 Br  0  0  0  0  0  0  0  0  0  0  0  0
   10.2891    9.3605   24.0582 H   0  0  0  0  0  0  0  0  0  0  0  0
    9.8319    8.8053   22.4483 H   0  0  0  0  0  0  0  0  0  0  0  0
    7.5418    9.6807   22.7268 H   0  0  0  0  0  0  0  0  0  0  0  0
    7.9467    8.7358   24.1852 H   0  0  0  0  0  0  0  0  0  0  0  0
   11.1848   10.9236   22.4542 H   0  0  0  0  0  0  0  0  0  0  0  0
    9.6210   11.1264   21.6479 H   0  0  0  0  0  0  0  0  0  0  0  0
    5.0626   12.8714   26.3099 H   0  0  0  0  0  0  0  0  0  0  0  0
    5.6071   11.5631   27.3885 H   0  0  0  0  0  0  0  0  0  0  0  0
    6.3440   13.1596   27.5127 H   0  0  0  0  0  0  0  0  0  0  0  0
   12.5063   14.7536   23.9272 H   0  0  0  0  0  0  0  0  0  0  0  0
   13.4776   13.9552   22.6699 H   0  0  0  0  0  0  0  0  0  0  0  0
   13.3817   15.7274   22.7589 H   0  0  0  0  0  0  0  0  0  0  0  0
   11.1492   14.8469   19.8280 H   0  0  0  0  0  0  0  0  0  0  0  0
   12.6204   13.9758   20.2225 H   0  0  0  0  0  0  0  0  0  0  0  0
   12.6098   15.7523   20.2821 H   0  0  0  0  0  0  0  0  0  0  0  0
    9.7732   15.9389   21.6293 H   0  0  0  0  0  0  0  0  0  0  0  0
   10.3000   15.8951   23.3257 H   0  0  0  0  0  0  0  0  0  0  0  0
   11.1448   16.9101   22.1348 H   0  0  0  0  0  0  0  0  0  0  0  0
  1  2  1  0  0  0  0
  1  3  2  0  0  0  0
  1 18  1  0  0  0  0
  2  8  1  0  0  0  0
  2 13  2  0  0  0  0
  3 14  1  0  0  0  0
  3 15  1  0  0  0  0
  4 15  1  0  0  0  0
  4 16  2  0  0  0  0
  4 17  1  0  0  0  0
  5  6  1  0  0  0  0
  5  7  1  0  0  0  0
  6 14  1  0  0  0  0
  7 15  1  0  0  0  0
  9 12  1  0  0  0  0
 10 12  1  0  0  0  0
 11 12  1  0  0  0  0
 12 17  1  0  0  0  0
 13 14  1  0  0  0  0
  5 19  1  0  0  0  0
  5 20  1  0  0  0  0
  6 21  1  0  0  0  0
  6 22  1  0  0  0  0
  7 23  1  0  0  0  0
  7 24  1  0  0  0  0
  8 25  1  0  0  0  0
  8 26  1  0  0  0  0
  8 27  1  0  0  0  0
  9 28  1  0  0  0  0
  9 29  1  0  0  0  0
  9 30  1  0  0  0  0
 10 31  1  0  0  0  0
 10 32  1  0  0  0  0
 10 33  1  0  0  0  0
 11 34  1  0  0  0  0
 11 35  1  0  0  0  0
 11 36  1  0  0  0  0
M  END
> <id>
EN300-28293173

> <smiles>
CC1=NN2CCCN(C(=O)OC(C)(C)C)C2=C1Br

> <IUPAC Name>
tert-butyl 3-bromo-2-methyl-4H,5H,6H,7H-pyrazolo[1,5-a]pyrimidine-4-carboxylate

> <CAS>
2680708-75-0

> <URL>
https://www.enaminestore.com/catalog/EN300-28293173

> <ROCS_ShapeQuery>
A71EV2A-x0451_0A_A71EV2A-x0310_0A_A71EV2A-x0416_0A_peptide

> <ROCS_TanimotoCombo>
0.493 

> <ROCS_ShapeTanimoto>
0.339 

> <ROCS_ColorTanimoto>
0.154 

> <ROCS_RefTversky>
0.294 

> <ROCS_RefColorTversky>
0.166 

> <ROCS_RefTverskyCombo>
0.460 

> <ROCS_FitTversky>
1.812 

> <ROCS_FitColorTversky>
0.690 

> <ROCS_FitTverskyCombo>
2.501 

> <ROCS_ColorScore>
-5.038

> <ROCS_Overlap>
2039.268

> <ROCS_Rank>
189                 

$$$$
untitled-dbase-30426_0
  -OEChem-11132313473D

 29 32  0     0  0  0  0  0  0999 V2000
    9.2013    8.4964   23.7961 C   0  0  0  0  0  0  0  0  0  0  0  0
    5.1766   10.8612   26.4646 C   0  0  0  0  0  0  0  0  0  0  0  0
    5.7862   13.6858   25.9737 C   0  0  0  0  0  0  0  0  0  0  0  0
   11.6767   15.3978   21.9368 C   0  0  0  0  0  0  0  0  0  0  0  0
   10.5364   15.6290   22.7042 C   0  0  0  0  0  0  0  0  0  0  0  0
   12.0958   14.0923   21.6853 C   0  0  0  0  0  0  0  0  0  0  0  0
    9.8042   14.5599   23.2273 C   0  0  0  0  0  0  0  0  0  0  0  0
    9.0994    9.9185   23.8271 C   0  0  0  0  0  0  0  0  0  0  0  0
    6.2989   11.2901   25.6916 C   0  0  0  0  0  0  0  0  0  0  0  0
    6.5867   12.6194   25.4600 C   0  0  0  0  0  0  0  0  0  0  0  0
   11.3731   13.0114   22.2027 C   0  0  0  0  0  0  0  0  0  0  0  0
    8.1112   10.6807   24.4776 C   0  0  0  0  0  0  0  0  0  0  0  0
   10.2204   13.2502   22.9782 C   0  0  0  0  0  0  0  0  0  0  0  0
    9.9637   10.8038   23.2163 C   0  0  0  0  0  0  0  0  0  0  0  0
    8.3884   12.0264   24.2530 C   0  0  0  0  0  0  0  0  0  0  0  0
   11.8127   11.6369   21.9400 C   0  0  0  0  0  0  0  0  0  0  0  0
   11.1272   10.5969   22.4321 C   0  0  0  0  0  0  0  0  0  0  0  0
    9.2842    7.3392   23.7710 N   0  0  0  0  0  0  0  0  0  0  0  0
    4.2651   10.5127   27.0927 N   0  0  0  0  0  0  0  0  0  0  0  0
    5.1362   14.5519   26.3911 N   0  0  0  0  0  0  0  0  0  0  0  0
    7.0441   10.2773   25.2130 N   0  0  0  0  0  0  0  0  0  0  0  0
    7.6396   13.0398   24.7338 N   0  0  0  0  0  0  0  0  0  0  0  0
    9.5324   12.1049   23.4748 N   0  0  0  0  0  0  0  0  0  0  0  0
   12.2394   16.2355   21.5352 H   0  0  0  0  0  0  0  0  0  0  0  0
   10.2145   16.6487   22.8976 H   0  0  0  0  0  0  0  0  0  0  0  0
   12.9873   13.9305   21.0844 H   0  0  0  0  0  0  0  0  0  0  0  0
    8.9284   14.7999   23.8167 H   0  0  0  0  0  0  0  0  0  0  0  0
   12.7027   11.4779   21.3408 H   0  0  0  0  0  0  0  0  0  0  0  0
   11.4650    9.5856   22.2290 H   0  0  0  0  0  0  0  0  0  0  0  0
  1  8  1  0  0  0  0
  1 18  3  0  0  0  0
  2  9  1  0  0  0  0
  2 19  3  0  0  0  0
  3 10  1  0  0  0  0
  3 20  3  0  0  0  0
  4  5  2  0  0  0  0
  4  6  1  0  0  0  0
  5  7  1  0  0  0  0
  6 11  2  0  0  0  0
  7 13  2  0  0  0  0
  8 12  1  0  0  0  0
  8 14  2  0  0  0  0
  9 10  2  0  0  0  0
  9 21  1  0  0  0  0
 10 22  1  0  0  0  0
 11 13  1  0  0  0  0
 11 16  1  0  0  0  0
 12 15  1  0  0  0  0
 12 21  2  0  0  0  0
 13 23  1  0  0  0  0
 14 17  1  0  0  0  0
 14 23  1  0  0  0  0
 15 22  2  0  0  0  0
 15 23  1  0  0  0  0
 16 17  2  0  0  0  0
  4 24  1  0  0  0  0
  5 25  1  0  0  0  0
  6 26  1  0  0  0  0
  7 27  1  0  0  0  0
 16 28  1  0  0  0  0
 17 29  1  0  0  0  0
M  END
> <id>
EN300-26599443

> <smiles>
N#CC1=C2C=CC=3C=CC=CC3N2C=4N=C(C#N)C(C#N)=NC14

> <IUPAC Name>
1,13,16-triazatetracyclo[8.7.0.0^{2,7}.0^{12,17}]heptadeca-2(7),3,5,8,10,12(17),13,15-octaene-11,14,15-tricarbonitrile

> <CAS>
268205-27-2

> <URL>
https://www.enaminestore.com/catalog/EN300-26599443

> <ROCS_ShapeQuery>
A71EV2A-x0451_0A_A71EV2A-x0310_0A_A71EV2A-x0416_0A_peptide

> <ROCS_TanimotoCombo>
0.493 

> <ROCS_ShapeTanimoto>
0.375 

> <ROCS_ColorTanimoto>
0.118 

> <ROCS_RefTversky>
0.328 

> <ROCS_RefColorTversky>
0.140 

> <ROCS_RefTverskyCombo>
0.468 

> <ROCS_FitTversky>
1.619 

> <ROCS_FitColorTversky>
0.422 

> <ROCS_FitTverskyCombo>
2.041 

> <ROCS_ColorScore>
-4.293

> <ROCS_Overlap>
2279.418

> <ROCS_Rank>
190                 

$$$$
untitled-dbase-28236_28
  -OEChem-11132313473D

 38 39  0     1  0  0  0  0  0999 V2000
    6.3982   11.6368   26.3430 C   0  0  0  0  0  0  0  0  0  0  0  0
    6.8727   12.9231   26.1189 C   0  0  0  0  0  0  0  0  0  0  0  0
    6.9247   10.5723   25.6186 C   0  0  0  0  0  0  0  0  0  0  0  0
    7.8756   13.1501   25.1708 C   0  0  0  0  0  0  0  0  0  0  0  0
    7.9323   10.7969   24.6683 C   0  0  0  0  0  0  0  0  0  0  0  0
    8.4298   12.0935   24.4295 C   0  0  0  0  0  0  0  0  0  0  0  0
    8.5023    9.6200   23.9652 C   0  0  0  0  0  0  0  0  0  0  0  0
   10.2367   13.4687   23.3743 C   0  0  0  0  0  0  0  0  0  0  0  0
    9.5582   11.2479   22.4152 C   0  0  0  0  0  0  0  0  0  0  0  0
    9.6644    9.8593   23.0310 C   0  0  1  0  0  0  0  0  0  0  0  0
   10.9809    9.6399   23.7693 C   0  0  0  0  0  0  0  0  0  0  0  0
   12.9574   13.5181   22.4680 C   0  0  0  0  0  0  0  0  0  0  0  0
   12.0669   14.7045   20.4411 C   0  0  0  0  0  0  0  0  0  0  0  0
   11.8393   15.7600   22.7088 C   0  0  0  0  0  0  0  0  0  0  0  0
   11.8665   14.4442   21.9325 C   0  0  0  0  0  0  0  0  0  0  0  0
    9.4383   12.3096   23.4263 N   0  0  0  0  0  0  0  0  0  0  0  0
    8.0752    8.4893   24.1800 O   0  0  0  0  0  0  0  0  0  0  0  0
   10.6083   14.1301   24.3411 O   0  0  0  0  0  0  0  0  0  0  0  0
   10.5991   13.7950   22.0908 O   0  0  0  0  0  0  0  0  0  0  0  0
    5.6222   11.4631   27.0825 H   0  0  0  0  0  0  0  0  0  0  0  0
    6.4724   13.7549   26.6917 H   0  0  0  0  0  0  0  0  0  0  0  0
    6.5308    9.5763   25.8022 H   0  0  0  0  0  0  0  0  0  0  0  0
    8.2279   14.1712   25.0772 H   0  0  0  0  0  0  0  0  0  0  0  0
   10.4481   11.4856   21.8111 H   0  0  0  0  0  0  0  0  0  0  0  0
    8.7018   11.2642   21.7290 H   0  0  0  0  0  0  0  0  0  0  0  0
    9.5904    9.0903   22.2334 H   0  0  0  0  0  0  0  0  0  0  0  0
   11.0876   10.3791   24.5616 H   0  0  0  0  0  0  0  0  0  0  0  0
   11.8142    9.7383   23.0754 H   0  0  0  0  0  0  0  0  0  0  0  0
   10.9970    8.6431   24.2071 H   0  0  0  0  0  0  0  0  0  0  0  0
   12.8171   13.3287   23.5383 H   0  0  0  0  0  0  0  0  0  0  0  0
   12.9646   12.5573   21.9430 H   0  0  0  0  0  0  0  0  0  0  0  0
   13.9469   13.9775   22.3625 H   0  0  0  0  0  0  0  0  0  0  0  0
   11.2863   15.3686   20.0526 H   0  0  0  0  0  0  0  0  0  0  0  0
   11.9924   13.7728   19.8688 H   0  0  0  0  0  0  0  0  0  0  0  0
   13.0418   15.1593   20.2378 H   0  0  0  0  0  0  0  0  0  0  0  0
   11.0568   16.4245   22.3248 H   0  0  0  0  0  0  0  0  0  0  0  0
   11.6595   15.5950   23.7761 H   0  0  0  0  0  0  0  0  0  0  0  0
   12.7866   16.2995   22.5945 H   0  0  0  0  0  0  0  0  0  0  0  0
  1  2  2  0  0  0  0
  1  3  1  0  0  0  0
  2  4  1  0  0  0  0
  3  5  2  0  0  0  0
  4  6  2  0  0  0  0
  5  6  1  0  0  0  0
  5  7  1  0  0  0  0
  6 16  1  0  0  0  0
  7 10  1  0  0  0  0
  7 17  2  0  0  0  0
  8 16  1  0  0  0  0
  8 18  2  0  0  0  0
  8 19  1  0  0  0  0
  9 10  1  0  0  0  0
  9 16  1  0  0  0  0
 10 11  1  0  0  0  0
 12 15  1  0  0  0  0
 13 15  1  0  0  0  0
 14 15  1  0  0  0  0
 15 19  1  0  0  0  0
  1 20  1  0  0  0  0
  2 21  1  0  0  0  0
  3 22  1  0  0  0  0
  4 23  1  0  0  0  0
  9 24  1  0  0  0  0
  9 25  1  0  0  0  0
 10 26  1  0  0  0  0
 11 27  1  0  0  0  0
 11 28  1  0  0  0  0
 11 29  1  0  0  0  0
 12 30  1  0  0  0  0
 12 31  1  0  0  0  0
 12 32  1  0  0  0  0
 13 33  1  0  0  0  0
 13 34  1  0  0  0  0
 13 35  1  0  0  0  0
 14 36  1  0  0  0  0
 14 37  1  0  0  0  0
 14 38  1  0  0  0  0
M  END
> <id>
EN300-7443856

> <smiles>
CC1CN(C(=O)OC(C)(C)C)C=2C=CC=CC2C1=O

> <MDLNUMBER>
MFCD24465867

> <IUPAC Name>
tert-butyl 3-methyl-4-oxo-1,2,3,4-tetrahydroquinoline-1-carboxylate

> <CAS>
179899-24-2

> <Purity>
95

> <URL>
https://www.enaminestore.com/catalog/EN300-7443856

> <ROCS_ShapeQuery>
A71EV2A-x0451_0A_A71EV2A-x0310_0A_A71EV2A-x0416_0A_peptide

> <ROCS_TanimotoCombo>
0.492 

> <ROCS_ShapeTanimoto>
0.358 

> <ROCS_ColorTanimoto>
0.134 

> <ROCS_RefTversky>
0.308 

> <ROCS_RefColorTversky>
0.143 

> <ROCS_RefTverskyCombo>
0.451 

> <ROCS_FitTversky>
1.824 

> <ROCS_FitColorTversky>
0.685 

> <ROCS_FitTverskyCombo>
2.509 

> <ROCS_ColorScore>
-4.345

> <ROCS_Overlap>
2137.838

> <ROCS_Rank>
191                 

$$$$
untitled-dbase-14555_156
  -OEChem-11132313473D

 48 50  0     1  0  0  0  0  0999 V2000
    6.2236   11.5079   26.3369 C   0  0  0  0  0  0  0  0  0  0  0  0
    6.9532   12.5482   25.8008 C   0  0  0  0  0  0  0  0  0  0  0  0
    6.7221   10.3352   25.7301 C   0  0  0  0  0  0  0  0  0  0  0  0
    7.7192   10.7419   24.8723 C   0  0  0  0  0  0  0  0  0  0  0  0
   10.5924   13.2787   23.2856 C   0  0  0  0  0  0  0  0  0  0  0  0
    6.3494    8.9062   25.8521 C   0  0  0  0  0  0  0  0  0  0  0  0
    8.6199   10.4148   22.5423 C   0  0  0  0  0  0  0  0  0  0  0  0
   10.0109    9.7507   24.5659 C   0  0  0  0  0  0  0  0  0  0  0  0
    7.4468    8.0135   25.2323 C   0  0  0  0  0  0  0  0  0  0  0  0
    9.9132   11.1606   22.1960 C   0  0  0  0  0  0  0  0  0  0  0  0
   10.7919   11.0832   24.5256 C   0  0  1  0  0  0  0  0  0  0  0  0
    8.5753    9.8716   23.9972 C   0  0  1  0  0  0  0  0  0  0  0  0
   12.2983   10.8228   24.5892 C   0  0  0  0  0  0  0  0  0  0  0  0
   13.0005   14.6450   22.5633 C   0  0  0  0  0  0  0  0  0  0  0  0
   11.8097   15.2312   20.4308 C   0  0  0  0  0  0  0  0  0  0  0  0
   10.9144   16.0515   22.6294 C   0  0  0  0  0  0  0  0  0  0  0  0
   11.6431   14.9140   21.9154 C   0  0  0  0  0  0  0  0  0  0  0  0
    7.9319    8.5238   23.9352 N   0  0  0  0  0  0  0  0  0  0  0  0
   10.4435   11.8883   23.3407 N   0  0  0  0  0  0  0  0  0  0  0  0
   10.5120   14.0254   24.2590 O   0  0  0  0  0  0  0  0  0  0  0  0
    7.8672   12.0895   24.9013 O   0  0  0  0  0  0  0  0  0  0  0  0
   10.8470   13.7282   22.0164 O   0  0  0  0  0  0  0  0  0  0  0  0
    5.4361   11.5926   27.0717 H   0  0  0  0  0  0  0  0  0  0  0  0
    6.9447   13.6181   25.9487 H   0  0  0  0  0  0  0  0  0  0  0  0
    6.1997    8.6328   26.9040 H   0  0  0  0  0  0  0  0  0  0  0  0
    5.3990    8.7391   25.3272 H   0  0  0  0  0  0  0  0  0  0  0  0
    7.7721   11.0983   22.3695 H   0  0  0  0  0  0  0  0  0  0  0  0
    8.4786    9.5898   21.8251 H   0  0  0  0  0  0  0  0  0  0  0  0
   10.5763    8.9738   24.0619 H   0  0  0  0  0  0  0  0  0  0  0  0
    9.9433    9.4503   25.6115 H   0  0  0  0  0  0  0  0  0  0  0  0
    8.2847    7.9044   25.9304 H   0  0  0  0  0  0  0  0  0  0  0  0
    7.0344    7.0098   25.0820 H   0  0  0  0  0  0  0  0  0  0  0  0
   10.6874   10.4674   21.8532 H   0  0  0  0  0  0  0  0  0  0  0  0
    9.7149   11.8454   21.3659 H   0  0  0  0  0  0  0  0  0  0  0  0
   10.5403   11.5966   25.4136 H   0  0  0  0  0  0  0  0  0  0  0  0
   12.6170   10.2927   23.6941 H   0  0  0  0  0  0  0  0  0  0  0  0
   12.5296   10.2196   25.4645 H   0  0  0  0  0  0  0  0  0  0  0  0
   12.8315   11.7689   24.6545 H   0  0  0  0  0  0  0  0  0  0  0  0
   12.8852   14.4170   23.6290 H   0  0  0  0  0  0  0  0  0  0  0  0
   13.5183   13.8085   22.0827 H   0  0  0  0  0  0  0  0  0  0  0  0
   13.6442   15.5302   22.5045 H   0  0  0  0  0  0  0  0  0  0  0  0
   10.8382   15.4249   19.9619 H   0  0  0  0  0  0  0  0  0  0  0  0
   12.2461   14.3797   19.8964 H   0  0  0  0  0  0  0  0  0  0  0  0
   12.4508   16.1046   20.2737 H   0  0  0  0  0  0  0  0  0  0  0  0
    9.9407   16.2447   22.1648 H   0  0  0  0  0  0  0  0  0  0  0  0
   10.7532   15.8253   23.6884 H   0  0  0  0  0  0  0  0  0  0  0  0
   11.4830   16.9856   22.5554 H   0  0  0  0  0  0  0  0  0  0  0  0
    8.5484    7.8413   23.5031 H   0  0  0  0  0  0  0  0  0  0  0  0
  1  2  2  0  0  0  0
  1  3  1  0  0  0  0
  2 21  1  0  0  0  0
  3  4  2  0  0  0  0
  3  6  1  0  0  0  0
  4 12  1  0  0  0  0
  4 21  1  0  0  0  0
  5 19  1  0  0  0  0
  5 20  2  0  0  0  0
  5 22  1  0  0  0  0
  6  9  1  0  0  0  0
  7 10  1  0  0  0  0
  7 12  1  0  0  0  0
  8 11  1  0  0  0  0
  8 12  1  0  0  0  0
  9 18  1  0  0  0  0
 10 19  1  0  0  0  0
 11 13  1  0  0  0  0
 11 19  1  0  0  0  0
 12 18  1  0  0  0  0
 14 17  1  0  0  0  0
 15 17  1  0  0  0  0
 16 17  1  0  0  0  0
 17 22  1  0  0  0  0
  1 23  1  0  0  0  0
  2 24  1  0  0  0  0
  6 25  1  0  0  0  0
  6 26  1  0  0  0  0
  7 27  1  0  0  0  0
  7 28  1  0  0  0  0
  8 29  1  0  0  0  0
  8 30  1  0  0  0  0
  9 31  1  0  0  0  0
  9 32  1  0  0  0  0
 10 33  1  0  0  0  0
 10 34  1  0  0  0  0
 11 35  1  0  0  0  0
 13 36  1  0  0  0  0
 13 37  1  0  0  0  0
 13 38  1  0  0  0  0
 14 39  1  0  0  0  0
 14 40  1  0  0  0  0
 14 41  1  0  0  0  0
 15 42  1  0  0  0  0
 15 43  1  0  0  0  0
 15 44  1  0  0  0  0
 16 45  1  0  0  0  0
 16 46  1  0  0  0  0
 16 47  1  0  0  0  0
 18 48  1  0  0  0  0
M  END
> <id>
EN300-1076846

> <smiles>
CC1CC2(CCN1C(=O)OC(C)(C)C)NCCC=3C=COC32

> <IUPAC Name>
tert-butyl 6'-methyl-5,6-dihydro-4H-spiro[furo[2,3-c]pyridine-7,4'-piperidine]-1'-carboxylate

> <CAS>
2137446-84-3

> <URL>
https://www.enaminestore.com/catalog/EN300-1076846

> <ROCS_ShapeQuery>
A71EV2A-x0451_0A_A71EV2A-x0310_0A_A71EV2A-x0416_0A_peptide

> <ROCS_TanimotoCombo>
0.492 

> <ROCS_ShapeTanimoto>
0.356 

> <ROCS_ColorTanimoto>
0.137 

> <ROCS_RefTversky>
0.312 

> <ROCS_RefColorTversky>
0.156 

> <ROCS_RefTverskyCombo>
0.468 

> <ROCS_FitTversky>
1.659 

> <ROCS_FitColorTversky>
0.519 

> <ROCS_FitTverskyCombo>
2.178 

> <ROCS_ColorScore>
-4.774

> <ROCS_Overlap>
2163.703

> <ROCS_Rank>
192                 

$$$$
untitled-dbase-30067_7
  -OEChem-11132313473D

 41 42  0     1  0  0  0  0  0999 V2000
    6.3640   11.8481   26.2991 C   0  0  0  0  0  0  0  0  0  0  0  0
    6.7879   13.0583   25.7752 C   0  0  0  0  0  0  0  0  0  0  0  0
    6.9998   10.6715   25.9112 C   0  0  0  0  0  0  0  0  0  0  0  0
    7.8390   13.0879   24.8587 C   0  0  0  0  0  0  0  0  0  0  0  0
    8.0764   10.6713   24.9926 C   0  0  0  0  0  0  0  0  0  0  0  0
    8.4960   11.9092   24.4460 C   0  0  0  0  0  0  0  0  0  0  0  0
   10.4449   13.0849   23.4490 C   0  0  0  0  0  0  0  0  0  0  0  0
   10.4774    9.7915   22.8978 C   0  0  0  0  0  0  0  0  0  0  0  0
   10.2102    9.3524   24.3359 C   0  0  0  0  0  0  0  0  0  0  0  0
    9.5990   10.9469   22.4468 C   0  0  0  0  0  0  0  0  0  0  0  0
    8.7275    9.3129   24.7433 C   0  0  2  0  0  0  0  0  0  0  0  0
   11.7902   15.3286   22.2788 C   0  0  0  0  0  0  0  0  0  0  0  0
   12.5627   13.7124   20.5180 C   0  0  0  0  0  0  0  0  0  0  0  0
   10.1097   14.1660   20.8094 C   0  0  0  0  0  0  0  0  0  0  0  0
   11.4580   14.0456   21.5183 C   0  0  0  0  0  0  0  0  0  0  0  0
    9.5290   12.0131   23.4503 N   0  0  0  0  0  0  0  0  0  0  0  0
    7.9410    8.4952   23.8135 N   0  0  0  0  0  0  0  0  0  0  0  0
   10.4539   14.0153   24.2529 O   0  0  0  0  0  0  0  0  0  0  0  0
   11.3851   12.9656   22.4564 O   0  0  0  0  0  0  0  0  0  0  0  0
    5.5436   11.8159   27.0094 H   0  0  0  0  0  0  0  0  0  0  0  0
    6.2934   13.9810   26.0643 H   0  0  0  0  0  0  0  0  0  0  0  0
    6.6580    9.7349   26.3490 H   0  0  0  0  0  0  0  0  0  0  0  0
    8.0976   14.0545   24.4326 H   0  0  0  0  0  0  0  0  0  0  0  0
   11.5354   10.0653   22.8036 H   0  0  0  0  0  0  0  0  0  0  0  0
   10.3202    8.9454   22.2176 H   0  0  0  0  0  0  0  0  0  0  0  0
   10.6506    8.3551   24.4698 H   0  0  0  0  0  0  0  0  0  0  0  0
   10.7573   10.0121   25.0227 H   0  0  0  0  0  0  0  0  0  0  0  0
    9.9897   11.3446   21.5034 H   0  0  0  0  0  0  0  0  0  0  0  0
    8.5810   10.6137   22.2118 H   0  0  0  0  0  0  0  0  0  0  0  0
    8.7226    8.7882   25.7098 H   0  0  0  0  0  0  0  0  0  0  0  0
   10.9996   15.5711   22.9978 H   0  0  0  0  0  0  0  0  0  0  0  0
   12.7381   15.2427   22.8200 H   0  0  0  0  0  0  0  0  0  0  0  0
   11.8583   16.1821   21.5946 H   0  0  0  0  0  0  0  0  0  0  0  0
   12.3285   12.7925   19.9700 H   0  0  0  0  0  0  0  0  0  0  0  0
   13.5135   13.5317   21.0324 H   0  0  0  0  0  0  0  0  0  0  0  0
   12.7086   14.5200   19.7933 H   0  0  0  0  0  0  0  0  0  0  0  0
    9.8711   13.2458   20.2639 H   0  0  0  0  0  0  0  0  0  0  0  0
    9.2989   14.3684   21.5167 H   0  0  0  0  0  0  0  0  0  0  0  0
   10.1313   14.9700   20.0650 H   0  0  0  0  0  0  0  0  0  0  0  0
    8.3747    7.6071   23.7478 H   0  0  0  0  0  0  0  0  0  0  0  0
    7.0239    8.4166   24.1795 H   0  0  0  0  0  0  0  0  0  0  0  0
  1  2  2  0  0  0  0
  1  3  1  0  0  0  0
  2  4  1  0  0  0  0
  3  5  2  0  0  0  0
  4  6  2  0  0  0  0
  5  6  1  0  0  0  0
  5 11  1  0  0  0  0
  6 16  1  0  0  0  0
  7 16  1  0  0  0  0
  7 18  2  0  0  0  0
  7 19  1  0  0  0  0
  8  9  1  0  0  0  0
  8 10  1  0  0  0  0
  9 11  1  0  0  0  0
 10 16  1  0  0  0  0
 11 17  1  0  0  0  0
 12 15  1  0  0  0  0
 13 15  1  0  0  0  0
 14 15  1  0  0  0  0
 15 19  1  0  0  0  0
  1 20  1  0  0  0  0
  2 21  1  0  0  0  0
  3 22  1  0  0  0  0
  4 23  1  0  0  0  0
  8 24  1  0  0  0  0
  8 25  1  0  0  0  0
  9 26  1  0  0  0  0
  9 27  1  0  0  0  0
 10 28  1  0  0  0  0
 10 29  1  0  0  0  0
 11 30  1  0  0  0  0
 12 31  1  0  0  0  0
 12 32  1  0  0  0  0
 12 33  1  0  0  0  0
 13 34  1  0  0  0  0
 13 35  1  0  0  0  0
 13 36  1  0  0  0  0
 14 37  1  0  0  0  0
 14 38  1  0  0  0  0
 14 39  1  0  0  0  0
 17 40  1  0  0  0  0
 17 41  1  0  0  0  0
M  END
> <id>
EN300-1223396

> <smiles>
CC(C)(C)OC(=O)N1CCCC(N)C=2C=CC=CC12

> <MDLNUMBER>
MFCD03426405

> <IUPAC Name>
tert-butyl 5-amino-2,3,4,5-tetrahydro-1H-1-benzazepine-1-carboxylate

> <CAS>
811841-95-9

> <Purity>
95

> <URL>
https://www.enaminestore.com/catalog/EN300-1223396

> <ROCS_ShapeQuery>
A71EV2A-x0451_0A_A71EV2A-x0310_0A_A71EV2A-x0416_0A_peptide

> <ROCS_TanimotoCombo>
0.492 

> <ROCS_ShapeTanimoto>
0.341 

> <ROCS_ColorTanimoto>
0.151 

> <ROCS_RefTversky>
0.297 

> <ROCS_RefColorTversky>
0.162 

> <ROCS_RefTverskyCombo>
0.459 

> <ROCS_FitTversky>
1.774 

> <ROCS_FitColorTversky>
0.678 

> <ROCS_FitTverskyCombo>
2.453 

> <ROCS_ColorScore>
-4.943

> <ROCS_Overlap>
2060.523

> <ROCS_Rank>
193                 

$$$$
untitled-dbase-45382_79
  -OEChem-11132313473D

 43 44  0     0  0  0  0  0  0999 V2000
    6.9990   10.2520   25.9708 C   0  0  0  0  0  0  0  0  0  0  0  0
    6.3198   11.2034   26.7283 C   0  0  0  0  0  0  0  0  0  0  0  0
    7.0107   12.9214   25.1779 C   0  0  0  0  0  0  0  0  0  0  0  0
    7.7009   11.9756   24.4046 C   0  0  0  0  0  0  0  0  0  0  0  0
    7.7060   10.6390   24.8276 C   0  0  0  0  0  0  0  0  0  0  0  0
    6.3302   12.5387   26.3351 C   0  0  0  0  0  0  0  0  0  0  0  0
   10.7947   13.0021   23.5012 C   0  0  0  0  0  0  0  0  0  0  0  0
    8.3741   12.4063   23.1306 C   0  0  0  0  0  0  0  0  0  0  0  0
   10.1502   10.6943   22.8513 C   0  0  0  0  0  0  0  0  0  0  0  0
    9.7592    9.7286   23.9888 C   0  0  0  0  0  0  0  0  0  0  0  0
   10.1820    8.3106   23.5561 C   0  0  0  0  0  0  0  0  0  0  0  0
   10.4823   10.0387   25.3129 C   0  0  0  0  0  0  0  0  0  0  0  0
   12.6598   15.0888   22.9050 C   0  0  0  0  0  0  0  0  0  0  0  0
   13.7704   13.4132   21.3990 C   0  0  0  0  0  0  0  0  0  0  0  0
   11.4092   14.1357   20.9397 C   0  0  0  0  0  0  0  0  0  0  0  0
   12.4499   13.8584   22.0236 C   0  0  0  0  0  0  0  0  0  0  0  0
    9.8011   12.0846   23.1372 N   0  0  0  0  0  0  0  0  0  0  0  0
   10.6333   13.9142   24.3100 O   0  0  0  0  0  0  0  0  0  0  0  0
    8.3243    9.6366   24.1300 O   0  0  0  0  0  0  0  0  0  0  0  0
   11.9777   12.7848   22.8450 O   0  0  0  0  0  0  0  0  0  0  0  0
    5.4379   13.8375   27.3789 Br  0  0  0  0  0  0  0  0  0  0  0  0
    6.9653    9.2071   26.2684 H   0  0  0  0  0  0  0  0  0  0  0  0
    5.7900   10.8877   27.6231 H   0  0  0  0  0  0  0  0  0  0  0  0
    7.0148   13.9664   24.8740 H   0  0  0  0  0  0  0  0  0  0  0  0
    7.8962   11.9360   22.2646 H   0  0  0  0  0  0  0  0  0  0  0  0
    8.2530   13.4880   22.9950 H   0  0  0  0  0  0  0  0  0  0  0  0
   11.2333   10.6673   22.6784 H   0  0  0  0  0  0  0  0  0  0  0  0
    9.6653   10.3855   21.9180 H   0  0  0  0  0  0  0  0  0  0  0  0
    9.9195    7.6064   24.3379 H   0  0  0  0  0  0  0  0  0  0  0  0
   11.2538    8.2931   23.3917 H   0  0  0  0  0  0  0  0  0  0  0  0
    9.6659    8.0494   22.6387 H   0  0  0  0  0  0  0  0  0  0  0  0
   10.1640    9.3270   26.0660 H   0  0  0  0  0  0  0  0  0  0  0  0
   10.2300   11.0448   25.6276 H   0  0  0  0  0  0  0  0  0  0  0  0
   11.5524    9.9584   25.1598 H   0  0  0  0  0  0  0  0  0  0  0  0
   11.7143   15.4115   23.3552 H   0  0  0  0  0  0  0  0  0  0  0  0
   13.3780   14.8923   23.7077 H   0  0  0  0  0  0  0  0  0  0  0  0
   13.0254   15.9359   22.3133 H   0  0  0  0  0  0  0  0  0  0  0  0
   13.6245   12.5306   20.7657 H   0  0  0  0  0  0  0  0  0  0  0  0
   14.4899   13.1223   22.1729 H   0  0  0  0  0  0  0  0  0  0  0  0
   14.2173   14.2062   20.7907 H   0  0  0  0  0  0  0  0  0  0  0  0
   11.2585   13.2533   20.3074 H   0  0  0  0  0  0  0  0  0  0  0  0
   10.4441   14.4209   21.3708 H   0  0  0  0  0  0  0  0  0  0  0  0
   11.7445   14.9394   20.2742 H   0  0  0  0  0  0  0  0  0  0  0  0
  1  2  1  0  0  0  0
  1  5  2  0  0  0  0
  2  6  2  0  0  0  0
  3  4  2  0  0  0  0
  3  6  1  0  0  0  0
  4  5  1  0  0  0  0
  4  8  1  0  0  0  0
  5 19  1  0  0  0  0
  6 21  1  0  0  0  0
  7 17  1  0  0  0  0
  7 18  2  0  0  0  0
  7 20  1  0  0  0  0
  8 17  1  0  0  0  0
  9 10  1  0  0  0  0
  9 17  1  0  0  0  0
 10 11  1  0  0  0  0
 10 12  1  0  0  0  0
 10 19  1  0  0  0  0
 13 16  1  0  0  0  0
 14 16  1  0  0  0  0
 15 16  1  0  0  0  0
 16 20  1  0  0  0  0
  1 22  1  0  0  0  0
  2 23  1  0  0  0  0
  3 24  1  0  0  0  0
  8 25  1  0  0  0  0
  8 26  1  0  0  0  0
  9 27  1  0  0  0  0
  9 28  1  0  0  0  0
 11 29  1  0  0  0  0
 11 30  1  0  0  0  0
 11 31  1  0  0  0  0
 12 32  1  0  0  0  0
 12 33  1  0  0  0  0
 12 34  1  0  0  0  0
 13 35  1  0  0  0  0
 13 36  1  0  0  0  0
 13 37  1  0  0  0  0
 14 38  1  0  0  0  0
 14 39  1  0  0  0  0
 14 40  1  0  0  0  0
 15 41  1  0  0  0  0
 15 42  1  0  0  0  0
 15 43  1  0  0  0  0
M  END
> <id>
EN300-28299270

> <smiles>
CC(C)(C)OC(=O)N1CC=2C=C(Br)C=CC2OC(C)(C)C1

> <IUPAC Name>
tert-butyl 7-bromo-2,2-dimethyl-2,3,4,5-tetrahydro-1,4-benzoxazepine-4-carboxylate

> <CAS>
2055649-27-7

> <URL>
https://www.enaminestore.com/catalog/EN300-28299270

> <ROCS_ShapeQuery>
A71EV2A-x0451_0A_A71EV2A-x0310_0A_A71EV2A-x0416_0A_peptide

> <ROCS_TanimotoCombo>
0.492 

> <ROCS_ShapeTanimoto>
0.346 

> <ROCS_ColorTanimoto>
0.146 

> <ROCS_RefTversky>
0.303 

> <ROCS_RefColorTversky>
0.162 

> <ROCS_RefTverskyCombo>
0.465 

> <ROCS_FitTversky>
1.696 

> <ROCS_FitColorTversky>
0.598 

> <ROCS_FitTverskyCombo>
2.294 

> <ROCS_ColorScore>
-4.930

> <ROCS_Overlap>
2103.628

> <ROCS_Rank>
194                 

$$$$
untitled-dbase-34621_116
  -OEChem-11132313473D

 50 52  0     1  0  0  0  0  0999 V2000
   10.8441   13.1145   23.5111 C   0  0  0  0  0  0  0  0  0  0  0  0
    5.6904   11.1944   26.5851 C   0  0  0  0  0  0  0  0  0  0  0  0
    8.5982    7.4376   23.2902 C   0  0  0  0  0  0  0  0  0  0  0  0
    6.7772   10.2108   26.1633 C   0  0  0  0  0  0  0  0  0  0  0  0
    9.6130    8.4157   22.7521 C   0  0  0  0  0  0  0  0  0  0  0  0
    6.1882   12.6281   26.5169 C   0  0  0  0  0  0  0  0  0  0  0  0
    7.8660    8.2077   24.3765 C   0  0  0  0  0  0  0  0  0  0  0  0
   10.1328   10.8249   23.0050 C   0  0  0  0  0  0  0  0  0  0  0  0
    8.3832   12.5689   23.4824 C   0  0  0  0  0  0  0  0  0  0  0  0
    9.0086    9.7885   23.0623 C   0  0  2  0  0  0  0  0  0  0  0  0
    7.3646   10.5707   24.7709 C   0  0  1  0  0  0  0  0  0  0  0  0
    7.8358   12.0554   24.8209 C   0  0  2  0  0  0  0  0  0  0  0  0
   12.6851   15.0946   22.5723 C   0  0  0  0  0  0  0  0  0  0  0  0
   13.6023   13.2774   21.1007 C   0  0  0  0  0  0  0  0  0  0  0  0
   11.2233   14.0324   20.8203 C   0  0  0  0  0  0  0  0  0  0  0  0
   12.3611   13.8075   21.8152 C   0  0  0  0  0  0  0  0  0  0  0  0
    6.7035   12.9318   25.1855 N   0  0  0  0  0  0  0  0  0  0  0  0
    9.7911   12.2023   23.3264 N   0  0  0  0  0  0  0  0  0  0  0  0
    8.4095    9.5854   24.3927 N   0  0  1  0  0  0  0  0  0  0  0  0
   10.7850   14.0903   24.2582 O   0  0  0  0  0  0  0  0  0  0  0  0
   11.9501   12.8136   22.7609 O   0  0  0  0  0  0  0  0  0  0  0  0
    4.8178   11.0740   25.9316 H   0  0  0  0  0  0  0  0  0  0  0  0
    5.3600   10.9644   27.6036 H   0  0  0  0  0  0  0  0  0  0  0  0
    7.9147    7.0705   22.5079 H   0  0  0  0  0  0  0  0  0  0  0  0
    9.1055    6.5564   23.7213 H   0  0  0  0  0  0  0  0  0  0  0  0
    7.5787   10.2053   26.9154 H   0  0  0  0  0  0  0  0  0  0  0  0
    6.3339    9.2074   26.1597 H   0  0  0  0  0  0  0  0  0  0  0  0
   10.6026    8.2501   23.1875 H   0  0  0  0  0  0  0  0  0  0  0  0
    9.6987    8.2897   21.6663 H   0  0  0  0  0  0  0  0  0  0  0  0
    5.3666   13.3137   26.7464 H   0  0  0  0  0  0  0  0  0  0  0  0
    6.9651   12.8026   27.2694 H   0  0  0  0  0  0  0  0  0  0  0  0
    6.7739    8.2109   24.1586 H   0  0  0  0  0  0  0  0  0  0  0  0
    7.9992    7.7050   25.3582 H   0  0  0  0  0  0  0  0  0  0  0  0
   10.9651   10.5126   23.6665 H   0  0  0  0  0  0  0  0  0  0  0  0
   10.5633   10.8395   21.9852 H   0  0  0  0  0  0  0  0  0  0  0  0
    7.8104   12.1952   22.6260 H   0  0  0  0  0  0  0  0  0  0  0  0
    8.3039   13.6617   23.4434 H   0  0  0  0  0  0  0  0  0  0  0  0
    8.2664    9.9804   22.2915 H   0  0  0  0  0  0  0  0  0  0  0  0
    6.5264   10.4754   24.0594 H   0  0  0  0  0  0  0  0  0  0  0  0
    8.6167   12.1731   25.5740 H   0  0  0  0  0  0  0  0  0  0  0  0
   11.7967   15.4783   23.0866 H   0  0  0  0  0  0  0  0  0  0  0  0
   13.4757   14.9384   23.3136 H   0  0  0  0  0  0  0  0  0  0  0  0
   13.0080   15.8831   21.8829 H   0  0  0  0  0  0  0  0  0  0  0  0
   13.3744   12.3540   20.5561 H   0  0  0  0  0  0  0  0  0  0  0  0
   14.3891   13.0249   21.8206 H   0  0  0  0  0  0  0  0  0  0  0  0
   14.0032   14.0084   20.3911 H   0  0  0  0  0  0  0  0  0  0  0  0
   10.9907   13.1094   20.2771 H   0  0  0  0  0  0  0  0  0  0  0  0
   10.3127   14.3779   21.3204 H   0  0  0  0  0  0  0  0  0  0  0  0
   11.5077   14.7730   20.0640 H   0  0  0  0  0  0  0  0  0  0  0  0
    5.9572   12.8201   24.4971 H   0  0  0  0  0  0  0  0  0  0  0  0
  1 18  1  0  0  0  0
  1 20  2  0  0  0  0
  1 21  1  0  0  0  0
  2  4  1  0  0  0  0
  2  6  1  0  0  0  0
  3  5  1  0  0  0  0
  3  7  1  0  0  0  0
  4 11  1  0  0  0  0
  5 10  1  0  0  0  0
  6 17  1  0  0  0  0
  7 19  1  0  0  0  0
  8 10  1  0  0  0  0
  8 18  1  0  0  0  0
  9 12  1  0  0  0  0
  9 18  1  0  0  0  0
 10 19  1  0  0  0  0
 11 12  1  0  0  0  0
 11 19  1  0  0  0  0
 12 17  1  0  0  0  0
 13 16  1  0  0  0  0
 14 16  1  0  0  0  0
 15 16  1  0  0  0  0
 16 21  1  0  0  0  0
  2 22  1  0  0  0  0
  2 23  1  0  0  0  0
  3 24  1  0  0  0  0
  3 25  1  0  0  0  0
  4 26  1  0  0  0  0
  4 27  1  0  0  0  0
  5 28  1  0  0  0  0
  5 29  1  0  0  0  0
  6 30  1  0  0  0  0
  6 31  1  0  0  0  0
  7 32  1  0  0  0  0
  7 33  1  0  0  0  0
  8 34  1  0  0  0  0
  8 35  1  0  0  0  0
  9 36  1  0  0  0  0
  9 37  1  0  0  0  0
 10 38  1  0  0  0  0
 11 39  1  0  0  0  0
 12 40  1  0  0  0  0
 13 41  1  0  0  0  0
 13 42  1  0  0  0  0
 13 43  1  0  0  0  0
 14 44  1  0  0  0  0
 14 45  1  0  0  0  0
 14 46  1  0  0  0  0
 15 47  1  0  0  0  0
 15 48  1  0  0  0  0
 15 49  1  0  0  0  0
 17 50  1  0  0  0  0
M  END
> <id>
EN300-696581

> <smiles>
CC(C)(C)OC(=O)N1CC2CCCN2C3CCCNC3C1

> <IUPAC Name>
tert-butyl 2,8,11-triazatricyclo[8.4.0.0,2,6]tetradecane-8-carboxylate

> <CAS>
2137441-92-8

> <URL>
https://www.enaminestore.com/catalog/EN300-696581

> <ROCS_ShapeQuery>
A71EV2A-x0451_0A_A71EV2A-x0310_0A_A71EV2A-x0416_0A_peptide

> <ROCS_TanimotoCombo>
0.492 

> <ROCS_ShapeTanimoto>
0.356 

> <ROCS_ColorTanimoto>
0.135 

> <ROCS_RefTversky>
0.310 

> <ROCS_RefColorTversky>
0.155 

> <ROCS_RefTverskyCombo>
0.465 

> <ROCS_FitTversky>
1.729 

> <ROCS_FitColorTversky>
0.515 

> <ROCS_FitTverskyCombo>
2.245 

> <ROCS_ColorScore>
-4.737

> <ROCS_Overlap>
2151.379

> <ROCS_Rank>
195                 

$$$$
untitled-dbase-23123_11
  -OEChem-11132313473D

 31 32  0     0  0  0  0  0  0999 V2000
    7.8123   12.8000   25.1030 C   0  0  0  0  0  0  0  0  0  0  0  0
    6.1555   11.1384   25.7935 C   0  0  0  0  0  0  0  0  0  0  0  0
    8.5309   11.7779   24.5112 C   0  0  0  0  0  0  0  0  0  0  0  0
    8.0626   10.4660   24.5658 C   0  0  0  0  0  0  0  0  0  0  0  0
    6.6140   12.4684   25.7483 C   0  0  0  0  0  0  0  0  0  0  0  0
    6.8866   10.1125   25.1945 C   0  0  0  0  0  0  0  0  0  0  0  0
   10.0347   10.4142   23.4026 C   0  0  0  0  0  0  0  0  0  0  0  0
   10.5199   12.9353   23.5411 C   0  0  0  0  0  0  0  0  0  0  0  0
   12.2924   14.9607   22.5656 C   0  0  0  0  0  0  0  0  0  0  0  0
   12.2595   13.6868   20.4011 C   0  0  0  0  0  0  0  0  0  0  0  0
   10.1356   14.6827   21.2984 C   0  0  0  0  0  0  0  0  0  0  0  0
   11.4735   14.0402   21.6618 C   0  0  0  0  0  0  0  0  0  0  0  0
    8.9590    9.6369   23.9023 N   0  0  0  0  0  0  0  0  0  0  0  0
    9.7564   11.7883   23.7958 N   0  0  0  0  0  0  0  0  0  0  0  0
   10.9929    9.9910   22.7699 O   0  0  0  0  0  0  0  0  0  0  0  0
   10.5784   13.9311   24.2571 O   0  0  0  0  0  0  0  0  0  0  0  0
   11.2169   12.8199   22.3665 O   0  0  0  0  0  0  0  0  0  0  0  0
    5.6830   13.7103   26.4995 Cl  0  0  0  0  0  0  0  0  0  0  0  0
    6.3289    8.4915   25.2504 Cl  0  0  0  0  0  0  0  0  0  0  0  0
    8.1491   13.8295   25.0778 H   0  0  0  0  0  0  0  0  0  0  0  0
    5.2210   10.9095   26.3028 H   0  0  0  0  0  0  0  0  0  0  0  0
   11.7316   15.2166   23.4717 H   0  0  0  0  0  0  0  0  0  0  0  0
   13.2390   14.4972   22.8619 H   0  0  0  0  0  0  0  0  0  0  0  0
   12.5138   15.9081   22.0612 H   0  0  0  0  0  0  0  0  0  0  0  0
   11.6757   13.0265   19.7496 H   0  0  0  0  0  0  0  0  0  0  0  0
   13.1759   13.1407   20.6527 H   0  0  0  0  0  0  0  0  0  0  0  0
   12.5339   14.5810   19.8321 H   0  0  0  0  0  0  0  0  0  0  0  0
    9.5480   14.0227   20.6501 H   0  0  0  0  0  0  0  0  0  0  0  0
    9.5418   14.9095   22.1898 H   0  0  0  0  0  0  0  0  0  0  0  0
   10.2891   15.6113   20.7367 H   0  0  0  0  0  0  0  0  0  0  0  0
    8.8597    8.6351   23.7928 H   0  0  0  0  0  0  0  0  0  0  0  0
  1  3  2  0  0  0  0
  1  5  1  0  0  0  0
  2  5  2  0  0  0  0
  2  6  1  0  0  0  0
  3  4  1  0  0  0  0
  3 14  1  0  0  0  0
  4  6  2  0  0  0  0
  4 13  1  0  0  0  0
  5 18  1  0  0  0  0
  6 19  1  0  0  0  0
  7 13  1  0  0  0  0
  7 14  1  0  0  0  0
  7 15  2  0  0  0  0
  8 14  1  0  0  0  0
  8 16  2  0  0  0  0
  8 17  1  0  0  0  0
  9 12  1  0  0  0  0
 10 12  1  0  0  0  0
 11 12  1  0  0  0  0
 12 17  1  0  0  0  0
  1 20  1  0  0  0  0
  2 21  1  0  0  0  0
  9 22  1  0  0  0  0
  9 23  1  0  0  0  0
  9 24  1  0  0  0  0
 10 25  1  0  0  0  0
 10 26  1  0  0  0  0
 10 27  1  0  0  0  0
 11 28  1  0  0  0  0
 11 29  1  0  0  0  0
 11 30  1  0  0  0  0
 13 31  1  0  0  0  0
M  END
> <id>
EN300-12454601

> <smiles>
CC(C)(C)OC(=O)N1C(=O)NC=2C(Cl)=CC(Cl)=CC12

> <MDLNUMBER>
MFCD24473209

> <IUPAC Name>
tert-butyl 4,6-dichloro-2-oxo-2,3-dihydro-1H-1,3-benzodiazole-1-carboxylate

> <CAS>
161468-50-4

> <Purity>
95

> <URL>
https://www.enaminestore.com/catalog/EN300-12454601

> <MP>
358-360

> <ROCS_ShapeQuery>
A71EV2A-x0451_0A_A71EV2A-x0310_0A_A71EV2A-x0416_0A_peptide

> <ROCS_TanimotoCombo>
0.492 

> <ROCS_ShapeTanimoto>
0.348 

> <ROCS_ColorTanimoto>
0.144 

> <ROCS_RefTversky>
0.302 

> <ROCS_RefColorTversky>
0.160 

> <ROCS_RefTverskyCombo>
0.462 

> <ROCS_FitTversky>
1.786 

> <ROCS_FitColorTversky>
0.590 

> <ROCS_FitTverskyCombo>
2.376 

> <ROCS_ColorScore>
-4.873

> <ROCS_Overlap>
2093.297

> <ROCS_Rank>
196                 

$$$$
untitled-dbase-34889_1
  -OEChem-11132313473D

 38 39  0     1  0  0  0  0  0999 V2000
    6.3650   11.2948   26.0235 C   0  0  0  0  0  0  0  0  0  0  0  0
    6.7941   12.5946   25.8000 C   0  0  0  0  0  0  0  0  0  0  0  0
    7.0487   10.2375   25.4329 C   0  0  0  0  0  0  0  0  0  0  0  0
    7.9044   12.8394   24.9865 C   0  0  0  0  0  0  0  0  0  0  0  0
    8.1787   10.4626   24.6253 C   0  0  0  0  0  0  0  0  0  0  0  0
    8.6184   11.7866   24.3881 C   0  0  0  0  0  0  0  0  0  0  0  0
   10.3992   13.2570   23.3891 C   0  0  0  0  0  0  0  0  0  0  0  0
   10.1172    9.5462   23.4694 C   0  0  0  0  0  0  0  0  0  0  0  0
   10.1774   10.8542   22.6840 C   0  0  1  0  0  0  0  0  0  0  0  0
    9.3733   10.7891   21.3801 C   0  0  0  0  0  0  0  0  0  0  0  0
   12.7967   14.7481   22.8758 C   0  0  0  0  0  0  0  0  0  0  0  0
   12.1012   14.6827   20.4631 C   0  0  0  0  0  0  0  0  0  0  0  0
   10.6481   15.8413   22.1525 C   0  0  0  0  0  0  0  0  0  0  0  0
   11.6141   14.6824   21.9104 C   0  0  0  0  0  0  0  0  0  0  0  0
    8.8172    9.3648   24.0618 N   0  0  0  0  0  0  0  0  0  0  0  0
    9.7460   12.0111   23.5097 N   0  0  0  0  0  0  0  0  0  0  0  0
   10.5336   14.0952   24.2766 O   0  0  0  0  0  0  0  0  0  0  0  0
   10.9142   13.4518   22.1300 O   0  0  0  0  0  0  0  0  0  0  0  0
    5.4982   11.1041   26.6485 H   0  0  0  0  0  0  0  0  0  0  0  0
    6.2570   13.4273   26.2455 H   0  0  0  0  0  0  0  0  0  0  0  0
    6.6991    9.2226   25.6117 H   0  0  0  0  0  0  0  0  0  0  0  0
    8.1485   13.8812   24.8152 H   0  0  0  0  0  0  0  0  0  0  0  0
   10.3462    8.6933   22.8205 H   0  0  0  0  0  0  0  0  0  0  0  0
   10.8760    9.5548   24.2619 H   0  0  0  0  0  0  0  0  0  0  0  0
   11.2290   10.9958   22.4070 H   0  0  0  0  0  0  0  0  0  0  0  0
    8.3204   10.6486   21.6095 H   0  0  0  0  0  0  0  0  0  0  0  0
    9.7259    9.9564   20.7773 H   0  0  0  0  0  0  0  0  0  0  0  0
    9.5023   11.7158   20.8273 H   0  0  0  0  0  0  0  0  0  0  0  0
   12.4512   14.7481   23.9158 H   0  0  0  0  0  0  0  0  0  0  0  0
   13.4789   13.9032   22.7361 H   0  0  0  0  0  0  0  0  0  0  0  0
   13.3627   15.6765   22.7381 H   0  0  0  0  0  0  0  0  0  0  0  0
   11.2560   14.6356   19.7669 H   0  0  0  0  0  0  0  0  0  0  0  0
   12.7187   13.8005   20.2589 H   0  0  0  0  0  0  0  0  0  0  0  0
   12.6890   15.5776   20.2348 H   0  0  0  0  0  0  0  0  0  0  0  0
    9.7998   15.7944   21.4601 H   0  0  0  0  0  0  0  0  0  0  0  0
   10.2596   15.8355   23.1760 H   0  0  0  0  0  0  0  0  0  0  0  0
   11.1411   16.8035   21.9727 H   0  0  0  0  0  0  0  0  0  0  0  0
    8.5051    8.4315   24.3014 H   0  0  0  0  0  0  0  0  0  0  0  0
  1  2  2  0  0  0  0
  1  3  1  0  0  0  0
  2  4  1  0  0  0  0
  3  5  2  0  0  0  0
  4  6  2  0  0  0  0
  5  6  1  0  0  0  0
  5 15  1  0  0  0  0
  6 16  1  0  0  0  0
  7 16  1  0  0  0  0
  7 17  2  0  0  0  0
  7 18  1  0  0  0  0
  8  9  1  0  0  0  0
  8 15  1  0  0  0  0
  9 10  1  0  0  0  0
  9 16  1  0  0  0  0
 11 14  1  0  0  0  0
 12 14  1  0  0  0  0
 13 14  1  0  0  0  0
 14 18  1  0  0  0  0
  1 19  1  0  0  0  0
  2 20  1  0  0  0  0
  3 21  1  0  0  0  0
  4 22  1  0  0  0  0
  8 23  1  0  0  0  0
  8 24  1  0  0  0  0
  9 25  1  0  0  0  0
 10 26  1  0  0  0  0
 10 27  1  0  0  0  0
 10 28  1  0  0  0  0
 11 29  1  0  0  0  0
 11 30  1  0  0  0  0
 11 31  1  0  0  0  0
 12 32  1  0  0  0  0
 12 33  1  0  0  0  0
 12 34  1  0  0  0  0
 13 35  1  0  0  0  0
 13 36  1  0  0  0  0
 13 37  1  0  0  0  0
 15 38  1  0  0  0  0
M  END
> <id>
EN300-6839318

> <smiles>
CC1CNC=2C=CC=CC2N1C(=O)OC(C)(C)C

> <MDLNUMBER>
MFCD26519734

> <IUPAC Name>
tert-butyl 2-methyl-1,2,3,4-tetrahydroquinoxaline-1-carboxylate

> <CAS>
1823812-89-0

> <Purity>
95

> <URL>
https://www.enaminestore.com/catalog/EN300-6839318

> <ROCS_ShapeQuery>
A71EV2A-x0451_0A_A71EV2A-x0310_0A_A71EV2A-x0416_0A_peptide

> <ROCS_TanimotoCombo>
0.492 

> <ROCS_ShapeTanimoto>
0.341 

> <ROCS_ColorTanimoto>
0.150 

> <ROCS_RefTversky>
0.296 

> <ROCS_RefColorTversky>
0.158 

> <ROCS_RefTverskyCombo>
0.454 

> <ROCS_FitTversky>
1.819 

> <ROCS_FitColorTversky>
0.757 

> <ROCS_FitTverskyCombo>
2.576 

> <ROCS_ColorScore>
-4.799

> <ROCS_Overlap>
2051.989

> <ROCS_Rank>
197                 

$$$$
untitled-dbase-34315_231
  -OEChem-11132313473D

 49 51  0     0  0  0  0  0  0999 V2000
    6.4894   12.0669   26.9168 C   0  0  0  0  0  0  0  0  0  0  0  0
    5.6086   11.4199   26.0619 C   0  0  0  0  0  0  0  0  0  0  0  0
    7.8403   12.1533   26.5814 C   0  0  0  0  0  0  0  0  0  0  0  0
    6.0860   10.8516   24.8834 C   0  0  0  0  0  0  0  0  0  0  0  0
    8.3390   11.5996   25.3849 C   0  0  0  0  0  0  0  0  0  0  0  0
    7.4478   10.9171   24.5450 C   0  0  0  0  0  0  0  0  0  0  0  0
   10.5159   13.3569   23.3565 C   0  0  0  0  0  0  0  0  0  0  0  0
    9.8092   11.7643   25.1087 C   0  0  0  0  0  0  0  0  0  0  0  0
    9.5941    8.7899   24.0881 C   0  0  0  0  0  0  0  0  0  0  0  0
    8.8424    9.0352   21.7145 C   0  0  0  0  0  0  0  0  0  0  0  0
    9.3397    7.3184   23.7287 C   0  0  0  0  0  0  0  0  0  0  0  0
    7.8899    7.8403   21.8717 C   0  0  0  0  0  0  0  0  0  0  0  0
   10.0008   10.9852   22.7272 C   0  0  0  0  0  0  0  0  0  0  0  0
    9.0479    9.8112   23.0463 C   0  0  0  0  0  0  0  0  0  0  0  0
   12.5105   15.0991   22.2704 C   0  0  0  0  0  0  0  0  0  0  0  0
   11.4003   14.6876   20.0551 C   0  0  0  0  0  0  0  0  0  0  0  0
   10.1208   15.8009   21.9076 C   0  0  0  0  0  0  0  0  0  0  0  0
   11.1951   14.7693   21.5662 C   0  0  0  0  0  0  0  0  0  0  0  0
    8.0167    7.1455   23.1516 N   0  0  0  0  0  0  0  0  0  0  0  0
   10.0915   12.0647   23.7123 N   0  0  0  0  0  0  0  0  0  0  0  0
   10.6728   14.2816   24.1518 O   0  0  0  0  0  0  0  0  0  0  0  0
    7.7323   10.2950   23.3640 O   0  0  0  0  0  0  0  0  0  0  0  0
   10.7499   13.4829   22.0114 O   0  0  0  0  0  0  0  0  0  0  0  0
    6.1280   12.5174   27.8355 H   0  0  0  0  0  0  0  0  0  0  0  0
    4.5534   11.3584   26.3071 H   0  0  0  0  0  0  0  0  0  0  0  0
    8.5144   12.6754   27.2618 H   0  0  0  0  0  0  0  0  0  0  0  0
    5.3869   10.3370   24.2218 H   0  0  0  0  0  0  0  0  0  0  0  0
   10.2115   12.5732   25.7379 H   0  0  0  0  0  0  0  0  0  0  0  0
   10.3585   10.8599   25.4075 H   0  0  0  0  0  0  0  0  0  0  0  0
    9.1674    8.9742   25.0860 H   0  0  0  0  0  0  0  0  0  0  0  0
   10.6824    8.9376   24.1979 H   0  0  0  0  0  0  0  0  0  0  0  0
    9.8063    8.6715   21.3351 H   0  0  0  0  0  0  0  0  0  0  0  0
    8.4253    9.7045   20.9517 H   0  0  0  0  0  0  0  0  0  0  0  0
   10.0898    6.9952   23.0024 H   0  0  0  0  0  0  0  0  0  0  0  0
    9.4544    6.6759   24.6035 H   0  0  0  0  0  0  0  0  0  0  0  0
    6.8393    8.1605   21.7213 H   0  0  0  0  0  0  0  0  0  0  0  0
    8.0859    7.1161   21.0578 H   0  0  0  0  0  0  0  0  0  0  0  0
   11.0285   10.5909   22.5479 H   0  0  0  0  0  0  0  0  0  0  0  0
    9.7116   11.4628   21.7612 H   0  0  0  0  0  0  0  0  0  0  0  0
   12.3674   15.1587   23.3552 H   0  0  0  0  0  0  0  0  0  0  0  0
   13.2791   14.3479   22.0617 H   0  0  0  0  0  0  0  0  0  0  0  0
   12.8885   16.0781   21.9542 H   0  0  0  0  0  0  0  0  0  0  0  0
   10.4591   14.4511   19.5458 H   0  0  0  0  0  0  0  0  0  0  0  0
   12.1001   13.8839   19.7991 H   0  0  0  0  0  0  0  0  0  0  0  0
   11.7879   15.6273   19.6486 H   0  0  0  0  0  0  0  0  0  0  0  0
    9.1772   15.5645   21.4026 H   0  0  0  0  0  0  0  0  0  0  0  0
    9.9338   15.8469   22.9853 H   0  0  0  0  0  0  0  0  0  0  0  0
   10.4149   16.7986   21.5622 H   0  0  0  0  0  0  0  0  0  0  0  0
    7.8448    6.1486   23.0028 H   0  0  0  0  0  0  0  0  0  0  0  0
  1  2  2  0  0  0  0
  1  3  1  0  0  0  0
  2  4  1  0  0  0  0
  3  5  2  0  0  0  0
  4  6  2  0  0  0  0
  5  6  1  0  0  0  0
  5  8  1  0  0  0  0
  6 22  1  0  0  0  0
  7 20  1  0  0  0  0
  7 21  2  0  0  0  0
  7 23  1  0  0  0  0
  8 20  1  0  0  0  0
  9 11  1  0  0  0  0
  9 14  1  0  0  0  0
 10 12  1  0  0  0  0
 10 14  1  0  0  0  0
 11 19  1  0  0  0  0
 12 19  1  0  0  0  0
 13 14  1  0  0  0  0
 13 20  1  0  0  0  0
 14 22  1  0  0  0  0
 15 18  1  0  0  0  0
 16 18  1  0  0  0  0
 17 18  1  0  0  0  0
 18 23  1  0  0  0  0
  1 24  1  0  0  0  0
  2 25  1  0  0  0  0
  3 26  1  0  0  0  0
  4 27  1  0  0  0  0
  8 28  1  0  0  0  0
  8 29  1  0  0  0  0
  9 30  1  0  0  0  0
  9 31  1  0  0  0  0
 10 32  1  0  0  0  0
 10 33  1  0  0  0  0
 11 34  1  0  0  0  0
 11 35  1  0  0  0  0
 12 36  1  0  0  0  0
 12 37  1  0  0  0  0
 13 38  1  0  0  0  0
 13 39  1  0  0  0  0
 15 40  1  0  0  0  0
 15 41  1  0  0  0  0
 15 42  1  0  0  0  0
 16 43  1  0  0  0  0
 16 44  1  0  0  0  0
 16 45  1  0  0  0  0
 17 46  1  0  0  0  0
 17 47  1  0  0  0  0
 17 48  1  0  0  0  0
 19 49  1  0  0  0  0
M  END
> <id>
EN300-412377

> <smiles>
CC(C)(C)OC(=O)N1CC=2C=CC=CC2OC3(CCNCC3)C1

> <MDLNUMBER>
MFCD31381136

> <IUPAC Name>
tert-butyl 4,5-dihydro-3H-spiro[1,4-benzoxazepine-2,4'-piperidine]-4-carboxylate

> <CAS>
2126177-04-4

> <Purity>
95

> <URL>
https://www.enaminestore.com/catalog/EN300-412377

> <ROCS_ShapeQuery>
A71EV2A-x0451_0A_A71EV2A-x0310_0A_A71EV2A-x0416_0A_peptide

> <ROCS_TanimotoCombo>
0.491 

> <ROCS_ShapeTanimoto>
0.343 

> <ROCS_ColorTanimoto>
0.149 

> <ROCS_RefTversky>
0.305 

> <ROCS_RefColorTversky>
0.168 

> <ROCS_RefTverskyCombo>
0.473 

> <ROCS_FitTversky>
1.573 

> <ROCS_FitColorTversky>
0.560 

> <ROCS_FitTverskyCombo>
2.132 

> <ROCS_ColorScore>
-5.141

> <ROCS_Overlap>
2116.702

> <ROCS_Rank>
198                 

$$$$
untitled-dbase-29873_6
  -OEChem-11132313473D

 35 36  0     0  0  0  0  0  0999 V2000
    7.0435   10.2306   25.4225 C   0  0  0  0  0  0  0  0  0  0  0  0
    6.3575   11.2852   26.0154 C   0  0  0  0  0  0  0  0  0  0  0  0
    7.9001   12.8361   24.9922 C   0  0  0  0  0  0  0  0  0  0  0  0
    8.1761   10.4598   24.6201 C   0  0  0  0  0  0  0  0  0  0  0  0
    8.6146   11.7859   24.3905 C   0  0  0  0  0  0  0  0  0  0  0  0
    6.7872   12.5866   25.8006 C   0  0  0  0  0  0  0  0  0  0  0  0
   10.3940   13.2558   23.3898 C   0  0  0  0  0  0  0  0  0  0  0  0
   10.1206    9.5511   23.4644 C   0  0  0  0  0  0  0  0  0  0  0  0
   10.1635   10.8602   22.6979 C   0  0  0  0  0  0  0  0  0  0  0  0
   12.7809   14.7525   22.8463 C   0  0  0  0  0  0  0  0  0  0  0  0
   12.0579   14.6807   20.4418 C   0  0  0  0  0  0  0  0  0  0  0  0
   10.6210   15.8383   22.1458 C   0  0  0  0  0  0  0  0  0  0  0  0
   11.5874   14.6817   21.8947 C   0  0  0  0  0  0  0  0  0  0  0  0
    8.8213    9.3653   24.0570 N   0  0  0  0  0  0  0  0  0  0  0  0
    9.7439   12.0115   23.5183 N   0  0  0  0  0  0  0  0  0  0  0  0
   10.5355   14.0953   24.2751 O   0  0  0  0  0  0  0  0  0  0  0  0
   10.8936   13.4494   22.1246 O   0  0  0  0  0  0  0  0  0  0  0  0
    5.8757   14.0253   26.6239 Br  0  0  0  0  0  0  0  0  0  0  0  0
    6.6838    9.2159   25.5819 H   0  0  0  0  0  0  0  0  0  0  0  0
    5.4967   11.0724   26.6434 H   0  0  0  0  0  0  0  0  0  0  0  0
    8.2133   13.8686   24.8855 H   0  0  0  0  0  0  0  0  0  0  0  0
   10.3434    8.7125   22.7935 H   0  0  0  0  0  0  0  0  0  0  0  0
   10.8840    9.5503   24.2497 H   0  0  0  0  0  0  0  0  0  0  0  0
   11.1787   11.0719   22.3384 H   0  0  0  0  0  0  0  0  0  0  0  0
    9.5247   10.7609   21.8143 H   0  0  0  0  0  0  0  0  0  0  0  0
   12.4474   14.7534   23.8902 H   0  0  0  0  0  0  0  0  0  0  0  0
   13.4639   13.9094   22.7002 H   0  0  0  0  0  0  0  0  0  0  0  0
   13.3426   15.6823   22.7004 H   0  0  0  0  0  0  0  0  0  0  0  0
   11.2048   14.6300   19.7556 H   0  0  0  0  0  0  0  0  0  0  0  0
   12.6755   13.7999   20.2322 H   0  0  0  0  0  0  0  0  0  0  0  0
   12.6404   15.5769   20.2052 H   0  0  0  0  0  0  0  0  0  0  0  0
    9.7648   15.7877   21.4634 H   0  0  0  0  0  0  0  0  0  0  0  0
   10.2443   15.8331   23.1738 H   0  0  0  0  0  0  0  0  0  0  0  0
   11.1091   16.8016   21.9586 H   0  0  0  0  0  0  0  0  0  0  0  0
    8.2892    8.5313   23.8402 H   0  0  0  0  0  0  0  0  0  0  0  0
  1  2  1  0  0  0  0
  1  4  2  0  0  0  0
  2  6  2  0  0  0  0
  3  5  2  0  0  0  0
  3  6  1  0  0  0  0
  4  5  1  0  0  0  0
  4 14  1  0  0  0  0
  5 15  1  0  0  0  0
  6 18  1  0  0  0  0
  7 15  1  0  0  0  0
  7 16  2  0  0  0  0
  7 17  1  0  0  0  0
  8  9  1  0  0  0  0
  8 14  1  0  0  0  0
  9 15  1  0  0  0  0
 10 13  1  0  0  0  0
 11 13  1  0  0  0  0
 12 13  1  0  0  0  0
 13 17  1  0  0  0  0
  1 19  1  0  0  0  0
  2 20  1  0  0  0  0
  3 21  1  0  0  0  0
  8 22  1  0  0  0  0
  8 23  1  0  0  0  0
  9 24  1  0  0  0  0
  9 25  1  0  0  0  0
 10 26  1  0  0  0  0
 10 27  1  0  0  0  0
 10 28  1  0  0  0  0
 11 29  1  0  0  0  0
 11 30  1  0  0  0  0
 11 31  1  0  0  0  0
 12 32  1  0  0  0  0
 12 33  1  0  0  0  0
 12 34  1  0  0  0  0
 14 35  1  0  0  0  0
M  END
> <id>
EN300-6839805

> <smiles>
CC(C)(C)OC(=O)N1CCNC=2C=CC(Br)=CC12

> <MDLNUMBER>
MFCD29760850

> <IUPAC Name>
tert-butyl 7-bromo-1,2,3,4-tetrahydroquinoxaline-1-carboxylate

> <CAS>
1781570-26-0

> <Purity>
95

> <URL>
https://www.enaminestore.com/catalog/EN300-6839805

> <ROCS_ShapeQuery>
A71EV2A-x0451_0A_A71EV2A-x0310_0A_A71EV2A-x0416_0A_peptide

> <ROCS_TanimotoCombo>
0.491 

> <ROCS_ShapeTanimoto>
0.345 

> <ROCS_ColorTanimoto>
0.146 

> <ROCS_RefTversky>
0.298 

> <ROCS_RefColorTversky>
0.158 

> <ROCS_RefTverskyCombo>
0.456 

> <ROCS_FitTversky>
1.848 

> <ROCS_FitColorTversky>
0.659 

> <ROCS_FitTverskyCombo>
2.507 

> <ROCS_ColorScore>
-4.804

> <ROCS_Overlap>
2066.462

> <ROCS_Rank>
199                 

$$$$
untitled-dbase-46382_3
  -OEChem-11132313473D

 34 35  0     0  0  0  0  0  0999 V2000
    6.6966   10.5561   25.5389 C   0  0  0  0  0  0  0  0  0  0  0  0
    6.2304   11.6320   26.2837 C   0  0  0  0  0  0  0  0  0  0  0  0
    7.9513   13.0297   25.3085 C   0  0  0  0  0  0  0  0  0  0  0  0
    8.4447   11.9592   24.5471 C   0  0  0  0  0  0  0  0  0  0  0  0
    7.7994   10.7140   24.6903 C   0  0  0  0  0  0  0  0  0  0  0  0
    6.8593   12.8656   26.1702 C   0  0  0  0  0  0  0  0  0  0  0  0
   10.2942   13.2542   23.4268 C   0  0  0  0  0  0  0  0  0  0  0  0
    9.7758   10.8967   22.7798 C   0  0  0  0  0  0  0  0  0  0  0  0
    9.5176    9.6273   23.5611 C   0  0  0  0  0  0  0  0  0  0  0  0
   12.7643   14.5137   22.6854 C   0  0  0  0  0  0  0  0  0  0  0  0
   11.8554   14.5006   20.3439 C   0  0  0  0  0  0  0  0  0  0  0  0
   10.6701   15.7980   22.1383 C   0  0  0  0  0  0  0  0  0  0  0  0
   11.5001   14.5531   21.8282 C   0  0  0  0  0  0  0  0  0  0  0  0
    9.5327   12.0838   23.6122 N   0  0  0  0  0  0  0  0  0  0  0  0
   10.5836   14.0812   24.2866 O   0  0  0  0  0  0  0  0  0  0  0  0
    8.1690    9.5791   24.0109 O   0  0  0  0  0  0  0  0  0  0  0  0
   10.7119   13.3939   22.1246 O   0  0  0  0  0  0  0  0  0  0  0  0
    6.2216   14.3376   27.1743 Br  0  0  0  0  0  0  0  0  0  0  0  0
    6.2047    9.5909   25.6275 H   0  0  0  0  0  0  0  0  0  0  0  0
    5.3782   11.4925   26.9431 H   0  0  0  0  0  0  0  0  0  0  0  0
    8.3769   14.0236   25.2391 H   0  0  0  0  0  0  0  0  0  0  0  0
   10.8045   10.8851   22.4075 H   0  0  0  0  0  0  0  0  0  0  0  0
    9.1009   10.9729   21.9185 H   0  0  0  0  0  0  0  0  0  0  0  0
    9.6787    8.7574   22.9155 H   0  0  0  0  0  0  0  0  0  0  0  0
   10.1989    9.5263   24.4158 H   0  0  0  0  0  0  0  0  0  0  0  0
   12.5135   14.5512   23.7516 H   0  0  0  0  0  0  0  0  0  0  0  0
   13.3509   13.6084   22.4978 H   0  0  0  0  0  0  0  0  0  0  0  0
   13.3991   15.3848   22.4864 H   0  0  0  0  0  0  0  0  0  0  0  0
   10.9513   14.5287   19.7250 H   0  0  0  0  0  0  0  0  0  0  0  0
   12.3686   13.5638   20.0983 H   0  0  0  0  0  0  0  0  0  0  0  0
   12.5006   15.3359   20.0531 H   0  0  0  0  0  0  0  0  0  0  0  0
    9.7632   15.8266   21.5235 H   0  0  0  0  0  0  0  0  0  0  0  0
   10.3746   15.8336   23.1919 H   0  0  0  0  0  0  0  0  0  0  0  0
   11.2318   16.7093   21.9032 H   0  0  0  0  0  0  0  0  0  0  0  0
  1  2  1  0  0  0  0
  1  5  2  0  0  0  0
  2  6  2  0  0  0  0
  3  4  2  0  0  0  0
  3  6  1  0  0  0  0
  4  5  1  0  0  0  0
  4 14  1  0  0  0  0
  5 16  1  0  0  0  0
  6 18  1  0  0  0  0
  7 14  1  0  0  0  0
  7 15  2  0  0  0  0
  7 17  1  0  0  0  0
  8  9  1  0  0  0  0
  8 14  1  0  0  0  0
  9 16  1  0  0  0  0
 10 13  1  0  0  0  0
 11 13  1  0  0  0  0
 12 13  1  0  0  0  0
 13 17  1  0  0  0  0
  1 19  1  0  0  0  0
  2 20  1  0  0  0  0
  3 21  1  0  0  0  0
  8 22  1  0  0  0  0
  8 23  1  0  0  0  0
  9 24  1  0  0  0  0
  9 25  1  0  0  0  0
 10 26  1  0  0  0  0
 10 27  1  0  0  0  0
 10 28  1  0  0  0  0
 11 29  1  0  0  0  0
 11 30  1  0  0  0  0
 11 31  1  0  0  0  0
 12 32  1  0  0  0  0
 12 33  1  0  0  0  0
 12 34  1  0  0  0  0
M  END
> <id>
EN300-155325

> <smiles>
CC(C)(C)OC(=O)N1CCOC=2C=CC(Br)=CC12

> <MDLNUMBER>
MFCD11865220

> <IUPAC Name>
tert-butyl 6-bromo-3,4-dihydro-2H-1,4-benzoxazine-4-carboxylate

> <CAS>
719310-31-3

> <URL>
https://www.enaminestore.com/catalog/EN300-155325

> <ROCS_ShapeQuery>
A71EV2A-x0451_0A_A71EV2A-x0310_0A_A71EV2A-x0416_0A_peptide

> <ROCS_TanimotoCombo>
0.491 

> <ROCS_ShapeTanimoto>
0.337 

> <ROCS_ColorTanimoto>
0.154 

> <ROCS_RefTversky>
0.293 

> <ROCS_RefColorTversky>
0.166 

> <ROCS_RefTverskyCombo>
0.458 

> <ROCS_FitTversky>
1.811 

> <ROCS_FitColorTversky>
0.691 

> <ROCS_FitTverskyCombo>
2.502 

> <ROCS_ColorScore>
-5.039

> <ROCS_Overlap>
2030.447

> <ROCS_Rank>
200                 

$$$$
untitled-dbase-51546_0
  -OEChem-11132313473D

 36 37  0     1  0  0  0  0  0999 V2000
    6.9570   12.0416   25.7886 C   0  0  0  0  0  0  0  0  0  0  0  0
    8.0228   12.8023   25.2641 C   0  0  0  0  0  0  0  0  0  0  0  0
    8.6425   11.9691   24.3565 C   0  0  0  0  0  0  0  0  0  0  0  0
   10.4172   13.3120   23.4145 C   0  0  0  0  0  0  0  0  0  0  0  0
    8.1984    9.6251   23.6070 C   0  0  0  0  0  0  0  0  0  0  0  0
   10.0997   10.9476   22.6207 C   0  0  0  0  0  0  0  0  0  0  0  0
    9.6722    9.5890   23.1986 C   0  0  2  0  0  0  0  0  0  0  0  0
    9.9320    8.4644   22.2006 C   0  0  0  0  0  0  0  0  0  0  0  0
   12.8066   14.8016   22.8731 C   0  0  0  0  0  0  0  0  0  0  0  0
   12.0144   14.8539   20.4900 C   0  0  0  0  0  0  0  0  0  0  0  0
   10.6425   15.9458   22.2883 C   0  0  0  0  0  0  0  0  0  0  0  0
   11.5856   14.7909   21.9544 C   0  0  0  0  0  0  0  0  0  0  0  0
    6.8907   10.8164   25.2644 N   0  0  0  0  0  0  0  0  0  0  0  0
    7.9257   10.8003   24.4093 N   0  0  0  0  0  0  0  0  0  0  0  0
    9.7371   12.0842   23.4940 N   0  0  0  0  0  0  0  0  0  0  0  0
   10.5926   14.1032   24.3381 O   0  0  0  0  0  0  0  0  0  0  0  0
   10.8821   13.5577   22.1455 O   0  0  0  0  0  0  0  0  0  0  0  0
    8.2236   14.5703   25.8465 Br  0  0  0  0  0  0  0  0  0  0  0  0
    6.2168   12.3250   26.5243 H   0  0  0  0  0  0  0  0  0  0  0  0
    7.5355    9.6797   22.7359 H   0  0  0  0  0  0  0  0  0  0  0  0
    7.9369    8.7402   24.1977 H   0  0  0  0  0  0  0  0  0  0  0  0
   11.1834   10.9324   22.4558 H   0  0  0  0  0  0  0  0  0  0  0  0
    9.6190   11.1288   21.6509 H   0  0  0  0  0  0  0  0  0  0  0  0
   10.2797    9.3964   24.0940 H   0  0  0  0  0  0  0  0  0  0  0  0
    9.3429    8.6259   21.2987 H   0  0  0  0  0  0  0  0  0  0  0  0
    9.6540    7.5074   22.6402 H   0  0  0  0  0  0  0  0  0  0  0  0
   10.9883    8.4408   21.9358 H   0  0  0  0  0  0  0  0  0  0  0  0
   12.5030   14.7565   23.9251 H   0  0  0  0  0  0  0  0  0  0  0  0
   13.4736   13.9581   22.6672 H   0  0  0  0  0  0  0  0  0  0  0  0
   13.3764   15.7303   22.7553 H   0  0  0  0  0  0  0  0  0  0  0  0
   11.1415   14.8465   19.8273 H   0  0  0  0  0  0  0  0  0  0  0  0
   12.6138   13.9767   20.2208 H   0  0  0  0  0  0  0  0  0  0  0  0
   12.6020   15.7533   20.2794 H   0  0  0  0  0  0  0  0  0  0  0  0
    9.7666   15.9384   21.6295 H   0  0  0  0  0  0  0  0  0  0  0  0
   10.2952   15.8960   23.3254 H   0  0  0  0  0  0  0  0  0  0  0  0
   11.1380   16.9110   22.1330 H   0  0  0  0  0  0  0  0  0  0  0  0
  1  2  1  0  0  0  0
  1 13  2  0  0  0  0
  2  3  2  0  0  0  0
  2 18  1  0  0  0  0
  3 14  1  0  0  0  0
  3 15  1  0  0  0  0
  4 15  1  0  0  0  0
  4 16  2  0  0  0  0
  4 17  1  0  0  0  0
  5  7  1  0  0  0  0
  5 14  1  0  0  0  0
  6  7  1  0  0  0  0
  6 15  1  0  0  0  0
  7  8  1  0  0  0  0
  9 12  1  0  0  0  0
 10 12  1  0  0  0  0
 11 12  1  0  0  0  0
 12 17  1  0  0  0  0
 13 14  1  0  0  0  0
  1 19  1  0  0  0  0
  5 20  1  0  0  0  0
  5 21  1  0  0  0  0
  6 22  1  0  0  0  0
  6 23  1  0  0  0  0
  7 24  1  0  0  0  0
  8 25  1  0  0  0  0
  8 26  1  0  0  0  0
  8 27  1  0  0  0  0
  9 28  1  0  0  0  0
  9 29  1  0  0  0  0
  9 30  1  0  0  0  0
 10 31  1  0  0  0  0
 10 32  1  0  0  0  0
 10 33  1  0  0  0  0
 11 34  1  0  0  0  0
 11 35  1  0  0  0  0
 11 36  1  0  0  0  0
M  END
> <id>
EN300-28293170

> <smiles>
CC1CN(C(=O)OC(C)(C)C)C2=C(Br)C=NN2C1

> <IUPAC Name>
tert-butyl 3-bromo-6-methyl-4H,5H,6H,7H-pyrazolo[1,5-a]pyrimidine-4-carboxylate

> <URL>
https://www.enaminestore.com/catalog/EN300-28293170

> <ROCS_ShapeQuery>
A71EV2A-x0451_0A_A71EV2A-x0310_0A_A71EV2A-x0416_0A_peptide

> <ROCS_TanimotoCombo>
0.491 

> <ROCS_ShapeTanimoto>
0.337 

> <ROCS_ColorTanimoto>
0.154 

> <ROCS_RefTversky>
0.293 

> <ROCS_RefColorTversky>
0.166 

> <ROCS_RefTverskyCombo>
0.458 

> <ROCS_FitTversky>
1.808 

> <ROCS_FitColorTversky>
0.689 

> <ROCS_FitTverskyCombo>
2.497 

> <ROCS_ColorScore>
-5.037

> <ROCS_Overlap>
2030.757

> <ROCS_Rank>
201                 

$$$$
untitled-dbase-30448_8
  -OEChem-11132313473D

 34 35  0     0  0  0  0  0  0999 V2000
    6.9334   12.1496   25.9751 C   0  0  0  0  0  0  0  0  0  0  0  0
    8.0129   12.6712   25.2555 C   0  0  0  0  0  0  0  0  0  0  0  0
    6.5178   10.8239   25.7854 C   0  0  0  0  0  0  0  0  0  0  0  0
    8.2458   10.5249   24.1630 C   0  0  0  0  0  0  0  0  0  0  0  0
    8.6614   11.8447   24.3502 C   0  0  0  0  0  0  0  0  0  0  0  0
    7.1765   10.0003   24.8724 C   0  0  0  0  0  0  0  0  0  0  0  0
   10.4422   13.3276   23.4208 C   0  0  0  0  0  0  0  0  0  0  0  0
    9.0835    9.8219   23.1440 C   0  0  0  0  0  0  0  0  0  0  0  0
   10.0798   10.9124   22.7354 C   0  0  0  0  0  0  0  0  0  0  0  0
   12.8706   14.7572   22.9151 C   0  0  0  0  0  0  0  0  0  0  0  0
   12.1745   14.7200   20.5020 C   0  0  0  0  0  0  0  0  0  0  0  0
   10.7487   15.9044   22.1968 C   0  0  0  0  0  0  0  0  0  0  0  0
   11.6871   14.7242   21.9492 C   0  0  0  0  0  0  0  0  0  0  0  0
    9.7589   12.1236   23.5145 N   0  0  0  0  0  0  0  0  0  0  0  0
   10.5854   14.1459   24.3247 O   0  0  0  0  0  0  0  0  0  0  0  0
    6.7722    8.7170   24.6902 O   0  0  0  0  0  0  0  0  0  0  0  0
   10.9584   13.5098   22.1626 O   0  0  0  0  0  0  0  0  0  0  0  0
    6.4095   12.7786   26.6902 H   0  0  0  0  0  0  0  0  0  0  0  0
    8.3093   13.6989   25.4255 H   0  0  0  0  0  0  0  0  0  0  0  0
    5.6759   10.4422   26.3573 H   0  0  0  0  0  0  0  0  0  0  0  0
    9.5980    8.9627   23.5849 H   0  0  0  0  0  0  0  0  0  0  0  0
    8.4764    9.5023   22.2915 H   0  0  0  0  0  0  0  0  0  0  0  0
   11.1140   10.6176   22.9474 H   0  0  0  0  0  0  0  0  0  0  0  0
   10.0093   11.1479   21.6673 H   0  0  0  0  0  0  0  0  0  0  0  0
   12.5250   14.7603   23.9550 H   0  0  0  0  0  0  0  0  0  0  0  0
   13.5327   13.8971   22.7713 H   0  0  0  0  0  0  0  0  0  0  0  0
   13.4585   15.6725   22.7820 H   0  0  0  0  0  0  0  0  0  0  0  0
   11.3285   14.6963   19.8055 H   0  0  0  0  0  0  0  0  0  0  0  0
   12.7709   13.8244   20.2936 H   0  0  0  0  0  0  0  0  0  0  0  0
   12.7833   15.6019   20.2781 H   0  0  0  0  0  0  0  0  0  0  0  0
    9.8997   15.8810   21.5041 H   0  0  0  0  0  0  0  0  0  0  0  0
   10.3599   15.9028   23.2203 H   0  0  0  0  0  0  0  0  0  0  0  0
   11.2644   16.8556   22.0218 H   0  0  0  0  0  0  0  0  0  0  0  0
    6.0142    8.5151   25.2636 H   0  0  0  0  0  0  0  0  0  0  0  0
  1  2  2  0  0  0  0
  1  3  1  0  0  0  0
  2  5  1  0  0  0  0
  3  6  2  0  0  0  0
  4  5  2  0  0  0  0
  4  6  1  0  0  0  0
  4  8  1  0  0  0  0
  5 14  1  0  0  0  0
  6 16  1  0  0  0  0
  7 14  1  0  0  0  0
  7 15  2  0  0  0  0
  7 17  1  0  0  0  0
  8  9  1  0  0  0  0
  9 14  1  0  0  0  0
 10 13  1  0  0  0  0
 11 13  1  0  0  0  0
 12 13  1  0  0  0  0
 13 17  1  0  0  0  0
  1 18  1  0  0  0  0
  2 19  1  0  0  0  0
  3 20  1  0  0  0  0
  8 21  1  0  0  0  0
  8 22  1  0  0  0  0
  9 23  1  0  0  0  0
  9 24  1  0  0  0  0
 10 25  1  0  0  0  0
 10 26  1  0  0  0  0
 10 27  1  0  0  0  0
 11 28  1  0  0  0  0
 11 29  1  0  0  0  0
 11 30  1  0  0  0  0
 12 31  1  0  0  0  0
 12 32  1  0  0  0  0
 12 33  1  0  0  0  0
 16 34  1  0  0  0  0
M  END
> <id>
EN300-3204459

> <smiles>
CC(C)(C)OC(=O)N1CCC=2C1=CC=CC2O

> <MDLNUMBER>
MFCD11045241

> <IUPAC Name>
tert-butyl 4-hydroxy-2,3-dihydro-1H-indole-1-carboxylate

> <CAS>
350683-35-1

> <URL>
https://www.enaminestore.com/catalog/EN300-3204459

> <ROCS_ShapeQuery>
A71EV2A-x0451_0A_A71EV2A-x0310_0A_A71EV2A-x0416_0A_peptide

> <ROCS_TanimotoCombo>
0.491 

> <ROCS_ShapeTanimoto>
0.327 

> <ROCS_ColorTanimoto>
0.164 

> <ROCS_RefTversky>
0.285 

> <ROCS_RefColorTversky>
0.174 

> <ROCS_RefTverskyCombo>
0.460 

> <ROCS_FitTversky>
1.812 

> <ROCS_FitColorTversky>
0.726 

> <ROCS_FitTverskyCombo>
2.539 

> <ROCS_ColorScore>
-5.304

> <ROCS_Overlap>
1979.261

> <ROCS_Rank>
202                 

$$$$
untitled-dbase-44980_3
  -OEChem-11132313473D

 34 35  0     0  0  0  0  0  0999 V2000
    6.8618   12.8682   26.1725 C   0  0  0  0  0  0  0  0  0  0  0  0
    7.9532   13.0319   25.3101 C   0  0  0  0  0  0  0  0  0  0  0  0
    6.2321   11.6349   26.2861 C   0  0  0  0  0  0  0  0  0  0  0  0
    8.4452   11.9613   24.5479 C   0  0  0  0  0  0  0  0  0  0  0  0
    7.7992   10.7165   24.6911 C   0  0  0  0  0  0  0  0  0  0  0  0
    6.6969   10.5591   25.5405 C   0  0  0  0  0  0  0  0  0  0  0  0
   10.2947   13.2554   23.4266 C   0  0  0  0  0  0  0  0  0  0  0  0
    9.7741   10.8986   22.7791 C   0  0  0  0  0  0  0  0  0  0  0  0
    9.5157    9.6290   23.5601 C   0  0  0  0  0  0  0  0  0  0  0  0
   12.7651   14.5136   22.6837 C   0  0  0  0  0  0  0  0  0  0  0  0
   11.8543   14.5020   20.3429 C   0  0  0  0  0  0  0  0  0  0  0  0
   10.6713   15.7995   22.1387 C   0  0  0  0  0  0  0  0  0  0  0  0
   11.5002   14.5542   21.8275 C   0  0  0  0  0  0  0  0  0  0  0  0
    9.5325   12.0855   23.6121 N   0  0  0  0  0  0  0  0  0  0  0  0
   10.5854   14.0820   24.2865 O   0  0  0  0  0  0  0  0  0  0  0  0
    8.1674    9.5816   24.0109 O   0  0  0  0  0  0  0  0  0  0  0  0
   10.7114   13.3953   22.1241 O   0  0  0  0  0  0  0  0  0  0  0  0
    5.8015    8.8936   25.7315 Br  0  0  0  0  0  0  0  0  0  0  0  0
    6.4994   13.7158   26.7480 H   0  0  0  0  0  0  0  0  0  0  0  0
    8.3673   14.0310   25.2557 H   0  0  0  0  0  0  0  0  0  0  0  0
    5.3821   11.5346   26.9554 H   0  0  0  0  0  0  0  0  0  0  0  0
   10.8027   10.8865   22.4060 H   0  0  0  0  0  0  0  0  0  0  0  0
    9.0988   10.9758   21.9184 H   0  0  0  0  0  0  0  0  0  0  0  0
    9.6759    8.7593   22.9140 H   0  0  0  0  0  0  0  0  0  0  0  0
   10.1977    9.5275   24.4143 H   0  0  0  0  0  0  0  0  0  0  0  0
   12.5152   14.5508   23.7501 H   0  0  0  0  0  0  0  0  0  0  0  0
   13.3508   13.6079   22.4953 H   0  0  0  0  0  0  0  0  0  0  0  0
   13.4003   15.3842   22.4845 H   0  0  0  0  0  0  0  0  0  0  0  0
   10.9497   14.5309   19.7248 H   0  0  0  0  0  0  0  0  0  0  0  0
   12.3666   13.5649   20.0965 H   0  0  0  0  0  0  0  0  0  0  0  0
   12.4998   15.3369   20.0519 H   0  0  0  0  0  0  0  0  0  0  0  0
    9.7639   15.8289   21.5247 H   0  0  0  0  0  0  0  0  0  0  0  0
   10.3767   15.8349   23.1926 H   0  0  0  0  0  0  0  0  0  0  0  0
   11.2335   16.7105   21.9035 H   0  0  0  0  0  0  0  0  0  0  0  0
  1  2  1  0  0  0  0
  1  3  2  0  0  0  0
  2  4  2  0  0  0  0
  3  6  1  0  0  0  0
  4  5  1  0  0  0  0
  4 14  1  0  0  0  0
  5  6  2  0  0  0  0
  5 16  1  0  0  0  0
  6 18  1  0  0  0  0
  7 14  1  0  0  0  0
  7 15  2  0  0  0  0
  7 17  1  0  0  0  0
  8  9  1  0  0  0  0
  8 14  1  0  0  0  0
  9 16  1  0  0  0  0
 10 13  1  0  0  0  0
 11 13  1  0  0  0  0
 12 13  1  0  0  0  0
 13 17  1  0  0  0  0
  1 19  1  0  0  0  0
  2 20  1  0  0  0  0
  3 21  1  0  0  0  0
  8 22  1  0  0  0  0
  8 23  1  0  0  0  0
  9 24  1  0  0  0  0
  9 25  1  0  0  0  0
 10 26  1  0  0  0  0
 10 27  1  0  0  0  0
 10 28  1  0  0  0  0
 11 29  1  0  0  0  0
 11 30  1  0  0  0  0
 11 31  1  0  0  0  0
 12 32  1  0  0  0  0
 12 33  1  0  0  0  0
 12 34  1  0  0  0  0
M  END
> <id>
EN300-6486570

> <smiles>
CC(C)(C)OC(=O)N1CCOC=2C(Br)=CC=CC12

> <MDLNUMBER>
MFCD30527600

> <IUPAC Name>
tert-butyl 8-bromo-3,4-dihydro-2H-1,4-benzoxazine-4-carboxylate

> <CAS>
1913261-00-3

> <URL>
https://www.enaminestore.com/catalog/EN300-6486570

> <ROCS_ShapeQuery>
A71EV2A-x0451_0A_A71EV2A-x0310_0A_A71EV2A-x0416_0A_peptide

> <ROCS_TanimotoCombo>
0.491 

> <ROCS_ShapeTanimoto>
0.337 

> <ROCS_ColorTanimoto>
0.154 

> <ROCS_RefTversky>
0.293 

> <ROCS_RefColorTversky>
0.166 

> <ROCS_RefTverskyCombo>
0.458 

> <ROCS_FitTversky>
1.808 

> <ROCS_FitColorTversky>
0.691 

> <ROCS_FitTverskyCombo>
2.499 

> <ROCS_ColorScore>
-5.039

> <ROCS_Overlap>
2029.156

> <ROCS_Rank>
203                 

$$$$
untitled-dbase-25959_572
  -OEChem-11132313473D

 58 60  0     0  0  0  0  0  0999 V2000
    7.3455   12.7701   25.2156 C   0  0  0  0  0  0  0  0  0  0  0  0
    9.6711    9.3412   22.7832 C   0  0  0  0  0  0  0  0  0  0  0  0
    6.9074    8.4729   25.5700 C   0  0  0  0  0  0  0  0  0  0  0  0
   10.9121   13.4734   23.2392 C   0  0  0  0  0  0  0  0  0  0  0  0
    6.2324   12.0589   25.9459 C   0  0  0  0  0  0  0  0  0  0  0  0
   11.0970    9.8328   22.7597 C   0  0  0  0  0  0  0  0  0  0  0  0
    5.9351   10.7294   25.2779 C   0  0  0  0  0  0  0  0  0  0  0  0
   11.1533   11.2438   22.2059 C   0  0  0  0  0  0  0  0  0  0  0  0
    8.5711   11.9083   24.8249 C   0  0  0  0  0  0  0  0  0  0  0  0
    8.6106   10.3401   23.2994 C   0  0  0  0  0  0  0  0  0  0  0  0
    8.4138   10.3749   24.8346 C   0  0  0  0  0  0  0  0  0  0  0  0
    8.9506   11.8503   23.3176 C   0  0  0  0  0  0  0  0  0  0  0  0
    7.0617    5.7288   24.7725 C   0  0  0  0  0  0  0  0  0  0  0  0
    9.4007    5.7869   25.6862 C   0  0  0  0  0  0  0  0  0  0  0  0
    7.4500    6.1882   27.2164 C   0  0  0  0  0  0  0  0  0  0  0  0
   11.3454   16.2265   22.5884 C   0  0  0  0  0  0  0  0  0  0  0  0
   12.4292   15.3675   20.4917 C   0  0  0  0  0  0  0  0  0  0  0  0
    9.9997   14.9011   20.9251 C   0  0  0  0  0  0  0  0  0  0  0  0
    7.9937    6.3695   25.8000 C   0  0  0  0  0  0  0  0  0  0  0  0
   11.3749   15.0948   21.5623 C   0  0  0  0  0  0  0  0  0  0  0  0
    7.0927    9.8328   25.2780 N   0  0  0  0  0  0  0  0  0  0  0  0
   10.3744   12.1983   22.9989 N   0  0  0  0  0  0  0  0  0  0  0  0
    7.2672   13.9861   25.0104 O   0  0  0  0  0  0  0  0  0  0  0  0
    9.4095    8.1802   22.4506 O   0  0  0  0  0  0  0  0  0  0  0  0
    5.8242    7.9552   25.8334 O   0  0  0  0  0  0  0  0  0  0  0  0
   10.6843   14.1511   24.2392 O   0  0  0  0  0  0  0  0  0  0  0  0
    8.0834    7.7713   25.5221 O   0  0  0  0  0  0  0  0  0  0  0  0
   11.7423   13.8830   22.2308 O   0  0  0  0  0  0  0  0  0  0  0  0
    6.5320   11.9182   26.9873 H   0  0  0  0  0  0  0  0  0  0  0  0
    5.3394   12.6887   25.9188 H   0  0  0  0  0  0  0  0  0  0  0  0
   11.5010    9.7893   23.7754 H   0  0  0  0  0  0  0  0  0  0  0  0
   11.6854    9.1656   22.1221 H   0  0  0  0  0  0  0  0  0  0  0  0
    5.0939   10.2471   25.7853 H   0  0  0  0  0  0  0  0  0  0  0  0
    5.6451   10.8727   24.2314 H   0  0  0  0  0  0  0  0  0  0  0  0
   12.1968   11.5701   22.1484 H   0  0  0  0  0  0  0  0  0  0  0  0
   10.7453   11.2782   21.1886 H   0  0  0  0  0  0  0  0  0  0  0  0
    9.4338   12.2198   25.4486 H   0  0  0  0  0  0  0  0  0  0  0  0
    7.6654   10.1561   22.7443 H   0  0  0  0  0  0  0  0  0  0  0  0
    9.2203    9.8752   25.4102 H   0  0  0  0  0  0  0  0  0  0  0  0
    8.2696   12.4246   22.6612 H   0  0  0  0  0  0  0  0  0  0  0  0
    6.0507    6.1443   24.8510 H   0  0  0  0  0  0  0  0  0  0  0  0
    7.4223    5.8819   23.7501 H   0  0  0  0  0  0  0  0  0  0  0  0
    6.9675    4.6511   24.9485 H   0  0  0  0  0  0  0  0  0  0  0  0
   10.0728    6.2437   26.4216 H   0  0  0  0  0  0  0  0  0  0  0  0
    9.8321    5.9979   24.7010 H   0  0  0  0  0  0  0  0  0  0  0  0
    9.4030    4.7031   25.8408 H   0  0  0  0  0  0  0  0  0  0  0  0
    8.1183    6.6476   27.9537 H   0  0  0  0  0  0  0  0  0  0  0  0
    6.4557    6.6330   27.3268 H   0  0  0  0  0  0  0  0  0  0  0  0
    7.3868    5.1253   27.4765 H   0  0  0  0  0  0  0  0  0  0  0  0
   10.5898   16.0346   23.3587 H   0  0  0  0  0  0  0  0  0  0  0  0
   12.3166   16.3527   23.0779 H   0  0  0  0  0  0  0  0  0  0  0  0
   11.0703   17.1762   22.1154 H   0  0  0  0  0  0  0  0  0  0  0  0
   12.4539   14.5579   19.7532 H   0  0  0  0  0  0  0  0  0  0  0  0
   13.4313   15.4130   20.9333 H   0  0  0  0  0  0  0  0  0  0  0  0
   12.2384   16.3093   19.9673 H   0  0  0  0  0  0  0  0  0  0  0  0
   10.0205   14.0893   20.1889 H   0  0  0  0  0  0  0  0  0  0  0  0
    9.2369   14.6679   21.6750 H   0  0  0  0  0  0  0  0  0  0  0  0
    9.6910   15.8023   20.3829 H   0  0  0  0  0  0  0  0  0  0  0  0
  1  5  1  0  0  0  0
  1  9  1  0  0  0  0
  1 23  2  0  0  0  0
  2  6  1  0  0  0  0
  2 10  1  0  0  0  0
  2 24  2  0  0  0  0
  3 21  1  0  0  0  0
  3 25  2  0  0  0  0
  3 27  1  0  0  0  0
  4 22  1  0  0  0  0
  4 26  2  0  0  0  0
  4 28  1  0  0  0  0
  5  7  1  0  0  0  0
  6  8  1  0  0  0  0
  7 21  1  0  0  0  0
  8 22  1  0  0  0  0
  9 11  1  0  0  0  0
  9 12  1  0  0  0  0
 10 11  1  0  0  0  0
 10 12  1  0  0  0  0
 11 21  1  0  0  0  0
 12 22  1  0  0  0  0
 13 19  1  0  0  0  0
 14 19  1  0  0  0  0
 15 19  1  0  0  0  0
 16 20  1  0  0  0  0
 17 20  1  0  0  0  0
 18 20  1  0  0  0  0
 19 27  1  0  0  0  0
 20 28  1  0  0  0  0
  5 29  1  0  0  0  0
  5 30  1  0  0  0  0
  6 31  1  0  0  0  0
  6 32  1  0  0  0  0
  7 33  1  0  0  0  0
  7 34  1  0  0  0  0
  8 35  1  0  0  0  0
  8 36  1  0  0  0  0
  9 37  1  0  0  0  0
 10 38  1  0  0  0  0
 11 39  1  0  0  0  0
 12 40  1  0  0  0  0
 13 41  1  0  0  0  0
 13 42  1  0  0  0  0
 13 43  1  0  0  0  0
 14 44  1  0  0  0  0
 14 45  1  0  0  0  0
 14 46  1  0  0  0  0
 15 47  1  0  0  0  0
 15 48  1  0  0  0  0
 15 49  1  0  0  0  0
 16 50  1  0  0  0  0
 16 51  1  0  0  0  0
 16 52  1  0  0  0  0
 17 53  1  0  0  0  0
 17 54  1  0  0  0  0
 17 55  1  0  0  0  0
 18 56  1  0  0  0  0
 18 57  1  0  0  0  0
 18 58  1  0  0  0  0
M  END
> <id>
EN300-6734676

> <smiles>
CC(C)(C)OC(=O)N1CCC(=O)C2C1C3C2N(CCC3=O)C(=O)OC(C)(C)C

> <MDLNUMBER>
MFCD31737101

> <IUPAC Name>
1,5-di-tert-butyl 4,8-dioxo-dodecahydro-1,5-diazabiphenylene-1,5-dicarboxylate

> <CAS>
2260930-91-2

> <Purity>
95

> <URL>
https://www.enaminestore.com/catalog/EN300-6734676

> <ROCS_ShapeQuery>
A71EV2A-x0451_0A_A71EV2A-x0310_0A_A71EV2A-x0416_0A_peptide

> <ROCS_TanimotoCombo>
0.491 

> <ROCS_ShapeTanimoto>
0.364 

> <ROCS_ColorTanimoto>
0.126 

> <ROCS_RefTversky>
0.327 

> <ROCS_RefColorTversky>
0.150 

> <ROCS_RefTverskyCombo>
0.476 

> <ROCS_FitTversky>
1.464 

> <ROCS_FitColorTversky>
0.445 

> <ROCS_FitTverskyCombo>
1.909 

> <ROCS_ColorScore>
-4.581

> <ROCS_Overlap>
2273.017

> <ROCS_Rank>
204                 

$$$$
untitled-dbase-51851_171
  -OEChem-11132313473D

 34 35  0     1  0  0  0  0  0999 V2000
   10.4720   13.1123   23.5758 C   0  0  0  0  0  0  0  0  0  0  0  0
    8.0401   11.1095   25.6912 C   0  0  0  0  0  0  0  0  0  0  0  0
    7.0782   11.8424   23.9589 C   0  0  0  0  0  0  0  0  0  0  0  0
    9.8607   10.7091   23.5391 C   0  0  0  0  0  0  0  0  0  0  0  0
    7.5019   10.4108   24.4077 C   0  0  0  0  0  0  0  0  0  0  0  0
    8.3389   12.3104   24.7400 C   0  0  0  0  0  0  0  0  0  0  0  0
    8.6010    9.8302   23.5106 C   0  0  2  0  0  0  0  0  0  0  0  0
   12.4616   14.8423   22.4687 C   0  0  0  0  0  0  0  0  0  0  0  0
   12.2561   13.4446   20.3918 C   0  0  0  0  0  0  0  0  0  0  0  0
   10.2746   14.7424   21.2271 C   0  0  0  0  0  0  0  0  0  0  0  0
   11.5302   13.9697   21.6285 C   0  0  0  0  0  0  0  0  0  0  0  0
    9.5795   12.0970   23.9269 N   0  0  0  0  0  0  0  0  0  0  0  0
   10.6485   14.1364   24.2325 O   0  0  0  0  0  0  0  0  0  0  0  0
    8.9446    8.5299   23.9795 O   0  0  0  0  0  0  0  0  0  0  0  0
   11.1376   12.8370   22.4116 O   0  0  0  0  0  0  0  0  0  0  0  0
    7.2770   11.3193   26.4502 H   0  0  0  0  0  0  0  0  0  0  0  0
    8.9025   10.6532   26.1842 H   0  0  0  0  0  0  0  0  0  0  0  0
    7.0565   12.0380   22.8819 H   0  0  0  0  0  0  0  0  0  0  0  0
    6.1269   12.1861   24.3871 H   0  0  0  0  0  0  0  0  0  0  0  0
   10.6323   10.2903   24.1957 H   0  0  0  0  0  0  0  0  0  0  0  0
   10.2883   10.7707   22.5302 H   0  0  0  0  0  0  0  0  0  0  0  0
    6.6780    9.7140   24.5740 H   0  0  0  0  0  0  0  0  0  0  0  0
    8.2528   13.3061   25.1806 H   0  0  0  0  0  0  0  0  0  0  0  0
    8.2504    9.7332   22.4818 H   0  0  0  0  0  0  0  0  0  0  0  0
   11.9443   15.2212   23.3574 H   0  0  0  0  0  0  0  0  0  0  0  0
   13.3495   14.2894   22.7924 H   0  0  0  0  0  0  0  0  0  0  0  0
   12.7891   15.7221   21.9030 H   0  0  0  0  0  0  0  0  0  0  0  0
   11.5916   12.8180   19.7860 H   0  0  0  0  0  0  0  0  0  0  0  0
   13.1036   12.8106   20.6764 H   0  0  0  0  0  0  0  0  0  0  0  0
   12.6291   14.2612   19.7652 H   0  0  0  0  0  0  0  0  0  0  0  0
    9.6064   14.1167   20.6244 H   0  0  0  0  0  0  0  0  0  0  0  0
    9.7209   15.0954   22.1031 H   0  0  0  0  0  0  0  0  0  0  0  0
   10.5318   15.6079   20.6057 H   0  0  0  0  0  0  0  0  0  0  0  0
    8.1318    8.0016   23.9496 H   0  0  0  0  0  0  0  0  0  0  0  0
  1 12  1  0  0  0  0
  1 13  2  0  0  0  0
  1 15  1  0  0  0  0
  2  5  1  0  0  0  0
  2  6  1  0  0  0  0
  3  5  1  0  0  0  0
  3  6  1  0  0  0  0
  4  7  1  0  0  0  0
  4 12  1  0  0  0  0
  5  7  1  0  0  0  0
  6 12  1  0  0  0  0
  7 14  1  0  0  0  0
  8 11  1  0  0  0  0
  9 11  1  0  0  0  0
 10 11  1  0  0  0  0
 11 15  1  0  0  0  0
  2 16  1  0  0  0  0
  2 17  1  0  0  0  0
  3 18  1  0  0  0  0
  3 19  1  0  0  0  0
  4 20  1  0  0  0  0
  4 21  1  0  0  0  0
  5 22  1  0  0  0  0
  6 23  1  0  0  0  0
  7 24  1  0  0  0  0
  8 25  1  0  0  0  0
  8 26  1  0  0  0  0
  8 27  1  0  0  0  0
  9 28  1  0  0  0  0
  9 29  1  0  0  0  0
  9 30  1  0  0  0  0
 10 31  1  0  0  0  0
 10 32  1  0  0  0  0
 10 33  1  0  0  0  0
 14 34  1  0  0  0  0
M  END
> <id>
EN300-37152169

> <smiles>
CC(C)(C)OC(=O)N1CC(O)C2CC1C2

> <IUPAC Name>
tert-butyl 4-hydroxy-2-azabicyclo[3.1.1]heptane-2-carboxylate

> <Purity>
95

> <URL>
https://www.enaminestore.com/catalog/EN300-37152169

> <ROCS_ShapeQuery>
A71EV2A-x0451_0A_A71EV2A-x0310_0A_A71EV2A-x0416_0A_peptide

> <ROCS_TanimotoCombo>
0.491 

> <ROCS_ShapeTanimoto>
0.288 

> <ROCS_ColorTanimoto>
0.202 

> <ROCS_RefTversky>
0.256 

> <ROCS_RefColorTversky>
0.230 

> <ROCS_RefTverskyCombo>
0.485 

> <ROCS_FitTversky>
1.791 

> <ROCS_FitColorTversky>
0.629 

> <ROCS_FitTverskyCombo>
2.420 

> <ROCS_ColorScore>
-7.035

> <ROCS_Overlap>
1771.490

> <ROCS_Rank>
205                 

$$$$
untitled-dbase-45099_14
  -OEChem-11132313473D

 32 33  0     0  0  0  0  0  0999 V2000
    7.7053   13.1795   25.1791 C   0  0  0  0  0  0  0  0  0  0  0  0
    6.5086   12.9024   25.8488 C   0  0  0  0  0  0  0  0  0  0  0  0
    6.7084   10.5370   25.3519 C   0  0  0  0  0  0  0  0  0  0  0  0
    7.9127   10.7992   24.6755 C   0  0  0  0  0  0  0  0  0  0  0  0
    8.3944   12.1050   24.5963 C   0  0  0  0  0  0  0  0  0  0  0  0
    6.0160   11.6025   25.9349 C   0  0  0  0  0  0  0  0  0  0  0  0
    8.8639   10.0276   23.9858 C   0  0  0  0  0  0  0  0  0  0  0  0
   10.4502   13.0595   23.5216 C   0  0  0  0  0  0  0  0  0  0  0  0
   12.3817   14.7786   22.3567 C   0  0  0  0  0  0  0  0  0  0  0  0
   12.1232   13.3664   20.2956 C   0  0  0  0  0  0  0  0  0  0  0  0
   10.1575   14.6517   21.1855 C   0  0  0  0  0  0  0  0  0  0  0  0
   11.4321   13.8927   21.5516 C   0  0  0  0  0  0  0  0  0  0  0  0
    9.8690   10.7540   23.5025 N   0  0  0  0  0  0  0  0  0  0  0  0
    9.5795   12.0260   23.8770 N   0  0  0  0  0  0  0  0  0  0  0  0
    8.7321    8.6818   23.8502 N   0  0  0  0  0  0  0  0  0  0  0  0
   10.5713   14.0527   24.2197 O   0  0  0  0  0  0  0  0  0  0  0  0
   11.0749   12.7624   22.3527 O   0  0  0  0  0  0  0  0  0  0  0  0
    4.8666   11.3693   26.5833 F   0  0  0  0  0  0  0  0  0  0  0  0
    8.0725   14.1980   25.1229 H   0  0  0  0  0  0  0  0  0  0  0  0
    5.9546   13.7165   26.3093 H   0  0  0  0  0  0  0  0  0  0  0  0
    6.3134    9.5281   25.4266 H   0  0  0  0  0  0  0  0  0  0  0  0
   11.8893   15.1583   23.2591 H   0  0  0  0  0  0  0  0  0  0  0  0
   13.2842   14.2355   22.6554 H   0  0  0  0  0  0  0  0  0  0  0  0
   12.6831   15.6578   21.7759 H   0  0  0  0  0  0  0  0  0  0  0  0
   11.4456   12.7302   19.7149 H   0  0  0  0  0  0  0  0  0  0  0  0
   12.9850   12.7416   20.5570 H   0  0  0  0  0  0  0  0  0  0  0  0
   12.4689   14.1824   19.6527 H   0  0  0  0  0  0  0  0  0  0  0  0
    9.4762   14.0165   20.6080 H   0  0  0  0  0  0  0  0  0  0  0  0
    9.6286   15.0052   22.0766 H   0  0  0  0  0  0  0  0  0  0  0  0
   10.3870   15.5156   20.5513 H   0  0  0  0  0  0  0  0  0  0  0  0
    9.4020    8.1264   23.3066 H   0  0  0  0  0  0  0  0  0  0  0  0
    7.9092    8.1824   24.2052 H   0  0  0  0  0  0  0  0  0  0  0  0
  1  2  1  0  0  0  0
  1  5  2  0  0  0  0
  2  6  2  0  0  0  0
  3  4  2  0  0  0  0
  3  6  1  0  0  0  0
  4  5  1  0  0  0  0
  4  7  1  0  0  0  0
  5 14  1  0  0  0  0
  6 18  1  0  0  0  0
  7 13  2  0  0  0  0
  7 15  1  0  0  0  0
  8 14  1  0  0  0  0
  8 16  2  0  0  0  0
  8 17  1  0  0  0  0
  9 12  1  0  0  0  0
 10 12  1  0  0  0  0
 11 12  1  0  0  0  0
 12 17  1  0  0  0  0
 13 14  1  0  0  0  0
  1 19  1  0  0  0  0
  2 20  1  0  0  0  0
  3 21  1  0  0  0  0
  9 22  1  0  0  0  0
  9 23  1  0  0  0  0
  9 24  1  0  0  0  0
 10 25  1  0  0  0  0
 10 26  1  0  0  0  0
 10 27  1  0  0  0  0
 11 28  1  0  0  0  0
 11 29  1  0  0  0  0
 11 30  1  0  0  0  0
 15 31  1  0  0  0  0
 15 32  1  0  0  0  0
M  END
> <id>
EN300-22173605

> <smiles>
CC(C)(C)OC(=O)N1N=C(N)C=2C=C(F)C=CC12

> <MDLNUMBER>
MFCD30534466

> <IUPAC Name>
tert-butyl 3-amino-5-fluoro-1H-indazole-1-carboxylate

> <CAS>
1426854-74-1

> <URL>
https://www.enaminestore.com/catalog/EN300-22173605

> <ROCS_ShapeQuery>
A71EV2A-x0451_0A_A71EV2A-x0310_0A_A71EV2A-x0416_0A_peptide

> <ROCS_TanimotoCombo>
0.490 

> <ROCS_ShapeTanimoto>
0.339 

> <ROCS_ColorTanimoto>
0.152 

> <ROCS_RefTversky>
0.295 

> <ROCS_RefColorTversky>
0.168 

> <ROCS_RefTverskyCombo>
0.462 

> <ROCS_FitTversky>
1.776 

> <ROCS_FitColorTversky>
0.618 

> <ROCS_FitTverskyCombo>
2.395 

> <ROCS_ColorScore>
-5.105

> <ROCS_Overlap>
2046.116

> <ROCS_Rank>
206                 

$$$$
untitled-dbase-50956_26
  -OEChem-11132313473D

 32 33  0     0  0  0  0  0  0999 V2000
   10.5592   12.9586   23.5799 C   0  0  0  0  0  0  0  0  0  0  0  0
    7.4677   11.0257   23.4131 C   0  0  0  0  0  0  0  0  0  0  0  0
    8.2236   10.7775   25.3456 C   0  0  0  0  0  0  0  0  0  0  0  0
    9.9087   10.4843   23.5187 C   0  0  0  0  0  0  0  0  0  0  0  0
    8.3087   11.9951   24.3386 C   0  0  0  0  0  0  0  0  0  0  0  0
    8.5362   10.0544   24.0005 C   0  0  0  0  0  0  0  0  0  0  0  0
   12.6040   14.7801   22.7672 C   0  0  0  0  0  0  0  0  0  0  0  0
   12.7744   13.3747   20.6923 C   0  0  0  0  0  0  0  0  0  0  0  0
   10.6313   14.5743   21.2178 C   0  0  0  0  0  0  0  0  0  0  0  0
   11.8497   13.8634   21.8051 C   0  0  0  0  0  0  0  0  0  0  0  0
    9.6892   11.9140   23.7880 N   0  0  0  0  0  0  0  0  0  0  0  0
    8.1281    8.6756   23.9830 N   0  0  0  0  0  0  0  0  0  0  0  0
   10.5781   13.9854   24.2537 O   0  0  0  0  0  0  0  0  0  0  0  0
   11.4010   12.7128   22.5296 O   0  0  0  0  0  0  0  0  0  0  0  0
    6.4203   10.8732   23.6997 H   0  0  0  0  0  0  0  0  0  0  0  0
    7.5189   11.2195   22.3373 H   0  0  0  0  0  0  0  0  0  0  0  0
    8.9979   10.7336   26.1177 H   0  0  0  0  0  0  0  0  0  0  0  0
    7.2456   10.6020   25.8091 H   0  0  0  0  0  0  0  0  0  0  0  0
   10.7408   10.1169   24.1239 H   0  0  0  0  0  0  0  0  0  0  0  0
   10.0868   10.3313   22.4517 H   0  0  0  0  0  0  0  0  0  0  0  0
    7.9096   12.9675   24.6197 H   0  0  0  0  0  0  0  0  0  0  0  0
   11.9437   15.1331   23.5674 H   0  0  0  0  0  0  0  0  0  0  0  0
   13.4600   14.2709   23.2219 H   0  0  0  0  0  0  0  0  0  0  0  0
   12.9685   15.6750   22.2499 H   0  0  0  0  0  0  0  0  0  0  0  0
   12.2373   12.7166   19.9996 H   0  0  0  0  0  0  0  0  0  0  0  0
   13.6002   12.7825   21.1030 H   0  0  0  0  0  0  0  0  0  0  0  0
   13.1959   14.2086   20.1218 H   0  0  0  0  0  0  0  0  0  0  0  0
   10.0900   13.9170   20.5277 H   0  0  0  0  0  0  0  0  0  0  0  0
    9.9381   14.8996   22.0004 H   0  0  0  0  0  0  0  0  0  0  0  0
   10.9352   15.4514   20.6351 H   0  0  0  0  0  0  0  0  0  0  0  0
    8.7727    8.1453   23.4331 H   0  0  0  0  0  0  0  0  0  0  0  0
    8.1156    8.3216   24.9176 H   0  0  0  0  0  0  0  0  0  0  0  0
  1 11  1  0  0  0  0
  1 13  2  0  0  0  0
  1 14  1  0  0  0  0
  2  5  1  6  0  0  0
  2  6  1  0  0  0  0
  3  5  1  0  0  0  0
  3  6  1  0  0  0  0
  4  6  1  0  0  0  0
  4 11  1  0  0  0  0
  5 11  1  0  0  0  0
  6 12  1  1  0  0  0
  7 10  1  0  0  0  0
  8 10  1  0  0  0  0
  9 10  1  0  0  0  0
 10 14  1  0  0  0  0
  2 15  1  0  0  0  0
  2 16  1  0  0  0  0
  3 17  1  0  0  0  0
  3 18  1  0  0  0  0
  4 19  1  0  0  0  0
  4 20  1  0  0  0  0
  5 21  1  0  0  0  0
  7 22  1  0  0  0  0
  7 23  1  0  0  0  0
  7 24  1  0  0  0  0
  8 25  1  0  0  0  0
  8 26  1  0  0  0  0
  8 27  1  0  0  0  0
  9 28  1  0  0  0  0
  9 29  1  0  0  0  0
  9 30  1  0  0  0  0
 12 31  1  0  0  0  0
 12 32  1  0  0  0  0
M  END
> <id>
EN300-37375326

> <smiles>
CC(C)(C)OC(=O)N1C[C@]2(N)C[C@H]1C2

> <IUPAC Name>
tert-butyl (4r)-4-amino-2-azabicyclo[2.1.1]hexane-2-carboxylate

> <CAS>
2361636-63-5

> <URL>
https://www.enaminestore.com/catalog/EN300-37375326

> <ROCS_ShapeQuery>
A71EV2A-x0451_0A_A71EV2A-x0310_0A_A71EV2A-x0416_0A_peptide

> <ROCS_TanimotoCombo>
0.490 

> <ROCS_ShapeTanimoto>
0.267 

> <ROCS_ColorTanimoto>
0.224 

> <ROCS_RefTversky>
0.240 

> <ROCS_RefColorTversky>
0.253 

> <ROCS_RefTverskyCombo>
0.493 

> <ROCS_FitTversky>
1.739 

> <ROCS_FitColorTversky>
0.657 

> <ROCS_FitTverskyCombo>
2.396 

> <ROCS_ColorScore>
-7.761

> <ROCS_Overlap>
1659.883

> <ROCS_Rank>
207                 

$$$$
untitled-dbase-26479_26
  -OEChem-11132313473D

 32 33  0     0  0  0  0  0  0999 V2000
   10.5596   12.9583   23.5801 C   0  0  0  0  0  0  0  0  0  0  0  0
    7.4676   11.0260   23.4125 C   0  0  0  0  0  0  0  0  0  0  0  0
    8.2234   10.7773   25.3449 C   0  0  0  0  0  0  0  0  0  0  0  0
    9.9087   10.4841   23.5182 C   0  0  0  0  0  0  0  0  0  0  0  0
    8.3089   11.9950   24.3382 C   0  0  0  0  0  0  0  0  0  0  0  0
    8.5360   10.0544   23.9997 C   0  0  0  0  0  0  0  0  0  0  0  0
   12.6049   14.7797   22.7684 C   0  0  0  0  0  0  0  0  0  0  0  0
   12.7756   13.3747   20.6932 C   0  0  0  0  0  0  0  0  0  0  0  0
   10.6325   14.5745   21.2184 C   0  0  0  0  0  0  0  0  0  0  0  0
   11.8507   13.8634   21.8059 C   0  0  0  0  0  0  0  0  0  0  0  0
    9.6894   11.9138   23.7877 N   0  0  0  0  0  0  0  0  0  0  0  0
    8.1275    8.6757   23.9819 N   0  0  0  0  0  0  0  0  0  0  0  0
   10.5785   13.9849   24.2541 O   0  0  0  0  0  0  0  0  0  0  0  0
   11.4016   12.7126   22.5300 O   0  0  0  0  0  0  0  0  0  0  0  0
    6.4203   10.8737   23.6991 H   0  0  0  0  0  0  0  0  0  0  0  0
    7.5189   11.2201   22.3367 H   0  0  0  0  0  0  0  0  0  0  0  0
    8.9977   10.7332   26.1170 H   0  0  0  0  0  0  0  0  0  0  0  0
    7.2454   10.6016   25.8084 H   0  0  0  0  0  0  0  0  0  0  0  0
   10.7405   10.1163   24.1236 H   0  0  0  0  0  0  0  0  0  0  0  0
   10.0869   10.3312   22.4512 H   0  0  0  0  0  0  0  0  0  0  0  0
    7.9098   12.9675   24.6195 H   0  0  0  0  0  0  0  0  0  0  0  0
   11.9444   15.1326   23.5685 H   0  0  0  0  0  0  0  0  0  0  0  0
   13.4607   14.2702   23.2232 H   0  0  0  0  0  0  0  0  0  0  0  0
   12.9696   15.6746   22.2514 H   0  0  0  0  0  0  0  0  0  0  0  0
   12.2387   12.7169   20.0002 H   0  0  0  0  0  0  0  0  0  0  0  0
   13.6012   12.7824   21.1039 H   0  0  0  0  0  0  0  0  0  0  0  0
   13.1974   14.2087   20.1230 H   0  0  0  0  0  0  0  0  0  0  0  0
   10.0914   13.9174   20.5280 H   0  0  0  0  0  0  0  0  0  0  0  0
    9.9392   14.8997   22.0009 H   0  0  0  0  0  0  0  0  0  0  0  0
   10.9367   15.4517   20.6360 H   0  0  0  0  0  0  0  0  0  0  0  0
    8.7720    8.1455   23.4319 H   0  0  0  0  0  0  0  0  0  0  0  0
    8.1148    8.3216   24.9164 H   0  0  0  0  0  0  0  0  0  0  0  0
  1 11  1  0  0  0  0
  1 13  2  0  0  0  0
  1 14  1  0  0  0  0
  2  5  1  0  0  0  0
  2  6  1  0  0  0  0
  3  5  1  0  0  0  0
  3  6  1  0  0  0  0
  4  6  1  0  0  0  0
  4 11  1  0  0  0  0
  5 11  1  0  0  0  0
  6 12  1  0  0  0  0
  7 10  1  0  0  0  0
  8 10  1  0  0  0  0
  9 10  1  0  0  0  0
 10 14  1  0  0  0  0
  2 15  1  0  0  0  0
  2 16  1  0  0  0  0
  3 17  1  0  0  0  0
  3 18  1  0  0  0  0
  4 19  1  0  0  0  0
  4 20  1  0  0  0  0
  5 21  1  0  0  0  0
  7 22  1  0  0  0  0
  7 23  1  0  0  0  0
  7 24  1  0  0  0  0
  8 25  1  0  0  0  0
  8 26  1  0  0  0  0
  8 27  1  0  0  0  0
  9 28  1  0  0  0  0
  9 29  1  0  0  0  0
  9 30  1  0  0  0  0
 12 31  1  0  0  0  0
 12 32  1  0  0  0  0
M  END
> <id>
EN300-7434257

> <smiles>
CC(C)(C)OC(=O)N1CC2(N)CC1C2

> <MDLNUMBER>
MFCD32066114

> <IUPAC Name>
tert-butyl 4-amino-2-azabicyclo[2.1.1]hexane-2-carboxylate

> <CAS>
2361636-63-5

> <Purity>
95

> <URL>
https://www.enaminestore.com/catalog/EN300-7434257

> <ROCS_ShapeQuery>
A71EV2A-x0451_0A_A71EV2A-x0310_0A_A71EV2A-x0416_0A_peptide

> <ROCS_TanimotoCombo>
0.490 

> <ROCS_ShapeTanimoto>
0.267 

> <ROCS_ColorTanimoto>
0.224 

> <ROCS_RefTversky>
0.240 

> <ROCS_RefColorTversky>
0.253 

> <ROCS_RefTverskyCombo>
0.493 

> <ROCS_FitTversky>
1.739 

> <ROCS_FitColorTversky>
0.657 

> <ROCS_FitTverskyCombo>
2.396 

> <ROCS_ColorScore>
-7.761

> <ROCS_Overlap>
1659.857

> <ROCS_Rank>
208                 

$$$$
untitled-dbase-45860_10
  -OEChem-11132313473D

 37 39  0     0  0  0  0  0  0999 V2000
    6.9003   10.1957   25.1295 C   0  0  0  0  0  0  0  0  0  0  0  0
    6.3111   11.1311   25.9818 C   0  0  0  0  0  0  0  0  0  0  0  0
    7.9397   12.8102   25.3231 C   0  0  0  0  0  0  0  0  0  0  0  0
    8.0083   10.5671   24.3748 C   0  0  0  0  0  0  0  0  0  0  0  0
    8.5175   11.8718   24.4792 C   0  0  0  0  0  0  0  0  0  0  0  0
    6.8278   12.4289   26.0772 C   0  0  0  0  0  0  0  0  0  0  0  0
   10.4039   13.1660   23.4590 C   0  0  0  0  0  0  0  0  0  0  0  0
    9.1395    8.3280   23.5776 C   0  0  0  0  0  0  0  0  0  0  0  0
    8.2334    8.7702   22.4644 C   0  0  0  0  0  0  0  0  0  0  0  0
    9.8969   10.7379   22.9057 C   0  0  0  0  0  0  0  0  0  0  0  0
    8.8256    9.7901   23.4006 C   0  0  0  0  0  0  0  0  0  0  0  0
   12.1142   15.2918   22.5904 C   0  0  0  0  0  0  0  0  0  0  0  0
   11.7382   14.4009   20.2722 C   0  0  0  0  0  0  0  0  0  0  0  0
    9.7974   15.2723   21.6071 C   0  0  0  0  0  0  0  0  0  0  0  0
   11.1437   14.5523   21.6707 C   0  0  0  0  0  0  0  0  0  0  0  0
    9.6410   12.0165   23.6222 N   0  0  0  0  0  0  0  0  0  0  0  0
   10.6014   14.0273   24.3111 O   0  0  0  0  0  0  0  0  0  0  0  0
   10.9326   13.2361   22.1946 O   0  0  0  0  0  0  0  0  0  0  0  0
    6.0094   13.6768   27.2405 Br  0  0  0  0  0  0  0  0  0  0  0  0
    6.4924    9.1920   25.0625 H   0  0  0  0  0  0  0  0  0  0  0  0
    5.4454   10.8336   26.5688 H   0  0  0  0  0  0  0  0  0  0  0  0
    8.3285   13.8182   25.4075 H   0  0  0  0  0  0  0  0  0  0  0  0
    8.6920    7.7914   24.4056 H   0  0  0  0  0  0  0  0  0  0  0  0
   10.1279    7.9750   23.3082 H   0  0  0  0  0  0  0  0  0  0  0  0
    8.6180    8.7117   21.4530 H   0  0  0  0  0  0  0  0  0  0  0  0
    7.1805    8.5291   22.5485 H   0  0  0  0  0  0  0  0  0  0  0  0
   10.9083   10.3988   23.1547 H   0  0  0  0  0  0  0  0  0  0  0  0
    9.8284   10.9262   21.8285 H   0  0  0  0  0  0  0  0  0  0  0  0
   11.6911   15.4025   23.5952 H   0  0  0  0  0  0  0  0  0  0  0  0
   13.0717   14.7671   22.6721 H   0  0  0  0  0  0  0  0  0  0  0  0
   12.3058   16.3062   22.2222 H   0  0  0  0  0  0  0  0  0  0  0  0
   11.0452   13.8708   19.6089 H   0  0  0  0  0  0  0  0  0  0  0  0
   12.6562   13.8029   20.3010 H   0  0  0  0  0  0  0  0  0  0  0  0
   11.9714   15.3726   19.8249 H   0  0  0  0  0  0  0  0  0  0  0  0
    9.1011   14.7421   20.9474 H   0  0  0  0  0  0  0  0  0  0  0  0
    9.3384   15.3574   22.5974 H   0  0  0  0  0  0  0  0  0  0  0  0
    9.9133   16.2790   21.1894 H   0  0  0  0  0  0  0  0  0  0  0  0
  1  2  1  0  0  0  0
  1  4  2  0  0  0  0
  2  6  2  0  0  0  0
  3  5  2  0  0  0  0
  3  6  1  0  0  0  0
  4  5  1  0  0  0  0
  4 11  1  0  0  0  0
  5 16  1  0  0  0  0
  6 19  1  0  0  0  0
  7 16  1  0  0  0  0
  7 17  2  0  0  0  0
  7 18  1  0  0  0  0
  8  9  1  0  0  0  0
  8 11  1  0  0  0  0
  9 11  1  0  0  0  0
 10 11  1  0  0  0  0
 10 16  1  0  0  0  0
 12 15  1  0  0  0  0
 13 15  1  0  0  0  0
 14 15  1  0  0  0  0
 15 18  1  0  0  0  0
  1 20  1  0  0  0  0
  2 21  1  0  0  0  0
  3 22  1  0  0  0  0
  8 23  1  0  0  0  0
  8 24  1  0  0  0  0
  9 25  1  0  0  0  0
  9 26  1  0  0  0  0
 10 27  1  0  0  0  0
 10 28  1  0  0  0  0
 12 29  1  0  0  0  0
 12 30  1  0  0  0  0
 12 31  1  0  0  0  0
 13 32  1  0  0  0  0
 13 33  1  0  0  0  0
 13 34  1  0  0  0  0
 14 35  1  0  0  0  0
 14 36  1  0  0  0  0
 14 37  1  0  0  0  0
M  END
> <id>
EN300-28294468

> <smiles>
CC(C)(C)OC(=O)N1CC2(CC2)C=3C=CC(Br)=CC13

> <IUPAC Name>
tert-butyl 6'-bromo-1',2'-dihydrospiro[cyclopropane-1,3'-indole]-1'-carboxylate

> <CAS>
2102533-92-4

> <URL>
https://www.enaminestore.com/catalog/EN300-28294468

> <ROCS_ShapeQuery>
A71EV2A-x0451_0A_A71EV2A-x0310_0A_A71EV2A-x0416_0A_peptide

> <ROCS_TanimotoCombo>
0.490 

> <ROCS_ShapeTanimoto>
0.356 

> <ROCS_ColorTanimoto>
0.134 

> <ROCS_RefTversky>
0.307 

> <ROCS_RefColorTversky>
0.143 

> <ROCS_RefTverskyCombo>
0.450 

> <ROCS_FitTversky>
1.821 

> <ROCS_FitColorTversky>
0.684 

> <ROCS_FitTverskyCombo>
2.505 

> <ROCS_ColorScore>
-4.343

> <ROCS_Overlap>
2128.947

> <ROCS_Rank>
209                 

$$$$
untitled-dbase-34633_5
  -OEChem-11132313473D

 35 36  0     0  0  0  0  0  0999 V2000
    6.9361   12.1639   25.9778 C   0  0  0  0  0  0  0  0  0  0  0  0
    8.0154   12.6830   25.2561 C   0  0  0  0  0  0  0  0  0  0  0  0
    6.5183   10.8386   25.7906 C   0  0  0  0  0  0  0  0  0  0  0  0
    8.2440   10.5347   24.1665 C   0  0  0  0  0  0  0  0  0  0  0  0
    8.6617   11.8542   24.3513 C   0  0  0  0  0  0  0  0  0  0  0  0
    7.1747   10.0127   24.8780 C   0  0  0  0  0  0  0  0  0  0  0  0
   10.4434   13.3332   23.4175 C   0  0  0  0  0  0  0  0  0  0  0  0
    9.0795    9.8291   23.1475 C   0  0  0  0  0  0  0  0  0  0  0  0
   10.0767   10.9175   22.7361 C   0  0  0  0  0  0  0  0  0  0  0  0
   12.8732   14.7586   22.9067 C   0  0  0  0  0  0  0  0  0  0  0  0
   12.1741   14.7188   20.4945 C   0  0  0  0  0  0  0  0  0  0  0  0
   10.7521   15.9078   22.1893 C   0  0  0  0  0  0  0  0  0  0  0  0
   11.6885   14.7259   21.9424 C   0  0  0  0  0  0  0  0  0  0  0  0
    9.7585   12.1303   23.5138 N   0  0  0  0  0  0  0  0  0  0  0  0
    6.7519    8.6836   24.6943 N   0  0  0  0  0  0  0  0  0  0  0  0
   10.5888   14.1526   24.3200 O   0  0  0  0  0  0  0  0  0  0  0  0
   10.9584   13.5128   22.1585 O   0  0  0  0  0  0  0  0  0  0  0  0
    6.4135   12.7946   26.6923 H   0  0  0  0  0  0  0  0  0  0  0  0
    8.3128   13.7107   25.4237 H   0  0  0  0  0  0  0  0  0  0  0  0
    5.6754   10.4638   26.3664 H   0  0  0  0  0  0  0  0  0  0  0  0
    9.5953    8.9709   23.5888 H   0  0  0  0  0  0  0  0  0  0  0  0
    8.4727    9.5093   22.2952 H   0  0  0  0  0  0  0  0  0  0  0  0
   11.1109   10.6222   22.9480 H   0  0  0  0  0  0  0  0  0  0  0  0
   10.0053   11.1518   21.6679 H   0  0  0  0  0  0  0  0  0  0  0  0
   12.5288   14.7637   23.9471 H   0  0  0  0  0  0  0  0  0  0  0  0
   13.5339   13.8974   22.7634 H   0  0  0  0  0  0  0  0  0  0  0  0
   13.4623   15.6730   22.7716 H   0  0  0  0  0  0  0  0  0  0  0  0
   11.3273   14.6953   19.7991 H   0  0  0  0  0  0  0  0  0  0  0  0
   12.7691   13.8221   20.2867 H   0  0  0  0  0  0  0  0  0  0  0  0
   12.7839   15.5996   20.2686 H   0  0  0  0  0  0  0  0  0  0  0  0
    9.9022   15.8845   21.4977 H   0  0  0  0  0  0  0  0  0  0  0  0
   10.3645   15.9082   23.2132 H   0  0  0  0  0  0  0  0  0  0  0  0
   11.2689   16.8580   22.0122 H   0  0  0  0  0  0  0  0  0  0  0  0
    7.2015    8.1159   24.0022 H   0  0  0  0  0  0  0  0  0  0  0  0
    5.9470    8.3513   25.1896 H   0  0  0  0  0  0  0  0  0  0  0  0
  1  2  2  0  0  0  0
  1  3  1  0  0  0  0
  2  5  1  0  0  0  0
  3  6  2  0  0  0  0
  4  5  2  0  0  0  0
  4  6  1  0  0  0  0
  4  8  1  0  0  0  0
  5 14  1  0  0  0  0
  6 15  1  0  0  0  0
  7 14  1  0  0  0  0
  7 16  2  0  0  0  0
  7 17  1  0  0  0  0
  8  9  1  0  0  0  0
  9 14  1  0  0  0  0
 10 13  1  0  0  0  0
 11 13  1  0  0  0  0
 12 13  1  0  0  0  0
 13 17  1  0  0  0  0
  1 18  1  0  0  0  0
  2 19  1  0  0  0  0
  3 20  1  0  0  0  0
  8 21  1  0  0  0  0
  8 22  1  0  0  0  0
  9 23  1  0  0  0  0
  9 24  1  0  0  0  0
 10 25  1  0  0  0  0
 10 26  1  0  0  0  0
 10 27  1  0  0  0  0
 11 28  1  0  0  0  0
 11 29  1  0  0  0  0
 11 30  1  0  0  0  0
 12 31  1  0  0  0  0
 12 32  1  0  0  0  0
 12 33  1  0  0  0  0
 15 34  1  0  0  0  0
 15 35  1  0  0  0  0
M  END
> <id>
EN300-104184

> <smiles>
CC(C)(C)OC(=O)N1CCC=2C1=CC=CC2N

> <MDLNUMBER>
MFCD08059274

> <IUPAC Name>
tert-butyl 4-amino-2,3-dihydro-1H-indole-1-carboxylate

> <CAS>
885272-42-4

> <Purity>
95

> <URL>
https://www.enaminestore.com/catalog/EN300-104184

> <ROCS_ShapeQuery>
A71EV2A-x0451_0A_A71EV2A-x0310_0A_A71EV2A-x0416_0A_peptide

> <ROCS_TanimotoCombo>
0.490 

> <ROCS_ShapeTanimoto>
0.327 

> <ROCS_ColorTanimoto>
0.163 

> <ROCS_RefTversky>
0.285 

> <ROCS_RefColorTversky>
0.174 

> <ROCS_RefTverskyCombo>
0.459 

> <ROCS_FitTversky>
1.812 

> <ROCS_FitColorTversky>
0.725 

> <ROCS_FitTverskyCombo>
2.537 

> <ROCS_ColorScore>
-5.295

> <ROCS_Overlap>
1975.972

> <ROCS_Rank>
210                 

$$$$
untitled-dbase-30796_0
  -OEChem-11132313473D

 40 41  0     1  0  0  0  0  0999 V2000
   10.3330   13.2340   23.4955 C   0  0  0  0  0  0  0  0  0  0  0  0
    6.8648   11.6352   23.7959 C   0  0  0  0  0  0  0  0  0  0  0  0
    7.2245   10.2007   23.3827 C   0  0  0  0  0  0  0  0  0  0  0  0
    9.1505   10.1341   24.9878 C   0  0  0  0  0  0  0  0  0  0  0  0
    9.6045   10.9137   22.7890 C   0  0  0  0  0  0  0  0  0  0  0  0
    9.0971   11.6613   25.0245 C   0  0  2  0  0  0  0  0  0  0  0  0
    7.6191   12.0980   25.0498 C   0  0  1  0  0  0  0  0  0  0  0  0
    8.7351    9.8777   23.5278 C   0  0  2  0  0  0  0  0  0  0  0  0
    9.0285    8.4500   23.0825 C   0  0  0  0  0  0  0  0  0  0  0  0
   12.6761   14.7299   22.8331 C   0  0  0  0  0  0  0  0  0  0  0  0
   11.9980   14.3821   20.4397 C   0  0  0  0  0  0  0  0  0  0  0  0
   10.4966   15.6655   21.9911 C   0  0  0  0  0  0  0  0  0  0  0  0
   11.5023   14.5207   21.8775 C   0  0  0  0  0  0  0  0  0  0  0  0
    9.7183   12.0193   23.7430 N   0  0  0  0  0  0  0  0  0  0  0  0
   10.4161   14.1477   24.3129 O   0  0  0  0  0  0  0  0  0  0  0  0
    7.5102   13.5122   25.1604 O   0  0  0  0  0  0  0  0  0  0  0  0
   10.8430   13.2984   22.2263 O   0  0  0  0  0  0  0  0  0  0  0  0
    7.0790   12.3194   22.9640 H   0  0  0  0  0  0  0  0  0  0  0  0
    5.7835   11.7213   23.9583 H   0  0  0  0  0  0  0  0  0  0  0  0
    6.6478    9.5040   24.0053 H   0  0  0  0  0  0  0  0  0  0  0  0
    6.8989   10.0372   22.3480 H   0  0  0  0  0  0  0  0  0  0  0  0
   10.1709    9.7797   25.1811 H   0  0  0  0  0  0  0  0  0  0  0  0
    8.4814    9.6603   25.7140 H   0  0  0  0  0  0  0  0  0  0  0  0
   10.6180   10.5461   22.5909 H   0  0  0  0  0  0  0  0  0  0  0  0
    9.1682   11.2649   21.8484 H   0  0  0  0  0  0  0  0  0  0  0  0
    9.6592   12.1003   25.8546 H   0  0  0  0  0  0  0  0  0  0  0  0
    7.1316   11.6682   25.9335 H   0  0  0  0  0  0  0  0  0  0  0  0
   10.0921    8.2376   23.1899 H   0  0  0  0  0  0  0  0  0  0  0  0
    8.7453    8.3201   22.0382 H   0  0  0  0  0  0  0  0  0  0  0  0
    8.4634    7.7459   23.6931 H   0  0  0  0  0  0  0  0  0  0  0  0
   12.3245   14.8299   23.8663 H   0  0  0  0  0  0  0  0  0  0  0  0
   13.3871   13.8986   22.7868 H   0  0  0  0  0  0  0  0  0  0  0  0
   13.2116   15.6568   22.5978 H   0  0  0  0  0  0  0  0  0  0  0  0
   11.1591   14.2318   19.7506 H   0  0  0  0  0  0  0  0  0  0  0  0
   12.6459   13.5045   20.3332 H   0  0  0  0  0  0  0  0  0  0  0  0
   12.5568   15.2668   20.1179 H   0  0  0  0  0  0  0  0  0  0  0  0
    9.6545   15.5157   21.3058 H   0  0  0  0  0  0  0  0  0  0  0  0
   10.1022   15.7564   23.0084 H   0  0  0  0  0  0  0  0  0  0  0  0
   10.9582   16.6190   21.7101 H   0  0  0  0  0  0  0  0  0  0  0  0
    7.9065   13.8860   24.3572 H   0  0  0  0  0  0  0  0  0  0  0  0
  1 14  1  0  0  0  0
  1 15  2  0  0  0  0
  1 17  1  0  0  0  0
  2  3  1  0  0  0  0
  2  7  1  0  0  0  0
  3  8  1  0  0  0  0
  4  6  1  0  0  0  0
  4  8  1  0  0  0  0
  5  8  1  0  0  0  0
  5 14  1  0  0  0  0
  6  7  1  0  0  0  0
  6 14  1  0  0  0  0
  7 16  1  0  0  0  0
  8  9  1  0  0  0  0
 10 13  1  0  0  0  0
 11 13  1  0  0  0  0
 12 13  1  0  0  0  0
 13 17  1  0  0  0  0
  2 18  1  0  0  0  0
  2 19  1  0  0  0  0
  3 20  1  0  0  0  0
  3 21  1  0  0  0  0
  4 22  1  0  0  0  0
  4 23  1  0  0  0  0
  5 24  1  0  0  0  0
  5 25  1  0  0  0  0
  6 26  1  0  0  0  0
  7 27  1  0  0  0  0
  9 28  1  0  0  0  0
  9 29  1  0  0  0  0
  9 30  1  0  0  0  0
 10 31  1  0  0  0  0
 10 32  1  0  0  0  0
 10 33  1  0  0  0  0
 11 34  1  0  0  0  0
 11 35  1  0  0  0  0
 11 36  1  0  0  0  0
 12 37  1  0  0  0  0
 12 38  1  0  0  0  0
 12 39  1  0  0  0  0
 16 40  1  0  0  0  0
M  END
> <id>
EN300-26665554

> <smiles>
CC(C)(C)OC(=O)N1CC2(C)CC1C(O)CC2

> <IUPAC Name>
tert-butyl 4-hydroxy-1-methyl-6-azabicyclo[3.2.1]octane-6-carboxylate

> <CAS>
2413903-65-6

> <URL>
https://www.enaminestore.com/catalog/EN300-26665554

> <ROCS_ShapeQuery>
A71EV2A-x0451_0A_A71EV2A-x0310_0A_A71EV2A-x0416_0A_peptide

> <ROCS_TanimotoCombo>
0.490 

> <ROCS_ShapeTanimoto>
0.307 

> <ROCS_ColorTanimoto>
0.183 

> <ROCS_RefTversky>
0.271 

> <ROCS_RefColorTversky>
0.210 

> <ROCS_RefTverskyCombo>
0.481 

> <ROCS_FitTversky>
1.749 

> <ROCS_FitColorTversky>
0.587 

> <ROCS_FitTverskyCombo>
2.336 

> <ROCS_ColorScore>
-6.421

> <ROCS_Overlap>
1881.525

> <ROCS_Rank>
211                 

$$$$
untitled-dbase-53346_100
  -OEChem-11132313473D

 46 47  0     0  0  0  0  0  0999 V2000
   10.5158   13.2237   23.4271 C   0  0  0  0  0  0  0  0  0  0  0  0
    6.5524   13.0355   25.2110 C   0  0  0  0  0  0  0  0  0  0  0  0
    6.4647   11.1658   26.9160 C   0  0  0  0  0  0  0  0  0  0  0  0
    6.9184   11.8802   24.2768 C   0  0  0  0  0  0  0  0  0  0  0  0
    7.5478   10.3525   26.1956 C   0  0  0  0  0  0  0  0  0  0  0  0
    9.8739   10.8827   22.6830 C   0  0  0  0  0  0  0  0  0  0  0  0
    9.3646   11.6568   24.9758 C   0  0  0  0  0  0  0  0  0  0  0  0
    9.3354    9.6030   23.3018 C   0  0  0  0  0  0  0  0  0  0  0  0
    6.6402   12.6669   26.7001 C   0  0  0  0  0  0  0  0  0  0  0  0
    8.0012   10.9365   24.8337 C   0  0  0  0  0  0  0  0  0  0  0  0
   12.1366   14.4803   20.2746 C   0  0  0  0  0  0  0  0  0  0  0  0
   10.6528   15.7636   21.8366 C   0  0  0  0  0  0  0  0  0  0  0  0
   12.8732   14.9099   22.6299 C   0  0  0  0  0  0  0  0  0  0  0  0
   11.6681   14.6212   21.7274 C   0  0  0  0  0  0  0  0  0  0  0  0
    9.9385   11.9653   23.6666 N   0  0  0  0  0  0  0  0  0  0  0  0
    5.6531   13.4163   27.4772 N   0  0  0  0  0  0  0  0  0  0  0  0
   11.0403   13.3896   22.1484 N   0  0  0  0  0  0  0  0  0  0  0  0
   10.5564   14.1190   24.2761 O   0  0  0  0  0  0  0  0  0  0  0  0
    8.0697    9.8238   23.9149 O   0  0  0  0  0  0  0  0  0  0  0  0
    7.2213   13.8913   25.0001 H   0  0  0  0  0  0  0  0  0  0  0  0
    5.5329   13.3928   24.9685 H   0  0  0  0  0  0  0  0  0  0  0  0
    5.4743   10.8415   26.5627 H   0  0  0  0  0  0  0  0  0  0  0  0
    6.5000   10.9308   27.9897 H   0  0  0  0  0  0  0  0  0  0  0  0
    5.9910   11.3299   24.0356 H   0  0  0  0  0  0  0  0  0  0  0  0
    7.2597   12.3021   23.3113 H   0  0  0  0  0  0  0  0  0  0  0  0
    8.4229   10.2505   26.8666 H   0  0  0  0  0  0  0  0  0  0  0  0
    7.1576    9.3270   26.0488 H   0  0  0  0  0  0  0  0  0  0  0  0
   10.9033   10.7267   22.3287 H   0  0  0  0  0  0  0  0  0  0  0  0
    9.2592   11.1366   21.8138 H   0  0  0  0  0  0  0  0  0  0  0  0
    9.2658   12.5544   25.5911 H   0  0  0  0  0  0  0  0  0  0  0  0
   10.0861   10.9969   25.4701 H   0  0  0  0  0  0  0  0  0  0  0  0
    9.2636    8.8005   22.5652 H   0  0  0  0  0  0  0  0  0  0  0  0
   10.0190    9.2604   24.0819 H   0  0  0  0  0  0  0  0  0  0  0  0
    7.6455   12.9554   27.0666 H   0  0  0  0  0  0  0  0  0  0  0  0
   12.8651   13.6678   20.1702 H   0  0  0  0  0  0  0  0  0  0  0  0
   11.2971   14.2675   19.6036 H   0  0  0  0  0  0  0  0  0  0  0  0
   12.6235   15.3985   19.9258 H   0  0  0  0  0  0  0  0  0  0  0  0
   10.3025   15.8840   22.8683 H   0  0  0  0  0  0  0  0  0  0  0  0
    9.7705   15.5690   21.2158 H   0  0  0  0  0  0  0  0  0  0  0  0
   11.0880   16.7163   21.5149 H   0  0  0  0  0  0  0  0  0  0  0  0
   12.5663   15.0156   23.6770 H   0  0  0  0  0  0  0  0  0  0  0  0
   13.6146   14.1051   22.5750 H   0  0  0  0  0  0  0  0  0  0  0  0
   13.3688   15.8443   22.3418 H   0  0  0  0  0  0  0  0  0  0  0  0
    5.7656   13.1768   28.4334 H   0  0  0  0  0  0  0  0  0  0  0  0
    5.8187   14.3842   27.3353 H   0  0  0  0  0  0  0  0  0  0  0  0
   10.9792   12.6216   21.4931 H   0  0  0  0  0  0  0  0  0  0  0  0
  1 15  1  0  0  0  0
  1 17  1  0  0  0  0
  1 18  2  0  0  0  0
  2  4  1  0  0  0  0
  2  9  1  0  0  0  0
  3  5  1  0  0  0  0
  3  9  1  0  0  0  0
  4 10  1  0  0  0  0
  5 10  1  0  0  0  0
  6  8  1  0  0  0  0
  6 15  1  0  0  0  0
  7 10  1  0  0  0  0
  7 15  1  0  0  0  0
  8 19  1  0  0  0  0
  9 16  1  0  0  0  0
 10 19  1  0  0  0  0
 11 14  1  0  0  0  0
 12 14  1  0  0  0  0
 13 14  1  0  0  0  0
 14 17  1  0  0  0  0
  2 20  1  0  0  0  0
  2 21  1  0  0  0  0
  3 22  1  0  0  0  0
  3 23  1  0  0  0  0
  4 24  1  0  0  0  0
  4 25  1  0  0  0  0
  5 26  1  0  0  0  0
  5 27  1  0  0  0  0
  6 28  1  0  0  0  0
  6 29  1  0  0  0  0
  7 30  1  0  0  0  0
  7 31  1  0  0  0  0
  8 32  1  0  0  0  0
  8 33  1  0  0  0  0
  9 34  1  0  0  0  0
 11 35  1  0  0  0  0
 11 36  1  0  0  0  0
 11 37  1  0  0  0  0
 12 38  1  0  0  0  0
 12 39  1  0  0  0  0
 12 40  1  0  0  0  0
 13 41  1  0  0  0  0
 13 42  1  0  0  0  0
 13 43  1  0  0  0  0
 16 44  1  0  0  0  0
 16 45  1  0  0  0  0
 17 46  1  0  0  0  0
M  END
> <id>
EN300-768589

> <smiles>
CC(C)(C)NC(=O)N1CCOC2(CCC(N)CC2)C1

> <IUPAC Name>
9-amino-N-tert-butyl-1-oxa-4-azaspiro[5.5]undecane-4-carboxamide

> <CAS>
2138512-15-7

> <URL>
https://www.enaminestore.com/catalog/EN300-768589

> <ROCS_ShapeQuery>
A71EV2A-x0451_0A_A71EV2A-x0310_0A_A71EV2A-x0416_0A_peptide

> <ROCS_TanimotoCombo>
0.490 

> <ROCS_ShapeTanimoto>
0.326 

> <ROCS_ColorTanimoto>
0.164 

> <ROCS_RefTversky>
0.286 

> <ROCS_RefColorTversky>
0.183 

> <ROCS_RefTverskyCombo>
0.469 

> <ROCS_FitTversky>
1.739 

> <ROCS_FitColorTversky>
0.608 

> <ROCS_FitTverskyCombo>
2.347 

> <ROCS_ColorScore>
-5.584

> <ROCS_Overlap>
1987.097

> <ROCS_Rank>
212                 

$$$$
untitled-dbase-49624_11
  -OEChem-11132313473D

 38 39  0     1  0  0  0  0  0999 V2000
   10.4707   13.2825   23.4799 C   0  0  0  0  0  0  0  0  0  0  0  0
    6.8843   11.3089   25.4389 C   0  0  0  0  0  0  0  0  0  0  0  0
    7.4424   12.5300   24.6802 C   0  0  0  0  0  0  0  0  0  0  0  0
    9.4091    9.6675   23.0696 C   0  0  0  0  0  0  0  0  0  0  0  0
    9.8218   11.0688   22.6298 C   0  0  0  0  0  0  0  0  0  0  0  0
    8.1541   10.5305   25.0037 C   0  0  2  0  0  0  0  0  0  0  0  0
    8.8493   11.9094   24.8464 C   0  0  1  0  0  0  0  0  0  0  0  0
    8.0320    9.7030   23.7264 C   0  0  2  0  0  0  0  0  0  0  0  0
   12.1396   15.4484   22.6409 C   0  0  0  0  0  0  0  0  0  0  0  0
   12.1130   14.3513   20.3815 C   0  0  0  0  0  0  0  0  0  0  0  0
    9.9698   15.1827   21.3933 C   0  0  0  0  0  0  0  0  0  0  0  0
   11.3398   14.5697   21.6802 C   0  0  0  0  0  0  0  0  0  0  0  0
    9.7550   12.0896   23.6764 N   0  0  0  0  0  0  0  0  0  0  0  0
    7.5802    8.3476   24.0336 N   0  0  0  0  0  0  0  0  0  0  0  0
   10.4988   14.2169   24.2783 O   0  0  0  0  0  0  0  0  0  0  0  0
   11.1472   13.2877   22.2884 O   0  0  0  0  0  0  0  0  0  0  0  0
    6.8164   11.4611   26.5226 H   0  0  0  0  0  0  0  0  0  0  0  0
    5.9263   10.9255   25.0778 H   0  0  0  0  0  0  0  0  0  0  0  0
    7.0924   12.6036   23.6439 H   0  0  0  0  0  0  0  0  0  0  0  0
    7.2917   13.4952   25.1711 H   0  0  0  0  0  0  0  0  0  0  0  0
    9.3972    9.0118   22.1902 H   0  0  0  0  0  0  0  0  0  0  0  0
   10.1620    9.2656   23.7605 H   0  0  0  0  0  0  0  0  0  0  0  0
   10.8414   11.0384   22.2280 H   0  0  0  0  0  0  0  0  0  0  0  0
    9.1726   11.4140   21.8157 H   0  0  0  0  0  0  0  0  0  0  0  0
    8.6017    9.9469   25.8208 H   0  0  0  0  0  0  0  0  0  0  0  0
    9.3449   12.2096   25.7805 H   0  0  0  0  0  0  0  0  0  0  0  0
    7.3151   10.1581   23.0262 H   0  0  0  0  0  0  0  0  0  0  0  0
   11.5879   15.6076   23.5743 H   0  0  0  0  0  0  0  0  0  0  0  0
   13.1101   15.0028   22.8821 H   0  0  0  0  0  0  0  0  0  0  0  0
   12.3121   16.4416   22.2107 H   0  0  0  0  0  0  0  0  0  0  0  0
   11.5428   13.7213   19.6892 H   0  0  0  0  0  0  0  0  0  0  0  0
   13.0556   13.8257   20.5721 H   0  0  0  0  0  0  0  0  0  0  0  0
   12.3393   15.2988   19.8818 H   0  0  0  0  0  0  0  0  0  0  0  0
    9.3960   14.5526   20.7042 H   0  0  0  0  0  0  0  0  0  0  0  0
    9.3861   15.3126   22.3104 H   0  0  0  0  0  0  0  0  0  0  0  0
   10.0741   16.1588   20.9057 H   0  0  0  0  0  0  0  0  0  0  0  0
    6.6792    8.4073   24.4451 H   0  0  0  0  0  0  0  0  0  0  0  0
    7.5459    7.8335   23.1857 H   0  0  0  0  0  0  0  0  0  0  0  0
  1 13  1  0  0  0  0
  1 15  2  0  0  0  0
  1 16  1  0  0  0  0
  2  3  1  0  0  0  0
  2  6  1  0  0  0  0
  3  7  1  0  0  0  0
  4  5  1  0  0  0  0
  4  8  1  0  0  0  0
  5 13  1  0  0  0  0
  6  7  1  0  0  0  0
  6  8  1  0  0  0  0
  7 13  1  0  0  0  0
  8 14  1  0  0  0  0
  9 12  1  0  0  0  0
 10 12  1  0  0  0  0
 11 12  1  0  0  0  0
 12 16  1  0  0  0  0
  2 17  1  0  0  0  0
  2 18  1  0  0  0  0
  3 19  1  0  0  0  0
  3 20  1  0  0  0  0
  4 21  1  0  0  0  0
  4 22  1  0  0  0  0
  5 23  1  0  0  0  0
  5 24  1  0  0  0  0
  6 25  1  0  0  0  0
  7 26  1  0  0  0  0
  8 27  1  0  0  0  0
  9 28  1  0  0  0  0
  9 29  1  0  0  0  0
  9 30  1  0  0  0  0
 10 31  1  0  0  0  0
 10 32  1  0  0  0  0
 10 33  1  0  0  0  0
 11 34  1  0  0  0  0
 11 35  1  0  0  0  0
 11 36  1  0  0  0  0
 14 37  1  0  0  0  0
 14 38  1  0  0  0  0
M  END
> <id>
EN300-7441791

> <smiles>
CC(C)(C)OC(=O)N1CCC(N)C2CCC21

> <MDLNUMBER>
MFCD32197992

> <IUPAC Name>
tert-butyl 5-amino-2-azabicyclo[4.2.0]octane-2-carboxylate

> <CAS>
2169221-53-6

> <Purity>
95

> <URL>
https://www.enaminestore.com/catalog/EN300-7441791

> <ROCS_ShapeQuery>
A71EV2A-x0451_0A_A71EV2A-x0310_0A_A71EV2A-x0416_0A_peptide

> <ROCS_TanimotoCombo>
0.490 

> <ROCS_ShapeTanimoto>
0.311 

> <ROCS_ColorTanimoto>
0.178 

> <ROCS_RefTversky>
0.273 

> <ROCS_RefColorTversky>
0.188 

> <ROCS_RefTverskyCombo>
0.460 

> <ROCS_FitTversky>
1.846 

> <ROCS_FitColorTversky>
0.777 

> <ROCS_FitTverskyCombo>
2.624 

> <ROCS_ColorScore>
-5.718

> <ROCS_Overlap>
1888.802

> <ROCS_Rank>
213                 

$$$$
untitled-dbase-30558_11
  -OEChem-11132313473D

 36 38  0     1  0  0  0  0  0999 V2000
    7.4159   11.4115   24.4911 C   0  0  0  0  0  0  0  0  0  0  0  0
    8.5482   11.2425   25.2721 C   0  0  0  0  0  0  0  0  0  0  0  0
    6.4849   11.3947   26.4646 C   0  0  0  0  0  0  0  0  0  0  0  0
   10.4325   13.1980   23.3712 C   0  0  0  0  0  0  0  0  0  0  0  0
    7.5109   11.5177   22.9933 C   0  0  0  0  0  0  0  0  0  0  0  0
   10.0907    9.7120   24.0749 C   0  0  0  0  0  0  0  0  0  0  0  0
    9.3902    9.7946   22.6950 C   0  0  0  0  0  0  0  0  0  0  0  0
    9.9264   11.1080   24.6849 C   0  0  1  0  0  0  0  0  0  0  0  0
    8.9815   11.2722   22.5247 C   0  0  2  0  0  0  0  0  0  0  0  0
   12.6594   14.8830   22.7632 C   0  0  0  0  0  0  0  0  0  0  0  0
   11.7956   14.8612   20.4047 C   0  0  0  0  0  0  0  0  0  0  0  0
   10.3863   15.8305   22.2439 C   0  0  0  0  0  0  0  0  0  0  0  0
   11.4176   14.7630   21.8811 C   0  0  0  0  0  0  0  0  0  0  0  0
    6.2270   11.5020   25.1763 N   0  0  0  0  0  0  0  0  0  0  0  0
    9.8785   11.9375   23.4795 N   0  0  0  0  0  0  0  0  0  0  0  0
   10.5520   13.9831   24.3088 O   0  0  0  0  0  0  0  0  0  0  0  0
   10.8320   13.4733   22.0916 O   0  0  0  0  0  0  0  0  0  0  0  0
    8.1376   11.1876   26.9136 S   0  0  0  0  0  0  0  0  0  0  0  0
    5.0950   11.4671   27.7748 Br  0  0  0  0  0  0  0  0  0  0  0  0
    6.8300   10.8029   22.5193 H   0  0  0  0  0  0  0  0  0  0  0  0
    7.2019   12.5276   22.6984 H   0  0  0  0  0  0  0  0  0  0  0  0
    9.6640    8.9137   24.6916 H   0  0  0  0  0  0  0  0  0  0  0  0
   11.1539    9.4904   23.9228 H   0  0  0  0  0  0  0  0  0  0  0  0
   10.1028    9.5044   21.9141 H   0  0  0  0  0  0  0  0  0  0  0  0
    8.5366    9.1112   22.6386 H   0  0  0  0  0  0  0  0  0  0  0  0
   10.7237   11.4048   25.3708 H   0  0  0  0  0  0  0  0  0  0  0  0
    9.1227   11.6232   21.4984 H   0  0  0  0  0  0  0  0  0  0  0  0
   12.3923   14.8130   23.8238 H   0  0  0  0  0  0  0  0  0  0  0  0
   13.3921   14.1015   22.5368 H   0  0  0  0  0  0  0  0  0  0  0  0
   13.1413   15.8583   22.6296 H   0  0  0  0  0  0  0  0  0  0  0  0
   10.9076   14.7756   19.7681 H   0  0  0  0  0  0  0  0  0  0  0  0
   12.4620   14.0400   20.1170 H   0  0  0  0  0  0  0  0  0  0  0  0
   12.2949   15.8087   20.1777 H   0  0  0  0  0  0  0  0  0  0  0  0
    9.4954   15.7447   21.6113 H   0  0  0  0  0  0  0  0  0  0  0  0
   10.0756   15.7519   23.2907 H   0  0  0  0  0  0  0  0  0  0  0  0
   10.7899   16.8355   22.0749 H   0  0  0  0  0  0  0  0  0  0  0  0
  1  2  2  0  0  0  0
  1  5  1  0  0  0  0
  1 14  1  0  0  0  0
  2  8  1  0  0  0  0
  2 18  1  0  0  0  0
  3 14  2  0  0  0  0
  3 18  1  0  0  0  0
  3 19  1  0  0  0  0
  4 15  1  0  0  0  0
  4 16  2  0  0  0  0
  4 17  1  0  0  0  0
  5  9  1  0  0  0  0
  6  7  1  0  0  0  0
  6  8  1  0  0  0  0
  7  9  1  0  0  0  0
  8 15  1  0  0  0  0
  9 15  1  0  0  0  0
 10 13  1  0  0  0  0
 11 13  1  0  0  0  0
 12 13  1  0  0  0  0
 13 17  1  0  0  0  0
  5 20  1  0  0  0  0
  5 21  1  0  0  0  0
  6 22  1  0  0  0  0
  6 23  1  0  0  0  0
  7 24  1  0  0  0  0
  7 25  1  0  0  0  0
  8 26  1  0  0  0  0
  9 27  1  0  0  0  0
 10 28  1  0  0  0  0
 10 29  1  0  0  0  0
 10 30  1  0  0  0  0
 11 31  1  0  0  0  0
 11 32  1  0  0  0  0
 11 33  1  0  0  0  0
 12 34  1  0  0  0  0
 12 35  1  0  0  0  0
 12 36  1  0  0  0  0
M  END
> <id>
EN300-26619324

> <smiles>
CC(C)(C)OC(=O)N1C2CCC1C=3SC(Br)=NC3C2

> <MDLNUMBER>
MFCD32662864

> <IUPAC Name>
tert-butyl 4-bromo-3-thia-5,11-diazatricyclo[6.2.1.0,2,6]undeca-2(6),4-diene-11-carboxylate

> <CAS>
2413877-95-7

> <Purity>
95

> <URL>
https://www.enaminestore.com/catalog/EN300-26619324

> <ROCS_ShapeQuery>
A71EV2A-x0451_0A_A71EV2A-x0310_0A_A71EV2A-x0416_0A_peptide

> <ROCS_TanimotoCombo>
0.490 

> <ROCS_ShapeTanimoto>
0.306 

> <ROCS_ColorTanimoto>
0.183 

> <ROCS_RefTversky>
0.274 

> <ROCS_RefColorTversky>
0.215 

> <ROCS_RefTverskyCombo>
0.489 

> <ROCS_FitTversky>
1.634 

> <ROCS_FitColorTversky>
0.555 

> <ROCS_FitTverskyCombo>
2.189 

> <ROCS_ColorScore>
-6.591

> <ROCS_Overlap>
1899.133

> <ROCS_Rank>
214                 

$$$$
untitled-dbase-30449_138
  -OEChem-11132313473D

 37 38  0     1  0  0  0  0  0999 V2000
    6.3175   11.7910   26.1989 C   0  0  0  0  0  0  0  0  0  0  0  0
    7.1436   12.8969   26.3422 C   0  0  0  0  0  0  0  0  0  0  0  0
    6.6390   10.8131   25.2645 C   0  0  0  0  0  0  0  0  0  0  0  0
    8.2810   13.0356   25.5406 C   0  0  0  0  0  0  0  0  0  0  0  0
    7.7794   10.9404   24.4489 C   0  0  0  0  0  0  0  0  0  0  0  0
    8.6093   12.0801   24.5635 C   0  0  0  0  0  0  0  0  0  0  0  0
   10.5068   13.3848   23.4896 C   0  0  0  0  0  0  0  0  0  0  0  0
    9.1010   10.2148   22.4335 C   0  0  0  0  0  0  0  0  0  0  0  0
   10.2499   10.9741   23.0780 C   0  0  0  0  0  0  0  0  0  0  0  0
    8.0832    9.8114   23.4907 C   0  0  1  0  0  0  0  0  0  0  0  0
   12.2916   15.4874   22.7122 C   0  0  0  0  0  0  0  0  0  0  0  0
   12.2194   14.4492   20.4261 C   0  0  0  0  0  0  0  0  0  0  0  0
   10.1177   15.3678   21.4495 C   0  0  0  0  0  0  0  0  0  0  0  0
   11.4518   14.6762   21.7266 C   0  0  0  0  0  0  0  0  0  0  0  0
    9.7764   12.2028   23.7264 N   0  0  0  0  0  0  0  0  0  0  0  0
   10.5930   14.3061   24.3023 O   0  0  0  0  0  0  0  0  0  0  0  0
    8.5899    8.6808   24.2024 O   0  0  0  0  0  0  0  0  0  0  0  0
   11.1883   13.3910   22.3022 O   0  0  0  0  0  0  0  0  0  0  0  0
    5.4323   11.6849   26.8192 H   0  0  0  0  0  0  0  0  0  0  0  0
    6.9115   13.6526   27.0868 H   0  0  0  0  0  0  0  0  0  0  0  0
    5.9950    9.9418   25.1731 H   0  0  0  0  0  0  0  0  0  0  0  0
    8.8972   13.9005   25.7458 H   0  0  0  0  0  0  0  0  0  0  0  0
    8.6278   10.8466   21.6717 H   0  0  0  0  0  0  0  0  0  0  0  0
    9.4951    9.3262   21.9277 H   0  0  0  0  0  0  0  0  0  0  0  0
   10.7524   10.3731   23.8370 H   0  0  0  0  0  0  0  0  0  0  0  0
   10.9753   11.2043   22.2989 H   0  0  0  0  0  0  0  0  0  0  0  0
    7.1601    9.4893   22.9739 H   0  0  0  0  0  0  0  0  0  0  0  0
   11.7441   15.6525   23.6470 H   0  0  0  0  0  0  0  0  0  0  0  0
   13.2359   14.9852   22.9463 H   0  0  0  0  0  0  0  0  0  0  0  0
   12.5188   16.4804   22.3076 H   0  0  0  0  0  0  0  0  0  0  0  0
   11.6206   13.8676   19.7160 H   0  0  0  0  0  0  0  0  0  0  0  0
   13.1319   13.8699   20.6075 H   0  0  0  0  0  0  0  0  0  0  0  0
   12.4982   15.3954   19.9511 H   0  0  0  0  0  0  0  0  0  0  0  0
    9.5151   14.7861   20.7425 H   0  0  0  0  0  0  0  0  0  0  0  0
    9.5367   15.5058   22.3670 H   0  0  0  0  0  0  0  0  0  0  0  0
   10.2761   16.3487   20.9868 H   0  0  0  0  0  0  0  0  0  0  0  0
    8.7652    7.9940   23.5407 H   0  0  0  0  0  0  0  0  0  0  0  0
  1  2  2  0  0  0  0
  1  3  1  0  0  0  0
  2  4  1  0  0  0  0
  3  5  2  0  0  0  0
  4  6  2  0  0  0  0
  5  6  1  0  0  0  0
  5 10  1  0  0  0  0
  6 15  1  0  0  0  0
  7 15  1  0  0  0  0
  7 16  2  0  0  0  0
  7 18  1  0  0  0  0
  8  9  1  0  0  0  0
  8 10  1  0  0  0  0
  9 15  1  0  0  0  0
 10 17  1  0  0  0  0
 11 14  1  0  0  0  0
 12 14  1  0  0  0  0
 13 14  1  0  0  0  0
 14 18  1  0  0  0  0
  1 19  1  0  0  0  0
  2 20  1  0  0  0  0
  3 21  1  0  0  0  0
  4 22  1  0  0  0  0
  8 23  1  0  0  0  0
  8 24  1  0  0  0  0
  9 25  1  0  0  0  0
  9 26  1  0  0  0  0
 10 27  1  0  0  0  0
 11 28  1  0  0  0  0
 11 29  1  0  0  0  0
 11 30  1  0  0  0  0
 12 31  1  0  0  0  0
 12 32  1  0  0  0  0
 12 33  1  0  0  0  0
 13 34  1  0  0  0  0
 13 35  1  0  0  0  0
 13 36  1  0  0  0  0
 17 37  1  0  0  0  0
M  END
> <id>
EN300-3253499

> <smiles>
CC(C)(C)OC(=O)N1CCC(O)C=2C=CC=CC12

> <MDLNUMBER>
MFCD29764361

> <IUPAC Name>
tert-butyl 4-hydroxy-1,2,3,4-tetrahydroquinoline-1-carboxylate

> <CAS>
932398-74-8

> <URL>
https://www.enaminestore.com/catalog/EN300-3253499

> <ROCS_ShapeQuery>
A71EV2A-x0451_0A_A71EV2A-x0310_0A_A71EV2A-x0416_0A_peptide

> <ROCS_TanimotoCombo>
0.490 

> <ROCS_ShapeTanimoto>
0.335 

> <ROCS_ColorTanimoto>
0.154 

> <ROCS_RefTversky>
0.292 

> <ROCS_RefColorTversky>
0.166 

> <ROCS_RefTverskyCombo>
0.458 

> <ROCS_FitTversky>
1.798 

> <ROCS_FitColorTversky>
0.692 

> <ROCS_FitTverskyCombo>
2.489 

> <ROCS_ColorScore>
-5.043

> <ROCS_Overlap>
2023.959

> <ROCS_Rank>
215                 

$$$$
untitled-dbase-44800_13
  -OEChem-11132313473D

 39 41  0     1  0  0  0  0  0999 V2000
    6.8877   12.3969   26.1154 C   0  0  0  0  0  0  0  0  0  0  0  0
    6.3841   11.0866   26.0104 C   0  0  0  0  0  0  0  0  0  0  0  0
    7.9799   12.8248   25.3433 C   0  0  0  0  0  0  0  0  0  0  0  0
    6.9584   10.2031   25.1005 C   0  0  0  0  0  0  0  0  0  0  0  0
    7.9952   10.6571   24.3101 C   0  0  0  0  0  0  0  0  0  0  0  0
    8.5403   11.9265   24.4527 C   0  0  0  0  0  0  0  0  0  0  0  0
    6.5647    8.7833   24.9681 C   0  0  0  0  0  0  0  0  0  0  0  0
   10.4909   13.1450   23.4912 C   0  0  0  0  0  0  0  0  0  0  0  0
    7.3966    7.8853   24.0498 C   0  0  0  0  0  0  0  0  0  0  0  0
    8.7937    8.4354   23.7172 C   0  0  0  0  0  0  0  0  0  0  0  0
    9.9590   10.6834   23.0567 C   0  0  0  0  0  0  0  0  0  0  0  0
    8.6726    9.8709   23.2364 C   0  0  2  0  0  0  0  0  0  0  0  0
   12.3358   15.1810   22.6888 C   0  0  0  0  0  0  0  0  0  0  0  0
   12.2019   14.1446   20.4047 C   0  0  0  0  0  0  0  0  0  0  0  0
   10.1441   15.1327   21.4523 C   0  0  0  0  0  0  0  0  0  0  0  0
   11.4578   14.3975   21.7141 C   0  0  0  0  0  0  0  0  0  0  0  0
    9.6871   12.0265   23.6394 N   0  0  0  0  0  0  0  0  0  0  0  0
    5.5782    8.3620   25.5641 O   0  0  0  0  0  0  0  0  0  0  0  0
   10.6083   14.0559   24.3062 O   0  0  0  0  0  0  0  0  0  0  0  0
   11.1590   13.1223   22.2938 O   0  0  0  0  0  0  0  0  0  0  0  0
    6.4391   13.0829   26.8301 H   0  0  0  0  0  0  0  0  0  0  0  0
    5.5629   10.7807   26.6519 H   0  0  0  0  0  0  0  0  0  0  0  0
    8.3679   13.8263   25.4842 H   0  0  0  0  0  0  0  0  0  0  0  0
    7.5093    6.9121   24.5402 H   0  0  0  0  0  0  0  0  0  0  0  0
    6.8233    7.7407   23.1268 H   0  0  0  0  0  0  0  0  0  0  0  0
    9.4236    8.3810   24.6151 H   0  0  0  0  0  0  0  0  0  0  0  0
    9.2687    7.8132   22.9507 H   0  0  0  0  0  0  0  0  0  0  0  0
   10.8083   10.2543   23.6022 H   0  0  0  0  0  0  0  0  0  0  0  0
   10.2431   10.7811   22.0035 H   0  0  0  0  0  0  0  0  0  0  0  0
    8.0681    9.9265   22.3218 H   0  0  0  0  0  0  0  0  0  0  0  0
   11.8053   15.3645   23.6300 H   0  0  0  0  0  0  0  0  0  0  0  0
   13.2657   14.6479   22.9120 H   0  0  0  0  0  0  0  0  0  0  0  0
   12.5908   16.1657   22.2806 H   0  0  0  0  0  0  0  0  0  0  0  0
   11.5756   13.5827   19.7023 H   0  0  0  0  0  0  0  0  0  0  0  0
   13.0968   13.5355   20.5756 H   0  0  0  0  0  0  0  0  0  0  0  0
   12.5060   15.0808   19.9255 H   0  0  0  0  0  0  0  0  0  0  0  0
    9.5142   14.5709   20.7532 H   0  0  0  0  0  0  0  0  0  0  0  0
    9.5790   15.2902   22.3767 H   0  0  0  0  0  0  0  0  0  0  0  0
   10.3292   16.1076   20.9869 H   0  0  0  0  0  0  0  0  0  0  0  0
  1  2  1  0  0  0  0
  1  3  2  0  0  0  0
  2  4  2  0  0  0  0
  3  6  1  0  0  0  0
  4  5  1  0  0  0  0
  4  7  1  0  0  0  0
  5  6  2  0  0  0  0
  5 12  1  0  0  0  0
  6 17  1  0  0  0  0
  7  9  1  0  0  0  0
  7 18  2  0  0  0  0
  8 17  1  0  0  0  0
  8 19  2  0  0  0  0
  8 20  1  0  0  0  0
  9 10  1  0  0  0  0
 10 12  1  0  0  0  0
 11 12  1  0  0  0  0
 11 17  1  0  0  0  0
 13 16  1  0  0  0  0
 14 16  1  0  0  0  0
 15 16  1  0  0  0  0
 16 20  1  0  0  0  0
  1 21  1  0  0  0  0
  2 22  1  0  0  0  0
  3 23  1  0  0  0  0
  9 24  1  0  0  0  0
  9 25  1  0  0  0  0
 10 26  1  0  0  0  0
 10 27  1  0  0  0  0
 11 28  1  0  0  0  0
 11 29  1  0  0  0  0
 12 30  1  0  0  0  0
 13 31  1  0  0  0  0
 13 32  1  0  0  0  0
 13 33  1  0  0  0  0
 14 34  1  0  0  0  0
 14 35  1  0  0  0  0
 14 36  1  0  0  0  0
 15 37  1  0  0  0  0
 15 38  1  0  0  0  0
 15 39  1  0  0  0  0
M  END
> <id>
EN300-28284007

> <smiles>
CC(C)(C)OC(=O)N1CC2CCC(=O)C=3C=CC=C1C23

> <IUPAC Name>
tert-butyl 7-oxo-2-azatricyclo[6.3.1.0,4,12]dodeca-1(12),8,10-triene-2-carboxylate

> <CAS>
2680858-43-7

> <URL>
https://www.enaminestore.com/catalog/EN300-28284007

> <ROCS_ShapeQuery>
A71EV2A-x0451_0A_A71EV2A-x0310_0A_A71EV2A-x0416_0A_peptide

> <ROCS_TanimotoCombo>
0.490 

> <ROCS_ShapeTanimoto>
0.357 

> <ROCS_ColorTanimoto>
0.132 

> <ROCS_RefTversky>
0.310 

> <ROCS_RefColorTversky>
0.145 

> <ROCS_RefTverskyCombo>
0.455 

> <ROCS_FitTversky>
1.743 

> <ROCS_FitColorTversky>
0.602 

> <ROCS_FitTverskyCombo>
2.345 

> <ROCS_ColorScore>
-4.410

> <ROCS_Overlap>
2152.004

> <ROCS_Rank>
216                 

$$$$
untitled-dbase-27960_104
  -OEChem-11132313473D

 44 46  0     1  0  0  0  0  0999 V2000
   10.0373   13.2610   23.3564 C   0  0  0  0  0  0  0  0  0  0  0  0
    6.0719   12.8272   26.8191 C   0  0  0  0  0  0  0  0  0  0  0  0
    5.6738   11.9173   25.6637 C   0  0  0  0  0  0  0  0  0  0  0  0
    6.7974   14.0600   26.3232 C   0  0  0  0  0  0  0  0  0  0  0  0
    6.5625   12.0598   24.4205 C   0  0  0  0  0  0  0  0  0  0  0  0
    8.0596   13.7319   25.5146 C   0  0  0  0  0  0  0  0  0  0  0  0
    8.7188   11.2434   25.5793 C   0  0  0  0  0  0  0  0  0  0  0  0
    8.7366   11.3042   22.5455 C   0  0  0  0  0  0  0  0  0  0  0  0
    9.1373   10.0345   24.7828 C   0  0  2  0  0  0  0  0  0  0  0  0
    9.1563   10.0634   23.2723 C   0  0  1  0  0  0  0  0  0  0  0  0
    8.0585   12.3746   24.7313 C   0  0  0  0  0  0  0  0  0  0  0  0
   12.8309   13.5512   22.7788 C   0  0  0  0  0  0  0  0  0  0  0  0
   12.1068   13.9969   20.4152 C   0  0  0  0  0  0  0  0  0  0  0  0
   11.3882   15.5464   22.2567 C   0  0  0  0  0  0  0  0  0  0  0  0
   11.7173   14.1005   21.8882 C   0  0  0  0  0  0  0  0  0  0  0  0
    8.8782   12.4537   23.4575 N   0  0  0  0  0  0  0  0  0  0  0  0
   10.5607   13.8748   24.2832 O   0  0  0  0  0  0  0  0  0  0  0  0
    8.1102    9.4102   24.0090 O   0  0  0  0  0  0  0  0  0  0  0  0
   10.5436   13.3021   22.0815 O   0  0  0  0  0  0  0  0  0  0  0  0
    5.1733   13.1261   27.3689 H   0  0  0  0  0  0  0  0  0  0  0  0
    6.7076   12.2759   27.5177 H   0  0  0  0  0  0  0  0  0  0  0  0
    5.6681   10.8644   26.0045 H   0  0  0  0  0  0  0  0  0  0  0  0
    4.6252   12.1300   25.3800 H   0  0  0  0  0  0  0  0  0  0  0  0
    6.1172   14.6566   25.6930 H   0  0  0  0  0  0  0  0  0  0  0  0
    7.0532   14.7130   27.1727 H   0  0  0  0  0  0  0  0  0  0  0  0
    6.4895   11.1397   23.8197 H   0  0  0  0  0  0  0  0  0  0  0  0
    6.1168   12.8518   23.8035 H   0  0  0  0  0  0  0  0  0  0  0  0
    8.2084   14.5751   24.8145 H   0  0  0  0  0  0  0  0  0  0  0  0
    8.9368   13.7775   26.1907 H   0  0  0  0  0  0  0  0  0  0  0  0
    8.0168   10.9159   26.3774 H   0  0  0  0  0  0  0  0  0  0  0  0
    9.6056   11.5998   26.1404 H   0  0  0  0  0  0  0  0  0  0  0  0
    9.3423   11.4072   21.6513 H   0  0  0  0  0  0  0  0  0  0  0  0
    7.6915   11.2586   22.2434 H   0  0  0  0  0  0  0  0  0  0  0  0
    9.8649    9.3820   25.2959 H   0  0  0  0  0  0  0  0  0  0  0  0
    9.8907    9.4486   22.7529 H   0  0  0  0  0  0  0  0  0  0  0  0
   12.5552   13.6238   23.8369 H   0  0  0  0  0  0  0  0  0  0  0  0
   13.0524   12.5041   22.5481 H   0  0  0  0  0  0  0  0  0  0  0  0
   13.7512   14.1342   22.6585 H   0  0  0  0  0  0  0  0  0  0  0  0
   11.3107   14.3899   19.7726 H   0  0  0  0  0  0  0  0  0  0  0  0
   12.2517   12.9507   20.1224 H   0  0  0  0  0  0  0  0  0  0  0  0
   13.0285   14.5476   20.2014 H   0  0  0  0  0  0  0  0  0  0  0  0
   10.5895   15.9406   21.6181 H   0  0  0  0  0  0  0  0  0  0  0  0
   11.0710   15.6344   23.3008 H   0  0  0  0  0  0  0  0  0  0  0  0
   12.2574   16.1957   22.1009 H   0  0  0  0  0  0  0  0  0  0  0  0
  1 16  1  0  0  0  0
  1 17  2  0  0  0  0
  1 19  1  0  0  0  0
  2  3  1  0  0  0  0
  2  4  1  0  0  0  0
  3  5  1  0  0  0  0
  4  6  1  0  0  0  0
  5 11  1  0  0  0  0
  6 11  1  0  0  0  0
  7  9  1  0  0  0  0
  7 11  1  0  0  0  0
  8 10  1  0  0  0  0
  8 16  1  0  0  0  0
  9 10  1  0  0  0  0
  9 18  1  0  0  0  0
 10 18  1  0  0  0  0
 11 16  1  0  0  0  0
 12 15  1  0  0  0  0
 13 15  1  0  0  0  0
 14 15  1  0  0  0  0
 15 19  1  0  0  0  0
  2 20  1  0  0  0  0
  2 21  1  0  0  0  0
  3 22  1  0  0  0  0
  3 23  1  0  0  0  0
  4 24  1  0  0  0  0
  4 25  1  0  0  0  0
  5 26  1  0  0  0  0
  5 27  1  0  0  0  0
  6 28  1  0  0  0  0
  6 29  1  0  0  0  0
  7 30  1  0  0  0  0
  7 31  1  0  0  0  0
  8 32  1  0  0  0  0
  8 33  1  0  0  0  0
  9 34  1  0  0  0  0
 10 35  1  0  0  0  0
 12 36  1  0  0  0  0
 12 37  1  0  0  0  0
 12 38  1  0  0  0  0
 13 39  1  0  0  0  0
 13 40  1  0  0  0  0
 13 41  1  0  0  0  0
 14 42  1  0  0  0  0
 14 43  1  0  0  0  0
 14 44  1  0  0  0  0
M  END
> <id>
EN300-1708443

> <smiles>
CC(C)(C)OC(=O)N1CC2OC2CC31CCCCC3

> <IUPAC Name>
tert-butyl 7-oxa-4-azaspiro[bicyclo[4.1.0]heptane-3,1'-cyclohexane]-4-carboxylate

> <CAS>
2219372-17-3

> <URL>
https://www.enaminestore.com/catalog/EN300-1708443

> <ROCS_ShapeQuery>
A71EV2A-x0451_0A_A71EV2A-x0310_0A_A71EV2A-x0416_0A_peptide

> <ROCS_TanimotoCombo>
0.489 

> <ROCS_ShapeTanimoto>
0.310 

> <ROCS_ColorTanimoto>
0.180 

> <ROCS_RefTversky>
0.276 

> <ROCS_RefColorTversky>
0.197 

> <ROCS_RefTverskyCombo>
0.473 

> <ROCS_FitTversky>
1.653 

> <ROCS_FitColorTversky>
0.668 

> <ROCS_FitTverskyCombo>
2.321 

> <ROCS_ColorScore>
-6.022

> <ROCS_Overlap>
1913.473

> <ROCS_Rank>
217                 

$$$$
untitled-dbase-46144_11
  -OEChem-11132313473D

 44 46  0     0  0  0  0  0  0999 V2000
   10.3776   13.3105   23.3559 C   0  0  0  0  0  0  0  0  0  0  0  0
    6.4485   12.0117   25.9994 C   0  0  0  0  0  0  0  0  0  0  0  0
   10.5150    8.3765   22.1429 C   0  0  0  0  0  0  0  0  0  0  0  0
    6.7205   11.8238   24.4984 C   0  0  0  0  0  0  0  0  0  0  0  0
    7.3151   10.7696   26.2609 C   0  0  0  0  0  0  0  0  0  0  0  0
   10.4902    9.0341   23.5316 C   0  0  0  0  0  0  0  0  0  0  0  0
    9.0114    8.6727   22.0308 C   0  0  0  0  0  0  0  0  0  0  0  0
    9.2927   11.7704   24.9559 C   0  0  0  0  0  0  0  0  0  0  0  0
    9.3735   11.1707   22.5145 C   0  0  0  0  0  0  0  0  0  0  0  0
    7.9872   10.9881   24.8700 C   0  0  0  0  0  0  0  0  0  0  0  0
    9.1833    9.7821   23.1150 C   0  0  0  0  0  0  0  0  0  0  0  0
   12.6931   14.7379   22.4689 C   0  0  0  0  0  0  0  0  0  0  0  0
   11.6279   14.6846   20.1948 C   0  0  0  0  0  0  0  0  0  0  0  0
   10.4826   15.8783   22.0846 C   0  0  0  0  0  0  0  0  0  0  0  0
   11.3730   14.6975   21.7005 C   0  0  0  0  0  0  0  0  0  0  0  0
    9.7050   12.1054   23.5940 N   0  0  0  0  0  0  0  0  0  0  0  0
   10.6567   14.1323   24.2269 O   0  0  0  0  0  0  0  0  0  0  0  0
    8.1337    9.7611   24.1132 O   0  0  0  0  0  0  0  0  0  0  0  0
   10.6893   13.4839   22.0327 O   0  0  0  0  0  0  0  0  0  0  0  0
    6.8654   12.9379   26.4134 H   0  0  0  0  0  0  0  0  0  0  0  0
    5.4010   11.9317   26.3049 H   0  0  0  0  0  0  0  0  0  0  0  0
   11.1288    8.9132   21.4093 H   0  0  0  0  0  0  0  0  0  0  0  0
   10.7922    7.3185   22.1244 H   0  0  0  0  0  0  0  0  0  0  0  0
    5.9462   11.2444   23.9804 H   0  0  0  0  0  0  0  0  0  0  0  0
    6.8919   12.7479   23.9380 H   0  0  0  0  0  0  0  0  0  0  0  0
    7.9684   10.8361   27.1365 H   0  0  0  0  0  0  0  0  0  0  0  0
    6.7279    9.8459   26.3347 H   0  0  0  0  0  0  0  0  0  0  0  0
   10.3519    8.3119   24.3452 H   0  0  0  0  0  0  0  0  0  0  0  0
   11.3575    9.6589   23.7646 H   0  0  0  0  0  0  0  0  0  0  0  0
    8.6754    9.0024   21.0423 H   0  0  0  0  0  0  0  0  0  0  0  0
    8.3739    7.8381   22.3500 H   0  0  0  0  0  0  0  0  0  0  0  0
    9.1525   12.7170   25.5052 H   0  0  0  0  0  0  0  0  0  0  0  0
   10.0769   11.2097   25.4879 H   0  0  0  0  0  0  0  0  0  0  0  0
   10.1579   11.1853   21.7381 H   0  0  0  0  0  0  0  0  0  0  0  0
    8.4453   11.5306   22.0352 H   0  0  0  0  0  0  0  0  0  0  0  0
   12.5145   14.7473   23.5501 H   0  0  0  0  0  0  0  0  0  0  0  0
   13.3263   13.8777   22.2286 H   0  0  0  0  0  0  0  0  0  0  0  0
   13.2510   15.6531   22.2399 H   0  0  0  0  0  0  0  0  0  0  0  0
   10.6834   14.6556   19.6395 H   0  0  0  0  0  0  0  0  0  0  0  0
   12.1863   13.7883   19.9011 H   0  0  0  0  0  0  0  0  0  0  0  0
   12.1924   15.5657   19.8730 H   0  0  0  0  0  0  0  0  0  0  0  0
    9.5356   15.8496   21.5335 H   0  0  0  0  0  0  0  0  0  0  0  0
   10.2587   15.8828   23.1563 H   0  0  0  0  0  0  0  0  0  0  0  0
   10.9626   16.8289   21.8251 H   0  0  0  0  0  0  0  0  0  0  0  0
  1 16  1  0  0  0  0
  1 17  2  0  0  0  0
  1 19  1  0  0  0  0
  2  4  1  0  0  0  0
  2  5  1  0  0  0  0
  3  6  1  0  0  0  0
  3  7  1  0  0  0  0
  4 10  1  0  0  0  0
  5 10  1  0  0  0  0
  6 11  1  0  0  0  0
  7 11  1  0  0  0  0
  8 10  1  0  0  0  0
  8 16  1  0  0  0  0
  9 11  1  0  0  0  0
  9 16  1  0  0  0  0
 10 18  1  0  0  0  0
 11 18  1  0  0  0  0
 12 15  1  0  0  0  0
 13 15  1  0  0  0  0
 14 15  1  0  0  0  0
 15 19  1  0  0  0  0
  2 20  1  0  0  0  0
  2 21  1  0  0  0  0
  3 22  1  0  0  0  0
  3 23  1  0  0  0  0
  4 24  1  0  0  0  0
  4 25  1  0  0  0  0
  5 26  1  0  0  0  0
  5 27  1  0  0  0  0
  6 28  1  0  0  0  0
  6 29  1  0  0  0  0
  7 30  1  0  0  0  0
  7 31  1  0  0  0  0
  8 32  1  0  0  0  0
  8 33  1  0  0  0  0
  9 34  1  0  0  0  0
  9 35  1  0  0  0  0
 12 36  1  0  0  0  0
 12 37  1  0  0  0  0
 12 38  1  0  0  0  0
 13 39  1  0  0  0  0
 13 40  1  0  0  0  0
 13 41  1  0  0  0  0
 14 42  1  0  0  0  0
 14 43  1  0  0  0  0
 14 44  1  0  0  0  0
M  END
> <id>
EN300-33050491

> <smiles>
CC(C)(C)OC(=O)N1CC2(CCC2)OC3(CCC3)C1

> <IUPAC Name>
tert-butyl 5-oxa-11-azadispiro[3.1.3^{6}.3^{4}]dodecane-11-carboxylate

> <CAS>
2694722-39-7

> <URL>
https://www.enaminestore.com/catalog/EN300-33050491

> <ROCS_ShapeQuery>
A71EV2A-x0451_0A_A71EV2A-x0310_0A_A71EV2A-x0416_0A_peptide

> <ROCS_TanimotoCombo>
0.489 

> <ROCS_ShapeTanimoto>
0.334 

> <ROCS_ColorTanimoto>
0.155 

> <ROCS_RefTversky>
0.292 

> <ROCS_RefColorTversky>
0.167 

> <ROCS_RefTverskyCombo>
0.459 

> <ROCS_FitTversky>
1.739 

> <ROCS_FitColorTversky>
0.695 

> <ROCS_FitTverskyCombo>
2.434 

> <ROCS_ColorScore>
-5.072

> <ROCS_Overlap>
2028.509

> <ROCS_Rank>
218                 

$$$$
untitled-dbase-19580_103
  -OEChem-11132313473D

 44 45  0     1  0  0  0  0  0999 V2000
   10.2492   13.0160   23.5395 C   0  0  0  0  0  0  0  0  0  0  0  0
    6.3011   11.6306   24.2583 C   0  0  0  0  0  0  0  0  0  0  0  0
    7.1455    9.9935   26.0453 C   0  0  0  0  0  0  0  0  0  0  0  0
    8.9440   10.9750   22.8205 C   0  0  0  0  0  0  0  0  0  0  0  0
    8.7132   11.7908   25.0802 C   0  0  0  0  0  0  0  0  0  0  0  0
    5.7277   12.6660   25.2220 C   0  0  0  0  0  0  0  0  0  0  0  0
    5.7963   10.3087   26.6792 C   0  0  0  0  0  0  0  0  0  0  0  0
    8.1277    9.9640   23.6377 C   0  0  2  0  0  0  0  0  0  0  0  0
    7.5279   10.8370   24.7957 C   0  0  0  0  0  0  0  0  0  0  0  0
   12.8701   13.9030   22.8237 C   0  0  0  0  0  0  0  0  0  0  0  0
   12.0573   13.7972   20.4494 C   0  0  0  0  0  0  0  0  0  0  0  0
   10.9674   15.3707   22.0755 C   0  0  0  0  0  0  0  0  0  0  0  0
   11.6538   14.0161   21.9059 C   0  0  0  0  0  0  0  0  0  0  0  0
    9.3548   11.9882   23.7864 N   0  0  0  0  0  0  0  0  0  0  0  0
    9.0295    8.9021   24.0976 N   0  0  0  0  0  0  0  0  0  0  0  0
   10.5799   13.8586   24.3707 O   0  0  0  0  0  0  0  0  0  0  0  0
    6.6083   12.5714   27.6948 O   0  0  0  0  0  0  0  0  0  0  0  0
    4.1448   12.2365   27.2663 O   0  0  0  0  0  0  0  0  0  0  0  0
   10.7222   12.9862   22.2549 O   0  0  0  0  0  0  0  0  0  0  0  0
    5.5296   12.0482   26.8791 S   0  0  0  0  0  0  0  0  0  0  0  0
    5.5081   10.9190   23.9800 H   0  0  0  0  0  0  0  0  0  0  0  0
    6.5783   12.1470   23.3262 H   0  0  0  0  0  0  0  0  0  0  0  0
    7.9161   10.0957   26.8273 H   0  0  0  0  0  0  0  0  0  0  0  0
    7.1482    8.9248   25.7704 H   0  0  0  0  0  0  0  0  0  0  0  0
    9.8535   10.5382   22.3863 H   0  0  0  0  0  0  0  0  0  0  0  0
    8.3611   11.4292   22.0091 H   0  0  0  0  0  0  0  0  0  0  0  0
    8.3678   12.7761   25.4141 H   0  0  0  0  0  0  0  0  0  0  0  0
    9.4383   11.4246   25.8099 H   0  0  0  0  0  0  0  0  0  0  0  0
    6.3660   13.5609   25.2748 H   0  0  0  0  0  0  0  0  0  0  0  0
    4.7333   12.9932   24.8823 H   0  0  0  0  0  0  0  0  0  0  0  0
    4.9828    9.9314   26.0461 H   0  0  0  0  0  0  0  0  0  0  0  0
    5.6882    9.8391   27.6637 H   0  0  0  0  0  0  0  0  0  0  0  0
    7.3693    9.5463   23.0350 H   0  0  0  0  0  0  0  0  0  0  0  0
   12.5846   14.0595   23.8701 H   0  0  0  0  0  0  0  0  0  0  0  0
   13.3509   12.9231   22.7373 H   0  0  0  0  0  0  0  0  0  0  0  0
   13.6118   14.6744   22.5869 H   0  0  0  0  0  0  0  0  0  0  0  0
   11.1877   13.8775   19.7872 H   0  0  0  0  0  0  0  0  0  0  0  0
   12.4638   12.7898   20.3042 H   0  0  0  0  0  0  0  0  0  0  0  0
   12.8086   14.5243   20.1246 H   0  0  0  0  0  0  0  0  0  0  0  0
   10.0948   15.4522   21.4172 H   0  0  0  0  0  0  0  0  0  0  0  0
   10.6378   15.5295   23.1074 H   0  0  0  0  0  0  0  0  0  0  0  0
   11.6428   16.1875   21.7961 H   0  0  0  0  0  0  0  0  0  0  0  0
    8.5021    8.2440   24.6250 H   0  0  0  0  0  0  0  0  0  0  0  0
    9.4338    8.4630   23.3019 H   0  0  0  0  0  0  0  0  0  0  0  0
  1 14  1  0  0  0  0
  1 16  2  0  0  0  0
  1 19  1  0  0  0  0
  2  6  1  0  0  0  0
  2  9  1  0  0  0  0
  3  7  1  0  0  0  0
  3  9  1  0  0  0  0
  4  8  1  0  0  0  0
  4 14  1  0  0  0  0
  5  9  1  0  0  0  0
  5 14  1  0  0  0  0
  6 20  1  0  0  0  0
  7 20  1  0  0  0  0
  8  9  1  0  0  0  0
  8 15  1  0  0  0  0
 10 13  1  0  0  0  0
 11 13  1  0  0  0  0
 12 13  1  0  0  0  0
 13 19  1  0  0  0  0
 17 20  2  0  0  0  0
 18 20  2  0  0  0  0
  2 21  1  0  0  0  0
  2 22  1  0  0  0  0
  3 23  1  0  0  0  0
  3 24  1  0  0  0  0
  4 25  1  0  0  0  0
  4 26  1  0  0  0  0
  5 27  1  0  0  0  0
  5 28  1  0  0  0  0
  6 29  1  0  0  0  0
  6 30  1  0  0  0  0
  7 31  1  0  0  0  0
  7 32  1  0  0  0  0
  8 33  1  0  0  0  0
 10 34  1  0  0  0  0
 10 35  1  0  0  0  0
 10 36  1  0  0  0  0
 11 37  1  0  0  0  0
 11 38  1  0  0  0  0
 11 39  1  0  0  0  0
 12 40  1  0  0  0  0
 12 41  1  0  0  0  0
 12 42  1  0  0  0  0
 15 43  1  0  0  0  0
 15 44  1  0  0  0  0
M  END
> <id>
EN300-1663086

> <smiles>
CC(C)(C)OC(=O)N1CC(N)C2(C1)CCS(=O)(=O)CC2

> <MDLNUMBER>
MFCD31665240

> <IUPAC Name>
tert-butyl 4-amino-8,8-dioxo-8lambda6-thia-2-azaspiro[4.5]decane-2-carboxylate

> <CAS>
2225144-87-4

> <Purity>
95

> <URL>
https://www.enaminestore.com/catalog/EN300-1663086

> <ROCS_ShapeQuery>
A71EV2A-x0451_0A_A71EV2A-x0310_0A_A71EV2A-x0416_0A_peptide

> <ROCS_TanimotoCombo>
0.489 

> <ROCS_ShapeTanimoto>
0.321 

> <ROCS_ColorTanimoto>
0.168 

> <ROCS_RefTversky>
0.284 

> <ROCS_RefColorTversky>
0.187 

> <ROCS_RefTverskyCombo>
0.471 

> <ROCS_FitTversky>
1.680 

> <ROCS_FitColorTversky>
0.621 

> <ROCS_FitTverskyCombo>
2.302 

> <ROCS_ColorScore>
-5.711

> <ROCS_Overlap>
1971.351

> <ROCS_Rank>
219                 

$$$$
untitled-dbase-45495_0
  -OEChem-11132313473D

 34 35  0     0  0  0  0  0  0999 V2000
    6.2346   11.5751   26.3296 C   0  0  0  0  0  0  0  0  0  0  0  0
    6.7615   10.5046   25.6165 C   0  0  0  0  0  0  0  0  0  0  0  0
    6.7535   12.8499   26.1358 C   0  0  0  0  0  0  0  0  0  0  0  0
    8.3706   11.9894   24.5235 C   0  0  0  0  0  0  0  0  0  0  0  0
    7.8213   10.7071   24.7241 C   0  0  0  0  0  0  0  0  0  0  0  0
    7.8042   13.0577   25.2348 C   0  0  0  0  0  0  0  0  0  0  0  0
   10.2579   13.2660   23.3906 C   0  0  0  0  0  0  0  0  0  0  0  0
    9.5940   11.0127   22.6541 C   0  0  0  0  0  0  0  0  0  0  0  0
    9.5140    9.7199   23.4370 C   0  0  0  0  0  0  0  0  0  0  0  0
   12.7028   14.5545   22.6339 C   0  0  0  0  0  0  0  0  0  0  0  0
   11.6696   14.7590   20.3536 C   0  0  0  0  0  0  0  0  0  0  0  0
   10.6038   15.9067   22.3170 C   0  0  0  0  0  0  0  0  0  0  0  0
   11.3952   14.6844   21.8541 C   0  0  0  0  0  0  0  0  0  0  0  0
    9.4213   12.1490   23.5605 N   0  0  0  0  0  0  0  0  0  0  0  0
   10.6005   14.0038   24.3153 O   0  0  0  0  0  0  0  0  0  0  0  0
    8.2437    9.5775   24.0661 O   0  0  0  0  0  0  0  0  0  0  0  0
   10.6051   13.5130   22.0906 O   0  0  0  0  0  0  0  0  0  0  0  0
    8.0344   14.9126   24.8042 Br  0  0  0  0  0  0  0  0  0  0  0  0
    5.4157   11.4177   27.0253 H   0  0  0  0  0  0  0  0  0  0  0  0
    6.3485    9.5097   25.7636 H   0  0  0  0  0  0  0  0  0  0  0  0
    6.2887   13.6783   26.6657 H   0  0  0  0  0  0  0  0  0  0  0  0
   10.5482   11.0557   22.1290 H   0  0  0  0  0  0  0  0  0  0  0  0
    8.7841   11.0695   21.9234 H   0  0  0  0  0  0  0  0  0  0  0  0
    9.6381    8.8684   22.7570 H   0  0  0  0  0  0  0  0  0  0  0  0
   10.3114    9.6468   24.1902 H   0  0  0  0  0  0  0  0  0  0  0  0
   12.5102   14.5007   23.7114 H   0  0  0  0  0  0  0  0  0  0  0  0
   13.2633   13.6625   22.3359 H   0  0  0  0  0  0  0  0  0  0  0  0
   13.3403   15.4322   22.4774 H   0  0  0  0  0  0  0  0  0  0  0  0
   10.7341   14.8523   19.7901 H   0  0  0  0  0  0  0  0  0  0  0  0
   12.1532   13.8416   19.9992 H   0  0  0  0  0  0  0  0  0  0  0  0
   12.3120   15.6091   20.1021 H   0  0  0  0  0  0  0  0  0  0  0  0
    9.6659   16.0001   21.7578 H   0  0  0  0  0  0  0  0  0  0  0  0
   10.3659   15.8526   23.3843 H   0  0  0  0  0  0  0  0  0  0  0  0
   11.1671   16.8286   22.1322 H   0  0  0  0  0  0  0  0  0  0  0  0
  1  2  1  0  0  0  0
  1  3  2  0  0  0  0
  2  5  2  0  0  0  0
  3  6  1  0  0  0  0
  4  5  1  0  0  0  0
  4  6  2  0  0  0  0
  4 14  1  0  0  0  0
  5 16  1  0  0  0  0
  6 18  1  0  0  0  0
  7 14  1  0  0  0  0
  7 15  2  0  0  0  0
  7 17  1  0  0  0  0
  8  9  1  0  0  0  0
  8 14  1  0  0  0  0
  9 16  1  0  0  0  0
 10 13  1  0  0  0  0
 11 13  1  0  0  0  0
 12 13  1  0  0  0  0
 13 17  1  0  0  0  0
  1 19  1  0  0  0  0
  2 20  1  0  0  0  0
  3 21  1  0  0  0  0
  8 22  1  0  0  0  0
  8 23  1  0  0  0  0
  9 24  1  0  0  0  0
  9 25  1  0  0  0  0
 10 26  1  0  0  0  0
 10 27  1  0  0  0  0
 10 28  1  0  0  0  0
 11 29  1  0  0  0  0
 11 30  1  0  0  0  0
 11 31  1  0  0  0  0
 12 32  1  0  0  0  0
 12 33  1  0  0  0  0
 12 34  1  0  0  0  0
M  END
> <id>
EN300-28292764

> <smiles>
CC(C)(C)OC(=O)N1CCOC=2C=CC=C(Br)C12

> <IUPAC Name>
tert-butyl 5-bromo-3,4-dihydro-2H-1,4-benzoxazine-4-carboxylate

> <CAS>
2680893-13-2

> <URL>
https://www.enaminestore.com/catalog/EN300-28292764

> <ROCS_ShapeQuery>
A71EV2A-x0451_0A_A71EV2A-x0310_0A_A71EV2A-x0416_0A_peptide

> <ROCS_TanimotoCombo>
0.489 

> <ROCS_ShapeTanimoto>
0.333 

> <ROCS_ColorTanimoto>
0.155 

> <ROCS_RefTversky>
0.291 

> <ROCS_RefColorTversky>
0.167 

> <ROCS_RefTverskyCombo>
0.457 

> <ROCS_FitTversky>
1.794 

> <ROCS_FitColorTversky>
0.696 

> <ROCS_FitTverskyCombo>
2.490 

> <ROCS_ColorScore>
-5.075

> <ROCS_Overlap>
2015.595

> <ROCS_Rank>
220                 

$$$$
untitled-dbase-34293_61
  -OEChem-11132313473D

 46 48  0     1  0  0  0  0  0999 V2000
   10.5222   13.6089   23.1351 C   0  0  0  0  0  0  0  0  0  0  0  0
   11.3204   10.6207   21.2482 C   0  0  0  0  0  0  0  0  0  0  0  0
   10.7045    9.3991   21.9152 C   0  0  0  0  0  0  0  0  0  0  0  0
    8.6205   10.7345   25.8564 C   0  0  0  0  0  0  0  0  0  0  0  0
   10.4412   11.8533   21.3924 C   0  0  0  0  0  0  0  0  0  0  0  0
    7.1357   10.8906   26.1263 C   0  0  0  0  0  0  0  0  0  0  0  0
    7.6397   12.0729   24.1775 C   0  0  0  0  0  0  0  0  0  0  0  0
   10.1169    9.7266   23.2851 C   0  0  1  0  0  0  0  0  0  0  0  0
   10.1646   11.1904   23.8267 C   0  0  2  0  0  0  0  0  0  0  0  0
    8.5689    9.8289   23.3192 C   0  0  2  0  0  0  0  0  0  0  0  0
    8.6978   10.9905   24.3578 C   0  0  1  0  0  0  0  0  0  0  0  0
   13.0315   14.2991   22.8056 C   0  0  0  0  0  0  0  0  0  0  0  0
   12.4267   15.2567   20.5637 C   0  0  0  0  0  0  0  0  0  0  0  0
   11.7751   16.4751   22.6611 C   0  0  0  0  0  0  0  0  0  0  0  0
   11.9973   15.1054   22.0214 C   0  0  0  0  0  0  0  0  0  0  0  0
   10.3504   12.2593   22.7946 N   0  0  0  0  0  0  0  0  0  0  0  0
    8.0391    8.6137   23.9243 N   0  0  0  0  0  0  0  0  0  0  0  0
   10.4658   14.0546   24.2791 O   0  0  0  0  0  0  0  0  0  0  0  0
    6.6282   11.8307   25.1691 O   0  0  0  0  0  0  0  0  0  0  0  0
   10.7570   14.3899   22.0337 O   0  0  0  0  0  0  0  0  0  0  0  0
   12.3202   10.8235   21.6718 H   0  0  0  0  0  0  0  0  0  0  0  0
   11.4780   10.4095   20.1768 H   0  0  0  0  0  0  0  0  0  0  0  0
    9.9383    8.9656   21.2370 H   0  0  0  0  0  0  0  0  0  0  0  0
   11.4701    8.6002   22.0201 H   0  0  0  0  0  0  0  0  0  0  0  0
    9.1681   11.5152   26.4024 H   0  0  0  0  0  0  0  0  0  0  0  0
    9.0152    9.7683   26.1912 H   0  0  0  0  0  0  0  0  0  0  0  0
   10.8537   12.6617   20.8044 H   0  0  0  0  0  0  0  0  0  0  0  0
    9.4347   11.6499   21.0504 H   0  0  0  0  0  0  0  0  0  0  0  0
    6.5997    9.9425   25.9802 H   0  0  0  0  0  0  0  0  0  0  0  0
    6.9281   11.2487   27.1425 H   0  0  0  0  0  0  0  0  0  0  0  0
    8.0405   13.0728   24.3798 H   0  0  0  0  0  0  0  0  0  0  0  0
    7.1696   12.0863   23.1895 H   0  0  0  0  0  0  0  0  0  0  0  0
   10.5372    9.0133   24.0215 H   0  0  0  0  0  0  0  0  0  0  0  0
   10.8976   11.2807   24.6172 H   0  0  0  0  0  0  0  0  0  0  0  0
    8.0847   10.0806   22.3588 H   0  0  0  0  0  0  0  0  0  0  0  0
   12.7270   14.1882   23.8525 H   0  0  0  0  0  0  0  0  0  0  0  0
   13.1744   13.3015   22.3776 H   0  0  0  0  0  0  0  0  0  0  0  0
   13.9999   14.8123   22.8181 H   0  0  0  0  0  0  0  0  0  0  0  0
   11.6875   15.8346   19.9972 H   0  0  0  0  0  0  0  0  0  0  0  0
   12.4954   14.2788   20.0735 H   0  0  0  0  0  0  0  0  0  0  0  0
   13.3970   15.7564   20.4781 H   0  0  0  0  0  0  0  0  0  0  0  0
   11.0333   17.0537   22.0987 H   0  0  0  0  0  0  0  0  0  0  0  0
   11.4310   16.3857   23.6965 H   0  0  0  0  0  0  0  0  0  0  0  0
   12.6992   17.0644   22.6509 H   0  0  0  0  0  0  0  0  0  0  0  0
    7.0706    8.7488   24.0870 H   0  0  0  0  0  0  0  0  0  0  0  0
    8.1902    7.8654   23.2918 H   0  0  0  0  0  0  0  0  0  0  0  0
  1 16  1  0  0  0  0
  1 18  2  0  0  0  0
  1 20  1  0  0  0  0
  2  3  1  0  0  0  0
  2  5  1  0  0  0  0
  3  8  1  0  0  0  0
  4  6  1  0  0  0  0
  4 11  1  0  0  0  0
  5 16  1  0  0  0  0
  6 19  1  0  0  0  0
  7 11  1  0  0  0  0
  7 19  1  0  0  0  0
  8  9  1  0  0  0  0
  8 10  1  0  0  0  0
  9 11  1  0  0  0  0
  9 16  1  0  0  0  0
 10 11  1  0  0  0  0
 10 17  1  0  0  0  0
 12 15  1  0  0  0  0
 13 15  1  0  0  0  0
 14 15  1  0  0  0  0
 15 20  1  0  0  0  0
  2 21  1  0  0  0  0
  2 22  1  0  0  0  0
  3 23  1  0  0  0  0
  3 24  1  0  0  0  0
  4 25  1  0  0  0  0
  4 26  1  0  0  0  0
  5 27  1  0  0  0  0
  5 28  1  0  0  0  0
  6 29  1  0  0  0  0
  6 30  1  0  0  0  0
  7 31  1  0  0  0  0
  7 32  1  0  0  0  0
  8 33  1  0  0  0  0
  9 34  1  0  0  0  0
 10 35  1  0  0  0  0
 12 36  1  0  0  0  0
 12 37  1  0  0  0  0
 12 38  1  0  0  0  0
 13 39  1  0  0  0  0
 13 40  1  0  0  0  0
 13 41  1  0  0  0  0
 14 42  1  0  0  0  0
 14 43  1  0  0  0  0
 14 44  1  0  0  0  0
 17 45  1  0  0  0  0
 17 46  1  0  0  0  0
M  END
> <id>
EN300-701137

> <smiles>
CC(C)(C)OC(=O)N1CCCC2C(N)C3(CCOC3)C21

> <IUPAC Name>
tert-butyl 8-amino-5-azaspiro[bicyclo[4.2.0]octane-7,3'-oxolane]-5-carboxylate

> <CAS>
2138235-84-2

> <URL>
https://www.enaminestore.com/catalog/EN300-701137

> <ROCS_ShapeQuery>
A71EV2A-x0451_0A_A71EV2A-x0310_0A_A71EV2A-x0416_0A_peptide

> <ROCS_TanimotoCombo>
0.489 

> <ROCS_ShapeTanimoto>
0.329 

> <ROCS_ColorTanimoto>
0.160 

> <ROCS_RefTversky>
0.291 

> <ROCS_RefColorTversky>
0.180 

> <ROCS_RefTverskyCombo>
0.470 

> <ROCS_FitTversky>
1.672 

> <ROCS_FitColorTversky>
0.593 

> <ROCS_FitTverskyCombo>
2.264 

> <ROCS_ColorScore>
-5.487

> <ROCS_Overlap>
2016.740

> <ROCS_Rank>
221                 

$$$$
untitled-dbase-866_0
  -OEChem-11132313473D

 35 36  0     0  0  0  0  0  0999 V2000
    5.8767   11.7204   25.9281 C   0  0  0  0  0  0  0  0  0  0  0  0
    6.5359   10.6069   25.4199 C   0  0  0  0  0  0  0  0  0  0  0  0
    7.5360   13.1525   24.9023 C   0  0  0  0  0  0  0  0  0  0  0  0
    8.2393   12.0445   24.4113 C   0  0  0  0  0  0  0  0  0  0  0  0
    6.3730   12.9916   25.6636 C   0  0  0  0  0  0  0  0  0  0  0  0
    7.7053   10.7650   24.6665 C   0  0  0  0  0  0  0  0  0  0  0  0
   10.2591   13.2528   23.4428 C   0  0  0  0  0  0  0  0  0  0  0  0
    9.6835   10.9579   22.7929 C   0  0  0  0  0  0  0  0  0  0  0  0
    9.5719    9.7354   23.6798 C   0  0  0  0  0  0  0  0  0  0  0  0
    9.8741   13.0499   21.0082 C   0  0  0  0  0  0  0  0  0  0  0  0
   12.1867   12.7971   21.9479 C   0  0  0  0  0  0  0  0  0  0  0  0
   11.0812   15.0445   21.9355 C   0  0  0  0  0  0  0  0  0  0  0  0
   10.8507   13.5363   22.0837 C   0  0  0  0  0  0  0  0  0  0  0  0
    9.4100   12.1546   23.5928 N   0  0  0  0  0  0  0  0  0  0  0  0
    5.7079   14.1252   26.1789 N   0  0  0  0  0  0  0  0  0  0  0  0
   10.4919   14.0545   24.3553 O   0  0  0  0  0  0  0  0  0  0  0  0
    8.2479    9.5949   24.1915 O   0  0  0  0  0  0  0  0  0  0  0  0
    4.9826   11.5861   26.5312 H   0  0  0  0  0  0  0  0  0  0  0  0
    6.1303    9.6156   25.6061 H   0  0  0  0  0  0  0  0  0  0  0  0
    7.8811   14.1686   24.7457 H   0  0  0  0  0  0  0  0  0  0  0  0
   10.6925   11.0627   22.3902 H   0  0  0  0  0  0  0  0  0  0  0  0
    8.9782   10.8599   21.9713 H   0  0  0  0  0  0  0  0  0  0  0  0
    9.8672    8.8160   23.1541 H   0  0  0  0  0  0  0  0  0  0  0  0
   10.2433    9.8411   24.5406 H   0  0  0  0  0  0  0  0  0  0  0  0
   10.2617   13.2350   19.9994 H   0  0  0  0  0  0  0  0  0  0  0  0
    9.6956   11.9726   21.1018 H   0  0  0  0  0  0  0  0  0  0  0  0
    8.9041   13.5547   21.0876 H   0  0  0  0  0  0  0  0  0  0  0  0
   12.6502   12.9779   20.9708 H   0  0  0  0  0  0  0  0  0  0  0  0
   12.0595   11.7137   22.0585 H   0  0  0  0  0  0  0  0  0  0  0  0
   12.8955   13.1281   22.7156 H   0  0  0  0  0  0  0  0  0  0  0  0
   11.5116   15.2909   20.9576 H   0  0  0  0  0  0  0  0  0  0  0  0
   11.7648   15.4255   22.7035 H   0  0  0  0  0  0  0  0  0  0  0  0
   10.1380   15.5946   22.0311 H   0  0  0  0  0  0  0  0  0  0  0  0
    4.8587   13.9996   26.6901 H   0  0  0  0  0  0  0  0  0  0  0  0
    6.0457   15.0356   25.9439 H   0  0  0  0  0  0  0  0  0  0  0  0
  1  2  1  0  0  0  0
  1  5  2  0  0  0  0
  2  6  2  0  0  0  0
  3  4  2  0  0  0  0
  3  5  1  0  0  0  0
  4  6  1  0  0  0  0
  4 14  1  0  0  0  0
  5 15  1  0  0  0  0
  6 17  1  0  0  0  0
  7 13  1  0  0  0  0
  7 14  1  0  0  0  0
  7 16  2  0  0  0  0
  8  9  1  0  0  0  0
  8 14  1  0  0  0  0
  9 17  1  0  0  0  0
 10 13  1  0  0  0  0
 11 13  1  0  0  0  0
 12 13  1  0  0  0  0
  1 18  1  0  0  0  0
  2 19  1  0  0  0  0
  3 20  1  0  0  0  0
  8 21  1  0  0  0  0
  8 22  1  0  0  0  0
  9 23  1  0  0  0  0
  9 24  1  0  0  0  0
 10 25  1  0  0  0  0
 10 26  1  0  0  0  0
 10 27  1  0  0  0  0
 11 28  1  0  0  0  0
 11 29  1  0  0  0  0
 11 30  1  0  0  0  0
 12 31  1  0  0  0  0
 12 32  1  0  0  0  0
 12 33  1  0  0  0  0
 15 34  1  0  0  0  0
 15 35  1  0  0  0  0
M  END
> <id>
EN300-50618

> <smiles>
CC(C)(C)C(=O)N1CCOC=2C=CC(N)=CC12

> <MDLNUMBER>
MFCD12912873

> <IUPAC Name>
1-(6-amino-3,4-dihydro-2H-1,4-benzoxazin-4-yl)-2,2-dimethylpropan-1-one

> <CAS>
1193387-38-0

> <Purity>
95

> <URL>
https://www.enaminestore.com/catalog/EN300-50618

> <ROCS_ShapeQuery>
A71EV2A-x0451_0A_A71EV2A-x0310_0A_A71EV2A-x0416_0A_peptide

> <ROCS_TanimotoCombo>
0.489 

> <ROCS_ShapeTanimoto>
0.319 

> <ROCS_ColorTanimoto>
0.170 

> <ROCS_RefTversky>
0.280 

> <ROCS_RefColorTversky>
0.185 

> <ROCS_RefTverskyCombo>
0.464 

> <ROCS_FitTversky>
1.784 

> <ROCS_FitColorTversky>
0.683 

> <ROCS_FitTverskyCombo>
2.467 

> <ROCS_ColorScore>
-5.627

> <ROCS_Overlap>
1939.076

> <ROCS_Rank>
222                 

$$$$
untitled-dbase-33890_6
  -OEChem-11132313473D

 35 36  0     0  0  0  0  0  0999 V2000
    7.9014   12.8412   24.9943 C   0  0  0  0  0  0  0  0  0  0  0  0
    6.7898   12.5935   25.8049 C   0  0  0  0  0  0  0  0  0  0  0  0
    7.0423   10.2370   25.4270 C   0  0  0  0  0  0  0  0  0  0  0  0
    8.6133   11.7900   24.3915 C   0  0  0  0  0  0  0  0  0  0  0  0
    8.1736   10.4646   24.6223 C   0  0  0  0  0  0  0  0  0  0  0  0
    6.3588   11.2927   26.0210 C   0  0  0  0  0  0  0  0  0  0  0  0
   10.3926   13.2573   23.3868 C   0  0  0  0  0  0  0  0  0  0  0  0
   10.1146    9.5529   23.4630 C   0  0  0  0  0  0  0  0  0  0  0  0
   10.1576   10.8618   22.6960 C   0  0  0  0  0  0  0  0  0  0  0  0
   12.7803   14.7508   22.8380 C   0  0  0  0  0  0  0  0  0  0  0  0
   12.0524   14.6792   20.4350 C   0  0  0  0  0  0  0  0  0  0  0  0
   10.6204   15.8391   22.1416 C   0  0  0  0  0  0  0  0  0  0  0  0
   11.5849   14.6812   21.8889 C   0  0  0  0  0  0  0  0  0  0  0  0
    8.8163    9.3691   24.0582 N   0  0  0  0  0  0  0  0  0  0  0  0
    9.7412   12.0139   23.5169 N   0  0  0  0  0  0  0  0  0  0  0  0
   10.5370   14.0968   24.2715 O   0  0  0  0  0  0  0  0  0  0  0  0
   10.8900   13.4499   22.1205 O   0  0  0  0  0  0  0  0  0  0  0  0
    4.8613   10.9577   27.1222 Br  0  0  0  0  0  0  0  0  0  0  0  0
    8.1994   13.8787   24.8956 H   0  0  0  0  0  0  0  0  0  0  0  0
    6.2822   13.4344   26.2711 H   0  0  0  0  0  0  0  0  0  0  0  0
    6.6946    9.2160   25.5781 H   0  0  0  0  0  0  0  0  0  0  0  0
   10.3354    8.7137   22.7923 H   0  0  0  0  0  0  0  0  0  0  0  0
   10.8796    9.5516   24.2469 H   0  0  0  0  0  0  0  0  0  0  0  0
   11.1724   11.0724   22.3341 H   0  0  0  0  0  0  0  0  0  0  0  0
    9.5166   10.7630   21.8140 H   0  0  0  0  0  0  0  0  0  0  0  0
   12.4489   14.7524   23.8826 H   0  0  0  0  0  0  0  0  0  0  0  0
   13.4620   13.9067   22.6908 H   0  0  0  0  0  0  0  0  0  0  0  0
   13.3430   15.6798   22.6908 H   0  0  0  0  0  0  0  0  0  0  0  0
   11.1979   14.6294   19.7505 H   0  0  0  0  0  0  0  0  0  0  0  0
   12.6685   13.7976   20.2244 H   0  0  0  0  0  0  0  0  0  0  0  0
   12.6356   15.5746   20.1970 H   0  0  0  0  0  0  0  0  0  0  0  0
    9.7629   15.7894   21.4609 H   0  0  0  0  0  0  0  0  0  0  0  0
   10.2458   15.8348   23.1703 H   0  0  0  0  0  0  0  0  0  0  0  0
   11.1094   16.8017   21.9531 H   0  0  0  0  0  0  0  0  0  0  0  0
    8.2830    8.5353   23.8434 H   0  0  0  0  0  0  0  0  0  0  0  0
  1  2  1  0  0  0  0
  1  4  2  0  0  0  0
  2  6  2  0  0  0  0
  3  5  2  0  0  0  0
  3  6  1  0  0  0  0
  4  5  1  0  0  0  0
  4 15  1  0  0  0  0
  5 14  1  0  0  0  0
  6 18  1  0  0  0  0
  7 15  1  0  0  0  0
  7 16  2  0  0  0  0
  7 17  1  0  0  0  0
  8  9  1  0  0  0  0
  8 14  1  0  0  0  0
  9 15  1  0  0  0  0
 10 13  1  0  0  0  0
 11 13  1  0  0  0  0
 12 13  1  0  0  0  0
 13 17  1  0  0  0  0
  1 19  1  0  0  0  0
  2 20  1  0  0  0  0
  3 21  1  0  0  0  0
  8 22  1  0  0  0  0
  8 23  1  0  0  0  0
  9 24  1  0  0  0  0
  9 25  1  0  0  0  0
 10 26  1  0  0  0  0
 10 27  1  0  0  0  0
 10 28  1  0  0  0  0
 11 29  1  0  0  0  0
 11 30  1  0  0  0  0
 11 31  1  0  0  0  0
 12 32  1  0  0  0  0
 12 33  1  0  0  0  0
 12 34  1  0  0  0  0
 14 35  1  0  0  0  0
M  END
> <id>
EN300-6839799

> <smiles>
CC(C)(C)OC(=O)N1CCNC=2C=C(Br)C=CC12

> <MDLNUMBER>
MFCD29760843

> <IUPAC Name>
tert-butyl 6-bromo-1,2,3,4-tetrahydroquinoxaline-1-carboxylate

> <CAS>
1780373-76-3

> <Purity>
95

> <URL>
https://www.enaminestore.com/catalog/EN300-6839799

> <ROCS_ShapeQuery>
A71EV2A-x0451_0A_A71EV2A-x0310_0A_A71EV2A-x0416_0A_peptide

> <ROCS_TanimotoCombo>
0.489 

> <ROCS_ShapeTanimoto>
0.343 

> <ROCS_ColorTanimoto>
0.146 

> <ROCS_RefTversky>
0.296 

> <ROCS_RefColorTversky>
0.158 

> <ROCS_RefTverskyCombo>
0.454 

> <ROCS_FitTversky>
1.839 

> <ROCS_FitColorTversky>
0.659 

> <ROCS_FitTverskyCombo>
2.498 

> <ROCS_ColorScore>
-4.804

> <ROCS_Overlap>
2055.700

> <ROCS_Rank>
223                 

$$$$
untitled-dbase-34831_9
  -OEChem-11132313473D

 33 34  0     0  0  0  0  0  0999 V2000
    7.1534   10.1921   25.0559 C   0  0  0  0  0  0  0  0  0  0  0  0
    6.9958   12.4203   25.4015 C   0  0  0  0  0  0  0  0  0  0  0  0
    8.3833   10.3303   24.4258 C   0  0  0  0  0  0  0  0  0  0  0  0
    8.8536   11.6375   24.2909 C   0  0  0  0  0  0  0  0  0  0  0  0
   10.6066   13.1611   23.4245 C   0  0  0  0  0  0  0  0  0  0  0  0
   10.4638    9.3916   23.6261 C   0  0  0  0  0  0  0  0  0  0  0  0
   10.6904   10.7063   22.8982 C   0  0  0  0  0  0  0  0  0  0  0  0
   12.8406   14.9070   23.0057 C   0  0  0  0  0  0  0  0  0  0  0  0
   12.3782   14.6097   20.5547 C   0  0  0  0  0  0  0  0  0  0  0  0
   10.6493   15.6737   22.0336 C   0  0  0  0  0  0  0  0  0  0  0  0
   11.7664   14.6342   21.9538 C   0  0  0  0  0  0  0  0  0  0  0  0
    6.4337   11.2137   25.5579 N   0  0  0  0  0  0  0  0  0  0  0  0
    8.1662   12.6916   24.7953 N   0  0  0  0  0  0  0  0  0  0  0  0
    9.0680    9.2300   23.9511 N   0  0  0  0  0  0  0  0  0  0  0  0
   10.0817   11.8639   23.5738 N   0  0  0  0  0  0  0  0  0  0  0  0
   10.5528   14.0556   24.2661 O   0  0  0  0  0  0  0  0  0  0  0  0
   11.2039   13.3402   22.2016 O   0  0  0  0  0  0  0  0  0  0  0  0
    6.6890    9.2164   25.1688 H   0  0  0  0  0  0  0  0  0  0  0  0
    6.4546   13.2656   25.8078 H   0  0  0  0  0  0  0  0  0  0  0  0
   10.7929    8.5539   22.9991 H   0  0  0  0  0  0  0  0  0  0  0  0
   11.0604    9.3629   24.5439 H   0  0  0  0  0  0  0  0  0  0  0  0
   11.7631   10.9188   22.8072 H   0  0  0  0  0  0  0  0  0  0  0  0
   10.2950   10.6171   21.8806 H   0  0  0  0  0  0  0  0  0  0  0  0
   12.4055   14.9253   24.0113 H   0  0  0  0  0  0  0  0  0  0  0  0
   13.6300   14.1486   22.9821 H   0  0  0  0  0  0  0  0  0  0  0  0
   13.3000   15.8897   22.8497 H   0  0  0  0  0  0  0  0  0  0  0  0
   11.6110   14.4143   19.7968 H   0  0  0  0  0  0  0  0  0  0  0  0
   13.1138   13.8023   20.4645 H   0  0  0  0  0  0  0  0  0  0  0  0
   12.8713   15.5567   20.3128 H   0  0  0  0  0  0  0  0  0  0  0  0
    9.8786   15.4782   21.2792 H   0  0  0  0  0  0  0  0  0  0  0  0
   10.1738   15.6798   23.0198 H   0  0  0  0  0  0  0  0  0  0  0  0
   11.0362   16.6781   21.8273 H   0  0  0  0  0  0  0  0  0  0  0  0
    8.5519    8.4521   23.5582 H   0  0  0  0  0  0  0  0  0  0  0  0
  1  3  2  0  0  0  0
  1 12  1  0  0  0  0
  2 12  2  0  0  0  0
  2 13  1  0  0  0  0
  3  4  1  0  0  0  0
  3 14  1  0  0  0  0
  4 13  2  0  0  0  0
  4 15  1  0  0  0  0
  5 15  1  0  0  0  0
  5 16  2  0  0  0  0
  5 17  1  0  0  0  0
  6  7  1  0  0  0  0
  6 14  1  0  0  0  0
  7 15  1  0  0  0  0
  8 11  1  0  0  0  0
  9 11  1  0  0  0  0
 10 11  1  0  0  0  0
 11 17  1  0  0  0  0
  1 18  1  0  0  0  0
  2 19  1  0  0  0  0
  6 20  1  0  0  0  0
  6 21  1  0  0  0  0
  7 22  1  0  0  0  0
  7 23  1  0  0  0  0
  8 24  1  0  0  0  0
  8 25  1  0  0  0  0
  8 26  1  0  0  0  0
  9 27  1  0  0  0  0
  9 28  1  0  0  0  0
  9 29  1  0  0  0  0
 10 30  1  0  0  0  0
 10 31  1  0  0  0  0
 10 32  1  0  0  0  0
 14 33  1  0  0  0  0
M  END
> <id>
EN300-6729781

> <smiles>
CC(C)(C)OC(=O)N1CCNC=2C=NC=NC12

> <MDLNUMBER>
MFCD29048093

> <IUPAC Name>
tert-butyl 5,6,7,8-tetrahydropteridine-8-carboxylate

> <CAS>
1936361-46-4

> <Purity>
95

> <URL>
https://www.enaminestore.com/catalog/EN300-6729781

> <ROCS_ShapeQuery>
A71EV2A-x0451_0A_A71EV2A-x0310_0A_A71EV2A-x0416_0A_peptide

> <ROCS_TanimotoCombo>
0.489 

> <ROCS_ShapeTanimoto>
0.339 

> <ROCS_ColorTanimoto>
0.150 

> <ROCS_RefTversky>
0.293 

> <ROCS_RefColorTversky>
0.165 

> <ROCS_RefTverskyCombo>
0.459 

> <ROCS_FitTversky>
1.850 

> <ROCS_FitColorTversky>
0.611 

> <ROCS_FitTverskyCombo>
2.461 

> <ROCS_ColorScore>
-5.042

> <ROCS_Overlap>
2033.198

> <ROCS_Rank>
224                 

$$$$
untitled-dbase-50006_63
  -OEChem-11132313473D

 32 33  0     1  0  0  0  0  0999 V2000
   10.5063   13.0777   23.5005 C   0  0  0  0  0  0  0  0  0  0  0  0
    7.1298   10.8670   25.5154 C   0  0  0  0  0  0  0  0  0  0  0  0
    8.1971   11.9681   25.6742 C   0  0  0  0  0  0  0  0  0  0  0  0
    7.6471   10.6316   24.0767 C   0  0  1  0  0  0  0  0  0  0  0  0
    8.2585   12.0589   24.1331 C   0  0  2  0  0  0  0  0  0  0  0  0
    8.7943    9.6426   23.8767 C   0  0  2  0  0  0  0  0  0  0  0  0
   12.5870   14.9624   22.9510 C   0  0  0  0  0  0  0  0  0  0  0  0
   12.6835   13.9130   20.6709 C   0  0  0  0  0  0  0  0  0  0  0  0
   10.5829   15.0606   21.4315 C   0  0  0  0  0  0  0  0  0  0  0  0
   11.7917   14.2343   21.8683 C   0  0  0  0  0  0  0  0  0  0  0  0
    9.6107   12.0153   23.5439 N   0  0  0  0  0  0  0  0  0  0  0  0
   10.5769   13.9856   24.3256 O   0  0  0  0  0  0  0  0  0  0  0  0
   11.4257   10.1089   23.3335 O   0  0  0  0  0  0  0  0  0  0  0  0
   11.3247   12.9912   22.4042 O   0  0  0  0  0  0  0  0  0  0  0  0
   10.0546   10.5254   22.8949 S   0  0  1  0  0  0  0  0  0  0  0  0
    8.2427    8.1671   23.0755 Cl  0  0  0  0  0  0  0  0  0  0  0  0
    7.2151   10.0222   26.2041 H   0  0  0  0  0  0  0  0  0  0  0  0
    6.1025   11.2481   25.5506 H   0  0  0  0  0  0  0  0  0  0  0  0
    7.8584   12.8736   26.1849 H   0  0  0  0  0  0  0  0  0  0  0  0
    9.1196   11.6193   26.1531 H   0  0  0  0  0  0  0  0  0  0  0  0
    6.8510   10.5473   23.3263 H   0  0  0  0  0  0  0  0  0  0  0  0
    7.6170   12.8319   23.6946 H   0  0  0  0  0  0  0  0  0  0  0  0
    9.2593    9.3619   24.8277 H   0  0  0  0  0  0  0  0  0  0  0  0
   11.9503   15.1948   23.8122 H   0  0  0  0  0  0  0  0  0  0  0  0
   13.4367   14.3653   23.2977 H   0  0  0  0  0  0  0  0  0  0  0  0
   12.9664   15.9211   22.5794 H   0  0  0  0  0  0  0  0  0  0  0  0
   12.1170   13.3905   19.8916 H   0  0  0  0  0  0  0  0  0  0  0  0
   13.5001   13.2420   20.9613 H   0  0  0  0  0  0  0  0  0  0  0  0
   13.1174   14.8190   20.2357 H   0  0  0  0  0  0  0  0  0  0  0  0
   10.0123   14.5385   20.6549 H   0  0  0  0  0  0  0  0  0  0  0  0
    9.9124   15.2694   22.2714 H   0  0  0  0  0  0  0  0  0  0  0  0
   10.9002   16.0140   20.9938 H   0  0  0  0  0  0  0  0  0  0  0  0
  1 11  1  0  0  0  0
  1 12  2  0  0  0  0
  1 14  1  0  0  0  0
  2  3  1  0  0  0  0
  2  4  1  6  0  0  0
  3  5  1  6  0  0  0
  4  5  1  0  0  0  0
  4  6  1  0  0  0  0
  5 11  1  0  0  0  0
  6 15  1  0  0  0  0
  6 16  1  1  0  0  0
  7 10  1  0  0  0  0
  8 10  1  0  0  0  0
  9 10  1  0  0  0  0
 10 14  1  0  0  0  0
 11 15  1  0  0  0  0
 13 15  2  0  0  0  0
  2 17  1  0  0  0  0
  2 18  1  0  0  0  0
  3 19  1  0  0  0  0
  3 20  1  0  0  0  0
  4 21  1  0  0  0  0
  5 22  1  0  0  0  0
  6 23  1  0  0  0  0
  7 24  1  0  0  0  0
  7 25  1  0  0  0  0
  7 26  1  0  0  0  0
  8 27  1  0  0  0  0
  8 28  1  0  0  0  0
  8 29  1  0  0  0  0
  9 30  1  0  0  0  0
  9 31  1  0  0  0  0
  9 32  1  0  0  0  0
M  END
> <id>
EN300-37361048

> <smiles>
CC(C)(C)OC(=O)N1[C@@H]2CC[C@@H]2[C@@H](Cl)S1=O |&1:8,11,12,r|

> <IUPAC Name>
rac-tert-butyl (1R,4R,5S)-4-chloro-3-oxo-3lambda4-thia-2-azabicyclo[3.2.0]heptane-2-carboxylate

> <Purity>
95

> <URL>
https://www.enaminestore.com/catalog/EN300-37361048

> <ROCS_ShapeQuery>
A71EV2A-x0451_0A_A71EV2A-x0310_0A_A71EV2A-x0416_0A_peptide

> <ROCS_TanimotoCombo>
0.489 

> <ROCS_ShapeTanimoto>
0.301 

> <ROCS_ColorTanimoto>
0.188 

> <ROCS_RefTversky>
0.265 

> <ROCS_RefColorTversky>
0.202 

> <ROCS_RefTverskyCombo>
0.466 

> <ROCS_FitTversky>
1.829 

> <ROCS_FitColorTversky>
0.728 

> <ROCS_FitTverskyCombo>
2.557 

> <ROCS_ColorScore>
-6.147

> <ROCS_Overlap>
1835.353

> <ROCS_Rank>
225                 

$$$$
untitled-dbase-29486_4
  -OEChem-11132313473D

 32 33  0     0  0  0  0  0  0999 V2000
    6.8628   12.1249   25.9829 C   0  0  0  0  0  0  0  0  0  0  0  0
    7.9411   12.6896   25.2930 C   0  0  0  0  0  0  0  0  0  0  0  0
    6.4864   10.8008   25.7710 C   0  0  0  0  0  0  0  0  0  0  0  0
    9.1798   10.0872   23.1969 C   0  0  0  0  0  0  0  0  0  0  0  0
    8.2662   10.5518   24.1587 C   0  0  0  0  0  0  0  0  0  0  0  0
    8.6321   11.8786   24.3799 C   0  0  0  0  0  0  0  0  0  0  0  0
    7.1801    9.9989   24.8597 C   0  0  0  0  0  0  0  0  0  0  0  0
   10.4572   13.2892   23.3942 C   0  0  0  0  0  0  0  0  0  0  0  0
   12.9215   14.5646   22.8081 C   0  0  0  0  0  0  0  0  0  0  0  0
   12.1984   14.4453   20.4055 C   0  0  0  0  0  0  0  0  0  0  0  0
   10.8422   15.7667   22.0555 C   0  0  0  0  0  0  0  0  0  0  0  0
   11.7273   14.5373   21.8552 C   0  0  0  0  0  0  0  0  0  0  0  0
   10.0573   11.0157   22.8241 N   0  0  0  0  0  0  0  0  0  0  0  0
    9.7202   12.1122   23.5493 N   0  0  0  0  0  0  0  0  0  0  0  0
    6.7749    8.6621   24.6684 N   0  0  0  0  0  0  0  0  0  0  0  0
   10.5882   14.0794   24.3144 O   0  0  0  0  0  0  0  0  0  0  0  0
   10.9513   13.3676   22.1313 O   0  0  0  0  0  0  0  0  0  0  0  0
    6.3105   12.7315   26.6961 H   0  0  0  0  0  0  0  0  0  0  0  0
    8.2189   13.7222   25.4716 H   0  0  0  0  0  0  0  0  0  0  0  0
    5.6428   10.3958   26.3257 H   0  0  0  0  0  0  0  0  0  0  0  0
    9.2441    9.1055   22.7490 H   0  0  0  0  0  0  0  0  0  0  0  0
   12.5875   14.6307   23.8497 H   0  0  0  0  0  0  0  0  0  0  0  0
   13.5452   13.6714   22.6988 H   0  0  0  0  0  0  0  0  0  0  0  0
   13.5459   15.4470   22.6271 H   0  0  0  0  0  0  0  0  0  0  0  0
   11.3448   14.4254   19.7184 H   0  0  0  0  0  0  0  0  0  0  0  0
   12.7544   13.5164   20.2340 H   0  0  0  0  0  0  0  0  0  0  0  0
   12.8414   15.2891   20.1353 H   0  0  0  0  0  0  0  0  0  0  0  0
    9.9855   15.7473   21.3722 H   0  0  0  0  0  0  0  0  0  0  0  0
   10.4647   15.8291   23.0813 H   0  0  0  0  0  0  0  0  0  0  0  0
   11.3956   16.6859   21.8316 H   0  0  0  0  0  0  0  0  0  0  0  0
    7.2416    8.1037   23.9823 H   0  0  0  0  0  0  0  0  0  0  0  0
    5.9682    8.3225   25.1526 H   0  0  0  0  0  0  0  0  0  0  0  0
  1  2  1  0  0  0  0
  1  3  2  0  0  0  0
  2  6  2  0  0  0  0
  3  7  1  0  0  0  0
  4  5  1  0  0  0  0
  4 13  2  0  0  0  0
  5  6  1  0  0  0  0
  5  7  2  0  0  0  0
  6 14  1  0  0  0  0
  7 15  1  0  0  0  0
  8 14  1  0  0  0  0
  8 16  2  0  0  0  0
  8 17  1  0  0  0  0
  9 12  1  0  0  0  0
 10 12  1  0  0  0  0
 11 12  1  0  0  0  0
 12 17  1  0  0  0  0
 13 14  1  0  0  0  0
  1 18  1  0  0  0  0
  2 19  1  0  0  0  0
  3 20  1  0  0  0  0
  4 21  1  0  0  0  0
  9 22  1  0  0  0  0
  9 23  1  0  0  0  0
  9 24  1  0  0  0  0
 10 25  1  0  0  0  0
 10 26  1  0  0  0  0
 10 27  1  0  0  0  0
 11 28  1  0  0  0  0
 11 29  1  0  0  0  0
 11 30  1  0  0  0  0
 15 31  1  0  0  0  0
 15 32  1  0  0  0  0
M  END
> <id>
EN300-7377620

> <smiles>
CC(C)(C)OC(=O)N1N=CC=2C(N)=CC=CC12

> <MDLNUMBER>
MFCD11052618

> <IUPAC Name>
tert-butyl 4-amino-1H-indazole-1-carboxylate

> <CAS>
801315-74-2

> <Purity>
95

> <URL>
https://www.enaminestore.com/catalog/EN300-7377620

> <ROCS_ShapeQuery>
A71EV2A-x0451_0A_A71EV2A-x0310_0A_A71EV2A-x0416_0A_peptide

> <ROCS_TanimotoCombo>
0.488 

> <ROCS_ShapeTanimoto>
0.328 

> <ROCS_ColorTanimoto>
0.160 

> <ROCS_RefTversky>
0.287 

> <ROCS_RefColorTversky>
0.175 

> <ROCS_RefTverskyCombo>
0.462 

> <ROCS_FitTversky>
1.799 

> <ROCS_FitColorTversky>
0.647 

> <ROCS_FitTverskyCombo>
2.446 

> <ROCS_ColorScore>
-5.342

> <ROCS_Overlap>
1987.783

> <ROCS_Rank>
226                 

$$$$
untitled-dbase-34195_528
  -OEChem-11132313473D

 48 50  0     1  0  0  0  0  0999 V2000
    6.4029   11.6504   26.1944 C   0  0  0  0  0  0  0  0  0  0  0  0
    7.2871   12.5974   25.7241 C   0  0  0  0  0  0  0  0  0  0  0  0
    6.7279   10.4538   25.5202 C   0  0  0  0  0  0  0  0  0  0  0  0
    7.7954   10.7487   24.7004 C   0  0  0  0  0  0  0  0  0  0  0  0
   10.7440   13.4471   23.2628 C   0  0  0  0  0  0  0  0  0  0  0  0
    6.1471    9.0920   25.5664 C   0  0  0  0  0  0  0  0  0  0  0  0
    8.6192   11.4386   21.6634 C   0  0  0  0  0  0  0  0  0  0  0  0
    8.1359   10.1220   22.2717 C   0  0  0  0  0  0  0  0  0  0  0  0
   10.0313    9.7617   23.9783 C   0  0  0  0  0  0  0  0  0  0  0  0
    6.5641    8.3079   24.3054 C   0  0  0  0  0  0  0  0  0  0  0  0
   10.1279   11.6316   21.7082 C   0  0  0  0  0  0  0  0  0  0  0  0
   10.8306   11.0676   24.0508 C   0  0  0  0  0  0  0  0  0  0  0  0
    8.4964    9.8253   23.7499 C   0  0  1  0  0  0  0  0  0  0  0  0
   13.2982   14.0391   23.1543 C   0  0  0  0  0  0  0  0  0  0  0  0
   12.9682   14.8292   20.7930 C   0  0  0  0  0  0  0  0  0  0  0  0
   12.1435   16.2303   22.7074 C   0  0  0  0  0  0  0  0  0  0  0  0
   12.3823   14.8078   22.2031 C   0  0  0  0  0  0  0  0  0  0  0  0
    8.0105    8.4178   24.0169 N   0  0  0  0  0  0  0  0  0  0  0  0
   10.5607   12.0746   23.0278 N   0  0  0  0  0  0  0  0  0  0  0  0
   10.5845   13.9906   24.3545 O   0  0  0  0  0  0  0  0  0  0  0  0
    8.1334   12.0576   24.8047 O   0  0  0  0  0  0  0  0  0  0  0  0
   11.1224   14.1302   22.1366 O   0  0  0  0  0  0  0  0  0  0  0  0
    5.6290   11.8096   26.9308 H   0  0  0  0  0  0  0  0  0  0  0  0
    7.4377   13.6459   25.9346 H   0  0  0  0  0  0  0  0  0  0  0  0
    6.4800    8.5583   26.4628 H   0  0  0  0  0  0  0  0  0  0  0  0
    5.0540    9.1707   25.6083 H   0  0  0  0  0  0  0  0  0  0  0  0
    8.2513   11.5391   20.6352 H   0  0  0  0  0  0  0  0  0  0  0  0
    8.1527   12.2567   22.2269 H   0  0  0  0  0  0  0  0  0  0  0  0
    7.0406   10.0789   22.1505 H   0  0  0  0  0  0  0  0  0  0  0  0
    8.5210    9.3083   21.6342 H   0  0  0  0  0  0  0  0  0  0  0  0
   10.5031    9.1519   23.1825 H   0  0  0  0  0  0  0  0  0  0  0  0
   10.2292    9.1804   24.9004 H   0  0  0  0  0  0  0  0  0  0  0  0
    6.2830    7.2521   24.4034 H   0  0  0  0  0  0  0  0  0  0  0  0
    6.0062    8.7012   23.4480 H   0  0  0  0  0  0  0  0  0  0  0  0
   10.6138   10.6776   21.4719 H   0  0  0  0  0  0  0  0  0  0  0  0
   10.4703   12.3476   20.9518 H   0  0  0  0  0  0  0  0  0  0  0  0
   10.6448   11.5495   25.0240 H   0  0  0  0  0  0  0  0  0  0  0  0
   11.9057   10.8287   24.0447 H   0  0  0  0  0  0  0  0  0  0  0  0
   12.8812   14.0214   24.1676 H   0  0  0  0  0  0  0  0  0  0  0  0
   13.4493   13.0067   22.8225 H   0  0  0  0  0  0  0  0  0  0  0  0
   14.2778   14.5246   23.2317 H   0  0  0  0  0  0  0  0  0  0  0  0
   12.3142   15.3798   20.1071 H   0  0  0  0  0  0  0  0  0  0  0  0
   13.0529   13.8135   20.3901 H   0  0  0  0  0  0  0  0  0  0  0  0
   13.9595   15.2934   20.7744 H   0  0  0  0  0  0  0  0  0  0  0  0
   11.4865   16.7819   22.0253 H   0  0  0  0  0  0  0  0  0  0  0  0
   11.6890   16.2341   23.7034 H   0  0  0  0  0  0  0  0  0  0  0  0
   13.0842   16.7911   22.7517 H   0  0  0  0  0  0  0  0  0  0  0  0
    8.5483    8.0069   24.7789 H   0  0  0  0  0  0  0  0  0  0  0  0
  1  2  2  0  0  0  0
  1  3  1  0  0  0  0
  2 21  1  0  0  0  0
  3  4  2  0  0  0  0
  3  6  1  0  0  0  0
  4 13  1  0  0  0  0
  4 21  1  0  0  0  0
  5 19  1  0  0  0  0
  5 20  2  0  0  0  0
  5 22  1  0  0  0  0
  6 10  1  0  0  0  0
  7  8  1  0  0  0  0
  7 11  1  0  0  0  0
  8 13  1  0  0  0  0
  9 12  1  0  0  0  0
  9 13  1  0  0  0  0
 10 18  1  0  0  0  0
 11 19  1  0  0  0  0
 12 19  1  0  0  0  0
 13 18  1  0  0  0  0
 14 17  1  0  0  0  0
 15 17  1  0  0  0  0
 16 17  1  0  0  0  0
 17 22  1  0  0  0  0
  1 23  1  0  0  0  0
  2 24  1  0  0  0  0
  6 25  1  0  0  0  0
  6 26  1  0  0  0  0
  7 27  1  0  0  0  0
  7 28  1  0  0  0  0
  8 29  1  0  0  0  0
  8 30  1  0  0  0  0
  9 31  1  0  0  0  0
  9 32  1  0  0  0  0
 10 33  1  0  0  0  0
 10 34  1  0  0  0  0
 11 35  1  0  0  0  0
 11 36  1  0  0  0  0
 12 37  1  0  0  0  0
 12 38  1  0  0  0  0
 14 39  1  0  0  0  0
 14 40  1  0  0  0  0
 14 41  1  0  0  0  0
 15 42  1  0  0  0  0
 15 43  1  0  0  0  0
 15 44  1  0  0  0  0
 16 45  1  0  0  0  0
 16 46  1  0  0  0  0
 16 47  1  0  0  0  0
 18 48  1  0  0  0  0
M  END
> <id>
EN300-1076907

> <smiles>
CC(C)(C)OC(=O)N1CCCC2(CC1)NCCC=3C=COC32

> <IUPAC Name>
tert-butyl 5',6'-dihydro-4'H-spiro[azepane-4,7'-furo[2,3-c]pyridine]-1-carboxylate

> <CAS>
2137484-99-0

> <URL>
https://www.enaminestore.com/catalog/EN300-1076907

> <ROCS_ShapeQuery>
A71EV2A-x0451_0A_A71EV2A-x0310_0A_A71EV2A-x0416_0A_peptide

> <ROCS_TanimotoCombo>
0.488 

> <ROCS_ShapeTanimoto>
0.352 

> <ROCS_ColorTanimoto>
0.136 

> <ROCS_RefTversky>
0.309 

> <ROCS_RefColorTversky>
0.156 

> <ROCS_RefTverskyCombo>
0.465 

> <ROCS_FitTversky>
1.649 

> <ROCS_FitColorTversky>
0.518 

> <ROCS_FitTverskyCombo>
2.167 

> <ROCS_ColorScore>
-4.767

> <ROCS_Overlap>
2147.520

> <ROCS_Rank>
227                 

$$$$
untitled-dbase-30682_4
  -OEChem-11132313473D

 36 37  0     0  0  0  0  0  0999 V2000
    7.7337   13.3265   24.9811 C   0  0  0  0  0  0  0  0  0  0  0  0
    6.6175   13.2377   25.8196 C   0  0  0  0  0  0  0  0  0  0  0  0
    6.5951   10.8496   25.5464 C   0  0  0  0  0  0  0  0  0  0  0  0
    7.7163   10.9362   24.7074 C   0  0  0  0  0  0  0  0  0  0  0  0
    8.3106   12.1793   24.4115 C   0  0  0  0  0  0  0  0  0  0  0  0
    6.0493   12.0019   26.1023 C   0  0  0  0  0  0  0  0  0  0  0  0
    8.2958    9.6750   24.1856 C   0  0  0  0  0  0  0  0  0  0  0  0
   10.2881   13.3715   23.4408 C   0  0  0  0  0  0  0  0  0  0  0  0
    9.5711    9.7809   23.3990 C   0  0  0  0  0  0  0  0  0  0  0  0
    9.6226   11.0885   22.6370 C   0  0  0  0  0  0  0  0  0  0  0  0
   12.8933   14.4603   22.9370 C   0  0  0  0  0  0  0  0  0  0  0  0
   12.1454   14.6601   20.5475 C   0  0  0  0  0  0  0  0  0  0  0  0
   10.9493   15.9447   22.3439 C   0  0  0  0  0  0  0  0  0  0  0  0
   11.6966   14.6552   22.0072 C   0  0  0  0  0  0  0  0  0  0  0  0
    9.4372   12.2513   23.5179 N   0  0  0  0  0  0  0  0  0  0  0  0
    7.7849    8.5886   24.4380 O   0  0  0  0  0  0  0  0  0  0  0  0
   10.5816   14.1180   24.3717 O   0  0  0  0  0  0  0  0  0  0  0  0
    4.9628   11.9200   26.9166 O   0  0  0  0  0  0  0  0  0  0  0  0
   10.8007   13.5505   22.1796 O   0  0  0  0  0  0  0  0  0  0  0  0
    8.0944   14.3254   24.7607 H   0  0  0  0  0  0  0  0  0  0  0  0
    6.1906   14.1454   26.2385 H   0  0  0  0  0  0  0  0  0  0  0  0
    6.1437    9.8887   25.7812 H   0  0  0  0  0  0  0  0  0  0  0  0
   10.4177    9.6879   24.0878 H   0  0  0  0  0  0  0  0  0  0  0  0
    9.6102    8.9486   22.6878 H   0  0  0  0  0  0  0  0  0  0  0  0
   10.5751   11.1406   22.1016 H   0  0  0  0  0  0  0  0  0  0  0  0
    8.8266   11.1314   21.8821 H   0  0  0  0  0  0  0  0  0  0  0  0
   12.5754   14.4562   23.9857 H   0  0  0  0  0  0  0  0  0  0  0  0
   13.4173   13.5217   22.7288 H   0  0  0  0  0  0  0  0  0  0  0  0
   13.6072   15.2855   22.8337 H   0  0  0  0  0  0  0  0  0  0  0  0
   11.2899   14.7997   19.8767 H   0  0  0  0  0  0  0  0  0  0  0  0
   12.5978   13.6997   20.2750 H   0  0  0  0  0  0  0  0  0  0  0  0
   12.8730   15.4542   20.3512 H   0  0  0  0  0  0  0  0  0  0  0  0
   10.0908   16.0847   21.6771 H   0  0  0  0  0  0  0  0  0  0  0  0
   10.5876   15.9431   23.3773 H   0  0  0  0  0  0  0  0  0  0  0  0
   11.5962   16.8181   22.2027 H   0  0  0  0  0  0  0  0  0  0  0  0
    4.7019   12.8043   27.2206 H   0  0  0  0  0  0  0  0  0  0  0  0
  1  2  1  0  0  0  0
  1  5  2  0  0  0  0
  2  6  2  0  0  0  0
  3  4  2  0  0  0  0
  3  6  1  0  0  0  0
  4  5  1  0  0  0  0
  4  7  1  0  0  0  0
  5 15  1  0  0  0  0
  6 18  1  0  0  0  0
  7  9  1  0  0  0  0
  7 16  2  0  0  0  0
  8 15  1  0  0  0  0
  8 17  2  0  0  0  0
  8 19  1  0  0  0  0
  9 10  1  0  0  0  0
 10 15  1  0  0  0  0
 11 14  1  0  0  0  0
 12 14  1  0  0  0  0
 13 14  1  0  0  0  0
 14 19  1  0  0  0  0
  1 20  1  0  0  0  0
  2 21  1  0  0  0  0
  3 22  1  0  0  0  0
  9 23  1  0  0  0  0
  9 24  1  0  0  0  0
 10 25  1  0  0  0  0
 10 26  1  0  0  0  0
 11 27  1  0  0  0  0
 11 28  1  0  0  0  0
 11 29  1  0  0  0  0
 12 30  1  0  0  0  0
 12 31  1  0  0  0  0
 12 32  1  0  0  0  0
 13 33  1  0  0  0  0
 13 34  1  0  0  0  0
 13 35  1  0  0  0  0
 18 36  1  0  0  0  0
M  END
> <id>
EN300-26664703

> <smiles>
CC(C)(C)OC(=O)N1CCC(=O)C=2C=C(O)C=CC12

> <IUPAC Name>
tert-butyl 6-hydroxy-4-oxo-1,2,3,4-tetrahydroquinoline-1-carboxylate

> <CAS>
2413897-76-2

> <Purity>
95

> <URL>
https://www.enaminestore.com/catalog/EN300-26664703

> <ROCS_ShapeQuery>
A71EV2A-x0451_0A_A71EV2A-x0310_0A_A71EV2A-x0416_0A_peptide

> <ROCS_TanimotoCombo>
0.488 

> <ROCS_ShapeTanimoto>
0.356 

> <ROCS_ColorTanimoto>
0.133 

> <ROCS_RefTversky>
0.307 

> <ROCS_RefColorTversky>
0.149 

> <ROCS_RefTverskyCombo>
0.456 

> <ROCS_FitTversky>
1.810 

> <ROCS_FitColorTversky>
0.550 

> <ROCS_FitTverskyCombo>
2.360 

> <ROCS_ColorScore>
-4.535

> <ROCS_Overlap>
2128.691

> <ROCS_Rank>
228                 

$$$$
untitled-dbase-44810_23
  -OEChem-11132313473D

 31 32  0     0  0  0  0  0  0999 V2000
    6.6366   10.5877   25.3593 C   0  0  0  0  0  0  0  0  0  0  0  0
    5.9505   11.6740   25.9103 C   0  0  0  0  0  0  0  0  0  0  0  0
    7.6763   13.2114   25.1552 C   0  0  0  0  0  0  0  0  0  0  0  0
    7.8562   10.8193   24.6992 C   0  0  0  0  0  0  0  0  0  0  0  0
    8.3589   12.1161   24.6044 C   0  0  0  0  0  0  0  0  0  0  0  0
    6.4641   12.9646   25.8089 C   0  0  0  0  0  0  0  0  0  0  0  0
    8.8073   10.0209   24.0406 C   0  0  0  0  0  0  0  0  0  0  0  0
   10.4471   13.0197   23.5484 C   0  0  0  0  0  0  0  0  0  0  0  0
   12.4242   14.6878   22.3859 C   0  0  0  0  0  0  0  0  0  0  0  0
   12.1798   13.2414   20.3470 C   0  0  0  0  0  0  0  0  0  0  0  0
   10.2188   14.5721   21.1786 C   0  0  0  0  0  0  0  0  0  0  0  0
   11.4752   13.8012   21.5808 C   0  0  0  0  0  0  0  0  0  0  0  0
    9.8314   10.7231   23.5617 N   0  0  0  0  0  0  0  0  0  0  0  0
    9.5549   12.0060   23.9075 N   0  0  0  0  0  0  0  0  0  0  0  0
   10.5713   14.0238   24.2301 O   0  0  0  0  0  0  0  0  0  0  0  0
    8.7968    8.6940   23.8508 O   0  0  0  0  0  0  0  0  0  0  0  0
   11.0873   12.6915   22.3962 O   0  0  0  0  0  0  0  0  0  0  0  0
    5.7866   13.9887   26.3463 F   0  0  0  0  0  0  0  0  0  0  0  0
    6.2279    9.5850   25.4441 H   0  0  0  0  0  0  0  0  0  0  0  0
    5.0069   11.5085   26.4232 H   0  0  0  0  0  0  0  0  0  0  0  0
    8.0597   14.2231   25.0869 H   0  0  0  0  0  0  0  0  0  0  0  0
   11.9222   15.0916   23.2724 H   0  0  0  0  0  0  0  0  0  0  0  0
   13.3131   14.1371   22.7103 H   0  0  0  0  0  0  0  0  0  0  0  0
   12.7488   15.5514   21.7943 H   0  0  0  0  0  0  0  0  0  0  0  0
   11.5027   12.6045   19.7663 H   0  0  0  0  0  0  0  0  0  0  0  0
   13.0274   12.6088   20.6349 H   0  0  0  0  0  0  0  0  0  0  0  0
   12.5488   14.0399   19.6953 H   0  0  0  0  0  0  0  0  0  0  0  0
    9.5380   13.9363   20.6011 H   0  0  0  0  0  0  0  0  0  0  0  0
    9.6801   14.9500   22.0536 H   0  0  0  0  0  0  0  0  0  0  0  0
   10.4723   15.4205   20.5326 H   0  0  0  0  0  0  0  0  0  0  0  0
    8.0006    8.2836   24.2430 H   0  0  0  0  0  0  0  0  0  0  0  0
  1  2  1  0  0  0  0
  1  4  2  0  0  0  0
  2  6  2  0  0  0  0
  3  5  2  0  0  0  0
  3  6  1  0  0  0  0
  4  5  1  0  0  0  0
  4  7  1  0  0  0  0
  5 14  1  0  0  0  0
  6 18  1  0  0  0  0
  7 13  2  0  0  0  0
  7 16  1  0  0  0  0
  8 14  1  0  0  0  0
  8 15  2  0  0  0  0
  8 17  1  0  0  0  0
  9 12  1  0  0  0  0
 10 12  1  0  0  0  0
 11 12  1  0  0  0  0
 12 17  1  0  0  0  0
 13 14  1  0  0  0  0
  1 19  1  0  0  0  0
  2 20  1  0  0  0  0
  3 21  1  0  0  0  0
  9 22  1  0  0  0  0
  9 23  1  0  0  0  0
  9 24  1  0  0  0  0
 10 25  1  0  0  0  0
 10 26  1  0  0  0  0
 10 27  1  0  0  0  0
 11 28  1  0  0  0  0
 11 29  1  0  0  0  0
 11 30  1  0  0  0  0
 16 31  1  0  0  0  0
M  END
> <id>
EN300-28262914

> <smiles>
CC(C)(C)OC(=O)N1N=C(O)C=2C=CC(F)=CC12

> <IUPAC Name>
tert-butyl 6-fluoro-3-hydroxy-1H-indazole-1-carboxylate

> <CAS>
2680704-41-8

> <URL>
https://www.enaminestore.com/catalog/EN300-28262914

> <ROCS_ShapeQuery>
A71EV2A-x0451_0A_A71EV2A-x0310_0A_A71EV2A-x0416_0A_peptide

> <ROCS_TanimotoCombo>
0.488 

> <ROCS_ShapeTanimoto>
0.338 

> <ROCS_ColorTanimoto>
0.150 

> <ROCS_RefTversky>
0.295 

> <ROCS_RefColorTversky>
0.166 

> <ROCS_RefTverskyCombo>
0.461 

> <ROCS_FitTversky>
1.773 

> <ROCS_FitColorTversky>
0.613 

> <ROCS_FitTverskyCombo>
2.386 

> <ROCS_ColorScore>
-5.063

> <ROCS_Overlap>
2043.208

> <ROCS_Rank>
229                 

$$$$
untitled-dbase-46223_0
  -OEChem-11132313473D

 29 31  0     0  0  0  0  0  0999 V2000
    9.8275   13.1825   24.2374 C   0  0  0  0  0  0  0  0  0  0  0  0
    6.1874   13.6146   26.7597 C   0  0  0  0  0  0  0  0  0  0  0  0
    9.0575   11.3145   22.6116 C   0  0  0  0  0  0  0  0  0  0  0  0
   10.1363   10.6078   24.2629 C   0  0  0  0  0  0  0  0  0  0  0  0
    7.8636   11.7085   26.2577 C   0  0  0  0  0  0  0  0  0  0  0  0
    6.7536   12.4359   24.5583 C   0  0  0  0  0  0  0  0  0  0  0  0
    9.2430   11.8887   24.0654 C   0  0  0  0  0  0  0  0  0  0  0  0
    7.9070   11.4470   24.7492 C   0  0  0  0  0  0  0  0  0  0  0  0
    8.9126    9.9889   23.4682 C   0  0  0  0  0  0  0  0  0  0  0  0
    6.5765   13.5851   28.2135 C   0  0  0  0  0  0  0  0  0  0  0  0
    9.0489    8.6482   22.8055 C   0  0  0  0  0  0  0  0  0  0  0  0
   10.3018   14.2321   24.3770 N   0  0  0  0  0  0  0  0  0  0  0  0
    6.8514   12.7089   25.9795 N   0  0  0  0  0  0  0  0  0  0  0  0
    5.3414   14.4016   26.3377 O   0  0  0  0  0  0  0  0  0  0  0  0
    7.7058   10.0804   24.2956 O   0  0  0  0  0  0  0  0  0  0  0  0
    8.1597   11.6296   22.0715 H   0  0  0  0  0  0  0  0  0  0  0  0
    9.9204   11.3735   21.9380 H   0  0  0  0  0  0  0  0  0  0  0  0
   11.1089   10.5950   23.7571 H   0  0  0  0  0  0  0  0  0  0  0  0
   10.2624   10.2520   25.2900 H   0  0  0  0  0  0  0  0  0  0  0  0
    7.4857   10.8790   26.8624 H   0  0  0  0  0  0  0  0  0  0  0  0
    8.7691   12.1166   26.7141 H   0  0  0  0  0  0  0  0  0  0  0  0
    6.9475   13.3115   23.9333 H   0  0  0  0  0  0  0  0  0  0  0  0
    5.7961   11.9868   24.2788 H   0  0  0  0  0  0  0  0  0  0  0  0
    7.4016   14.2719   28.3768 H   0  0  0  0  0  0  0  0  0  0  0  0
    6.8770   12.5768   28.4833 H   0  0  0  0  0  0  0  0  0  0  0  0
    5.7243   13.8817   28.8180 H   0  0  0  0  0  0  0  0  0  0  0  0
    8.9229    7.8345   23.5314 H   0  0  0  0  0  0  0  0  0  0  0  0
   10.0379    8.5355   22.3428 H   0  0  0  0  0  0  0  0  0  0  0  0
    8.2934    8.5177   22.0199 H   0  0  0  0  0  0  0  0  0  0  0  0
  1  7  1  0  0  0  0
  1 12  3  0  0  0  0
  2 10  1  0  0  0  0
  2 13  1  0  0  0  0
  2 14  2  0  0  0  0
  3  7  1  0  0  0  0
  3  9  1  0  0  0  0
  4  7  1  0  0  0  0
  4  9  1  0  0  0  0
  5  8  1  0  0  0  0
  5 13  1  0  0  0  0
  6  8  1  0  0  0  0
  6 13  1  0  0  0  0
  7  8  1  0  0  0  0
  8 15  1  0  0  0  0
  9 11  1  0  0  0  0
  9 15  1  0  0  0  0
  3 16  1  0  0  0  0
  3 17  1  0  0  0  0
  4 18  1  0  0  0  0
  4 19  1  0  0  0  0
  5 20  1  0  0  0  0
  5 21  1  0  0  0  0
  6 22  1  0  0  0  0
  6 23  1  0  0  0  0
 10 24  1  0  0  0  0
 10 25  1  0  0  0  0
 10 26  1  0  0  0  0
 11 27  1  0  0  0  0
 11 28  1  0  0  0  0
 11 29  1  0  0  0  0
M  END
> <id>
EN300-28272616

> <smiles>
CC(=O)N1CC2(C1)OC3(C)CC2(C3)C#N

> <IUPAC Name>
1-acetyl-4'-methyl-3'-oxaspiro[azetidine-3,2'-bicyclo[2.1.1]hexane]-1'-carbonitrile

> <CAS>
2680681-66-5

> <URL>
https://www.enaminestore.com/catalog/EN300-28272616

> <ROCS_ShapeQuery>
A71EV2A-x0451_0A_A71EV2A-x0310_0A_A71EV2A-x0416_0A_peptide

> <ROCS_TanimotoCombo>
0.488 

> <ROCS_ShapeTanimoto>
0.251 

> <ROCS_ColorTanimoto>
0.237 

> <ROCS_RefTversky>
0.230 

> <ROCS_RefColorTversky>
0.266 

> <ROCS_RefTverskyCombo>
0.496 

> <ROCS_FitTversky>
1.578 

> <ROCS_FitColorTversky>
0.689 

> <ROCS_FitTverskyCombo>
2.267 

> <ROCS_ColorScore>
-8.155

> <ROCS_Overlap>
1591.692

> <ROCS_Rank>
230                 

$$$$
untitled-dbase-36419_135
  -OEChem-11132313473D

 44 45  0     0  0  0  0  0  0999 V2000
   10.6916   13.0020   23.6313 C   0  0  0  0  0  0  0  0  0  0  0  0
    6.1474   11.0861   24.2866 C   0  0  0  0  0  0  0  0  0  0  0  0
    7.9950   11.5050   25.9733 C   0  0  0  0  0  0  0  0  0  0  0  0
   10.2245   10.5984   23.2223 C   0  0  0  0  0  0  0  0  0  0  0  0
    8.3203   12.1263   23.4919 C   0  0  0  0  0  0  0  0  0  0  0  0
    9.5577    9.6446   24.2002 C   0  0  0  0  0  0  0  0  0  0  0  0
    5.4021   12.3719   24.6073 C   0  0  0  0  0  0  0  0  0  0  0  0
    7.4054   12.8236   26.4544 C   0  0  0  0  0  0  0  0  0  0  0  0
    7.6779   11.1495   24.4996 C   0  0  0  0  0  0  0  0  0  0  0  0
   12.3141   15.1397   22.6375 C   0  0  0  0  0  0  0  0  0  0  0  0
   13.4845   13.3756   21.2857 C   0  0  0  0  0  0  0  0  0  0  0  0
   11.0429   13.8267   20.9070 C   0  0  0  0  0  0  0  0  0  0  0  0
   12.1679   13.7879   21.9404 C   0  0  0  0  0  0  0  0  0  0  0  0
    5.0512   11.7908   27.2067 N   0  0  0  0  0  0  0  0  0  0  0  0
    9.7752   11.9623   23.4696 N   0  0  0  0  0  0  0  0  0  0  0  0
   10.4938   13.9978   24.3248 O   0  0  0  0  0  0  0  0  0  0  0  0
    5.2722   14.2958   26.3508 O   0  0  0  0  0  0  0  0  0  0  0  0
    8.1392    9.8096   24.2044 O   0  0  0  0  0  0  0  0  0  0  0  0
   11.8478   12.7992   22.9258 O   0  0  0  0  0  0  0  0  0  0  0  0
    5.6365   12.8907   26.2920 S   0  0  0  0  0  0  0  0  0  0  0  0
    5.7247   10.2952   24.9294 H   0  0  0  0  0  0  0  0  0  0  0  0
    5.9328   10.7847   23.2470 H   0  0  0  0  0  0  0  0  0  0  0  0
    9.0904   11.5231   26.1120 H   0  0  0  0  0  0  0  0  0  0  0  0
    7.6314   10.7135   26.6486 H   0  0  0  0  0  0  0  0  0  0  0  0
   11.3132   10.5195   23.2886 H   0  0  0  0  0  0  0  0  0  0  0  0
    9.9281   10.3536   22.1961 H   0  0  0  0  0  0  0  0  0  0  0  0
    7.9834   11.8994   22.4736 H   0  0  0  0  0  0  0  0  0  0  0  0
    8.0326   13.1577   23.7105 H   0  0  0  0  0  0  0  0  0  0  0  0
    9.7635    8.6113   23.9010 H   0  0  0  0  0  0  0  0  0  0  0  0
    9.9546    9.7641   25.2140 H   0  0  0  0  0  0  0  0  0  0  0  0
    5.7608   13.1883   23.9666 H   0  0  0  0  0  0  0  0  0  0  0  0
    4.3238   12.2574   24.4352 H   0  0  0  0  0  0  0  0  0  0  0  0
    7.6585   13.0077   27.5097 H   0  0  0  0  0  0  0  0  0  0  0  0
    7.8143   13.6579   25.8642 H   0  0  0  0  0  0  0  0  0  0  0  0
   11.3712   15.4392   23.1087 H   0  0  0  0  0  0  0  0  0  0  0  0
   13.0942   15.1152   23.4054 H   0  0  0  0  0  0  0  0  0  0  0  0
   12.5630   15.9266   21.9164 H   0  0  0  0  0  0  0  0  0  0  0  0
   13.3841   12.4062   20.7843 H   0  0  0  0  0  0  0  0  0  0  0  0
   14.2729   13.2541   22.0373 H   0  0  0  0  0  0  0  0  0  0  0  0
   13.8182   14.1138   20.5494 H   0  0  0  0  0  0  0  0  0  0  0  0
   10.9378   12.8571   20.4068 H   0  0  0  0  0  0  0  0  0  0  0  0
   10.0828   14.0849   21.3655 H   0  0  0  0  0  0  0  0  0  0  0  0
   11.2613   14.5582   20.1206 H   0  0  0  0  0  0  0  0  0  0  0  0
    5.1345   11.9906   28.2077 H   0  0  0  0  0  0  0  0  0  0  0  0
  1 15  1  0  0  0  0
  1 16  2  0  0  0  0
  1 19  1  0  0  0  0
  2  7  1  0  0  0  0
  2  9  1  0  0  0  0
  3  8  1  0  0  0  0
  3  9  1  0  0  0  0
  4  6  1  0  0  0  0
  4 15  1  0  0  0  0
  5  9  1  0  0  0  0
  5 15  1  0  0  0  0
  6 18  1  0  0  0  0
  7 20  1  0  0  0  0
  8 20  1  0  0  0  0
  9 18  1  0  0  0  0
 10 13  1  0  0  0  0
 11 13  1  0  0  0  0
 12 13  1  0  0  0  0
 13 19  1  0  0  0  0
 14 20  2  0  0  0  0
 17 20  2  0  0  0  0
  2 21  1  0  0  0  0
  2 22  1  0  0  0  0
  3 23  1  0  0  0  0
  3 24  1  0  0  0  0
  4 25  1  0  0  0  0
  4 26  1  0  0  0  0
  5 27  1  0  0  0  0
  5 28  1  0  0  0  0
  6 29  1  0  0  0  0
  6 30  1  0  0  0  0
  7 31  1  0  0  0  0
  7 32  1  0  0  0  0
  8 33  1  0  0  0  0
  8 34  1  0  0  0  0
 10 35  1  0  0  0  0
 10 36  1  0  0  0  0
 10 37  1  0  0  0  0
 11 38  1  0  0  0  0
 11 39  1  0  0  0  0
 11 40  1  0  0  0  0
 12 41  1  0  0  0  0
 12 42  1  0  0  0  0
 12 43  1  0  0  0  0
 14 44  1  0  0  0  0
M  END
> <id>
EN300-6731762

> <smiles>
CC(C)(C)OC(=O)N1CCOC2(CCS(=N)(=O)CC2)C1

> <MDLNUMBER>
MFCD31745895

> <IUPAC Name>
tert-butyl 9-imino-9-oxo-1-oxa-9lambda6-thia-4-azaspiro[5.5]undecane-4-carboxylate

> <CAS>
2287268-42-0

> <Purity>
95

> <URL>
https://www.enaminestore.com/catalog/EN300-6731762

> <ROCS_ShapeQuery>
A71EV2A-x0451_0A_A71EV2A-x0310_0A_A71EV2A-x0416_0A_peptide

> <ROCS_TanimotoCombo>
0.488 

> <ROCS_ShapeTanimoto>
0.316 

> <ROCS_ColorTanimoto>
0.172 

> <ROCS_RefTversky>
0.281 

> <ROCS_RefColorTversky>
0.182 

> <ROCS_RefTverskyCombo>
0.463 

> <ROCS_FitTversky>
1.659 

> <ROCS_FitColorTversky>
0.759 

> <ROCS_FitTverskyCombo>
2.418 

> <ROCS_ColorScore>
-5.533

> <ROCS_Overlap>
1949.464

> <ROCS_Rank>
231                 

$$$$
untitled-dbase-34838_13
  -OEChem-11132313473D

 38 39  0     1  0  0  0  0  0999 V2000
    9.7871   13.3271   23.6042 C   0  0  0  0  0  0  0  0  0  0  0  0
    7.9099   11.1396   25.7409 C   0  0  0  0  0  0  0  0  0  0  0  0
    6.9102   11.3911   24.5930 C   0  0  0  0  0  0  0  0  0  0  0  0
    9.9009   10.1327   24.4830 C   0  0  0  0  0  0  0  0  0  0  0  0
    8.2276   10.5571   22.5610 C   0  0  0  0  0  0  0  0  0  0  0  0
    9.2890   11.3950   25.1250 C   0  0  1  0  0  0  0  0  0  0  0  0
    7.7786   11.7776   23.3908 C   0  0  2  0  0  0  0  0  0  0  0  0
    9.0187    9.4993   23.3748 C   0  0  0  0  0  0  0  0  0  0  0  0
   11.9054   13.0487   21.7059 C   0  0  0  0  0  0  0  0  0  0  0  0
   10.3988   14.2843   20.1207 C   0  0  0  0  0  0  0  0  0  0  0  0
   11.1920   15.4062   22.2231 C   0  0  0  0  0  0  0  0  0  0  0  0
   10.7841   14.0795   21.5842 C   0  0  0  0  0  0  0  0  0  0  0  0
    8.9718   12.2999   24.0368 N   0  0  0  0  0  0  0  0  0  0  0  0
    8.0987    8.5187   23.9596 N   0  0  0  0  0  0  0  0  0  0  0  0
   10.5653   13.9430   24.3289 O   0  0  0  0  0  0  0  0  0  0  0  0
    9.6297   13.5799   22.2683 O   0  0  0  0  0  0  0  0  0  0  0  0
    7.7179   11.8611   26.5443 H   0  0  0  0  0  0  0  0  0  0  0  0
    7.8075   10.1390   26.1710 H   0  0  0  0  0  0  0  0  0  0  0  0
    6.2686   10.5261   24.4016 H   0  0  0  0  0  0  0  0  0  0  0  0
    6.2563   12.2277   24.8681 H   0  0  0  0  0  0  0  0  0  0  0  0
   10.8639   10.4094   24.0320 H   0  0  0  0  0  0  0  0  0  0  0  0
   10.1383    9.3955   25.2604 H   0  0  0  0  0  0  0  0  0  0  0  0
    7.3599   10.1001   22.0685 H   0  0  0  0  0  0  0  0  0  0  0  0
    8.8762   10.9142   21.7492 H   0  0  0  0  0  0  0  0  0  0  0  0
    9.9910   11.8438   25.8347 H   0  0  0  0  0  0  0  0  0  0  0  0
    7.2949   12.5211   22.7507 H   0  0  0  0  0  0  0  0  0  0  0  0
    9.6680    8.9442   22.6870 H   0  0  0  0  0  0  0  0  0  0  0  0
   12.1848   12.8989   22.7549 H   0  0  0  0  0  0  0  0  0  0  0  0
   11.6126   12.0823   21.2826 H   0  0  0  0  0  0  0  0  0  0  0  0
   12.8099   13.3922   21.1911 H   0  0  0  0  0  0  0  0  0  0  0  0
    9.5945   15.0231   20.0287 H   0  0  0  0  0  0  0  0  0  0  0  0
   10.0155   13.3548   19.6843 H   0  0  0  0  0  0  0  0  0  0  0  0
   11.2507   14.6228   19.5222 H   0  0  0  0  0  0  0  0  0  0  0  0
   10.3878   16.1458   22.1360 H   0  0  0  0  0  0  0  0  0  0  0  0
   11.4365   15.2850   23.2834 H   0  0  0  0  0  0  0  0  0  0  0  0
   12.0620   15.8338   21.7118 H   0  0  0  0  0  0  0  0  0  0  0  0
    7.5825    8.1065   23.2212 H   0  0  0  0  0  0  0  0  0  0  0  0
    8.6403    7.8395   24.4362 H   0  0  0  0  0  0  0  0  0  0  0  0
  1 13  1  0  0  0  0
  1 15  2  0  0  0  0
  1 16  1  0  0  0  0
  2  3  1  0  0  0  0
  2  6  1  1  0  0  0
  3  7  1  1  0  0  0
  4  6  1  0  0  0  0
  4  8  1  0  0  0  0
  5  7  1  0  0  0  0
  5  8  1  0  0  0  0
  6 13  1  0  0  0  0
  7 13  1  0  0  0  0
  8 14  1  1  0  0  0
  9 12  1  0  0  0  0
 10 12  1  0  0  0  0
 11 12  1  0  0  0  0
 12 16  1  0  0  0  0
  2 17  1  0  0  0  0
  2 18  1  0  0  0  0
  3 19  1  0  0  0  0
  3 20  1  0  0  0  0
  4 21  1  0  0  0  0
  4 22  1  0  0  0  0
  5 23  1  0  0  0  0
  5 24  1  0  0  0  0
  6 25  1  0  0  0  0
  7 26  1  0  0  0  0
  8 27  1  0  0  0  0
  9 28  1  0  0  0  0
  9 29  1  0  0  0  0
  9 30  1  0  0  0  0
 10 31  1  0  0  0  0
 10 32  1  0  0  0  0
 10 33  1  0  0  0  0
 11 34  1  0  0  0  0
 11 35  1  0  0  0  0
 11 36  1  0  0  0  0
 14 37  1  0  0  0  0
 14 38  1  0  0  0  0
M  END
> <id>
EN300-268846

> <smiles>
CC(C)(C)OC(=O)N1[C@H]2CC[C@@H]1C[C@H](N)C2

> <MDLNUMBER>
MFCD18428077

> <IUPAC Name>
tert-butyl (1R,3R,5S)-3-amino-8-azabicyclo[3.2.1]octane-8-carboxylate

> <CAS>
207405-68-3

> <Purity>
95

> <URL>
https://www.enaminestore.com/catalog/EN300-268846

> <ROCS_ShapeQuery>
A71EV2A-x0451_0A_A71EV2A-x0310_0A_A71EV2A-x0416_0A_peptide

> <ROCS_TanimotoCombo>
0.488 

> <ROCS_ShapeTanimoto>
0.268 

> <ROCS_ColorTanimoto>
0.221 

> <ROCS_RefTversky>
0.243 

> <ROCS_RefColorTversky>
0.245 

> <ROCS_RefTverskyCombo>
0.488 

> <ROCS_FitTversky>
1.628 

> <ROCS_FitColorTversky>
0.688 

> <ROCS_FitTverskyCombo>
2.316 

> <ROCS_ColorScore>
-7.504

> <ROCS_Overlap>
1681.053

> <ROCS_Rank>
232                 

$$$$
untitled-dbase-18282_7
  -OEChem-11132313473D

 30 31  0     0  0  0  0  0  0999 V2000
    6.8261   12.5530   25.9913 C   0  0  0  0  0  0  0  0  0  0  0  0
    6.3856   11.2491   25.8445 C   0  0  0  0  0  0  0  0  0  0  0  0
    9.8413   10.8350   23.0334 C   0  0  0  0  0  0  0  0  0  0  0  0
    8.0488   10.7285   24.3711 C   0  0  0  0  0  0  0  0  0  0  0  0
    8.5701   12.0228   24.4521 C   0  0  0  0  0  0  0  0  0  0  0  0
    7.9491   12.9670   25.2815 C   0  0  0  0  0  0  0  0  0  0  0  0
    8.8523    9.9914   23.4794 C   0  0  0  0  0  0  0  0  0  0  0  0
   10.5052   13.2018   23.4018 C   0  0  0  0  0  0  0  0  0  0  0  0
   12.2924   15.1850   22.4416 C   0  0  0  0  0  0  0  0  0  0  0  0
   11.8725   14.1970   20.1708 C   0  0  0  0  0  0  0  0  0  0  0  0
    9.9736   15.2128   21.4633 C   0  0  0  0  0  0  0  0  0  0  0  0
   11.2892   14.4417   21.5608 C   0  0  0  0  0  0  0  0  0  0  0  0
    6.9542   10.3125   25.0579 N   0  0  0  0  0  0  0  0  0  0  0  0
    9.6852   12.0827   23.6169 N   0  0  0  0  0  0  0  0  0  0  0  0
   10.6747   14.0438   24.2682 O   0  0  0  0  0  0  0  0  0  0  0  0
   11.0260   13.1642   22.1488 O   0  0  0  0  0  0  0  0  0  0  0  0
    8.4766   14.5679   25.6149 Cl  0  0  0  0  0  0  0  0  0  0  0  0
    8.6170    8.0360   22.9247 I   0  0  0  0  0  0  0  0  0  0  0  0
    6.2972   13.2208   26.6653 H   0  0  0  0  0  0  0  0  0  0  0  0
    5.5126   10.9068   26.3932 H   0  0  0  0  0  0  0  0  0  0  0  0
   10.6381   10.6389   22.3271 H   0  0  0  0  0  0  0  0  0  0  0  0
   11.8775   15.3627   23.4402 H   0  0  0  0  0  0  0  0  0  0  0  0
   13.2277   14.6258   22.5481 H   0  0  0  0  0  0  0  0  0  0  0  0
   12.5245   16.1712   22.0234 H   0  0  0  0  0  0  0  0  0  0  0  0
   11.1560   13.6638   19.5354 H   0  0  0  0  0  0  0  0  0  0  0  0
   12.7651   13.5636   20.2281 H   0  0  0  0  0  0  0  0  0  0  0  0
   12.1440   15.1349   19.6757 H   0  0  0  0  0  0  0  0  0  0  0  0
    9.2539   14.6798   20.8315 H   0  0  0  0  0  0  0  0  0  0  0  0
    9.5217   15.3656   22.4487 H   0  0  0  0  0  0  0  0  0  0  0  0
   10.1295   16.1919   20.9961 H   0  0  0  0  0  0  0  0  0  0  0  0
  1  2  2  0  0  0  0
  1  6  1  0  0  0  0
  2 13  1  0  0  0  0
  3  7  2  0  0  0  0
  3 14  1  0  0  0  0
  4  5  1  0  0  0  0
  4  7  1  0  0  0  0
  4 13  2  0  0  0  0
  5  6  2  0  0  0  0
  5 14  1  0  0  0  0
  6 17  1  0  0  0  0
  7 18  1  0  0  0  0
  8 14  1  0  0  0  0
  8 15  2  0  0  0  0
  8 16  1  0  0  0  0
  9 12  1  0  0  0  0
 10 12  1  0  0  0  0
 11 12  1  0  0  0  0
 12 16  1  0  0  0  0
  1 19  1  0  0  0  0
  2 20  1  0  0  0  0
  3 21  1  0  0  0  0
  9 22  1  0  0  0  0
  9 23  1  0  0  0  0
  9 24  1  0  0  0  0
 10 25  1  0  0  0  0
 10 26  1  0  0  0  0
 10 27  1  0  0  0  0
 11 28  1  0  0  0  0
 11 29  1  0  0  0  0
 11 30  1  0  0  0  0
M  END
> <id>
EN300-1589228

> <smiles>
CC(C)(C)OC(=O)N1C=C(I)C=2N=CC=C(Cl)C12

> <IUPAC Name>
tert-butyl 7-chloro-3-iodo-1H-pyrrolo[3,2-b]pyridine-1-carboxylate

> <CAS>
1682655-08-8

> <URL>
https://www.enaminestore.com/catalog/EN300-1589228

> <ROCS_ShapeQuery>
A71EV2A-x0451_0A_A71EV2A-x0310_0A_A71EV2A-x0416_0A_peptide

> <ROCS_TanimotoCombo>
0.488 

> <ROCS_ShapeTanimoto>
0.335 

> <ROCS_ColorTanimoto>
0.153 

> <ROCS_RefTversky>
0.292 

> <ROCS_RefColorTversky>
0.165 

> <ROCS_RefTverskyCombo>
0.456 

> <ROCS_FitTversky>
1.796 

> <ROCS_FitColorTversky>
0.686 

> <ROCS_FitTverskyCombo>
2.483 

> <ROCS_ColorScore>
-5.014

> <ROCS_Overlap>
2022.590

> <ROCS_Rank>
233                 

$$$$
untitled-dbase-23411_8
  -OEChem-11132313473D

 39 40  0     1  0  0  0  0  0999 V2000
   10.5606   13.1498   23.4136 C   0  0  0  0  0  0  0  0  0  0  0  0
    7.2486   10.6690   26.2319 C   0  0  0  0  0  0  0  0  0  0  0  0
    6.0140   11.4054   25.7140 C   0  0  0  0  0  0  0  0  0  0  0  0
    9.4519   11.0954   22.5932 C   0  0  0  0  0  0  0  0  0  0  0  0
    7.3492   12.8180   24.2821 C   0  0  0  0  0  0  0  0  0  0  0  0
    9.1489    9.7388   23.2071 C   0  0  0  0  0  0  0  0  0  0  0  0
    8.6523   12.1272   24.7251 C   0  0  1  0  0  0  0  0  0  0  0  0
    8.3996   10.6955   25.2242 C   0  0  2  0  0  0  0  0  0  0  0  0
   12.6111   14.9603   22.5725 C   0  0  0  0  0  0  0  0  0  0  0  0
   12.3545   13.9069   20.3067 C   0  0  0  0  0  0  0  0  0  0  0  0
   10.4212   15.1298   21.3435 C   0  0  0  0  0  0  0  0  0  0  0  0
   11.6486   14.2607   21.6138 C   0  0  0  0  0  0  0  0  0  0  0  0
    6.3385   12.7817   25.3411 N   0  0  0  0  0  0  0  0  0  0  0  0
    9.6291   12.1246   23.6179 N   0  0  0  0  0  0  0  0  0  0  0  0
   10.7794   14.0566   24.2149 O   0  0  0  0  0  0  0  0  0  0  0  0
    8.0636    9.8373   24.1282 O   0  0  0  0  0  0  0  0  0  0  0  0
   11.2160   13.0355   22.2160 O   0  0  0  0  0  0  0  0  0  0  0  0
    7.5786   11.1336   27.1696 H   0  0  0  0  0  0  0  0  0  0  0  0
    6.9725    9.6322   26.4575 H   0  0  0  0  0  0  0  0  0  0  0  0
    5.5769   10.8728   24.8608 H   0  0  0  0  0  0  0  0  0  0  0  0
    5.2526   11.4236   26.5016 H   0  0  0  0  0  0  0  0  0  0  0  0
   10.3344   11.0344   21.9482 H   0  0  0  0  0  0  0  0  0  0  0  0
    8.6113   11.4206   21.9699 H   0  0  0  0  0  0  0  0  0  0  0  0
    7.5566   13.8668   24.0404 H   0  0  0  0  0  0  0  0  0  0  0  0
    6.9399   12.3559   23.3758 H   0  0  0  0  0  0  0  0  0  0  0  0
    8.8562    9.0333   22.4231 H   0  0  0  0  0  0  0  0  0  0  0  0
   10.0278    9.3226   23.7137 H   0  0  0  0  0  0  0  0  0  0  0  0
    9.0680   12.7024   25.5621 H   0  0  0  0  0  0  0  0  0  0  0  0
    9.2977   10.2974   25.7147 H   0  0  0  0  0  0  0  0  0  0  0  0
   12.1081   15.2160   23.5120 H   0  0  0  0  0  0  0  0  0  0  0  0
   13.4787   14.3332   22.8020 H   0  0  0  0  0  0  0  0  0  0  0  0
   12.9695   15.9046   22.1468 H   0  0  0  0  0  0  0  0  0  0  0  0
   11.6677   13.4047   19.6159 H   0  0  0  0  0  0  0  0  0  0  0  0
   13.1789   13.2071   20.4854 H   0  0  0  0  0  0  0  0  0  0  0  0
   12.7562   14.7965   19.8108 H   0  0  0  0  0  0  0  0  0  0  0  0
    9.7307   14.6282   20.6559 H   0  0  0  0  0  0  0  0  0  0  0  0
    9.8809   15.3631   22.2667 H   0  0  0  0  0  0  0  0  0  0  0  0
   10.7088   16.0709   20.8610 H   0  0  0  0  0  0  0  0  0  0  0  0
    5.4934   13.2481   25.0128 H   0  0  0  0  0  0  0  0  0  0  0  0
  1 14  1  0  0  0  0
  1 15  2  0  0  0  0
  1 17  1  0  0  0  0
  2  3  1  0  0  0  0
  2  8  1  6  0  0  0
  3 13  1  0  0  0  0
  4  6  1  0  0  0  0
  4 14  1  0  0  0  0
  5  7  1  6  0  0  0
  5 13  1  0  0  0  0
  6 16  1  0  0  0  0
  7  8  1  0  0  0  0
  7 14  1  0  0  0  0
  8 16  1  0  0  0  0
  9 12  1  0  0  0  0
 10 12  1  0  0  0  0
 11 12  1  0  0  0  0
 12 17  1  0  0  0  0
  2 18  1  0  0  0  0
  2 19  1  0  0  0  0
  3 20  1  0  0  0  0
  3 21  1  0  0  0  0
  4 22  1  0  0  0  0
  4 23  1  0  0  0  0
  5 24  1  0  0  0  0
  5 25  1  0  0  0  0
  6 26  1  0  0  0  0
  6 27  1  0  0  0  0
  7 28  1  0  0  0  0
  8 29  1  0  0  0  0
  9 30  1  0  0  0  0
  9 31  1  0  0  0  0
  9 32  1  0  0  0  0
 10 33  1  0  0  0  0
 10 34  1  0  0  0  0
 10 35  1  0  0  0  0
 11 36  1  0  0  0  0
 11 37  1  0  0  0  0
 11 38  1  0  0  0  0
 13 39  1  0  0  0  0
M  END
> <id>
EN300-6475228

> <smiles>
CC(C)(C)OC(=O)N1CCO[C@@H]2CCNC[C@@H]21 |o1:11,16,r|

> <IUPAC Name>
rel-tert-butyl (4aR,8aS)-octahydro-2H-pyrido[4,3-b]morpholine-4-carboxylate

> <CAS>
1821824-72-9

> <URL>
https://www.enaminestore.com/catalog/EN300-6475228

> <ROCS_ShapeQuery>
A71EV2A-x0451_0A_A71EV2A-x0310_0A_A71EV2A-x0416_0A_peptide

> <ROCS_TanimotoCombo>
0.488 

> <ROCS_ShapeTanimoto>
0.313 

> <ROCS_ColorTanimoto>
0.176 

> <ROCS_RefTversky>
0.275 

> <ROCS_RefColorTversky>
0.190 

> <ROCS_RefTverskyCombo>
0.465 

> <ROCS_FitTversky>
1.778 

> <ROCS_FitColorTversky>
0.701 

> <ROCS_FitTverskyCombo>
2.479 

> <ROCS_ColorScore>
-5.781

> <ROCS_Overlap>
1906.591

> <ROCS_Rank>
234                 

$$$$
untitled-dbase-20219_8
  -OEChem-11132313473D

 39 40  0     1  0  0  0  0  0999 V2000
   10.5606   13.1498   23.4136 C   0  0  0  0  0  0  0  0  0  0  0  0
    7.2486   10.6690   26.2319 C   0  0  0  0  0  0  0  0  0  0  0  0
    6.0140   11.4054   25.7140 C   0  0  0  0  0  0  0  0  0  0  0  0
    9.4519   11.0954   22.5932 C   0  0  0  0  0  0  0  0  0  0  0  0
    7.3492   12.8180   24.2821 C   0  0  0  0  0  0  0  0  0  0  0  0
    9.1489    9.7388   23.2071 C   0  0  0  0  0  0  0  0  0  0  0  0
    8.6523   12.1272   24.7251 C   0  0  1  0  0  0  0  0  0  0  0  0
    8.3996   10.6955   25.2242 C   0  0  2  0  0  0  0  0  0  0  0  0
   12.6111   14.9603   22.5725 C   0  0  0  0  0  0  0  0  0  0  0  0
   12.3545   13.9069   20.3067 C   0  0  0  0  0  0  0  0  0  0  0  0
   10.4212   15.1298   21.3435 C   0  0  0  0  0  0  0  0  0  0  0  0
   11.6486   14.2607   21.6138 C   0  0  0  0  0  0  0  0  0  0  0  0
    6.3385   12.7817   25.3411 N   0  0  0  0  0  0  0  0  0  0  0  0
    9.6291   12.1246   23.6179 N   0  0  0  0  0  0  0  0  0  0  0  0
   10.7794   14.0566   24.2149 O   0  0  0  0  0  0  0  0  0  0  0  0
    8.0636    9.8373   24.1282 O   0  0  0  0  0  0  0  0  0  0  0  0
   11.2160   13.0355   22.2160 O   0  0  0  0  0  0  0  0  0  0  0  0
    7.5786   11.1336   27.1696 H   0  0  0  0  0  0  0  0  0  0  0  0
    6.9725    9.6322   26.4575 H   0  0  0  0  0  0  0  0  0  0  0  0
    5.5769   10.8728   24.8608 H   0  0  0  0  0  0  0  0  0  0  0  0
    5.2526   11.4236   26.5016 H   0  0  0  0  0  0  0  0  0  0  0  0
   10.3344   11.0344   21.9482 H   0  0  0  0  0  0  0  0  0  0  0  0
    8.6113   11.4206   21.9699 H   0  0  0  0  0  0  0  0  0  0  0  0
    7.5566   13.8668   24.0404 H   0  0  0  0  0  0  0  0  0  0  0  0
    6.9399   12.3559   23.3758 H   0  0  0  0  0  0  0  0  0  0  0  0
    8.8562    9.0333   22.4231 H   0  0  0  0  0  0  0  0  0  0  0  0
   10.0278    9.3226   23.7137 H   0  0  0  0  0  0  0  0  0  0  0  0
    9.0680   12.7024   25.5621 H   0  0  0  0  0  0  0  0  0  0  0  0
    9.2977   10.2974   25.7147 H   0  0  0  0  0  0  0  0  0  0  0  0
   12.1081   15.2160   23.5120 H   0  0  0  0  0  0  0  0  0  0  0  0
   13.4787   14.3332   22.8020 H   0  0  0  0  0  0  0  0  0  0  0  0
   12.9695   15.9046   22.1468 H   0  0  0  0  0  0  0  0  0  0  0  0
   11.6677   13.4047   19.6159 H   0  0  0  0  0  0  0  0  0  0  0  0
   13.1789   13.2071   20.4854 H   0  0  0  0  0  0  0  0  0  0  0  0
   12.7562   14.7965   19.8108 H   0  0  0  0  0  0  0  0  0  0  0  0
    9.7307   14.6282   20.6559 H   0  0  0  0  0  0  0  0  0  0  0  0
    9.8809   15.3631   22.2667 H   0  0  0  0  0  0  0  0  0  0  0  0
   10.7088   16.0709   20.8610 H   0  0  0  0  0  0  0  0  0  0  0  0
    5.4934   13.2481   25.0128 H   0  0  0  0  0  0  0  0  0  0  0  0
  1 14  1  0  0  0  0
  1 15  2  0  0  0  0
  1 17  1  0  0  0  0
  2  3  1  0  0  0  0
  2  8  1  6  0  0  0
  3 13  1  0  0  0  0
  4  6  1  0  0  0  0
  4 14  1  0  0  0  0
  5  7  1  6  0  0  0
  5 13  1  0  0  0  0
  6 16  1  0  0  0  0
  7  8  1  0  0  0  0
  7 14  1  0  0  0  0
  8 16  1  0  0  0  0
  9 12  1  0  0  0  0
 10 12  1  0  0  0  0
 11 12  1  0  0  0  0
 12 17  1  0  0  0  0
  2 18  1  0  0  0  0
  2 19  1  0  0  0  0
  3 20  1  0  0  0  0
  3 21  1  0  0  0  0
  4 22  1  0  0  0  0
  4 23  1  0  0  0  0
  5 24  1  0  0  0  0
  5 25  1  0  0  0  0
  6 26  1  0  0  0  0
  6 27  1  0  0  0  0
  7 28  1  0  0  0  0
  8 29  1  0  0  0  0
  9 30  1  0  0  0  0
  9 31  1  0  0  0  0
  9 32  1  0  0  0  0
 10 33  1  0  0  0  0
 10 34  1  0  0  0  0
 10 35  1  0  0  0  0
 11 36  1  0  0  0  0
 11 37  1  0  0  0  0
 11 38  1  0  0  0  0
 13 39  1  0  0  0  0
M  END
> <id>
EN300-1719363

> <smiles>
CC(C)(C)OC(=O)N1CCO[C@@H]2CCNC[C@@H]21 |&1:11,16,r|

> <MDLNUMBER>
MFCD28344035

> <IUPAC Name>
rac-tert-butyl (4aR,8aS)-octahydro-2H-pyrido[4,3-b]morpholine-4-carboxylate

> <CAS>
2177267-61-5

> <Purity>
95

> <URL>
https://www.enaminestore.com/catalog/EN300-1719363

> <ROCS_ShapeQuery>
A71EV2A-x0451_0A_A71EV2A-x0310_0A_A71EV2A-x0416_0A_peptide

> <ROCS_TanimotoCombo>
0.488 

> <ROCS_ShapeTanimoto>
0.313 

> <ROCS_ColorTanimoto>
0.176 

> <ROCS_RefTversky>
0.275 

> <ROCS_RefColorTversky>
0.190 

> <ROCS_RefTverskyCombo>
0.465 

> <ROCS_FitTversky>
1.778 

> <ROCS_FitColorTversky>
0.701 

> <ROCS_FitTverskyCombo>
2.479 

> <ROCS_ColorScore>
-5.781

> <ROCS_Overlap>
1906.591

> <ROCS_Rank>
235                 

$$$$
untitled-dbase-45090_2
  -OEChem-11132313473D

 33 34  0     0  0  0  0  0  0999 V2000
    6.9553   10.1167   25.0658 C   0  0  0  0  0  0  0  0  0  0  0  0
    6.3147   11.0014   25.9385 C   0  0  0  0  0  0  0  0  0  0  0  0
    7.8733   12.7767   25.3632 C   0  0  0  0  0  0  0  0  0  0  0  0
    8.0673   10.5705   24.3349 C   0  0  0  0  0  0  0  0  0  0  0  0
    6.7683   12.3102   26.0835 C   0  0  0  0  0  0  0  0  0  0  0  0
    8.5107   11.8831   24.4890 C   0  0  0  0  0  0  0  0  0  0  0  0
    8.9467   10.0070   23.3943 C   0  0  0  0  0  0  0  0  0  0  0  0
   10.4083   13.1353   23.4291 C   0  0  0  0  0  0  0  0  0  0  0  0
   12.9386   14.2352   22.7728 C   0  0  0  0  0  0  0  0  0  0  0  0
   12.1954   14.0400   20.3814 C   0  0  0  0  0  0  0  0  0  0  0  0
   10.9278   15.5174   21.9684 C   0  0  0  0  0  0  0  0  0  0  0  0
    6.0646   13.2331   27.0232 C   0  0  0  0  0  0  0  0  0  0  0  0
   11.7391   14.2304   21.8263 C   0  0  0  0  0  0  0  0  0  0  0  0
    9.8742   10.8636   22.9733 N   0  0  0  0  0  0  0  0  0  0  0  0
    9.6055   12.0121   23.6445 N   0  0  0  0  0  0  0  0  0  0  0  0
   10.5904   13.9608   24.3087 O   0  0  0  0  0  0  0  0  0  0  0  0
   10.8985   13.1227   22.1623 O   0  0  0  0  0  0  0  0  0  0  0  0
    5.0050   12.6568   27.6628 F   0  0  0  0  0  0  0  0  0  0  0  0
    6.8662   13.7118   28.0191 F   0  0  0  0  0  0  0  0  0  0  0  0
    5.5603   14.3343   26.3955 F   0  0  0  0  0  0  0  0  0  0  0  0
    8.8721    8.0622   22.6878 I   0  0  0  0  0  0  0  0  0  0  0  0
    6.5876    9.0998   24.9668 H   0  0  0  0  0  0  0  0  0  0  0  0
    5.4547   10.6533   26.5058 H   0  0  0  0  0  0  0  0  0  0  0  0
    8.2183   13.7978   25.4844 H   0  0  0  0  0  0  0  0  0  0  0  0
   12.6153   14.3716   23.8110 H   0  0  0  0  0  0  0  0  0  0  0  0
   13.5090   13.3030   22.7059 H   0  0  0  0  0  0  0  0  0  0  0  0
   13.6120   15.0698   22.5465 H   0  0  0  0  0  0  0  0  0  0  0  0
   11.3380   14.0360   19.6988 H   0  0  0  0  0  0  0  0  0  0  0  0
   12.6957   13.0732   20.2543 H   0  0  0  0  0  0  0  0  0  0  0  0
   12.8845   14.8308   20.0678 H   0  0  0  0  0  0  0  0  0  0  0  0
   10.0674   15.5143   21.2896 H   0  0  0  0  0  0  0  0  0  0  0  0
   10.5607   15.6520   22.9910 H   0  0  0  0  0  0  0  0  0  0  0  0
   11.5321   16.3908   21.6976 H   0  0  0  0  0  0  0  0  0  0  0  0
  1  2  1  0  0  0  0
  1  4  2  0  0  0  0
  2  5  2  0  0  0  0
  3  5  1  0  0  0  0
  3  6  2  0  0  0  0
  4  6  1  0  0  0  0
  4  7  1  0  0  0  0
  5 12  1  0  0  0  0
  6 15  1  0  0  0  0
  7 14  2  0  0  0  0
  7 21  1  0  0  0  0
  8 15  1  0  0  0  0
  8 16  2  0  0  0  0
  8 17  1  0  0  0  0
  9 13  1  0  0  0  0
 10 13  1  0  0  0  0
 11 13  1  0  0  0  0
 12 18  1  0  0  0  0
 12 19  1  0  0  0  0
 12 20  1  0  0  0  0
 13 17  1  0  0  0  0
 14 15  1  0  0  0  0
  1 22  1  0  0  0  0
  2 23  1  0  0  0  0
  3 24  1  0  0  0  0
  9 25  1  0  0  0  0
  9 26  1  0  0  0  0
  9 27  1  0  0  0  0
 10 28  1  0  0  0  0
 10 29  1  0  0  0  0
 10 30  1  0  0  0  0
 11 31  1  0  0  0  0
 11 32  1  0  0  0  0
 11 33  1  0  0  0  0
M  END
> <id>
EN300-28262896

> <smiles>
CC(C)(C)OC(=O)N1N=C(I)C=2C=CC(=CC12)C(F)(F)F

> <IUPAC Name>
tert-butyl 3-iodo-6-(trifluoromethyl)-1H-indazole-1-carboxylate

> <CAS>
1204772-93-9

> <URL>
https://www.enaminestore.com/catalog/EN300-28262896

> <ROCS_ShapeQuery>
A71EV2A-x0451_0A_A71EV2A-x0310_0A_A71EV2A-x0416_0A_peptide

> <ROCS_TanimotoCombo>
0.488 

> <ROCS_ShapeTanimoto>
0.357 

> <ROCS_ColorTanimoto>
0.131 

> <ROCS_RefTversky>
0.311 

> <ROCS_RefColorTversky>
0.144 

> <ROCS_RefTverskyCombo>
0.455 

> <ROCS_FitTversky>
1.701 

> <ROCS_FitColorTversky>
0.598 

> <ROCS_FitTverskyCombo>
2.300 

> <ROCS_ColorScore>
-4.368

> <ROCS_Overlap>
2161.244

> <ROCS_Rank>
236                 

$$$$
untitled-dbase-34191_8
  -OEChem-11132313473D

 39 40  0     1  0  0  0  0  0999 V2000
   10.5603   13.1499   23.4122 C   0  0  0  0  0  0  0  0  0  0  0  0
    7.2515   10.6692   26.2337 C   0  0  0  0  0  0  0  0  0  0  0  0
    6.0157   11.4047   25.7172 C   0  0  0  0  0  0  0  0  0  0  0  0
    9.4500   11.0962   22.5919 C   0  0  0  0  0  0  0  0  0  0  0  0
    7.3482   12.8174   24.2826 C   0  0  0  0  0  0  0  0  0  0  0  0
    9.1478    9.7394   23.2061 C   0  0  0  0  0  0  0  0  0  0  0  0
    8.6522   12.1278   24.7246 C   0  0  1  0  0  0  0  0  0  0  0  0
    8.4010   10.6960   25.2243 C   0  0  2  0  0  0  0  0  0  0  0  0
   12.6118   14.9591   22.5708 C   0  0  0  0  0  0  0  0  0  0  0  0
   12.3542   13.9059   20.3050 C   0  0  0  0  0  0  0  0  0  0  0  0
   10.4219   15.1300   21.3421 C   0  0  0  0  0  0  0  0  0  0  0  0
   11.6487   14.2602   21.6123 C   0  0  0  0  0  0  0  0  0  0  0  0
    6.3387   12.7809   25.3427 N   0  0  0  0  0  0  0  0  0  0  0  0
    9.6280   12.1252   23.6165 N   0  0  0  0  0  0  0  0  0  0  0  0
   10.7797   14.0565   24.2135 O   0  0  0  0  0  0  0  0  0  0  0  0
    8.0637    9.8376   24.1287 O   0  0  0  0  0  0  0  0  0  0  0  0
   11.2155   13.0352   22.2144 O   0  0  0  0  0  0  0  0  0  0  0  0
    7.5825   11.1343   27.1710 H   0  0  0  0  0  0  0  0  0  0  0  0
    6.9763    9.6323   26.4601 H   0  0  0  0  0  0  0  0  0  0  0  0
    5.5775   10.8711   24.8649 H   0  0  0  0  0  0  0  0  0  0  0  0
    5.2556   11.4228   26.5059 H   0  0  0  0  0  0  0  0  0  0  0  0
   10.3316   11.0353   21.9461 H   0  0  0  0  0  0  0  0  0  0  0  0
    8.6085   11.4214   21.9694 H   0  0  0  0  0  0  0  0  0  0  0  0
    7.5546   13.8662   24.0402 H   0  0  0  0  0  0  0  0  0  0  0  0
    6.9381   12.3544   23.3769 H   0  0  0  0  0  0  0  0  0  0  0  0
    8.8541    9.0340   22.4223 H   0  0  0  0  0  0  0  0  0  0  0  0
   10.0274    9.3232   23.7113 H   0  0  0  0  0  0  0  0  0  0  0  0
    9.0682   12.7033   25.5610 H   0  0  0  0  0  0  0  0  0  0  0  0
    9.3000   10.2982   25.7134 H   0  0  0  0  0  0  0  0  0  0  0  0
   12.1091   15.2150   23.5104 H   0  0  0  0  0  0  0  0  0  0  0  0
   13.4791   14.3314   22.8001 H   0  0  0  0  0  0  0  0  0  0  0  0
   12.9707   15.9031   22.1451 H   0  0  0  0  0  0  0  0  0  0  0  0
   11.6669   13.4042   19.6143 H   0  0  0  0  0  0  0  0  0  0  0  0
   13.1782   13.2056   20.4835 H   0  0  0  0  0  0  0  0  0  0  0  0
   12.7564   14.7952   19.8091 H   0  0  0  0  0  0  0  0  0  0  0  0
    9.7309   14.6289   20.6546 H   0  0  0  0  0  0  0  0  0  0  0  0
    9.8819   15.3636   22.2654 H   0  0  0  0  0  0  0  0  0  0  0  0
   10.7100   16.0710   20.8596 H   0  0  0  0  0  0  0  0  0  0  0  0
    5.4926   13.2465   25.0150 H   0  0  0  0  0  0  0  0  0  0  0  0
  1 14  1  0  0  0  0
  1 15  2  0  0  0  0
  1 17  1  0  0  0  0
  2  3  1  0  0  0  0
  2  8  1  0  0  0  0
  3 13  1  0  0  0  0
  4  6  1  0  0  0  0
  4 14  1  0  0  0  0
  5  7  1  0  0  0  0
  5 13  1  0  0  0  0
  6 16  1  0  0  0  0
  7  8  1  0  0  0  0
  7 14  1  0  0  0  0
  8 16  1  0  0  0  0
  9 12  1  0  0  0  0
 10 12  1  0  0  0  0
 11 12  1  0  0  0  0
 12 17  1  0  0  0  0
  2 18  1  0  0  0  0
  2 19  1  0  0  0  0
  3 20  1  0  0  0  0
  3 21  1  0  0  0  0
  4 22  1  0  0  0  0
  4 23  1  0  0  0  0
  5 24  1  0  0  0  0
  5 25  1  0  0  0  0
  6 26  1  0  0  0  0
  6 27  1  0  0  0  0
  7 28  1  0  0  0  0
  8 29  1  0  0  0  0
  9 30  1  0  0  0  0
  9 31  1  0  0  0  0
  9 32  1  0  0  0  0
 10 33  1  0  0  0  0
 10 34  1  0  0  0  0
 10 35  1  0  0  0  0
 11 36  1  0  0  0  0
 11 37  1  0  0  0  0
 11 38  1  0  0  0  0
 13 39  1  0  0  0  0
M  END
> <id>
EN300-209746

> <smiles>
CC(C)(C)OC(=O)N1CCOC2CCNCC21

> <MDLNUMBER>
MFCD28390074

> <IUPAC Name>
tert-butyl octahydro-2H-pyrido[4,3-b]morpholine-4-carboxylate

> <CAS>
1779577-11-5

> <URL>
https://www.enaminestore.com/catalog/EN300-209746

> <ROCS_ShapeQuery>
A71EV2A-x0451_0A_A71EV2A-x0310_0A_A71EV2A-x0416_0A_peptide

> <ROCS_TanimotoCombo>
0.488 

> <ROCS_ShapeTanimoto>
0.313 

> <ROCS_ColorTanimoto>
0.175 

> <ROCS_RefTversky>
0.275 

> <ROCS_RefColorTversky>
0.190 

> <ROCS_RefTverskyCombo>
0.465 

> <ROCS_FitTversky>
1.778 

> <ROCS_FitColorTversky>
0.701 

> <ROCS_FitTverskyCombo>
2.478 

> <ROCS_ColorScore>
-5.781

> <ROCS_Overlap>
1906.219

> <ROCS_Rank>
237                 

$$$$
untitled-dbase-23261_11
  -OEChem-11132313473D

 31 32  0     0  0  0  0  0  0999 V2000
    7.8127   12.8001   25.1042 C   0  0  0  0  0  0  0  0  0  0  0  0
    6.1565   11.1385   25.7960 C   0  0  0  0  0  0  0  0  0  0  0  0
    8.5308   11.7780   24.5118 C   0  0  0  0  0  0  0  0  0  0  0  0
    8.0626   10.4662   24.5667 C   0  0  0  0  0  0  0  0  0  0  0  0
    6.6149   12.4685   25.7504 C   0  0  0  0  0  0  0  0  0  0  0  0
    6.8871   10.1127   25.1964 C   0  0  0  0  0  0  0  0  0  0  0  0
   10.0338   10.4143   23.4019 C   0  0  0  0  0  0  0  0  0  0  0  0
   10.5190   12.9355   23.5401 C   0  0  0  0  0  0  0  0  0  0  0  0
   12.2907   14.9609   22.5632 C   0  0  0  0  0  0  0  0  0  0  0  0
   12.2561   13.6870   20.3987 C   0  0  0  0  0  0  0  0  0  0  0  0
   10.1329   14.6830   21.2978 C   0  0  0  0  0  0  0  0  0  0  0  0
   11.4711   14.0404   21.6600 C   0  0  0  0  0  0  0  0  0  0  0  0
    8.9585    9.6371   23.9024 N   0  0  0  0  0  0  0  0  0  0  0  0
    9.7557   11.7885   23.7954 N   0  0  0  0  0  0  0  0  0  0  0  0
   10.9914    9.9912   22.7685 O   0  0  0  0  0  0  0  0  0  0  0  0
   10.5782   13.9313   24.2561 O   0  0  0  0  0  0  0  0  0  0  0  0
   11.2151   12.8202   22.3649 O   0  0  0  0  0  0  0  0  0  0  0  0
    5.8919   13.4336   26.3357 F   0  0  0  0  0  0  0  0  0  0  0  0
    6.2700    8.3338   25.2601 Br  0  0  0  0  0  0  0  0  0  0  0  0
    8.1364   13.8329   25.0876 H   0  0  0  0  0  0  0  0  0  0  0  0
    5.2209   10.9282   26.3089 H   0  0  0  0  0  0  0  0  0  0  0  0
   11.7307   15.2168   23.4698 H   0  0  0  0  0  0  0  0  0  0  0  0
   13.2376   14.4974   22.8587 H   0  0  0  0  0  0  0  0  0  0  0  0
   12.5117   15.9084   22.0586 H   0  0  0  0  0  0  0  0  0  0  0  0
   11.6718   13.0267   19.7477 H   0  0  0  0  0  0  0  0  0  0  0  0
   13.1727   13.1410   20.6495 H   0  0  0  0  0  0  0  0  0  0  0  0
   12.5300   14.5812   19.8295 H   0  0  0  0  0  0  0  0  0  0  0  0
    9.5449   14.0229   20.6499 H   0  0  0  0  0  0  0  0  0  0  0  0
    9.5399   14.9098   22.1897 H   0  0  0  0  0  0  0  0  0  0  0  0
   10.2860   15.6115   20.7359 H   0  0  0  0  0  0  0  0  0  0  0  0
    8.8591    8.6353   23.7930 H   0  0  0  0  0  0  0  0  0  0  0  0
  1  3  2  0  0  0  0
  1  5  1  0  0  0  0
  2  5  2  0  0  0  0
  2  6  1  0  0  0  0
  3  4  1  0  0  0  0
  3 14  1  0  0  0  0
  4  6  2  0  0  0  0
  4 13  1  0  0  0  0
  5 18  1  0  0  0  0
  6 19  1  0  0  0  0
  7 13  1  0  0  0  0
  7 14  1  0  0  0  0
  7 15  2  0  0  0  0
  8 14  1  0  0  0  0
  8 16  2  0  0  0  0
  8 17  1  0  0  0  0
  9 12  1  0  0  0  0
 10 12  1  0  0  0  0
 11 12  1  0  0  0  0
 12 17  1  0  0  0  0
  1 20  1  0  0  0  0
  2 21  1  0  0  0  0
  9 22  1  0  0  0  0
  9 23  1  0  0  0  0
  9 24  1  0  0  0  0
 10 25  1  0  0  0  0
 10 26  1  0  0  0  0
 10 27  1  0  0  0  0
 11 28  1  0  0  0  0
 11 29  1  0  0  0  0
 11 30  1  0  0  0  0
 13 31  1  0  0  0  0
M  END
> <id>
EN300-37323768

> <smiles>
CC(C)(C)OC(=O)N1C(=O)NC=2C(Br)=CC(F)=CC12

> <IUPAC Name>
tert-butyl 4-bromo-6-fluoro-2-oxo-2,3-dihydro-1H-1,3-benzodiazole-1-carboxylate

> <CAS>
2743434-14-0

> <URL>
https://www.enaminestore.com/catalog/EN300-37323768

> <ROCS_ShapeQuery>
A71EV2A-x0451_0A_A71EV2A-x0310_0A_A71EV2A-x0416_0A_peptide

> <ROCS_TanimotoCombo>
0.488 

> <ROCS_ShapeTanimoto>
0.348 

> <ROCS_ColorTanimoto>
0.140 

> <ROCS_RefTversky>
0.302 

> <ROCS_RefColorTversky>
0.160 

> <ROCS_RefTverskyCombo>
0.462 

> <ROCS_FitTversky>
1.778 

> <ROCS_FitColorTversky>
0.529 

> <ROCS_FitTverskyCombo>
2.307 

> <ROCS_ColorScore>
-4.873

> <ROCS_Overlap>
2096.458

> <ROCS_Rank>
238                 

$$$$
untitled-dbase-45558_10
  -OEChem-11132313473D

 39 40  0     0  0  0  0  0  0999 V2000
    6.9065   10.1927   25.1260 C   0  0  0  0  0  0  0  0  0  0  0  0
    7.9449   12.8073   25.3234 C   0  0  0  0  0  0  0  0  0  0  0  0
    8.0106   10.5788   24.3749 C   0  0  0  0  0  0  0  0  0  0  0  0
    8.5241   11.8751   24.4739 C   0  0  0  0  0  0  0  0  0  0  0  0
    6.8346   12.4217   26.0797 C   0  0  0  0  0  0  0  0  0  0  0  0
    6.3183   11.1234   25.9821 C   0  0  0  0  0  0  0  0  0  0  0  0
   10.4002   13.1705   23.4560 C   0  0  0  0  0  0  0  0  0  0  0  0
    9.8681   10.7517   22.9130 C   0  0  0  0  0  0  0  0  0  0  0  0
    8.7979    9.7405   23.3952 C   0  0  0  0  0  0  0  0  0  0  0  0
    7.9215    9.2728   22.2284 C   0  0  0  0  0  0  0  0  0  0  0  0
    9.4518    8.5403   24.0883 C   0  0  0  0  0  0  0  0  0  0  0  0
   12.1127   15.2918   22.5804 C   0  0  0  0  0  0  0  0  0  0  0  0
   11.7166   14.4084   20.2627 C   0  0  0  0  0  0  0  0  0  0  0  0
    9.7889   15.2841   21.6138 C   0  0  0  0  0  0  0  0  0  0  0  0
   11.1327   14.5585   21.6658 C   0  0  0  0  0  0  0  0  0  0  0  0
    9.6341   12.0244   23.6227 N   0  0  0  0  0  0  0  0  0  0  0  0
   10.6072   14.0289   24.3090 O   0  0  0  0  0  0  0  0  0  0  0  0
   10.9201   13.2418   22.1879 O   0  0  0  0  0  0  0  0  0  0  0  0
    6.2706   13.3178   26.9034 F   0  0  0  0  0  0  0  0  0  0  0  0
    4.8150   10.6191   27.0144 Br  0  0  0  0  0  0  0  0  0  0  0  0
    6.5154    9.1831   25.0419 H   0  0  0  0  0  0  0  0  0  0  0  0
    8.3182   13.8189   25.4232 H   0  0  0  0  0  0  0  0  0  0  0  0
   10.8915   10.4231   23.1312 H   0  0  0  0  0  0  0  0  0  0  0  0
    9.8101   10.9490   21.8356 H   0  0  0  0  0  0  0  0  0  0  0  0
    8.5164    8.6738   21.5436 H   0  0  0  0  0  0  0  0  0  0  0  0
    7.5258   10.1371   21.7011 H   0  0  0  0  0  0  0  0  0  0  0  0
    7.0978    8.6741   22.6091 H   0  0  0  0  0  0  0  0  0  0  0  0
   10.0095    7.9583   23.3590 H   0  0  0  0  0  0  0  0  0  0  0  0
    8.6832    7.9158   24.5365 H   0  0  0  0  0  0  0  0  0  0  0  0
   10.1285    8.8918   24.8631 H   0  0  0  0  0  0  0  0  0  0  0  0
   11.6973   15.4017   23.5886 H   0  0  0  0  0  0  0  0  0  0  0  0
   13.0686   14.7631   22.6540 H   0  0  0  0  0  0  0  0  0  0  0  0
   12.3057   16.3064   22.2134 H   0  0  0  0  0  0  0  0  0  0  0  0
   11.0168   13.8827   19.6031 H   0  0  0  0  0  0  0  0  0  0  0  0
   12.6324   13.8066   20.2835 H   0  0  0  0  0  0  0  0  0  0  0  0
   11.9504   15.3802   19.8163 H   0  0  0  0  0  0  0  0  0  0  0  0
    9.0858   14.7583   20.9578 H   0  0  0  0  0  0  0  0  0  0  0  0
    9.3374   15.3684   22.6075 H   0  0  0  0  0  0  0  0  0  0  0  0
    9.9058   16.2913   21.1977 H   0  0  0  0  0  0  0  0  0  0  0  0
  1  3  2  0  0  0  0
  1  6  1  0  0  0  0
  2  4  2  0  0  0  0
  2  5  1  0  0  0  0
  3  4  1  0  0  0  0
  3  9  1  0  0  0  0
  4 16  1  0  0  0  0
  5  6  2  0  0  0  0
  5 19  1  0  0  0  0
  6 20  1  0  0  0  0
  7 16  1  0  0  0  0
  7 17  2  0  0  0  0
  7 18  1  0  0  0  0
  8  9  1  0  0  0  0
  8 16  1  0  0  0  0
  9 10  1  0  0  0  0
  9 11  1  0  0  0  0
 12 15  1  0  0  0  0
 13 15  1  0  0  0  0
 14 15  1  0  0  0  0
 15 18  1  0  0  0  0
  1 21  1  0  0  0  0
  2 22  1  0  0  0  0
  8 23  1  0  0  0  0
  8 24  1  0  0  0  0
 10 25  1  0  0  0  0
 10 26  1  0  0  0  0
 10 27  1  0  0  0  0
 11 28  1  0  0  0  0
 11 29  1  0  0  0  0
 11 30  1  0  0  0  0
 12 31  1  0  0  0  0
 12 32  1  0  0  0  0
 12 33  1  0  0  0  0
 13 34  1  0  0  0  0
 13 35  1  0  0  0  0
 13 36  1  0  0  0  0
 14 37  1  0  0  0  0
 14 38  1  0  0  0  0
 14 39  1  0  0  0  0
M  END
> <id>
EN300-28297627

> <smiles>
CC(C)(C)OC(=O)N1CC(C)(C)C=2C=C(Br)C(F)=CC12

> <IUPAC Name>
tert-butyl 5-bromo-6-fluoro-3,3-dimethyl-2,3-dihydro-1H-indole-1-carboxylate

> <CAS>
1609265-63-5

> <URL>
https://www.enaminestore.com/catalog/EN300-28297627

> <ROCS_ShapeQuery>
A71EV2A-x0451_0A_A71EV2A-x0310_0A_A71EV2A-x0416_0A_peptide

> <ROCS_TanimotoCombo>
0.488 

> <ROCS_ShapeTanimoto>
0.358 

> <ROCS_ColorTanimoto>
0.130 

> <ROCS_RefTversky>
0.309 

> <ROCS_RefColorTversky>
0.143 

> <ROCS_RefTverskyCombo>
0.452 

> <ROCS_FitTversky>
1.782 

> <ROCS_FitColorTversky>
0.596 

> <ROCS_FitTverskyCombo>
2.377 

> <ROCS_ColorScore>
-4.349

> <ROCS_Overlap>
2145.042

> <ROCS_Rank>
239                 

$$$$
untitled-dbase-44776_26
  -OEChem-11132313473D

 33 33  0     0  0  0  0  0  0999 V2000
    7.7728   10.6886   24.5107 C   0  0  0  0  0  0  0  0  0  0  0  0
    8.7910   10.0197   23.8143 C   0  0  0  0  0  0  0  0  0  0  0  0
    8.1385   12.0118   24.4675 C   0  0  0  0  0  0  0  0  0  0  0  0
   10.1082   13.1747   23.4473 C   0  0  0  0  0  0  0  0  0  0  0  0
   12.4212   14.2385   22.2032 C   0  0  0  0  0  0  0  0  0  0  0  0
   11.0234   14.3416   20.1188 C   0  0  0  0  0  0  0  0  0  0  0  0
   10.3600   15.6814   22.1369 C   0  0  0  0  0  0  0  0  0  0  0  0
    6.5782   10.1051   25.1464 C   0  0  0  0  0  0  0  0  0  0  0  0
    8.9081    8.5743   23.5533 C   0  0  0  0  0  0  0  0  0  0  0  0
    7.4415   13.1840   25.0382 C   0  0  0  0  0  0  0  0  0  0  0  0
   11.0065   14.3872   21.6451 C   0  0  0  0  0  0  0  0  0  0  0  0
    9.7352   10.8456   23.3600 N   0  0  0  0  0  0  0  0  0  0  0  0
    9.3234   12.0708   23.7685 N   0  0  0  0  0  0  0  0  0  0  0  0
   10.5829   13.8825   24.3211 O   0  0  0  0  0  0  0  0  0  0  0  0
   10.2191   13.2832   22.1006 O   0  0  0  0  0  0  0  0  0  0  0  0
    6.4817    8.7409   25.0232 F   0  0  0  0  0  0  0  0  0  0  0  0
    6.4907   10.3311   26.4980 F   0  0  0  0  0  0  0  0  0  0  0  0
    5.4005   10.5869   24.6339 F   0  0  0  0  0  0  0  0  0  0  0  0
    7.8807    7.8218   24.0672 F   0  0  0  0  0  0  0  0  0  0  0  0
    8.9392    8.2418   22.2213 F   0  0  0  0  0  0  0  0  0  0  0  0
   10.0464    8.0179   24.0795 F   0  0  0  0  0  0  0  0  0  0  0  0
    6.2760   12.8790   25.6931 F   0  0  0  0  0  0  0  0  0  0  0  0
    8.1808   13.8815   25.9586 F   0  0  0  0  0  0  0  0  0  0  0  0
    7.0853   14.1106   24.0941 F   0  0  0  0  0  0  0  0  0  0  0  0
   12.4133   14.2708   23.2986 H   0  0  0  0  0  0  0  0  0  0  0  0
   12.8830   13.2978   21.8864 H   0  0  0  0  0  0  0  0  0  0  0  0
   13.0603   15.0659   21.8742 H   0  0  0  0  0  0  0  0  0  0  0  0
   10.0105   14.4479   19.7140 H   0  0  0  0  0  0  0  0  0  0  0  0
   11.3989   13.3759   19.7613 H   0  0  0  0  0  0  0  0  0  0  0  0
   11.6500   15.1345   19.6978 H   0  0  0  0  0  0  0  0  0  0  0  0
    9.3453   15.7883   21.7367 H   0  0  0  0  0  0  0  0  0  0  0  0
   10.3058   15.7153   23.2298 H   0  0  0  0  0  0  0  0  0  0  0  0
   10.9232   16.5550   21.7889 H   0  0  0  0  0  0  0  0  0  0  0  0
  1  2  1  0  0  0  0
  1  3  2  0  0  0  0
  1  8  1  0  0  0  0
  2  9  1  0  0  0  0
  2 12  2  0  0  0  0
  3 10  1  0  0  0  0
  3 13  1  0  0  0  0
  4 13  1  0  0  0  0
  4 14  2  0  0  0  0
  4 15  1  0  0  0  0
  5 11  1  0  0  0  0
  6 11  1  0  0  0  0
  7 11  1  0  0  0  0
  8 16  1  0  0  0  0
  8 17  1  0  0  0  0
  8 18  1  0  0  0  0
  9 19  1  0  0  0  0
  9 20  1  0  0  0  0
  9 21  1  0  0  0  0
 10 22  1  0  0  0  0
 10 23  1  0  0  0  0
 10 24  1  0  0  0  0
 11 15  1  0  0  0  0
 12 13  1  0  0  0  0
  5 25  1  0  0  0  0
  5 26  1  0  0  0  0
  5 27  1  0  0  0  0
  6 28  1  0  0  0  0
  6 29  1  0  0  0  0
  6 30  1  0  0  0  0
  7 31  1  0  0  0  0
  7 32  1  0  0  0  0
  7 33  1  0  0  0  0
M  END
> <id>
EN300-28262785

> <smiles>
CC(C)(C)OC(=O)N1N=C(C(=C1C(F)(F)F)C(F)(F)F)C(F)(F)F

> <IUPAC Name>
tert-butyl 3,4,5-tris(trifluoromethyl)-1H-pyrazole-1-carboxylate

> <CAS>
2680669-26-3

> <URL>
https://www.enaminestore.com/catalog/EN300-28262785

> <ROCS_ShapeQuery>
A71EV2A-x0451_0A_A71EV2A-x0310_0A_A71EV2A-x0416_0A_peptide

> <ROCS_TanimotoCombo>
0.488 

> <ROCS_ShapeTanimoto>
0.383 

> <ROCS_ColorTanimoto>
0.105 

> <ROCS_RefTversky>
0.334 

> <ROCS_RefColorTversky>
0.112 

> <ROCS_RefTverskyCombo>
0.446 

> <ROCS_FitTversky>
1.616 

> <ROCS_FitColorTversky>
0.629 

> <ROCS_FitTverskyCombo>
2.245 

> <ROCS_ColorScore>
-3.390

> <ROCS_Overlap>
2321.894

> <ROCS_Rank>
240                 

$$$$
untitled-dbase-45488_11
  -OEChem-11132313473D

 37 38  0     0  0  0  0  0  0999 V2000
    7.8657   12.9975   25.0961 C   0  0  0  0  0  0  0  0  0  0  0  0
    6.8516   12.7745   26.0278 C   0  0  0  0  0  0  0  0  0  0  0  0
    6.9943   10.4176   25.5901 C   0  0  0  0  0  0  0  0  0  0  0  0
    8.4720   11.9341   24.3999 C   0  0  0  0  0  0  0  0  0  0  0  0
    8.0164   10.6227   24.6405 C   0  0  0  0  0  0  0  0  0  0  0  0
    6.4188   11.4834   26.2788 C   0  0  0  0  0  0  0  0  0  0  0  0
    9.5262    9.6932   22.9337 C   0  0  0  0  0  0  0  0  0  0  0  0
   10.2641   13.3564   23.3911 C   0  0  0  0  0  0  0  0  0  0  0  0
    9.7488   11.1095   22.4686 C   0  0  0  0  0  0  0  0  0  0  0  0
   13.0055   13.5199   22.5636 C   0  0  0  0  0  0  0  0  0  0  0  0
   12.1197   14.5995   20.4758 C   0  0  0  0  0  0  0  0  0  0  0  0
   11.7680   15.7072   22.7024 C   0  0  0  0  0  0  0  0  0  0  0  0
    8.2423    8.1538   24.3487 C   0  0  0  0  0  0  0  0  0  0  0  0
   11.8862   14.3725   21.9678 C   0  0  0  0  0  0  0  0  0  0  0  0
    8.6086    9.5143   23.9599 N   0  0  0  0  0  0  0  0  0  0  0  0
    9.5180   12.1594   23.4505 N   0  0  0  0  0  0  0  0  0  0  0  0
   10.0536    8.7709   22.3052 O   0  0  0  0  0  0  0  0  0  0  0  0
   10.5713   14.0637   24.3476 O   0  0  0  0  0  0  0  0  0  0  0  0
   10.6492   13.6636   22.1081 O   0  0  0  0  0  0  0  0  0  0  0  0
    5.0635   11.1698   27.5575 Br  0  0  0  0  0  0  0  0  0  0  0  0
    8.1863   14.0266   24.9708 H   0  0  0  0  0  0  0  0  0  0  0  0
    6.4202   13.6233   26.5523 H   0  0  0  0  0  0  0  0  0  0  0  0
    6.6340    9.4163   25.8127 H   0  0  0  0  0  0  0  0  0  0  0  0
   10.7872   11.2016   22.1276 H   0  0  0  0  0  0  0  0  0  0  0  0
    9.0942   11.2619   21.6027 H   0  0  0  0  0  0  0  0  0  0  0  0
   12.8416   13.3547   23.6345 H   0  0  0  0  0  0  0  0  0  0  0  0
   13.0778   12.5460   22.0685 H   0  0  0  0  0  0  0  0  0  0  0  0
   13.9732   14.0266   22.4736 H   0  0  0  0  0  0  0  0  0  0  0  0
   11.3189   15.2109   20.0442 H   0  0  0  0  0  0  0  0  0  0  0  0
   12.1105   13.6490   19.9302 H   0  0  0  0  0  0  0  0  0  0  0  0
   13.0761   15.0980   20.2878 H   0  0  0  0  0  0  0  0  0  0  0  0
   10.9652   16.3189   22.2752 H   0  0  0  0  0  0  0  0  0  0  0  0
   11.5636   15.5641   23.7684 H   0  0  0  0  0  0  0  0  0  0  0  0
   12.6898   16.2913   22.5999 H   0  0  0  0  0  0  0  0  0  0  0  0
    7.3769    7.8229   23.7558 H   0  0  0  0  0  0  0  0  0  0  0  0
    9.0915    7.4790   24.1658 H   0  0  0  0  0  0  0  0  0  0  0  0
    7.9829    8.1353   25.4176 H   0  0  0  0  0  0  0  0  0  0  0  0
  1  2  1  0  0  0  0
  1  4  2  0  0  0  0
  2  6  2  0  0  0  0
  3  5  2  0  0  0  0
  3  6  1  0  0  0  0
  4  5  1  0  0  0  0
  4 16  1  0  0  0  0
  5 15  1  0  0  0  0
  6 20  1  0  0  0  0
  7  9  1  0  0  0  0
  7 15  1  0  0  0  0
  7 17  2  0  0  0  0
  8 16  1  0  0  0  0
  8 18  2  0  0  0  0
  8 19  1  0  0  0  0
  9 16  1  0  0  0  0
 10 14  1  0  0  0  0
 11 14  1  0  0  0  0
 12 14  1  0  0  0  0
 13 15  1  0  0  0  0
 14 19  1  0  0  0  0
  1 21  1  0  0  0  0
  2 22  1  0  0  0  0
  3 23  1  0  0  0  0
  9 24  1  0  0  0  0
  9 25  1  0  0  0  0
 10 26  1  0  0  0  0
 10 27  1  0  0  0  0
 10 28  1  0  0  0  0
 11 29  1  0  0  0  0
 11 30  1  0  0  0  0
 11 31  1  0  0  0  0
 12 32  1  0  0  0  0
 12 33  1  0  0  0  0
 12 34  1  0  0  0  0
 13 35  1  0  0  0  0
 13 36  1  0  0  0  0
 13 37  1  0  0  0  0
M  END
> <id>
EN300-28297173

> <smiles>
CN1C(=O)CN(C(=O)OC(C)(C)C)C=2C=CC(Br)=CC12

> <IUPAC Name>
tert-butyl 6-bromo-4-methyl-3-oxo-1,2,3,4-tetrahydroquinoxaline-1-carboxylate

> <CAS>
2680796-10-3

> <URL>
https://www.enaminestore.com/catalog/EN300-28297173

> <ROCS_ShapeQuery>
A71EV2A-x0451_0A_A71EV2A-x0310_0A_A71EV2A-x0416_0A_peptide

> <ROCS_TanimotoCombo>
0.488 

> <ROCS_ShapeTanimoto>
0.367 

> <ROCS_ColorTanimoto>
0.121 

> <ROCS_RefTversky>
0.315 

> <ROCS_RefColorTversky>
0.133 

> <ROCS_RefTverskyCombo>
0.449 

> <ROCS_FitTversky>
1.809 

> <ROCS_FitColorTversky>
0.556 

> <ROCS_FitTverskyCombo>
2.365 

> <ROCS_ColorScore>
-4.057

> <ROCS_Overlap>
2188.101

> <ROCS_Rank>
241                 

$$$$
untitled-dbase-14195_66
  -OEChem-11132313473D

 39 40  0     0  0  0  0  0  0999 V2000
    6.9489   13.1858   24.7018 C   0  0  0  0  0  0  0  0  0  0  0  0
    5.8830   11.7259   26.3074 C   0  0  0  0  0  0  0  0  0  0  0  0
    7.6766   12.1087   24.1760 C   0  0  0  0  0  0  0  0  0  0  0  0
    6.0623   12.9962   25.7640 C   0  0  0  0  0  0  0  0  0  0  0  0
    7.5026   10.8396   24.7513 C   0  0  0  0  0  0  0  0  0  0  0  0
    6.5963   10.6440   25.7966 C   0  0  0  0  0  0  0  0  0  0  0  0
   10.8917   12.9137   23.6902 C   0  0  0  0  0  0  0  0  0  0  0  0
    8.5887   12.3237   22.9953 C   0  0  0  0  0  0  0  0  0  0  0  0
   10.2549   10.4990   23.2986 C   0  0  0  0  0  0  0  0  0  0  0  0
    9.5711    9.8126   24.4751 C   0  0  0  0  0  0  0  0  0  0  0  0
   12.8895   14.8978   23.1799 C   0  0  0  0  0  0  0  0  0  0  0  0
   14.2352   13.0223   22.1897 C   0  0  0  0  0  0  0  0  0  0  0  0
   12.0313   13.6565   21.1657 C   0  0  0  0  0  0  0  0  0  0  0  0
   12.8284   13.5489   22.4648 C   0  0  0  0  0  0  0  0  0  0  0  0
    9.9674   11.9383   23.2939 N   0  0  0  0  0  0  0  0  0  0  0  0
    5.3397   14.0919   26.2813 N   0  0  0  0  0  0  0  0  0  0  0  0
   10.5964   13.9357   24.3075 O   0  0  0  0  0  0  0  0  0  0  0  0
    8.1540    9.7287   24.2780 O   0  0  0  0  0  0  0  0  0  0  0  0
   12.1754   12.6069   23.3237 O   0  0  0  0  0  0  0  0  0  0  0  0
    6.4168    9.4228   26.3191 F   0  0  0  0  0  0  0  0  0  0  0  0
    7.0689   14.1797   24.2746 H   0  0  0  0  0  0  0  0  0  0  0  0
    5.1878   11.5673   27.1277 H   0  0  0  0  0  0  0  0  0  0  0  0
    8.2325   11.7335   22.1408 H   0  0  0  0  0  0  0  0  0  0  0  0
    8.5582   13.3711   22.6736 H   0  0  0  0  0  0  0  0  0  0  0  0
   11.3352   10.3412   23.3625 H   0  0  0  0  0  0  0  0  0  0  0  0
    9.9049   10.0885   22.3458 H   0  0  0  0  0  0  0  0  0  0  0  0
    9.9322    8.7798   24.5312 H   0  0  0  0  0  0  0  0  0  0  0  0
    9.8239   10.2837   25.4343 H   0  0  0  0  0  0  0  0  0  0  0  0
   11.8816   15.2792   23.3793 H   0  0  0  0  0  0  0  0  0  0  0  0
   13.4286   14.8265   24.1303 H   0  0  0  0  0  0  0  0  0  0  0  0
   13.3865   15.6492   22.5557 H   0  0  0  0  0  0  0  0  0  0  0  0
   14.1961   12.0545   21.6766 H   0  0  0  0  0  0  0  0  0  0  0  0
   14.7789   12.8534   23.1262 H   0  0  0  0  0  0  0  0  0  0  0  0
   14.8137   13.7182   21.5735 H   0  0  0  0  0  0  0  0  0  0  0  0
   11.9873   12.6891   20.6525 H   0  0  0  0  0  0  0  0  0  0  0  0
   11.0071   13.9979   21.3480 H   0  0  0  0  0  0  0  0  0  0  0  0
   12.5121   14.3539   20.4701 H   0  0  0  0  0  0  0  0  0  0  0  0
    5.5068   15.0049   25.9100 H   0  0  0  0  0  0  0  0  0  0  0  0
    4.7437   13.9529   27.0720 H   0  0  0  0  0  0  0  0  0  0  0  0
  1  3  2  0  0  0  0
  1  4  1  0  0  0  0
  2  4  2  0  0  0  0
  2  6  1  0  0  0  0
  3  5  1  0  0  0  0
  3  8  1  0  0  0  0
  4 16  1  0  0  0  0
  5  6  2  0  0  0  0
  5 18  1  0  0  0  0
  6 20  1  0  0  0  0
  7 15  1  0  0  0  0
  7 17  2  0  0  0  0
  7 19  1  0  0  0  0
  8 15  1  0  0  0  0
  9 10  1  0  0  0  0
  9 15  1  0  0  0  0
 10 18  1  0  0  0  0
 11 14  1  0  0  0  0
 12 14  1  0  0  0  0
 13 14  1  0  0  0  0
 14 19  1  0  0  0  0
  1 21  1  0  0  0  0
  2 22  1  0  0  0  0
  8 23  1  0  0  0  0
  8 24  1  0  0  0  0
  9 25  1  0  0  0  0
  9 26  1  0  0  0  0
 10 27  1  0  0  0  0
 10 28  1  0  0  0  0
 11 29  1  0  0  0  0
 11 30  1  0  0  0  0
 11 31  1  0  0  0  0
 12 32  1  0  0  0  0
 12 33  1  0  0  0  0
 12 34  1  0  0  0  0
 13 35  1  0  0  0  0
 13 36  1  0  0  0  0
 13 37  1  0  0  0  0
 16 38  1  0  0  0  0
 16 39  1  0  0  0  0
M  END
> <id>
EN300-1129039

> <smiles>
CC(C)(C)OC(=O)N1CCOC=2C(F)=CC(N)=CC2C1

> <IUPAC Name>
tert-butyl 7-amino-9-fluoro-2,3,4,5-tetrahydro-1,4-benzoxazepine-4-carboxylate

> <CAS>
2137588-11-3

> <URL>
https://www.enaminestore.com/catalog/EN300-1129039

> <ROCS_ShapeQuery>
A71EV2A-x0451_0A_A71EV2A-x0310_0A_A71EV2A-x0416_0A_peptide

> <ROCS_TanimotoCombo>
0.487 

> <ROCS_ShapeTanimoto>
0.315 

> <ROCS_ColorTanimoto>
0.172 

> <ROCS_RefTversky>
0.282 

> <ROCS_RefColorTversky>
0.187 

> <ROCS_RefTverskyCombo>
0.468 

> <ROCS_FitTversky>
1.607 

> <ROCS_FitColorTversky>
0.691 

> <ROCS_FitTverskyCombo>
2.298 

> <ROCS_ColorScore>
-5.691

> <ROCS_Overlap>
1953.949

> <ROCS_Rank>
242                 

$$$$
untitled-dbase-48015_17
  -OEChem-11132313473D

 32 33  0     0  0  0  0  0  0999 V2000
    6.3693   11.1001   25.9276 C   0  0  0  0  0  0  0  0  0  0  0  0
    8.0611   10.5533   24.3338 C   0  0  0  0  0  0  0  0  0  0  0  0
    6.9474   10.1539   25.0838 C   0  0  0  0  0  0  0  0  0  0  0  0
    8.9362    9.9816   23.3959 C   0  0  0  0  0  0  0  0  0  0  0  0
    8.5156   11.8564   24.4768 C   0  0  0  0  0  0  0  0  0  0  0  0
    6.9201   12.3740   25.9804 C   0  0  0  0  0  0  0  0  0  0  0  0
   10.4006   13.1138   23.4363 C   0  0  0  0  0  0  0  0  0  0  0  0
    8.9366    8.6104   22.8538 C   0  0  0  0  0  0  0  0  0  0  0  0
   12.1390   15.1452   22.4956 C   0  0  0  0  0  0  0  0  0  0  0  0
   11.6881   14.2125   20.2074 C   0  0  0  0  0  0  0  0  0  0  0  0
    9.8009   15.1642   21.5641 C   0  0  0  0  0  0  0  0  0  0  0  0
   11.1293   14.4108   21.6147 C   0  0  0  0  0  0  0  0  0  0  0  0
    9.8703   10.8341   22.9706 N   0  0  0  0  0  0  0  0  0  0  0  0
    7.9927   12.8065   25.2771 N   0  0  0  0  0  0  0  0  0  0  0  0
    9.6057   11.9858   23.6393 N   0  0  0  0  0  0  0  0  0  0  0  0
   10.5687   13.9301   24.3276 O   0  0  0  0  0  0  0  0  0  0  0  0
   10.8966   13.1143   22.1727 O   0  0  0  0  0  0  0  0  0  0  0  0
    6.3739    8.5618   24.9273 Cl  0  0  0  0  0  0  0  0  0  0  0  0
    6.2355   13.5694   27.0117 Cl  0  0  0  0  0  0  0  0  0  0  0  0
    5.5042   10.8415   26.5318 H   0  0  0  0  0  0  0  0  0  0  0  0
    8.3162    8.5407   21.9446 H   0  0  0  0  0  0  0  0  0  0  0  0
    9.9528    8.2677   22.5916 H   0  0  0  0  0  0  0  0  0  0  0  0
    8.5472    7.8762   23.5808 H   0  0  0  0  0  0  0  0  0  0  0  0
   11.7416   15.2896   23.5066 H   0  0  0  0  0  0  0  0  0  0  0  0
   13.0843   14.5976   22.5684 H   0  0  0  0  0  0  0  0  0  0  0  0
   12.3482   16.1457   22.0999 H   0  0  0  0  0  0  0  0  0  0  0  0
   10.9669   13.6859   19.5719 H   0  0  0  0  0  0  0  0  0  0  0  0
   12.5909   13.5914   20.2298 H   0  0  0  0  0  0  0  0  0  0  0  0
   11.9360   15.1674   19.7327 H   0  0  0  0  0  0  0  0  0  0  0  0
    9.0765   14.6376   20.9323 H   0  0  0  0  0  0  0  0  0  0  0  0
    9.3667   15.2836   22.5620 H   0  0  0  0  0  0  0  0  0  0  0  0
    9.9331   16.1578   21.1208 H   0  0  0  0  0  0  0  0  0  0  0  0
  1  3  1  0  0  0  0
  1  6  2  0  0  0  0
  2  3  2  0  0  0  0
  2  4  1  0  0  0  0
  2  5  1  0  0  0  0
  3 18  1  0  0  0  0
  4  8  1  0  0  0  0
  4 13  2  0  0  0  0
  5 14  2  0  0  0  0
  5 15  1  0  0  0  0
  6 14  1  0  0  0  0
  6 19  1  0  0  0  0
  7 15  1  0  0  0  0
  7 16  2  0  0  0  0
  7 17  1  0  0  0  0
  9 12  1  0  0  0  0
 10 12  1  0  0  0  0
 11 12  1  0  0  0  0
 12 17  1  0  0  0  0
 13 15  1  0  0  0  0
  1 20  1  0  0  0  0
  8 21  1  0  0  0  0
  8 22  1  0  0  0  0
  8 23  1  0  0  0  0
  9 24  1  0  0  0  0
  9 25  1  0  0  0  0
  9 26  1  0  0  0  0
 10 27  1  0  0  0  0
 10 28  1  0  0  0  0
 10 29  1  0  0  0  0
 11 30  1  0  0  0  0
 11 31  1  0  0  0  0
 11 32  1  0  0  0  0
M  END
> <id>
EN300-319691

> <smiles>
CC1=NN(C(=O)OC(C)(C)C)C=2N=C(Cl)C=C(Cl)C12

> <MDLNUMBER>
MFCD30477286

> <IUPAC Name>
tert-butyl 4,6-dichloro-3-methyl-1H-pyrazolo[3,4-b]pyridine-1-carboxylate

> <CAS>
2060043-63-0

> <URL>
https://www.enaminestore.com/catalog/EN300-319691

> <ROCS_ShapeQuery>
A71EV2A-x0451_0A_A71EV2A-x0310_0A_A71EV2A-x0416_0A_peptide

> <ROCS_TanimotoCombo>
0.487 

> <ROCS_ShapeTanimoto>
0.355 

> <ROCS_ColorTanimoto>
0.132 

> <ROCS_RefTversky>
0.307 

> <ROCS_RefColorTversky>
0.145 

> <ROCS_RefTverskyCombo>
0.451 

> <ROCS_FitTversky>
1.804 

> <ROCS_FitColorTversky>
0.603 

> <ROCS_FitTverskyCombo>
2.407 

> <ROCS_ColorScore>
-4.405

> <ROCS_Overlap>
2127.733

> <ROCS_Rank>
243                 

$$$$
untitled-dbase-22646_47
  -OEChem-11132313473D

 38 39  0     1  0  0  0  0  0999 V2000
    7.2447   10.7540   25.3528 C   0  0  0  0  0  0  0  0  0  0  0  0
   10.6030   13.0385   23.5442 C   0  0  0  0  0  0  0  0  0  0  0  0
    8.9903    9.7060   23.7283 C   0  0  0  0  0  0  0  0  0  0  0  0
   10.0742   10.6261   23.1779 C   0  0  0  0  0  0  0  0  0  0  0  0
    7.7596   10.5919   23.9121 C   0  0  2  0  0  0  0  0  0  0  0  0
    8.2941   12.0493   23.9998 C   0  0  1  0  0  0  0  0  0  0  0  0
    7.9534   12.1329   25.5307 C   0  0  0  0  0  0  0  0  0  0  0  0
    6.9843   13.2691   25.8560 C   0  0  0  0  0  0  0  0  0  0  0  0
    9.1027   12.0815   26.5355 C   0  0  0  0  0  0  0  0  0  0  0  0
   12.6756   14.9260   22.9891 C   0  0  0  0  0  0  0  0  0  0  0  0
   12.9167   13.7360   20.7902 C   0  0  0  0  0  0  0  0  0  0  0  0
   10.7573   14.8849   21.3604 C   0  0  0  0  0  0  0  0  0  0  0  0
   11.9545   14.1138   21.9143 C   0  0  0  0  0  0  0  0  0  0  0  0
    9.7208   11.9718   23.6169 N   0  0  0  0  0  0  0  0  0  0  0  0
    6.5612   10.0581   26.0748 O   0  0  0  0  0  0  0  0  0  0  0  0
   10.6016   13.9934   24.3172 O   0  0  0  0  0  0  0  0  0  0  0  0
   11.4807   12.8980   22.5033 O   0  0  0  0  0  0  0  0  0  0  0  0
    8.7683    8.9278   22.9921 H   0  0  0  0  0  0  0  0  0  0  0  0
    9.2943    9.2217   24.6581 H   0  0  0  0  0  0  0  0  0  0  0  0
   11.0554   10.3893   23.6087 H   0  0  0  0  0  0  0  0  0  0  0  0
   10.1581   10.5771   22.0859 H   0  0  0  0  0  0  0  0  0  0  0  0
    6.9569   10.4173   23.1974 H   0  0  0  0  0  0  0  0  0  0  0  0
    7.7399   12.7555   23.3506 H   0  0  0  0  0  0  0  0  0  0  0  0
    7.5353   14.2005   25.9678 H   0  0  0  0  0  0  0  0  0  0  0  0
    6.4597   13.0494   26.7836 H   0  0  0  0  0  0  0  0  0  0  0  0
    6.2601   13.3753   25.0510 H   0  0  0  0  0  0  0  0  0  0  0  0
    9.5621   13.0651   26.6227 H   0  0  0  0  0  0  0  0  0  0  0  0
    9.8534   11.3663   26.2026 H   0  0  0  0  0  0  0  0  0  0  0  0
    8.7276   11.7760   27.5112 H   0  0  0  0  0  0  0  0  0  0  0  0
   11.9884   15.1991   23.7978 H   0  0  0  0  0  0  0  0  0  0  0  0
   13.5153   14.3702   23.4192 H   0  0  0  0  0  0  0  0  0  0  0  0
   13.0581   15.8670   22.5774 H   0  0  0  0  0  0  0  0  0  0  0  0
   12.4035   13.1532   20.0168 H   0  0  0  0  0  0  0  0  0  0  0  0
   13.7277   13.1023   21.1671 H   0  0  0  0  0  0  0  0  0  0  0  0
   13.3580   14.6215   20.3214 H   0  0  0  0  0  0  0  0  0  0  0  0
   10.2399   14.3025   20.5894 H   0  0  0  0  0  0  0  0  0  0  0  0
   10.0378   15.1324   22.1475 H   0  0  0  0  0  0  0  0  0  0  0  0
   11.0814   15.8151   20.8798 H   0  0  0  0  0  0  0  0  0  0  0  0
  1  5  1  0  0  0  0
  1  7  1  0  0  0  0
  1 15  2  0  0  0  0
  2 14  1  0  0  0  0
  2 16  2  0  0  0  0
  2 17  1  0  0  0  0
  3  4  1  0  0  0  0
  3  5  1  1  0  0  0
  4 14  1  0  0  0  0
  5  6  1  0  0  0  0
  6  7  1  0  0  0  0
  6 14  1  1  0  0  0
  7  8  1  0  0  0  0
  7  9  1  0  0  0  0
 10 13  1  0  0  0  0
 11 13  1  0  0  0  0
 12 13  1  0  0  0  0
 13 17  1  0  0  0  0
  3 18  1  0  0  0  0
  3 19  1  0  0  0  0
  4 20  1  0  0  0  0
  4 21  1  0  0  0  0
  5 22  1  0  0  0  0
  6 23  1  0  0  0  0
  8 24  1  0  0  0  0
  8 25  1  0  0  0  0
  8 26  1  0  0  0  0
  9 27  1  0  0  0  0
  9 28  1  0  0  0  0
  9 29  1  0  0  0  0
 10 30  1  0  0  0  0
 10 31  1  0  0  0  0
 10 32  1  0  0  0  0
 11 33  1  0  0  0  0
 11 34  1  0  0  0  0
 11 35  1  0  0  0  0
 12 36  1  0  0  0  0
 12 37  1  0  0  0  0
 12 38  1  0  0  0  0
M  END
> <id>
EN300-7438833

> <smiles>
CC(C)(C)OC(=O)N1CC[C@@H]2[C@H]1C(C)(C)C2=O |&1:10,11,r|

> <MDLNUMBER>
MFCD32640603

> <IUPAC Name>
rac-tert-butyl (1R,5S)-7,7-dimethyl-6-oxo-2-azabicyclo[3.2.0]heptane-2-carboxylate

> <CAS>
2408937-37-9

> <Purity>
95

> <URL>
https://www.enaminestore.com/catalog/EN300-7438833

> <ROCS_ShapeQuery>
A71EV2A-x0451_0A_A71EV2A-x0310_0A_A71EV2A-x0416_0A_peptide

> <ROCS_TanimotoCombo>
0.487 

> <ROCS_ShapeTanimoto>
0.308 

> <ROCS_ColorTanimoto>
0.179 

> <ROCS_RefTversky>
0.272 

> <ROCS_RefColorTversky>
0.204 

> <ROCS_RefTverskyCombo>
0.476 

> <ROCS_FitTversky>
1.758 

> <ROCS_FitColorTversky>
0.595 

> <ROCS_FitTverskyCombo>
2.353 

> <ROCS_ColorScore>
-6.251

> <ROCS_Overlap>
1885.126

> <ROCS_Rank>
244                 

$$$$
untitled-dbase-51456_23
  -OEChem-11132313473D

 35 36  0     0  0  0  0  0  0999 V2000
    9.5445   11.4904   23.5435 C   0  0  0  0  0  0  0  0  0  0  0  0
    8.7143   12.4737   24.0715 C   0  0  0  0  0  0  0  0  0  0  0  0
    9.1993   10.1735   23.6870 C   0  0  0  0  0  0  0  0  0  0  0  0
    7.5689   12.1044   24.7240 C   0  0  0  0  0  0  0  0  0  0  0  0
   11.3549   14.5469   22.6224 C   0  0  0  0  0  0  0  0  0  0  0  0
   10.7280   12.1030   22.8799 C   0  0  0  0  0  0  0  0  0  0  0  0
    9.2703   13.8288   23.8064 C   0  0  0  0  0  0  0  0  0  0  0  0
   10.0481    9.0797   23.1445 C   0  0  0  0  0  0  0  0  0  0  0  0
   13.2676   16.2316   21.3285 C   0  0  0  0  0  0  0  0  0  0  0  0
   13.0975   14.6317   19.3997 C   0  0  0  0  0  0  0  0  0  0  0  0
   11.0753   15.9302   20.1295 C   0  0  0  0  0  0  0  0  0  0  0  0
   12.3629   15.2474   20.5885 C   0  0  0  0  0  0  0  0  0  0  0  0
    8.0679    9.8251   24.3324 N   0  0  0  0  0  0  0  0  0  0  0  0
    7.2422   10.8030   24.8576 N   0  0  0  0  0  0  0  0  0  0  0  0
   10.5091   13.5457   23.0709 N   0  0  0  0  0  0  0  0  0  0  0  0
   11.4928   15.6339   23.1789 O   0  0  0  0  0  0  0  0  0  0  0  0
    6.7250   13.0330   25.2577 O   0  0  0  0  0  0  0  0  0  0  0  0
   12.0204   14.1824   21.4827 O   0  0  0  0  0  0  0  0  0  0  0  0
   11.6688   11.8215   23.3620 H   0  0  0  0  0  0  0  0  0  0  0  0
   10.7636   11.8897   21.8072 H   0  0  0  0  0  0  0  0  0  0  0  0
    8.6146   14.4350   23.1743 H   0  0  0  0  0  0  0  0  0  0  0  0
    9.5204   14.3660   24.7260 H   0  0  0  0  0  0  0  0  0  0  0  0
   10.7859    8.7567   23.8914 H   0  0  0  0  0  0  0  0  0  0  0  0
    9.4450    8.2069   22.8564 H   0  0  0  0  0  0  0  0  0  0  0  0
   10.5888    9.3992   22.2421 H   0  0  0  0  0  0  0  0  0  0  0  0
   12.7440   16.6758   22.1826 H   0  0  0  0  0  0  0  0  0  0  0  0
   14.1786   15.7461   21.6934 H   0  0  0  0  0  0  0  0  0  0  0  0
   13.5564   17.0637   20.6762 H   0  0  0  0  0  0  0  0  0  0  0  0
   12.4521   13.9248   18.8658 H   0  0  0  0  0  0  0  0  0  0  0  0
   13.9709   14.0602   19.7340 H   0  0  0  0  0  0  0  0  0  0  0  0
   13.4337   15.3966   18.6922 H   0  0  0  0  0  0  0  0  0  0  0  0
   10.4262   15.2245   19.5987 H   0  0  0  0  0  0  0  0  0  0  0  0
   10.5162   16.3461   20.9739 H   0  0  0  0  0  0  0  0  0  0  0  0
   11.2939   16.7400   19.4240 H   0  0  0  0  0  0  0  0  0  0  0  0
    5.9699   12.5947   25.6793 H   0  0  0  0  0  0  0  0  0  0  0  0
  1  2  2  0  0  0  0
  1  3  1  0  0  0  0
  1  6  1  0  0  0  0
  2  4  1  0  0  0  0
  2  7  1  0  0  0  0
  3  8  1  0  0  0  0
  3 13  2  0  0  0  0
  4 14  2  0  0  0  0
  4 17  1  0  0  0  0
  5 15  1  0  0  0  0
  5 16  2  0  0  0  0
  5 18  1  0  0  0  0
  6 15  1  0  0  0  0
  7 15  1  0  0  0  0
  9 12  1  0  0  0  0
 10 12  1  0  0  0  0
 11 12  1  0  0  0  0
 12 18  1  0  0  0  0
 13 14  1  0  0  0  0
  6 19  1  0  0  0  0
  6 20  1  0  0  0  0
  7 21  1  0  0  0  0
  7 22  1  0  0  0  0
  8 23  1  0  0  0  0
  8 24  1  0  0  0  0
  8 25  1  0  0  0  0
  9 26  1  0  0  0  0
  9 27  1  0  0  0  0
  9 28  1  0  0  0  0
 10 29  1  0  0  0  0
 10 30  1  0  0  0  0
 10 31  1  0  0  0  0
 11 32  1  0  0  0  0
 11 33  1  0  0  0  0
 11 34  1  0  0  0  0
 17 35  1  0  0  0  0
M  END
> <id>
EN300-43356278

> <smiles>
CC=1N=NC(O)=C2CN(CC21)C(=O)OC(C)(C)C

> <IUPAC Name>
tert-butyl 1-hydroxy-4-methyl-5H,6H,7H-pyrrolo[3,4-d]pyridazine-6-carboxylate

> <URL>
https://www.enaminestore.com/catalog/EN300-43356278

> <ROCS_ShapeQuery>
A71EV2A-x0451_0A_A71EV2A-x0310_0A_A71EV2A-x0416_0A_peptide

> <ROCS_TanimotoCombo>
0.487 

> <ROCS_ShapeTanimoto>
0.332 

> <ROCS_ColorTanimoto>
0.155 

> <ROCS_RefTversky>
0.290 

> <ROCS_RefColorTversky>
0.176 

> <ROCS_RefTverskyCombo>
0.466 

> <ROCS_FitTversky>
1.771 

> <ROCS_FitColorTversky>
0.566 

> <ROCS_FitTverskyCombo>
2.336 

> <ROCS_ColorScore>
-5.370

> <ROCS_Overlap>
2013.467

> <ROCS_Rank>
245                 

$$$$
untitled-dbase-13345_6
  -OEChem-11132313473D

 36 37  0     1  0  0  0  0  0999 V2000
   10.3487   13.1215   23.5941 C   0  0  0  0  0  0  0  0  0  0  0  0
    7.1894   11.7618   23.7387 C   0  0  0  0  0  0  0  0  0  0  0  0
    7.7728   11.3511   25.1134 C   0  0  0  0  0  0  0  0  0  0  0  0
    8.7689   10.2066   22.5961 C   0  0  0  0  0  0  0  0  0  0  0  0
    8.4187   11.6916   22.8182 C   0  0  2  0  0  0  0  0  0  0  0  0
    9.2584   11.0909   24.7923 C   0  0  1  0  0  0  0  0  0  0  0  0
    9.4238    9.8060   23.9488 C   0  0  1  0  0  0  0  0  0  0  0  0
   11.7375   14.5504   20.4095 C   0  0  0  0  0  0  0  0  0  0  0  0
   11.0460   15.8098   22.4648 C   0  0  0  0  0  0  0  0  0  0  0  0
   12.9602   14.1931   22.5663 C   0  0  0  0  0  0  0  0  0  0  0  0
   11.5936   14.4807   21.9341 C   0  0  0  0  0  0  0  0  0  0  0  0
    9.4595   12.0815   23.7459 N   0  0  0  0  0  0  0  0  0  0  0  0
    8.8364    8.6145   24.5359 N   0  0  0  0  0  0  0  0  0  0  0  0
   10.6752   13.4203   22.2790 N   0  0  0  0  0  0  0  0  0  0  0  0
   10.8179   13.7379   24.5548 O   0  0  0  0  0  0  0  0  0  0  0  0
    6.3828   11.0927   23.4232 H   0  0  0  0  0  0  0  0  0  0  0  0
    6.7941   12.7825   23.7912 H   0  0  0  0  0  0  0  0  0  0  0  0
    7.6750   12.1872   25.8163 H   0  0  0  0  0  0  0  0  0  0  0  0
    7.2517   10.4916   25.5427 H   0  0  0  0  0  0  0  0  0  0  0  0
    7.8862    9.6073   22.3471 H   0  0  0  0  0  0  0  0  0  0  0  0
    9.4975   10.0909   21.7852 H   0  0  0  0  0  0  0  0  0  0  0  0
    8.3502   12.2913   21.9087 H   0  0  0  0  0  0  0  0  0  0  0  0
    9.9210   11.1528   25.6558 H   0  0  0  0  0  0  0  0  0  0  0  0
   10.4828    9.6186   23.7882 H   0  0  0  0  0  0  0  0  0  0  0  0
   12.1284   13.6095   20.0050 H   0  0  0  0  0  0  0  0  0  0  0  0
   10.7745   14.7498   19.9266 H   0  0  0  0  0  0  0  0  0  0  0  0
   12.4340   15.3439   20.1144 H   0  0  0  0  0  0  0  0  0  0  0  0
   10.9341   15.7842   23.5550 H   0  0  0  0  0  0  0  0  0  0  0  0
   10.0577   16.0268   22.0431 H   0  0  0  0  0  0  0  0  0  0  0  0
   11.7105   16.6439   22.2134 H   0  0  0  0  0  0  0  0  0  0  0  0
   12.8865   14.1378   23.6587 H   0  0  0  0  0  0  0  0  0  0  0  0
   13.3740   13.2442   22.2075 H   0  0  0  0  0  0  0  0  0  0  0  0
   13.6804   14.9850   22.3300 H   0  0  0  0  0  0  0  0  0  0  0  0
    8.9645    7.8537   23.9076 H   0  0  0  0  0  0  0  0  0  0  0  0
    9.2921    8.4285   25.4005 H   0  0  0  0  0  0  0  0  0  0  0  0
   10.2547   12.8756   21.5346 H   0  0  0  0  0  0  0  0  0  0  0  0
  1 12  1  0  0  0  0
  1 14  1  0  0  0  0
  1 15  2  0  0  0  0
  2  3  1  0  0  0  0
  2  5  1  0  0  0  0
  3  6  1  0  0  0  0
  4  5  1  0  0  0  0
  4  7  1  0  0  0  0
  5 12  1  0  0  0  0
  6  7  1  0  0  0  0
  6 12  1  0  0  0  0
  7 13  1  0  0  0  0
  8 11  1  0  0  0  0
  9 11  1  0  0  0  0
 10 11  1  0  0  0  0
 11 14  1  0  0  0  0
  2 16  1  0  0  0  0
  2 17  1  0  0  0  0
  3 18  1  0  0  0  0
  3 19  1  0  0  0  0
  4 20  1  0  0  0  0
  4 21  1  0  0  0  0
  5 22  1  0  0  0  0
  6 23  1  0  0  0  0
  7 24  1  0  0  0  0
  8 25  1  0  0  0  0
  8 26  1  0  0  0  0
  8 27  1  0  0  0  0
  9 28  1  0  0  0  0
  9 29  1  0  0  0  0
  9 30  1  0  0  0  0
 10 31  1  0  0  0  0
 10 32  1  0  0  0  0
 10 33  1  0  0  0  0
 13 34  1  0  0  0  0
 13 35  1  0  0  0  0
 14 36  1  0  0  0  0
M  END
> <id>
EN300-767387

> <smiles>
CC(C)(C)NC(=O)N1C2CCC1C(N)C2

> <MDLNUMBER>
MFCD31459648

> <IUPAC Name>
2-amino-N-tert-butyl-7-azabicyclo[2.2.1]heptane-7-carboxamide

> <CAS>
2137559-59-0

> <URL>
https://www.enaminestore.com/catalog/EN300-767387

> <ROCS_ShapeQuery>
A71EV2A-x0451_0A_A71EV2A-x0310_0A_A71EV2A-x0416_0A_peptide

> <ROCS_TanimotoCombo>
0.487 

> <ROCS_ShapeTanimoto>
0.270 

> <ROCS_ColorTanimoto>
0.217 

> <ROCS_RefTversky>
0.243 

> <ROCS_RefColorTversky>
0.250 

> <ROCS_RefTverskyCombo>
0.493 

> <ROCS_FitTversky>
1.699 

> <ROCS_FitColorTversky>
0.621 

> <ROCS_FitTverskyCombo>
2.320 

> <ROCS_ColorScore>
-7.682

> <ROCS_Overlap>
1684.182

> <ROCS_Rank>
246                 

$$$$
untitled-dbase-23713_78
  -OEChem-11132313473D

 36 37  0     1  0  0  0  0  0999 V2000
   10.4821   13.2330   23.4511 C   0  0  0  0  0  0  0  0  0  0  0  0
   10.0571   10.8315   23.0171 C   0  0  0  0  0  0  0  0  0  0  0  0
    8.8047   10.0006   22.8022 C   0  0  0  0  0  0  0  0  0  0  0  0
    6.3036   12.6057   24.7941 C   0  0  0  0  0  0  0  0  0  0  0  0
    5.9876   11.1883   25.2357 C   0  0  0  0  0  0  0  0  0  0  0  0
    8.5855   12.0490   24.6076 C   0  0  1  0  0  0  0  0  0  0  0  0
    8.2823   10.6192   25.0778 C   0  0  2  0  0  0  0  0  0  0  0  0
   12.1818   15.3339   22.5128 C   0  0  0  0  0  0  0  0  0  0  0  0
   11.8482   14.3352   20.2324 C   0  0  0  0  0  0  0  0  0  0  0  0
    9.8797   15.2448   21.4995 C   0  0  0  0  0  0  0  0  0  0  0  0
   11.2322   14.5431   21.6142 C   0  0  0  0  0  0  0  0  0  0  0  0
    9.7231   12.0841   23.6862 N   0  0  0  0  0  0  0  0  0  0  0  0
   10.6526   14.1306   24.2738 O   0  0  0  0  0  0  0  0  0  0  0  0
    7.4434   12.5959   23.9343 O   0  0  0  0  0  0  0  0  0  0  0  0
    8.1557    9.6589   24.0238 O   0  0  0  0  0  0  0  0  0  0  0  0
    7.1144   10.6280   25.9122 O   0  0  0  0  0  0  0  0  0  0  0  0
   11.0272   13.2499   22.1941 O   0  0  0  0  0  0  0  0  0  0  0  0
   10.7981   10.2695   23.5866 H   0  0  0  0  0  0  0  0  0  0  0  0
   10.4967   11.1030   22.0539 H   0  0  0  0  0  0  0  0  0  0  0  0
    8.0815   10.5705   22.1925 H   0  0  0  0  0  0  0  0  0  0  0  0
    9.0273    9.0779   22.2323 H   0  0  0  0  0  0  0  0  0  0  0  0
    5.4617   13.0316   24.2397 H   0  0  0  0  0  0  0  0  0  0  0  0
    6.5125   13.2542   25.6534 H   0  0  0  0  0  0  0  0  0  0  0  0
    5.1400   11.1834   25.9275 H   0  0  0  0  0  0  0  0  0  0  0  0
    5.7328   10.5528   24.3800 H   0  0  0  0  0  0  0  0  0  0  0  0
    8.7834   12.6833   25.4829 H   0  0  0  0  0  0  0  0  0  0  0  0
    9.1004   10.2733   25.7453 H   0  0  0  0  0  0  0  0  0  0  0  0
   11.7433   15.4853   23.5057 H   0  0  0  0  0  0  0  0  0  0  0  0
   13.1434   14.8239   22.6315 H   0  0  0  0  0  0  0  0  0  0  0  0
   12.3682   16.3327   22.1017 H   0  0  0  0  0  0  0  0  0  0  0  0
   11.1702   13.7682   19.5842 H   0  0  0  0  0  0  0  0  0  0  0  0
   12.7718   13.7491   20.3009 H   0  0  0  0  0  0  0  0  0  0  0  0
   12.0777   15.2882   19.7448 H   0  0  0  0  0  0  0  0  0  0  0  0
    9.1983   14.6777   20.8550 H   0  0  0  0  0  0  0  0  0  0  0  0
    9.4057   15.3694   22.4785 H   0  0  0  0  0  0  0  0  0  0  0  0
    9.9911   16.2327   21.0382 H   0  0  0  0  0  0  0  0  0  0  0  0
  1 12  1  0  0  0  0
  1 13  2  0  0  0  0
  1 17  1  0  0  0  0
  2  3  1  0  0  0  0
  2 12  1  0  0  0  0
  3 15  1  0  0  0  0
  4  5  1  0  0  0  0
  4 14  1  0  0  0  0
  5 16  1  0  0  0  0
  6  7  1  0  0  0  0
  6 12  1  0  0  0  0
  6 14  1  6  0  0  0
  7 15  1  6  0  0  0
  7 16  1  0  0  0  0
  8 11  1  0  0  0  0
  9 11  1  0  0  0  0
 10 11  1  0  0  0  0
 11 17  1  0  0  0  0
  2 18  1  0  0  0  0
  2 19  1  0  0  0  0
  3 20  1  0  0  0  0
  3 21  1  0  0  0  0
  4 22  1  0  0  0  0
  4 23  1  0  0  0  0
  5 24  1  0  0  0  0
  5 25  1  0  0  0  0
  6 26  1  0  0  0  0
  7 27  1  0  0  0  0
  8 28  1  0  0  0  0
  8 29  1  0  0  0  0
  8 30  1  0  0  0  0
  9 31  1  0  0  0  0
  9 32  1  0  0  0  0
  9 33  1  0  0  0  0
 10 34  1  0  0  0  0
 10 35  1  0  0  0  0
 10 36  1  0  0  0  0
M  END
> <id>
EN300-7537234

> <smiles>
CC(C)(C)OC(=O)N1CCO[C@@H]2OCCO[C@@H]21 |&1:11,16,r|

> <MDLNUMBER>
MFCD32638662

> <IUPAC Name>
rac-tert-butyl (4aR,8aS)-hexahydro-2H-[1,4]dioxino[2,3-b][1,4]oxazine-8-carboxylate

> <CAS>
2408937-09-5

> <Purity>
95

> <URL>
https://www.enaminestore.com/catalog/EN300-7537234

> <ROCS_ShapeQuery>
A71EV2A-x0451_0A_A71EV2A-x0310_0A_A71EV2A-x0416_0A_peptide

> <ROCS_TanimotoCombo>
0.487 

> <ROCS_ShapeTanimoto>
0.316 

> <ROCS_ColorTanimoto>
0.171 

> <ROCS_RefTversky>
0.278 

> <ROCS_RefColorTversky>
0.186 

> <ROCS_RefTverskyCombo>
0.463 

> <ROCS_FitTversky>
1.775 

> <ROCS_FitColorTversky>
0.685 

> <ROCS_FitTverskyCombo>
2.460 

> <ROCS_ColorScore>
-5.661

> <ROCS_Overlap>
1925.097

> <ROCS_Rank>
247                 

$$$$
untitled-dbase-34531_7
  -OEChem-11132313473D

 35 36  0     0  0  0  0  0  0999 V2000
    6.3608   11.2875   26.0241 C   0  0  0  0  0  0  0  0  0  0  0  0
    6.7906   12.5888   25.8093 C   0  0  0  0  0  0  0  0  0  0  0  0
    7.0444   10.2330   25.4279 C   0  0  0  0  0  0  0  0  0  0  0  0
    7.9012   12.8385   24.9979 C   0  0  0  0  0  0  0  0  0  0  0  0
    8.1746   10.4625   24.6223 C   0  0  0  0  0  0  0  0  0  0  0  0
    8.6132   11.7885   24.3928 C   0  0  0  0  0  0  0  0  0  0  0  0
   10.3905   13.2585   23.3883 C   0  0  0  0  0  0  0  0  0  0  0  0
   10.1150    9.5538   23.4597 C   0  0  0  0  0  0  0  0  0  0  0  0
   10.1564   10.8637   22.6945 C   0  0  0  0  0  0  0  0  0  0  0  0
   12.7766   14.7543   22.8391 C   0  0  0  0  0  0  0  0  0  0  0  0
   12.0462   14.6856   20.4368 C   0  0  0  0  0  0  0  0  0  0  0  0
   10.6152   15.8421   22.1464 C   0  0  0  0  0  0  0  0  0  0  0  0
   11.5802   14.6852   21.8911 C   0  0  0  0  0  0  0  0  0  0  0  0
    8.8174    9.3682   24.0560 N   0  0  0  0  0  0  0  0  0  0  0  0
    9.7400   12.0145   23.5174 N   0  0  0  0  0  0  0  0  0  0  0  0
   10.5352   14.0969   24.2740 O   0  0  0  0  0  0  0  0  0  0  0  0
   10.8864   13.4531   22.1217 O   0  0  0  0  0  0  0  0  0  0  0  0
    5.5010   11.0925   26.6576 H   0  0  0  0  0  0  0  0  0  0  0  0
    6.2724   13.4166   26.2852 H   0  0  0  0  0  0  0  0  0  0  0  0
    6.6844    9.2185   25.5875 H   0  0  0  0  0  0  0  0  0  0  0  0
    8.1984   13.8763   24.9011 H   0  0  0  0  0  0  0  0  0  0  0  0
   10.3355    8.7157   22.7875 H   0  0  0  0  0  0  0  0  0  0  0  0
   10.8809    9.5516   24.2426 H   0  0  0  0  0  0  0  0  0  0  0  0
   11.1705   11.0755   22.3318 H   0  0  0  0  0  0  0  0  0  0  0  0
    9.5145   10.7660   21.8129 H   0  0  0  0  0  0  0  0  0  0  0  0
   12.4463   14.7543   23.8840 H   0  0  0  0  0  0  0  0  0  0  0  0
   13.4586   13.9109   22.6900 H   0  0  0  0  0  0  0  0  0  0  0  0
   13.3384   15.6839   22.6926 H   0  0  0  0  0  0  0  0  0  0  0  0
   11.1910   14.6361   19.7531 H   0  0  0  0  0  0  0  0  0  0  0  0
   12.6627   13.8046   20.2243 H   0  0  0  0  0  0  0  0  0  0  0  0
   12.6285   15.5817   20.1993 H   0  0  0  0  0  0  0  0  0  0  0  0
    9.7570   15.7928   21.4666 H   0  0  0  0  0  0  0  0  0  0  0  0
   10.2417   15.8361   23.1755 H   0  0  0  0  0  0  0  0  0  0  0  0
   11.1034   16.8053   21.9588 H   0  0  0  0  0  0  0  0  0  0  0  0
    8.2843    8.5344   23.8408 H   0  0  0  0  0  0  0  0  0  0  0  0
  1  2  2  0  0  0  0
  1  3  1  0  0  0  0
  2  4  1  0  0  0  0
  3  5  2  0  0  0  0
  4  6  2  0  0  0  0
  5  6  1  0  0  0  0
  5 14  1  0  0  0  0
  6 15  1  0  0  0  0
  7 15  1  0  0  0  0
  7 16  2  0  0  0  0
  7 17  1  0  0  0  0
  8  9  1  0  0  0  0
  8 14  1  0  0  0  0
  9 15  1  0  0  0  0
 10 13  1  0  0  0  0
 11 13  1  0  0  0  0
 12 13  1  0  0  0  0
 13 17  1  0  0  0  0
  1 18  1  0  0  0  0
  2 19  1  0  0  0  0
  3 20  1  0  0  0  0
  4 21  1  0  0  0  0
  8 22  1  0  0  0  0
  8 23  1  0  0  0  0
  9 24  1  0  0  0  0
  9 25  1  0  0  0  0
 10 26  1  0  0  0  0
 10 27  1  0  0  0  0
 10 28  1  0  0  0  0
 11 29  1  0  0  0  0
 11 30  1  0  0  0  0
 11 31  1  0  0  0  0
 12 32  1  0  0  0  0
 12 33  1  0  0  0  0
 12 34  1  0  0  0  0
 14 35  1  0  0  0  0
M  END
> <id>
EN300-216518

> <smiles>
CC(C)(C)OC(=O)N1CCNC=2C=CC=CC12

> <MDLNUMBER>
MFCD06656598

> <IUPAC Name>
tert-butyl 1,2,3,4-tetrahydroquinoxaline-1-carboxylate

> <CAS>
887590-25-2

> <Purity>
95

> <URL>
https://www.enaminestore.com/catalog/EN300-216518

> <ROCS_ShapeQuery>
A71EV2A-x0451_0A_A71EV2A-x0310_0A_A71EV2A-x0416_0A_peptide

> <ROCS_TanimotoCombo>
0.487 

> <ROCS_ShapeTanimoto>
0.336 

> <ROCS_ColorTanimoto>
0.151 

> <ROCS_RefTversky>
0.291 

> <ROCS_RefColorTversky>
0.158 

> <ROCS_RefTverskyCombo>
0.449 

> <ROCS_FitTversky>
1.857 

> <ROCS_FitColorTversky>
0.758 

> <ROCS_FitTverskyCombo>
2.614 

> <ROCS_ColorScore>
-4.804

> <ROCS_Overlap>
2019.560

> <ROCS_Rank>
248                 

$$$$
untitled-dbase-44989_70
  -OEChem-11132313473D

 35 36  0     0  0  0  0  0  0999 V2000
    7.9262   13.1494   25.1454 C   0  0  0  0  0  0  0  0  0  0  0  0
    6.8868   12.9675   26.0675 C   0  0  0  0  0  0  0  0  0  0  0  0
    6.8884   10.6136   25.6142 C   0  0  0  0  0  0  0  0  0  0  0  0
    7.9209   10.8034   24.6828 C   0  0  0  0  0  0  0  0  0  0  0  0
    8.5060   12.0673   24.4628 C   0  0  0  0  0  0  0  0  0  0  0  0
    6.3814   11.6990   26.3163 C   0  0  0  0  0  0  0  0  0  0  0  0
    8.3289    9.6424   23.8689 C   0  0  0  0  0  0  0  0  0  0  0  0
   10.4780   13.3340   23.4408 C   0  0  0  0  0  0  0  0  0  0  0  0
    8.9922    9.9762   22.5700 C   0  0  0  0  0  0  0  0  0  0  0  0
   10.0543   11.0254   22.8031 C   0  0  0  0  0  0  0  0  0  0  0  0
   12.2093   15.5230   22.7798 C   0  0  0  0  0  0  0  0  0  0  0  0
   11.9995   14.7238   20.4077 C   0  0  0  0  0  0  0  0  0  0  0  0
    9.9629   15.5179   21.6446 C   0  0  0  0  0  0  0  0  0  0  0  0
   11.3119   14.8110   21.7685 C   0  0  0  0  0  0  0  0  0  0  0  0
    9.6252   12.2076   23.5595 N   0  0  0  0  0  0  0  0  0  0  0  0
    8.0670    8.4936   24.2034 O   0  0  0  0  0  0  0  0  0  0  0  0
   10.6175   14.1714   24.3344 O   0  0  0  0  0  0  0  0  0  0  0  0
   11.0849   13.4714   22.2241 O   0  0  0  0  0  0  0  0  0  0  0  0
    5.4126   11.5246   27.2221 F   0  0  0  0  0  0  0  0  0  0  0  0
    8.2238   14.1781   24.9551 H   0  0  0  0  0  0  0  0  0  0  0  0
    6.4660   13.8287   26.5805 H   0  0  0  0  0  0  0  0  0  0  0  0
    6.4761    9.6284   25.8092 H   0  0  0  0  0  0  0  0  0  0  0  0
    9.4177    9.0658   22.1457 H   0  0  0  0  0  0  0  0  0  0  0  0
    8.2403   10.3716   21.8848 H   0  0  0  0  0  0  0  0  0  0  0  0
   10.9211   10.5342   23.2932 H   0  0  0  0  0  0  0  0  0  0  0  0
   10.4513   11.4000   21.8327 H   0  0  0  0  0  0  0  0  0  0  0  0
   11.7193   15.5876   23.7579 H   0  0  0  0  0  0  0  0  0  0  0  0
   13.1665   15.0061   22.9038 H   0  0  0  0  0  0  0  0  0  0  0  0
   12.4106   16.5537   22.4662 H   0  0  0  0  0  0  0  0  0  0  0  0
   11.3592   14.2136   19.6790 H   0  0  0  0  0  0  0  0  0  0  0  0
   12.9219   14.1354   20.4735 H   0  0  0  0  0  0  0  0  0  0  0  0
   12.2481   15.7156   20.0164 H   0  0  0  0  0  0  0  0  0  0  0  0
    9.3191   15.0074   20.9193 H   0  0  0  0  0  0  0  0  0  0  0  0
    9.4384   15.5571   22.6048 H   0  0  0  0  0  0  0  0  0  0  0  0
   10.0921   16.5421   21.2763 H   0  0  0  0  0  0  0  0  0  0  0  0
  1  2  1  0  0  0  0
  1  5  2  0  0  0  0
  2  6  2  0  0  0  0
  3  4  2  0  0  0  0
  3  6  1  0  0  0  0
  4  5  1  0  0  0  0
  4  7  1  0  0  0  0
  5 15  1  0  0  0  0
  6 19  1  0  0  0  0
  7  9  1  0  0  0  0
  7 16  2  0  0  0  0
  8 15  1  0  0  0  0
  8 17  2  0  0  0  0
  8 18  1  0  0  0  0
  9 10  1  0  0  0  0
 10 15  1  0  0  0  0
 11 14  1  0  0  0  0
 12 14  1  0  0  0  0
 13 14  1  0  0  0  0
 14 18  1  0  0  0  0
  1 20  1  0  0  0  0
  2 21  1  0  0  0  0
  3 22  1  0  0  0  0
  9 23  1  0  0  0  0
  9 24  1  0  0  0  0
 10 25  1  0  0  0  0
 10 26  1  0  0  0  0
 11 27  1  0  0  0  0
 11 28  1  0  0  0  0
 11 29  1  0  0  0  0
 12 30  1  0  0  0  0
 12 31  1  0  0  0  0
 12 32  1  0  0  0  0
 13 33  1  0  0  0  0
 13 34  1  0  0  0  0
 13 35  1  0  0  0  0
M  END
> <id>
EN300-12720228

> <smiles>
CC(C)(C)OC(=O)N1CCC(=O)C=2C=C(F)C=CC12

> <MDLNUMBER>
MFCD24539211

> <IUPAC Name>
tert-butyl 6-fluoro-4-oxo-1,2,3,4-tetrahydroquinoline-1-carboxylate

> <CAS>
1146211-09-7

> <URL>
https://www.enaminestore.com/catalog/EN300-12720228

> <ROCS_ShapeQuery>
A71EV2A-x0451_0A_A71EV2A-x0310_0A_A71EV2A-x0416_0A_peptide

> <ROCS_TanimotoCombo>
0.487 

> <ROCS_ShapeTanimoto>
0.354 

> <ROCS_ColorTanimoto>
0.133 

> <ROCS_RefTversky>
0.305 

> <ROCS_RefColorTversky>
0.142 

> <ROCS_RefTverskyCombo>
0.448 

> <ROCS_FitTversky>
1.801 

> <ROCS_FitColorTversky>
0.682 

> <ROCS_FitTverskyCombo>
2.483 

> <ROCS_ColorScore>
-4.321

> <ROCS_Overlap>
2119.649

> <ROCS_Rank>
249                 

$$$$
untitled-dbase-45684_13
  -OEChem-11132313473D

 40 42  0     0  0  0  0  0  0999 V2000
    7.9517   12.8269   25.3325 C   0  0  0  0  0  0  0  0  0  0  0  0
    6.8422   12.4612   26.0957 C   0  0  0  0  0  0  0  0  0  0  0  0
    6.8948   10.2319   25.1506 C   0  0  0  0  0  0  0  0  0  0  0  0
    8.0045   10.5828   24.3812 C   0  0  0  0  0  0  0  0  0  0  0  0
    8.5162   11.8804   24.4859 C   0  0  0  0  0  0  0  0  0  0  0  0
    6.3152   11.1700   26.0063 C   0  0  0  0  0  0  0  0  0  0  0  0
   10.3973   13.1630   23.4603 C   0  0  0  0  0  0  0  0  0  0  0  0
    9.1487    7.8800   22.3442 C   0  0  0  0  0  0  0  0  0  0  0  0
    9.3759    8.3487   23.7945 C   0  0  0  0  0  0  0  0  0  0  0  0
    8.0844    8.9877   22.2218 C   0  0  0  0  0  0  0  0  0  0  0  0
    9.9024   10.7463   22.8902 C   0  0  0  0  0  0  0  0  0  0  0  0
    8.8255    9.7441   23.3670 C   0  0  0  0  0  0  0  0  0  0  0  0
   12.1079   15.2908   22.5935 C   0  0  0  0  0  0  0  0  0  0  0  0
   11.7236   14.4087   20.2733 C   0  0  0  0  0  0  0  0  0  0  0  0
    9.7881   15.2779   21.6174 C   0  0  0  0  0  0  0  0  0  0  0  0
   11.1336   14.5559   21.6742 C   0  0  0  0  0  0  0  0  0  0  0  0
    9.6310   12.0113   23.6234 N   0  0  0  0  0  0  0  0  0  0  0  0
   10.6003   14.0223   24.3132 O   0  0  0  0  0  0  0  0  0  0  0  0
   10.9223   13.2380   22.1941 O   0  0  0  0  0  0  0  0  0  0  0  0
    4.8121   10.6920   27.0485 Br  0  0  0  0  0  0  0  0  0  0  0  0
    8.3366   13.8348   25.4243 H   0  0  0  0  0  0  0  0  0  0  0  0
    6.3957   13.1973   26.7599 H   0  0  0  0  0  0  0  0  0  0  0  0
    6.4914    9.2256   25.0746 H   0  0  0  0  0  0  0  0  0  0  0  0
   10.0165    8.0260   21.6909 H   0  0  0  0  0  0  0  0  0  0  0  0
    8.7847    6.8563   22.2272 H   0  0  0  0  0  0  0  0  0  0  0  0
    8.7497    7.8193   24.5230 H   0  0  0  0  0  0  0  0  0  0  0  0
   10.4121    8.3140   24.1423 H   0  0  0  0  0  0  0  0  0  0  0  0
    8.0377    9.4888   21.2510 H   0  0  0  0  0  0  0  0  0  0  0  0
    7.0749    8.6480   22.4835 H   0  0  0  0  0  0  0  0  0  0  0  0
   10.9204   10.4225   23.1340 H   0  0  0  0  0  0  0  0  0  0  0  0
    9.8420   10.9545   21.8162 H   0  0  0  0  0  0  0  0  0  0  0  0
   11.6881   15.3985   23.6001 H   0  0  0  0  0  0  0  0  0  0  0  0
   13.0649   14.7645   22.6704 H   0  0  0  0  0  0  0  0  0  0  0  0
   12.2998   16.3062   22.2284 H   0  0  0  0  0  0  0  0  0  0  0  0
   11.0278   13.8819   19.6103 H   0  0  0  0  0  0  0  0  0  0  0  0
   12.6409   13.8093   20.2972 H   0  0  0  0  0  0  0  0  0  0  0  0
   11.9566   15.3817   19.8288 H   0  0  0  0  0  0  0  0  0  0  0  0
    9.0890   14.7510   20.9580 H   0  0  0  0  0  0  0  0  0  0  0  0
    9.3323   15.3600   22.6094 H   0  0  0  0  0  0  0  0  0  0  0  0
    9.9040   16.2859   21.2029 H   0  0  0  0  0  0  0  0  0  0  0  0
  1  2  1  0  0  0  0
  1  5  2  0  0  0  0
  2  6  2  0  0  0  0
  3  4  2  0  0  0  0
  3  6  1  0  0  0  0
  4  5  1  0  0  0  0
  4 12  1  0  0  0  0
  5 17  1  0  0  0  0
  6 20  1  0  0  0  0
  7 17  1  0  0  0  0
  7 18  2  0  0  0  0
  7 19  1  0  0  0  0
  8  9  1  0  0  0  0
  8 10  1  0  0  0  0
  9 12  1  0  0  0  0
 10 12  1  0  0  0  0
 11 12  1  0  0  0  0
 11 17  1  0  0  0  0
 13 16  1  0  0  0  0
 14 16  1  0  0  0  0
 15 16  1  0  0  0  0
 16 19  1  0  0  0  0
  1 21  1  0  0  0  0
  2 22  1  0  0  0  0
  3 23  1  0  0  0  0
  8 24  1  0  0  0  0
  8 25  1  0  0  0  0
  9 26  1  0  0  0  0
  9 27  1  0  0  0  0
 10 28  1  0  0  0  0
 10 29  1  0  0  0  0
 11 30  1  0  0  0  0
 11 31  1  0  0  0  0
 13 32  1  0  0  0  0
 13 33  1  0  0  0  0
 13 34  1  0  0  0  0
 14 35  1  0  0  0  0
 14 36  1  0  0  0  0
 14 37  1  0  0  0  0
 15 38  1  0  0  0  0
 15 39  1  0  0  0  0
 15 40  1  0  0  0  0
M  END
> <id>
EN300-28296723

> <smiles>
CC(C)(C)OC(=O)N1CC2(CCC2)C=3C=C(Br)C=CC13

> <IUPAC Name>
tert-butyl 5'-bromo-1',2'-dihydrospiro[cyclobutane-1,3'-indole]-1'-carboxylate

> <CAS>
2680690-60-0

> <URL>
https://www.enaminestore.com/catalog/EN300-28296723

> <ROCS_ShapeQuery>
A71EV2A-x0451_0A_A71EV2A-x0310_0A_A71EV2A-x0416_0A_peptide

> <ROCS_TanimotoCombo>
0.487 

> <ROCS_ShapeTanimoto>
0.357 

> <ROCS_ColorTanimoto>
0.130 

> <ROCS_RefTversky>
0.309 

> <ROCS_RefColorTversky>
0.142 

> <ROCS_RefTverskyCombo>
0.451 

> <ROCS_FitTversky>
1.774 

> <ROCS_FitColorTversky>
0.593 

> <ROCS_FitTverskyCombo>
2.367 

> <ROCS_ColorScore>
-4.332

> <ROCS_Overlap>
2144.643

> <ROCS_Rank>
250                 

$$$$
untitled-dbase-8068_40
  -OEChem-11132313473D

 37 40  0     1  0  0  0  0  0999 V2000
   12.3852   13.8388   23.4450 C   0  0  0  0  0  0  0  0  0  0  0  0
   11.6544   11.5432   24.0551 C   0  0  0  0  0  0  0  0  0  0  0  0
   10.5247   12.6353   22.2418 C   0  0  0  0  0  0  0  0  0  0  0  0
   10.3557   10.7730   23.8464 C   0  0  2  0  0  0  0  0  0  0  0  0
    9.6226   11.4805   22.6646 C   0  0  1  0  0  0  0  0  0  0  0  0
    9.3408   10.9613   24.9920 C   0  0  2  0  0  0  0  0  0  0  0  0
    8.3195   11.9427   23.3474 C   0  0  1  0  0  0  0  0  0  0  0  0
    8.1541   10.0638   24.7412 C   0  0  2  0  0  0  0  0  0  0  0  0
    7.4558   10.7351   23.6157 C   0  0  1  0  0  0  0  0  0  0  0  0
   12.3221   14.9611   20.8166 C   0  0  0  0  0  0  0  0  0  0  0  0
   11.5234   17.0644   21.9336 C   0  0  0  0  0  0  0  0  0  0  0  0
   13.7934   16.1409   22.4834 C   0  0  0  0  0  0  0  0  0  0  0  0
   12.3562   15.7948   22.0967 C   0  0  0  0  0  0  0  0  0  0  0  0
   11.5335   12.7582   23.2774 N   0  0  0  0  0  0  0  0  0  0  0  0
   13.5560   13.7455   23.8074 O   0  0  0  0  0  0  0  0  0  0  0  0
    8.8218   12.2777   24.6677 O   0  0  0  0  0  0  0  0  0  0  0  0
    6.8550   10.6389   24.9107 O   0  0  0  0  0  0  0  0  0  0  0  0
   11.7713   15.0282   23.1554 O   0  0  0  0  0  0  0  0  0  0  0  0
   11.8783   11.7686   25.1025 H   0  0  0  0  0  0  0  0  0  0  0  0
   12.5012   10.9836   23.6415 H   0  0  0  0  0  0  0  0  0  0  0  0
   11.0509   12.3902   21.3122 H   0  0  0  0  0  0  0  0  0  0  0  0
    9.9929   13.5800   22.0932 H   0  0  0  0  0  0  0  0  0  0  0  0
   10.5541    9.7146   23.6461 H   0  0  0  0  0  0  0  0  0  0  0  0
    9.4273   10.8053   21.8243 H   0  0  0  0  0  0  0  0  0  0  0  0
    9.7432   10.9173   26.0063 H   0  0  0  0  0  0  0  0  0  0  0  0
    7.8009   12.7828   22.8806 H   0  0  0  0  0  0  0  0  0  0  0  0
    8.3034    8.9981   24.7465 H   0  0  0  0  0  0  0  0  0  0  0  0
    7.0822   10.1723   22.7780 H   0  0  0  0  0  0  0  0  0  0  0  0
   12.9188   14.0489   20.9297 H   0  0  0  0  0  0  0  0  0  0  0  0
   11.2996   14.6767   20.5476 H   0  0  0  0  0  0  0  0  0  0  0  0
   12.7595   15.5146   19.9778 H   0  0  0  0  0  0  0  0  0  0  0  0
   11.5450   17.6656   22.8497 H   0  0  0  0  0  0  0  0  0  0  0  0
   10.4709   16.8198   21.7497 H   0  0  0  0  0  0  0  0  0  0  0  0
   11.8857   17.6816   21.1052 H   0  0  0  0  0  0  0  0  0  0  0  0
   13.8181   16.7389   23.4015 H   0  0  0  0  0  0  0  0  0  0  0  0
   14.3966   15.2409   22.6407 H   0  0  0  0  0  0  0  0  0  0  0  0
   14.2705   16.7484   21.7058 H   0  0  0  0  0  0  0  0  0  0  0  0
  1 14  1  0  0  0  0
  1 15  2  0  0  0  0
  1 18  1  0  0  0  0
  2  4  1  0  0  0  0
  2 14  1  0  0  0  0
  3  5  1  0  0  0  0
  3 14  1  0  0  0  0
  4  5  1  0  0  0  0
  4  6  1  0  0  0  0
  5  7  1  0  0  0  0
  6  8  1  0  0  0  0
  6 16  1  0  0  0  0
  7  9  1  0  0  0  0
  7 16  1  0  0  0  0
  8  9  1  0  0  0  0
  8 17  1  0  0  0  0
  9 17  1  0  0  0  0
 10 13  1  0  0  0  0
 11 13  1  0  0  0  0
 12 13  1  0  0  0  0
 13 18  1  0  0  0  0
  2 19  1  0  0  0  0
  2 20  1  0  0  0  0
  3 21  1  0  0  0  0
  3 22  1  0  0  0  0
  4 23  1  0  0  0  0
  5 24  1  0  0  0  0
  6 25  1  0  0  0  0
  7 26  1  0  0  0  0
  8 27  1  0  0  0  0
  9 28  1  0  0  0  0
 10 29  1  0  0  0  0
 10 30  1  0  0  0  0
 10 31  1  0  0  0  0
 11 32  1  0  0  0  0
 11 33  1  0  0  0  0
 11 34  1  0  0  0  0
 12 35  1  0  0  0  0
 12 36  1  0  0  0  0
 12 37  1  0  0  0  0
M  END
> <id>
EN300-243424

> <smiles>
CC(C)(C)OC(=O)N1CC2C(C1)C3OC2C4OC43

> <MDLNUMBER>
MFCD29906780

> <IUPAC Name>
tert-butyl 9,11-dioxa-4-azatetracyclo[5.3.1.0^{2,6}.0^{8,10}]undecane-4-carboxylate

> <CAS>
1909318-88-2

> <Purity>
95

> <URL>
https://www.enaminestore.com/catalog/EN300-243424

> <ROCS_ShapeQuery>
A71EV2A-x0451_0A_A71EV2A-x0310_0A_A71EV2A-x0416_0A_peptide

> <ROCS_TanimotoCombo>
0.487 

> <ROCS_ShapeTanimoto>
0.278 

> <ROCS_ColorTanimoto>
0.208 

> <ROCS_RefTversky>
0.254 

> <ROCS_RefColorTversky>
0.299 

> <ROCS_RefTverskyCombo>
0.553 

> <ROCS_FitTversky>
1.517 

> <ROCS_FitColorTversky>
0.407 

> <ROCS_FitTverskyCombo>
1.924 

> <ROCS_ColorScore>
-9.347

> <ROCS_Overlap>
1764.397

> <ROCS_Rank>
251                 

$$$$
untitled-dbase-11721_2
  -OEChem-11132313473D

 38 39  0     0  0  0  0  0  0999 V2000
    8.5941    8.5702   23.1178 C   0  0  0  0  0  0  0  0  0  0  0  0
    8.4556    7.4263   22.7800 C   0  0  0  0  0  0  0  0  0  0  0  0
    6.2729   11.2631   26.0662 C   0  0  0  0  0  0  0  0  0  0  0  0
    6.8034   12.5449   26.1387 C   0  0  0  0  0  0  0  0  0  0  0  0
    6.8458   10.3079   25.2242 C   0  0  0  0  0  0  0  0  0  0  0  0
    7.9170   12.9074   25.3741 C   0  0  0  0  0  0  0  0  0  0  0  0
    8.7592    9.9294   23.5172 C   0  0  0  0  0  0  0  0  0  0  0  0
    7.9697   10.6503   24.4435 C   0  0  0  0  0  0  0  0  0  0  0  0
    8.4968   11.9466   24.5235 C   0  0  0  0  0  0  0  0  0  0  0  0
    9.7349   10.7766   23.0548 C   0  0  0  0  0  0  0  0  0  0  0  0
   10.4104   13.1349   23.4296 C   0  0  0  0  0  0  0  0  0  0  0  0
   10.7917   10.4485   22.0643 C   0  0  0  0  0  0  0  0  0  0  0  0
   12.9504   14.2055   22.7561 C   0  0  0  0  0  0  0  0  0  0  0  0
   12.1973   13.9958   20.3690 C   0  0  0  0  0  0  0  0  0  0  0  0
   10.9498   15.5004   21.9463 C   0  0  0  0  0  0  0  0  0  0  0  0
   11.7477   14.2040   21.8135 C   0  0  0  0  0  0  0  0  0  0  0  0
    9.5928   12.0148   23.6567 N   0  0  0  0  0  0  0  0  0  0  0  0
    8.2905    6.0568   22.3757 N   0  0  0  0  0  0  0  0  0  0  0  0
   10.6069   13.9695   24.2974 O   0  0  0  0  0  0  0  0  0  0  0  0
   10.8971   13.1078   22.1626 O   0  0  0  0  0  0  0  0  0  0  0  0
    5.4073   11.0004   26.6681 H   0  0  0  0  0  0  0  0  0  0  0  0
    6.3471   13.2786   26.7983 H   0  0  0  0  0  0  0  0  0  0  0  0
    6.4206    9.3089   25.1783 H   0  0  0  0  0  0  0  0  0  0  0  0
    8.3019   13.9172   25.4572 H   0  0  0  0  0  0  0  0  0  0  0  0
   10.4464   10.6625   21.0430 H   0  0  0  0  0  0  0  0  0  0  0  0
   11.7092   11.0279   22.2444 H   0  0  0  0  0  0  0  0  0  0  0  0
   11.0777    9.3873   22.1141 H   0  0  0  0  0  0  0  0  0  0  0  0
   12.6319   14.3548   23.7940 H   0  0  0  0  0  0  0  0  0  0  0  0
   13.5112   13.2671   22.6960 H   0  0  0  0  0  0  0  0  0  0  0  0
   13.6313   15.0313   22.5199 H   0  0  0  0  0  0  0  0  0  0  0  0
   11.3376   13.9940   19.6892 H   0  0  0  0  0  0  0  0  0  0  0  0
   12.6875   13.0228   20.2492 H   0  0  0  0  0  0  0  0  0  0  0  0
   12.8932   14.7767   20.0458 H   0  0  0  0  0  0  0  0  0  0  0  0
   10.0871   15.4996   21.2703 H   0  0  0  0  0  0  0  0  0  0  0  0
   10.5875   15.6480   22.9688 H   0  0  0  0  0  0  0  0  0  0  0  0
   11.5618   16.3651   21.6655 H   0  0  0  0  0  0  0  0  0  0  0  0
    7.3620    5.6773   22.2575 H   0  0  0  0  0  0  0  0  0  0  0  0
    9.1039    5.4805   22.2127 H   0  0  0  0  0  0  0  0  0  0  0  0
  1  2  3  0  0  0  0
  1  7  1  0  0  0  0
  2 18  1  0  0  0  0
  3  4  2  0  0  0  0
  3  5  1  0  0  0  0
  4  6  1  0  0  0  0
  5  8  2  0  0  0  0
  6  9  2  0  0  0  0
  7  8  1  0  0  0  0
  7 10  2  0  0  0  0
  8  9  1  0  0  0  0
  9 17  1  0  0  0  0
 10 12  1  0  0  0  0
 10 17  1  0  0  0  0
 11 17  1  0  0  0  0
 11 19  2  0  0  0  0
 11 20  1  0  0  0  0
 13 16  1  0  0  0  0
 14 16  1  0  0  0  0
 15 16  1  0  0  0  0
 16 20  1  0  0  0  0
  3 21  1  0  0  0  0
  4 22  1  0  0  0  0
  5 23  1  0  0  0  0
  6 24  1  0  0  0  0
 12 25  1  0  0  0  0
 12 26  1  0  0  0  0
 12 27  1  0  0  0  0
 13 28  1  0  0  0  0
 13 29  1  0  0  0  0
 13 30  1  0  0  0  0
 14 31  1  0  0  0  0
 14 32  1  0  0  0  0
 14 33  1  0  0  0  0
 15 34  1  0  0  0  0
 15 35  1  0  0  0  0
 15 36  1  0  0  0  0
 18 37  1  0  0  0  0
 18 38  1  0  0  0  0
M  END
> <id>
EN300-624589

> <smiles>
CC1=C(C#CN)C=2C=CC=CC2N1C(=O)OC(C)(C)C

> <MDLNUMBER>
MFCD30752585

> <IUPAC Name>
tert-butyl 3-(2-aminoethynyl)-2-methyl-1H-indole-1-carboxylate

> <CAS>
2137883-67-9

> <URL>
https://www.enaminestore.com/catalog/EN300-624589

> <ROCS_ShapeQuery>
A71EV2A-x0451_0A_A71EV2A-x0310_0A_A71EV2A-x0416_0A_peptide

> <ROCS_TanimotoCombo>
0.487 

> <ROCS_ShapeTanimoto>
0.353 

> <ROCS_ColorTanimoto>
0.134 

> <ROCS_RefTversky>
0.307 

> <ROCS_RefColorTversky>
0.146 

> <ROCS_RefTverskyCombo>
0.453 

> <ROCS_FitTversky>
1.745 

> <ROCS_FitColorTversky>
0.609 

> <ROCS_FitTverskyCombo>
2.354 

> <ROCS_ColorScore>
-4.446

> <ROCS_Overlap>
2129.752

> <ROCS_Rank>
252                 

$$$$
untitled-dbase-53215_2
  -OEChem-11132313473D

 39 41  0     1  0  0  0  0  0999 V2000
    5.4355   11.0882   26.4771 C   0  0  0  0  0  0  0  0  0  0  0  0
    4.8250   11.0825   25.2071 C   0  0  0  0  0  0  0  0  0  0  0  0
    6.8179   11.2422   26.6122 C   0  0  0  0  0  0  0  0  0  0  0  0
    5.5824   11.2307   24.0422 C   0  0  0  0  0  0  0  0  0  0  0  0
    7.5570   11.3968   25.4582 C   0  0  0  0  0  0  0  0  0  0  0  0
    6.9447   11.3910   24.1846 C   0  0  0  0  0  0  0  0  0  0  0  0
   10.0213   13.1010   23.5259 C   0  0  0  0  0  0  0  0  0  0  0  0
    9.7029   10.1683   25.0356 C   0  0  0  0  0  0  0  0  0  0  0  0
    8.6195   10.1604   22.7791 C   0  0  0  0  0  0  0  0  0  0  0  0
    9.0450   11.5498   25.2584 C   0  0  1  0  0  0  0  0  0  0  0  0
    8.0297   11.5417   23.1454 C   0  0  2  0  0  0  0  0  0  0  0  0
   12.5407   13.6426   22.2910 C   0  0  0  0  0  0  0  0  0  0  0  0
   11.2571   13.7229   20.1335 C   0  0  0  0  0  0  0  0  0  0  0  0
   10.7511   15.3796   21.9521 C   0  0  0  0  0  0  0  0  0  0  0  0
   11.1918   13.9497   21.6423 C   0  0  0  0  0  0  0  0  0  0  0  0
    9.0546    9.3815   23.9613 N   0  0  0  0  0  0  0  0  0  0  0  0
    9.0675   12.1971   23.9471 N   0  0  0  0  0  0  0  0  0  0  0  0
   10.6279   13.8636   24.2744 O   0  0  0  0  0  0  0  0  0  0  0  0
   10.2152   13.0466   22.1724 O   0  0  0  0  0  0  0  0  0  0  0  0
    4.8200   10.9660   27.3647 H   0  0  0  0  0  0  0  0  0  0  0  0
    3.7479   10.9557   25.1344 H   0  0  0  0  0  0  0  0  0  0  0  0
    7.2866   11.2369   27.5893 H   0  0  0  0  0  0  0  0  0  0  0  0
    5.1121   11.2166   23.0659 H   0  0  0  0  0  0  0  0  0  0  0  0
   10.7627   10.3044   24.7872 H   0  0  0  0  0  0  0  0  0  0  0  0
    9.6590    9.5807   25.9596 H   0  0  0  0  0  0  0  0  0  0  0  0
    7.8725    9.5673   22.2395 H   0  0  0  0  0  0  0  0  0  0  0  0
    9.4760   10.2960   22.1072 H   0  0  0  0  0  0  0  0  0  0  0  0
    9.5419   12.1581   26.0185 H   0  0  0  0  0  0  0  0  0  0  0  0
    7.7367   12.1413   22.2802 H   0  0  0  0  0  0  0  0  0  0  0  0
   12.4980   13.8042   23.3741 H   0  0  0  0  0  0  0  0  0  0  0  0
   12.8516   12.6093   22.1056 H   0  0  0  0  0  0  0  0  0  0  0  0
   13.3198   14.3123   21.9091 H   0  0  0  0  0  0  0  0  0  0  0  0
   10.2913   13.9420   19.6639 H   0  0  0  0  0  0  0  0  0  0  0  0
   11.4802   12.6743   19.9057 H   0  0  0  0  0  0  0  0  0  0  0  0
   12.0214   14.3500   19.6633 H   0  0  0  0  0  0  0  0  0  0  0  0
    9.7835   15.6001   21.4869 H   0  0  0  0  0  0  0  0  0  0  0  0
   10.6630   15.5498   23.0301 H   0  0  0  0  0  0  0  0  0  0  0  0
   11.4637   16.1044   21.5422 H   0  0  0  0  0  0  0  0  0  0  0  0
    9.6524    8.6073   23.6769 H   0  0  0  0  0  0  0  0  0  0  0  0
  1  2  2  0  0  0  0
  1  3  1  0  0  0  0
  2  4  1  0  0  0  0
  3  5  2  0  0  0  0
  4  6  2  0  0  0  0
  5  6  1  0  0  0  0
  5 10  1  0  0  0  0
  6 11  1  0  0  0  0
  7 17  1  0  0  0  0
  7 18  2  0  0  0  0
  7 19  1  0  0  0  0
  8 10  1  0  0  0  0
  8 16  1  0  0  0  0
  9 11  1  0  0  0  0
  9 16  1  0  0  0  0
 10 17  1  0  0  0  0
 11 17  1  0  0  0  0
 12 15  1  0  0  0  0
 13 15  1  0  0  0  0
 14 15  1  0  0  0  0
 15 19  1  0  0  0  0
  1 20  1  0  0  0  0
  2 21  1  0  0  0  0
  3 22  1  0  0  0  0
  4 23  1  0  0  0  0
  8 24  1  0  0  0  0
  8 25  1  0  0  0  0
  9 26  1  0  0  0  0
  9 27  1  0  0  0  0
 10 28  1  0  0  0  0
 11 29  1  0  0  0  0
 12 30  1  0  0  0  0
 12 31  1  0  0  0  0
 12 32  1  0  0  0  0
 13 33  1  0  0  0  0
 13 34  1  0  0  0  0
 13 35  1  0  0  0  0
 14 36  1  0  0  0  0
 14 37  1  0  0  0  0
 14 38  1  0  0  0  0
 16 39  1  0  0  0  0
M  END
> <id>
EN300-37453221

> <smiles>
Cl.CC(C)(C)OC(=O)N1C2CNCC1C=3C=CC=CC23

> <IUPAC Name>
tert-butyl 10,12-diazatricyclo[6.3.1.0,2,7]dodeca-2,4,6-triene-12-carboxylate hydrochloride

> <CAS>
2803863-16-1

> <Purity>
95

> <URL>
https://www.enaminestore.com/catalog/EN300-37453221

> <Saltdate>
Cl

> <ROCS_ShapeQuery>
A71EV2A-x0451_0A_A71EV2A-x0310_0A_A71EV2A-x0416_0A_peptide

> <ROCS_TanimotoCombo>
0.487 

> <ROCS_ShapeTanimoto>
0.290 

> <ROCS_ColorTanimoto>
0.197 

> <ROCS_RefTversky>
0.263 

> <ROCS_RefColorTversky>
0.229 

> <ROCS_RefTverskyCombo>
0.492 

> <ROCS_FitTversky>
1.533 

> <ROCS_FitColorTversky>
0.586 

> <ROCS_FitTverskyCombo>
2.119 

> <ROCS_ColorScore>
-7.008

> <ROCS_Overlap>
1827.083

> <ROCS_Rank>
253                 

$$$$
untitled-dbase-40138_44
  -OEChem-11132313473D

 39 42  0     1  0  0  0  0  0999 V2000
   12.7087   13.4052   22.8979 C   0  0  0  0  0  0  0  0  0  0  0  0
    8.9527   12.3298   24.7331 C   0  0  0  0  0  0  0  0  0  0  0  0
   11.7164   11.2726   23.8007 C   0  0  0  0  0  0  0  0  0  0  0  0
   10.5500   12.4934   22.0747 C   0  0  0  0  0  0  0  0  0  0  0  0
    9.4258   10.8788   24.9466 C   0  0  2  0  0  0  0  0  0  0  0  0
    8.3464   12.0138   23.3523 C   0  0  1  0  0  0  0  0  0  0  0  0
   10.3292   10.6512   23.7015 C   0  0  1  0  0  0  0  0  0  0  0  0
    9.5738   11.4433   22.5869 C   0  0  2  0  0  0  0  0  0  0  0  0
    8.1551   10.0695   24.7118 C   0  0  2  0  0  0  0  0  0  0  0  0
    7.4330   10.8288   23.6458 C   0  0  1  0  0  0  0  0  0  0  0  0
   13.6553   16.0734   22.5038 C   0  0  0  0  0  0  0  0  0  0  0  0
   12.7391   15.8579   20.1750 C   0  0  0  0  0  0  0  0  0  0  0  0
   11.1899   15.7149   22.1467 C   0  0  0  0  0  0  0  0  0  0  0  0
   12.5941   15.4094   21.6276 C   0  0  0  0  0  0  0  0  0  0  0  0
   11.7029   12.4519   22.9522 N   0  0  0  0  0  0  0  0  0  0  0  0
   13.4375   13.6944   23.8443 O   0  0  0  0  0  0  0  0  0  0  0  0
    6.8974   10.7020   24.9663 O   0  0  0  0  0  0  0  0  0  0  0  0
   12.7952   13.9920   21.6636 O   0  0  0  0  0  0  0  0  0  0  0  0
    8.2066   12.6519   25.4676 H   0  0  0  0  0  0  0  0  0  0  0  0
    9.7583   13.0683   24.7130 H   0  0  0  0  0  0  0  0  0  0  0  0
   12.0079   11.5352   24.8224 H   0  0  0  0  0  0  0  0  0  0  0  0
   12.4748   10.5925   23.3965 H   0  0  0  0  0  0  0  0  0  0  0  0
   10.9010   12.2363   21.0686 H   0  0  0  0  0  0  0  0  0  0  0  0
   10.1347   13.5054   22.0360 H   0  0  0  0  0  0  0  0  0  0  0  0
    9.9024   10.6804   25.9083 H   0  0  0  0  0  0  0  0  0  0  0  0
    7.8408   12.8482   22.8626 H   0  0  0  0  0  0  0  0  0  0  0  0
   10.4025    9.5858   23.4531 H   0  0  0  0  0  0  0  0  0  0  0  0
    9.2600   10.7812   21.7713 H   0  0  0  0  0  0  0  0  0  0  0  0
    8.2393    8.9970   24.6637 H   0  0  0  0  0  0  0  0  0  0  0  0
    6.9844   10.3162   22.8117 H   0  0  0  0  0  0  0  0  0  0  0  0
   13.5547   15.7540   23.5473 H   0  0  0  0  0  0  0  0  0  0  0  0
   14.6678   15.8335   22.1629 H   0  0  0  0  0  0  0  0  0  0  0  0
   13.5385   17.1632   22.5015 H   0  0  0  0  0  0  0  0  0  0  0  0
   11.9797   15.3839   19.5427 H   0  0  0  0  0  0  0  0  0  0  0  0
   13.7112   15.5562   19.7686 H   0  0  0  0  0  0  0  0  0  0  0  0
   12.6439   16.9440   20.0761 H   0  0  0  0  0  0  0  0  0  0  0  0
   10.4285   15.2388   21.5184 H   0  0  0  0  0  0  0  0  0  0  0  0
   11.0557   15.3666   23.1760 H   0  0  0  0  0  0  0  0  0  0  0  0
   10.9882   16.7917   22.1144 H   0  0  0  0  0  0  0  0  0  0  0  0
  1 15  1  0  0  0  0
  1 16  2  0  0  0  0
  1 18  1  0  0  0  0
  2  5  1  0  0  0  0
  2  6  1  6  0  0  0
  3  7  1  6  0  0  0
  3 15  1  0  0  0  0
  4  8  1  6  0  0  0
  4 15  1  0  0  0  0
  5  7  1  0  0  0  0
  5  9  1  1  0  0  0
  6  8  1  0  0  0  0
  6 10  1  0  0  0  0
  7  8  1  0  0  0  0
  9 10  1  0  0  0  0
  9 17  1  0  0  0  0
 10 17  1  6  0  0  0
 11 14  1  0  0  0  0
 12 14  1  0  0  0  0
 13 14  1  0  0  0  0
 14 18  1  0  0  0  0
  2 19  1  0  0  0  0
  2 20  1  0  0  0  0
  3 21  1  0  0  0  0
  3 22  1  0  0  0  0
  4 23  1  0  0  0  0
  4 24  1  0  0  0  0
  5 25  1  0  0  0  0
  6 26  1  0  0  0  0
  7 27  1  0  0  0  0
  8 28  1  0  0  0  0
  9 29  1  0  0  0  0
 10 30  1  0  0  0  0
 11 31  1  0  0  0  0
 11 32  1  0  0  0  0
 11 33  1  0  0  0  0
 12 34  1  0  0  0  0
 12 35  1  0  0  0  0
 12 36  1  0  0  0  0
 13 37  1  0  0  0  0
 13 38  1  0  0  0  0
 13 39  1  0  0  0  0
M  END
> <id>
EN300-234682

> <smiles>
CC(C)(C)OC(=O)N1C[C@H]2[C@H]3C[C@H]([C@@H]4OC43)[C@H]2C1

> <MDLNUMBER>
MFCD29034740

> <IUPAC Name>
tert-butyl (1R,2R,6S,7S,8S)-9-oxa-4-azatetracyclo[5.3.1.0^{2,6}.0^{8,10}]undecane-4-carboxylate

> <CAS>
1864012-26-9

> <URL>
https://www.enaminestore.com/catalog/EN300-234682

> <ROCS_ShapeQuery>
A71EV2A-x0451_0A_A71EV2A-x0310_0A_A71EV2A-x0416_0A_peptide

> <ROCS_TanimotoCombo>
0.486 

> <ROCS_ShapeTanimoto>
0.273 

> <ROCS_ColorTanimoto>
0.214 

> <ROCS_RefTversky>
0.250 

> <ROCS_RefColorTversky>
0.300 

> <ROCS_RefTverskyCombo>
0.549 

> <ROCS_FitTversky>
1.504 

> <ROCS_FitColorTversky>
0.428 

> <ROCS_FitTverskyCombo>
1.932 

> <ROCS_ColorScore>
-9.344

> <ROCS_Overlap>
1732.807

> <ROCS_Rank>
254                 

$$$$
untitled-dbase-6195_31
  -OEChem-11132313473D

 39 42  0     1  0  0  0  0  0999 V2000
   12.7087   13.4050   22.8978 C   0  0  0  0  0  0  0  0  0  0  0  0
    8.9536   12.3297   24.7328 C   0  0  0  0  0  0  0  0  0  0  0  0
   11.7167   11.2718   23.7996 C   0  0  0  0  0  0  0  0  0  0  0  0
   10.5501   12.4930   22.0740 C   0  0  0  0  0  0  0  0  0  0  0  0
    9.4264   10.8786   24.9461 C   0  0  2  0  0  0  0  0  0  0  0  0
    8.3467   12.0140   23.3521 C   0  0  1  0  0  0  0  0  0  0  0  0
   10.3293   10.6507   23.7007 C   0  0  1  0  0  0  0  0  0  0  0  0
    9.5737   11.4431   22.5864 C   0  0  2  0  0  0  0  0  0  0  0  0
    8.1554   10.0697   24.7117 C   0  0  2  0  0  0  0  0  0  0  0  0
    7.4330   10.8292   23.6461 C   0  0  1  0  0  0  0  0  0  0  0  0
   13.6548   16.0734   22.5050 C   0  0  0  0  0  0  0  0  0  0  0  0
   12.7399   15.8583   20.1757 C   0  0  0  0  0  0  0  0  0  0  0  0
   11.1896   15.7144   22.1464 C   0  0  0  0  0  0  0  0  0  0  0  0
   12.5943   15.4094   21.6280 C   0  0  0  0  0  0  0  0  0  0  0  0
   11.7032   12.4513   22.9513 N   0  0  0  0  0  0  0  0  0  0  0  0
   13.4369   13.6942   23.8447 O   0  0  0  0  0  0  0  0  0  0  0  0
    6.8980   10.7027   24.9668 O   0  0  0  0  0  0  0  0  0  0  0  0
   12.7957   13.9922   21.6637 O   0  0  0  0  0  0  0  0  0  0  0  0
    8.2078   12.6519   25.4675 H   0  0  0  0  0  0  0  0  0  0  0  0
    9.7590   13.0684   24.7121 H   0  0  0  0  0  0  0  0  0  0  0  0
   12.0090   11.5343   24.8211 H   0  0  0  0  0  0  0  0  0  0  0  0
   12.4748   10.5918   23.3945 H   0  0  0  0  0  0  0  0  0  0  0  0
   10.9008   12.2362   21.0678 H   0  0  0  0  0  0  0  0  0  0  0  0
   10.1345   13.5050   22.0356 H   0  0  0  0  0  0  0  0  0  0  0  0
    9.9034   10.6806   25.9077 H   0  0  0  0  0  0  0  0  0  0  0  0
    7.8414   12.8488   22.8629 H   0  0  0  0  0  0  0  0  0  0  0  0
   10.4022    9.5853   23.4527 H   0  0  0  0  0  0  0  0  0  0  0  0
    9.2593   10.7812   21.7709 H   0  0  0  0  0  0  0  0  0  0  0  0
    8.2393    8.9972   24.6637 H   0  0  0  0  0  0  0  0  0  0  0  0
    6.9841   10.3169   22.8120 H   0  0  0  0  0  0  0  0  0  0  0  0
   13.5536   15.7537   23.5484 H   0  0  0  0  0  0  0  0  0  0  0  0
   14.6675   15.8339   22.1646 H   0  0  0  0  0  0  0  0  0  0  0  0
   13.5376   17.1632   22.5029 H   0  0  0  0  0  0  0  0  0  0  0  0
   11.9810   15.3843   19.5428 H   0  0  0  0  0  0  0  0  0  0  0  0
   13.7124   15.5571   19.7697 H   0  0  0  0  0  0  0  0  0  0  0  0
   12.6445   16.9445   20.0770 H   0  0  0  0  0  0  0  0  0  0  0  0
   10.4287   15.2382   21.5175 H   0  0  0  0  0  0  0  0  0  0  0  0
   11.0550   15.3658   23.1755 H   0  0  0  0  0  0  0  0  0  0  0  0
   10.9877   16.7912   22.1143 H   0  0  0  0  0  0  0  0  0  0  0  0
  1 15  1  0  0  0  0
  1 16  2  0  0  0  0
  1 18  1  0  0  0  0
  2  5  1  0  0  0  0
  2  6  1  0  0  0  0
  3  7  1  0  0  0  0
  3 15  1  0  0  0  0
  4  8  1  0  0  0  0
  4 15  1  0  0  0  0
  5  7  1  0  0  0  0
  5  9  1  0  0  0  0
  6  8  1  0  0  0  0
  6 10  1  0  0  0  0
  7  8  1  0  0  0  0
  9 10  1  0  0  0  0
  9 17  1  0  0  0  0
 10 17  1  0  0  0  0
 11 14  1  0  0  0  0
 12 14  1  0  0  0  0
 13 14  1  0  0  0  0
 14 18  1  0  0  0  0
  2 19  1  0  0  0  0
  2 20  1  0  0  0  0
  3 21  1  0  0  0  0
  3 22  1  0  0  0  0
  4 23  1  0  0  0  0
  4 24  1  0  0  0  0
  5 25  1  0  0  0  0
  6 26  1  0  0  0  0
  7 27  1  0  0  0  0
  8 28  1  0  0  0  0
  9 29  1  0  0  0  0
 10 30  1  0  0  0  0
 11 31  1  0  0  0  0
 11 32  1  0  0  0  0
 11 33  1  0  0  0  0
 12 34  1  0  0  0  0
 12 35  1  0  0  0  0
 12 36  1  0  0  0  0
 13 37  1  0  0  0  0
 13 38  1  0  0  0  0
 13 39  1  0  0  0  0
M  END
> <id>
EN300-244736

> <smiles>
CC(C)(C)OC(=O)N1CC2C3CC(C4OC43)C2C1

> <MDLNUMBER>
MFCD29034945

> <IUPAC Name>
tert-butyl 9-oxa-4-azatetracyclo[5.3.1.0^{2,6}.0^{8,10}]undecane-4-carboxylate

> <CAS>
1936182-08-9

> <URL>
https://www.enaminestore.com/catalog/EN300-244736

> <ROCS_ShapeQuery>
A71EV2A-x0451_0A_A71EV2A-x0310_0A_A71EV2A-x0416_0A_peptide

> <ROCS_TanimotoCombo>
0.486 

> <ROCS_ShapeTanimoto>
0.273 

> <ROCS_ColorTanimoto>
0.214 

> <ROCS_RefTversky>
0.250 

> <ROCS_RefColorTversky>
0.300 

> <ROCS_RefTverskyCombo>
0.549 

> <ROCS_FitTversky>
1.504 

> <ROCS_FitColorTversky>
0.428 

> <ROCS_FitTverskyCombo>
1.932 

> <ROCS_ColorScore>
-9.344

> <ROCS_Overlap>
1732.755

> <ROCS_Rank>
255                 

$$$$
untitled-dbase-44935_4
  -OEChem-11132313473D

 33 34  0     0  0  0  0  0  0999 V2000
    6.7017   10.6547   25.5156 C   0  0  0  0  0  0  0  0  0  0  0  0
    6.3167   11.7704   26.2433 C   0  0  0  0  0  0  0  0  0  0  0  0
    7.8105   10.7271   24.6727 C   0  0  0  0  0  0  0  0  0  0  0  0
    8.4987   11.9367   24.5485 C   0  0  0  0  0  0  0  0  0  0  0  0
    7.0616   12.9227   26.0879 C   0  0  0  0  0  0  0  0  0  0  0  0
   10.2998   13.2200   23.4302 C   0  0  0  0  0  0  0  0  0  0  0  0
    9.8495   10.8266   22.8168 C   0  0  0  0  0  0  0  0  0  0  0  0
    9.4993    9.5684   23.5840 C   0  0  0  0  0  0  0  0  0  0  0  0
   12.7002   14.5943   22.6817 C   0  0  0  0  0  0  0  0  0  0  0  0
   11.7822   14.5423   20.3442 C   0  0  0  0  0  0  0  0  0  0  0  0
   10.5440   15.7772   22.1469 C   0  0  0  0  0  0  0  0  0  0  0  0
   11.4316   14.5745   21.8302 C   0  0  0  0  0  0  0  0  0  0  0  0
    8.1298   13.0286   25.2648 N   0  0  0  0  0  0  0  0  0  0  0  0
    9.5889   12.0239   23.6215 N   0  0  0  0  0  0  0  0  0  0  0  0
   10.5469   14.0518   24.3010 O   0  0  0  0  0  0  0  0  0  0  0  0
    8.1342    9.5838   23.9939 O   0  0  0  0  0  0  0  0  0  0  0  0
   10.7018   13.3783   22.1274 O   0  0  0  0  0  0  0  0  0  0  0  0
    6.5681   14.4683   27.0747 Br  0  0  0  0  0  0  0  0  0  0  0  0
    6.1430    9.7281   25.6150 H   0  0  0  0  0  0  0  0  0  0  0  0
    5.4607   11.7188   26.9075 H   0  0  0  0  0  0  0  0  0  0  0  0
   10.8994   10.7918   22.5096 H   0  0  0  0  0  0  0  0  0  0  0  0
    9.2333   10.9173   21.9140 H   0  0  0  0  0  0  0  0  0  0  0  0
    9.6385    8.6932   22.9405 H   0  0  0  0  0  0  0  0  0  0  0  0
   10.1467    9.4320   24.4601 H   0  0  0  0  0  0  0  0  0  0  0  0
   12.4527   14.6174   23.7490 H   0  0  0  0  0  0  0  0  0  0  0  0
   13.3288   13.7187   22.4894 H   0  0  0  0  0  0  0  0  0  0  0  0
   13.2912   15.4954   22.4818 H   0  0  0  0  0  0  0  0  0  0  0  0
   10.8749   14.5280   19.7295 H   0  0  0  0  0  0  0  0  0  0  0  0
   12.3388   13.6318   20.0942 H   0  0  0  0  0  0  0  0  0  0  0  0
   12.3850   15.4083   20.0525 H   0  0  0  0  0  0  0  0  0  0  0  0
    9.6339   15.7632   21.5363 H   0  0  0  0  0  0  0  0  0  0  0  0
   10.2519   15.7963   23.2019 H   0  0  0  0  0  0  0  0  0  0  0  0
   11.0600   16.7151   21.9114 H   0  0  0  0  0  0  0  0  0  0  0  0
  1  2  1  0  0  0  0
  1  3  2  0  0  0  0
  2  5  2  0  0  0  0
  3  4  1  0  0  0  0
  3 16  1  0  0  0  0
  4 13  2  0  0  0  0
  4 14  1  0  0  0  0
  5 13  1  0  0  0  0
  5 18  1  0  0  0  0
  6 14  1  0  0  0  0
  6 15  2  0  0  0  0
  6 17  1  0  0  0  0
  7  8  1  0  0  0  0
  7 14  1  0  0  0  0
  8 16  1  0  0  0  0
  9 12  1  0  0  0  0
 10 12  1  0  0  0  0
 11 12  1  0  0  0  0
 12 17  1  0  0  0  0
  1 19  1  0  0  0  0
  2 20  1  0  0  0  0
  7 21  1  0  0  0  0
  7 22  1  0  0  0  0
  8 23  1  0  0  0  0
  8 24  1  0  0  0  0
  9 25  1  0  0  0  0
  9 26  1  0  0  0  0
  9 27  1  0  0  0  0
 10 28  1  0  0  0  0
 10 29  1  0  0  0  0
 10 30  1  0  0  0  0
 11 31  1  0  0  0  0
 11 32  1  0  0  0  0
 11 33  1  0  0  0  0
M  END
> <id>
EN300-4354086

> <smiles>
CC(C)(C)OC(=O)N1CCOC=2C=CC(Br)=NC12

> <MDLNUMBER>
MFCD21607987

> <IUPAC Name>
tert-butyl 6-bromo-2H,3H,4H-pyrido[3,2-b][1,4]oxazine-4-carboxylate

> <CAS>
959992-64-4

> <URL>
https://www.enaminestore.com/catalog/EN300-4354086

> <ROCS_ShapeQuery>
A71EV2A-x0451_0A_A71EV2A-x0310_0A_A71EV2A-x0416_0A_peptide

> <ROCS_TanimotoCombo>
0.486 

> <ROCS_ShapeTanimoto>
0.337 

> <ROCS_ColorTanimoto>
0.149 

> <ROCS_RefTversky>
0.293 

> <ROCS_RefColorTversky>
0.165 

> <ROCS_RefTverskyCombo>
0.458 

> <ROCS_FitTversky>
1.802 

> <ROCS_FitColorTversky>
0.609 

> <ROCS_FitTverskyCombo>
2.412 

> <ROCS_ColorScore>
-5.021

> <ROCS_Overlap>
2034.545

> <ROCS_Rank>
256                 

$$$$
untitled-dbase-30724_41
  -OEChem-11132313473D

 38 40  0     1  0  0  0  0  0999 V2000
    6.9921   12.1342   25.9063 C   0  0  0  0  0  0  0  0  0  0  0  0
    8.0744   12.8423   25.4085 C   0  0  0  0  0  0  0  0  0  0  0  0
    7.8387   10.8645   24.4354 C   0  0  0  0  0  0  0  0  0  0  0  0
   12.4593   13.9940   23.3801 C   0  0  0  0  0  0  0  0  0  0  0  0
    9.3546   10.7975   22.6217 C   0  0  0  0  0  0  0  0  0  0  0  0
   11.0545   12.0266   24.2374 C   0  0  0  0  0  0  0  0  0  0  0  0
   10.0052   13.3557   22.8942 C   0  0  0  0  0  0  0  0  0  0  0  0
    8.3697    9.9154   23.4416 C   0  0  1  0  0  0  0  0  0  0  0  0
    9.6805   12.0014   23.5416 C   0  0  0  0  0  0  0  0  0  0  0  0
   13.5178   13.6810   21.0077 C   0  0  0  0  0  0  0  0  0  0  0  0
   12.3767   15.7934   20.2696 C   0  0  0  0  0  0  0  0  0  0  0  0
   14.3835   15.9163   21.7749 C   0  0  0  0  0  0  0  0  0  0  0  0
   13.1415   15.1089   21.4004 C   0  0  0  0  0  0  0  0  0  0  0  0
    6.8502   10.8969   25.2929 N   0  0  0  0  0  0  0  0  0  0  0  0
    8.5691   12.0007   24.4793 N   0  0  0  0  0  0  0  0  0  0  0  0
   11.3287   13.2305   23.4761 N   0  0  0  0  0  0  0  0  0  0  0  0
   13.5060   13.7554   23.9760 O   0  0  0  0  0  0  0  0  0  0  0  0
    9.0746    8.9133   24.1556 O   0  0  0  0  0  0  0  0  0  0  0  0
   12.2729   15.0548   22.5377 O   0  0  0  0  0  0  0  0  0  0  0  0
    6.3051   12.4498   26.6783 H   0  0  0  0  0  0  0  0  0  0  0  0
    8.4903   13.8131   25.6372 H   0  0  0  0  0  0  0  0  0  0  0  0
   10.2523   10.2562   22.3097 H   0  0  0  0  0  0  0  0  0  0  0  0
    8.8364   11.1632   21.7267 H   0  0  0  0  0  0  0  0  0  0  0  0
   11.0604   12.1843   25.3203 H   0  0  0  0  0  0  0  0  0  0  0  0
   11.7356   11.2090   23.9803 H   0  0  0  0  0  0  0  0  0  0  0  0
   10.0328   13.3616   21.7998 H   0  0  0  0  0  0  0  0  0  0  0  0
    9.4458   14.2245   23.2528 H   0  0  0  0  0  0  0  0  0  0  0  0
    7.6003    9.4547   22.8173 H   0  0  0  0  0  0  0  0  0  0  0  0
   14.0669   13.1862   21.8168 H   0  0  0  0  0  0  0  0  0  0  0  0
   12.6330   13.0814   20.7705 H   0  0  0  0  0  0  0  0  0  0  0  0
   14.1821   13.6774   20.1360 H   0  0  0  0  0  0  0  0  0  0  0  0
   12.1047   16.8183   20.5471 H   0  0  0  0  0  0  0  0  0  0  0  0
   11.4365   15.2701   20.0616 H   0  0  0  0  0  0  0  0  0  0  0  0
   12.9654   15.8287   19.3472 H   0  0  0  0  0  0  0  0  0  0  0  0
   14.1138   16.9406   22.0566 H   0  0  0  0  0  0  0  0  0  0  0  0
   14.9250   15.4595   22.6096 H   0  0  0  0  0  0  0  0  0  0  0  0
   15.0659   15.9999   20.9213 H   0  0  0  0  0  0  0  0  0  0  0  0
    8.4365    8.4898   24.7538 H   0  0  0  0  0  0  0  0  0  0  0  0
  1  2  2  0  0  0  0
  1 14  1  0  0  0  0
  2 15  1  0  0  0  0
  3  8  1  0  0  0  0
  3 14  2  0  0  0  0
  3 15  1  0  0  0  0
  4 16  1  0  0  0  0
  4 17  2  0  0  0  0
  4 19  1  0  0  0  0
  5  8  1  0  0  0  0
  5  9  1  0  0  0  0
  6  9  1  0  0  0  0
  6 16  1  0  0  0  0
  7  9  1  0  0  0  0
  7 16  1  0  0  0  0
  8 18  1  0  0  0  0
  9 15  1  0  0  0  0
 10 13  1  0  0  0  0
 11 13  1  0  0  0  0
 12 13  1  0  0  0  0
 13 19  1  0  0  0  0
  1 20  1  0  0  0  0
  2 21  1  0  0  0  0
  5 22  1  0  0  0  0
  5 23  1  0  0  0  0
  6 24  1  0  0  0  0
  6 25  1  0  0  0  0
  7 26  1  0  0  0  0
  7 27  1  0  0  0  0
  8 28  1  0  0  0  0
 10 29  1  0  0  0  0
 10 30  1  0  0  0  0
 10 31  1  0  0  0  0
 11 32  1  0  0  0  0
 11 33  1  0  0  0  0
 11 34  1  0  0  0  0
 12 35  1  0  0  0  0
 12 36  1  0  0  0  0
 12 37  1  0  0  0  0
 18 38  1  0  0  0  0
M  END
> <id>
EN300-26665868

> <smiles>
CC(C)(C)OC(=O)N1CC2(C1)CC(O)C3=NC=CN32

> <IUPAC Name>
tert-butyl 7'-hydroxy-6',7'-dihydrospiro[azetidine-3,5'-pyrrolo[1,2-a]imidazole]-1-carboxylate

> <CAS>
2385288-36-6

> <URL>
https://www.enaminestore.com/catalog/EN300-26665868

> <ROCS_ShapeQuery>
A71EV2A-x0451_0A_A71EV2A-x0310_0A_A71EV2A-x0416_0A_peptide

> <ROCS_TanimotoCombo>
0.486 

> <ROCS_ShapeTanimoto>
0.323 

> <ROCS_ColorTanimoto>
0.164 

> <ROCS_RefTversky>
0.286 

> <ROCS_RefColorTversky>
0.188 

> <ROCS_RefTverskyCombo>
0.474 

> <ROCS_FitTversky>
1.658 

> <ROCS_FitColorTversky>
0.562 

> <ROCS_FitTverskyCombo>
2.220 

> <ROCS_ColorScore>
-5.733

> <ROCS_Overlap>
1985.487

> <ROCS_Rank>
257                 

$$$$
untitled-dbase-13986_12
  -OEChem-11132313473D

 46 47  0     0  0  0  0  0  0999 V2000
   10.5154   13.2312   23.4255 C   0  0  0  0  0  0  0  0  0  0  0  0
    6.4612   12.9607   25.2977 C   0  0  0  0  0  0  0  0  0  0  0  0
    7.1366   11.4274   27.1985 C   0  0  0  0  0  0  0  0  0  0  0  0
    6.8858   11.8876   24.2955 C   0  0  0  0  0  0  0  0  0  0  0  0
    7.5445   10.3611   26.1825 C   0  0  0  0  0  0  0  0  0  0  0  0
    9.8755   10.8870   22.6912 C   0  0  0  0  0  0  0  0  0  0  0  0
    9.3462   11.6787   24.9744 C   0  0  0  0  0  0  0  0  0  0  0  0
    9.3296    9.6116   23.3124 C   0  0  0  0  0  0  0  0  0  0  0  0
    6.0435   12.3409   26.6350 C   0  0  0  0  0  0  0  0  0  0  0  0
    7.9899   10.9488   24.8286 C   0  0  0  0  0  0  0  0  0  0  0  0
   12.1779   14.4586   20.2832 C   0  0  0  0  0  0  0  0  0  0  0  0
   10.6795   15.7583   21.8174 C   0  0  0  0  0  0  0  0  0  0  0  0
   12.8875   14.9038   22.6439 C   0  0  0  0  0  0  0  0  0  0  0  0
   11.6924   14.6120   21.7292 C   0  0  0  0  0  0  0  0  0  0  0  0
    9.9313   11.9764   23.6679 N   0  0  0  0  0  0  0  0  0  0  0  0
    5.7321   13.3966   27.5969 N   0  0  0  0  0  0  0  0  0  0  0  0
   11.0557   13.3856   22.1518 N   0  0  0  0  0  0  0  0  0  0  0  0
   10.5488   14.1331   24.2678 O   0  0  0  0  0  0  0  0  0  0  0  0
    8.0568    9.8411   23.9067 O   0  0  0  0  0  0  0  0  0  0  0  0
    7.2778   13.6690   25.4448 H   0  0  0  0  0  0  0  0  0  0  0  0
    5.6204   13.5255   24.8903 H   0  0  0  0  0  0  0  0  0  0  0  0
    6.7666   10.9434   28.1046 H   0  0  0  0  0  0  0  0  0  0  0  0
    8.0114   12.0132   27.4860 H   0  0  0  0  0  0  0  0  0  0  0  0
    5.9911   11.2959   24.0378 H   0  0  0  0  0  0  0  0  0  0  0  0
    7.2173   12.3651   23.3584 H   0  0  0  0  0  0  0  0  0  0  0  0
    8.3567    9.7443   26.6035 H   0  0  0  0  0  0  0  0  0  0  0  0
    6.6961    9.6703   26.0570 H   0  0  0  0  0  0  0  0  0  0  0  0
   10.8508   10.6690   22.2445 H   0  0  0  0  0  0  0  0  0  0  0  0
    9.2099   11.2297   21.8850 H   0  0  0  0  0  0  0  0  0  0  0  0
    9.1988   12.6486   25.4632 H   0  0  0  0  0  0  0  0  0  0  0  0
   10.0331   11.0996   25.5975 H   0  0  0  0  0  0  0  0  0  0  0  0
    9.1940    8.8577   22.5348 H   0  0  0  0  0  0  0  0  0  0  0  0
   10.0204    9.1950   24.0465 H   0  0  0  0  0  0  0  0  0  0  0  0
    5.1354   11.7604   26.4904 H   0  0  0  0  0  0  0  0  0  0  0  0
   12.9050   13.6431   20.1938 H   0  0  0  0  0  0  0  0  0  0  0  0
   11.3458   14.2433   19.6038 H   0  0  0  0  0  0  0  0  0  0  0  0
   12.6718   15.3726   19.9333 H   0  0  0  0  0  0  0  0  0  0  0  0
   10.3171   15.8876   22.8440 H   0  0  0  0  0  0  0  0  0  0  0  0
    9.8041   15.5617   21.1876 H   0  0  0  0  0  0  0  0  0  0  0  0
   11.1215   16.7072   21.4939 H   0  0  0  0  0  0  0  0  0  0  0  0
   12.5683   15.0184   23.6864 H   0  0  0  0  0  0  0  0  0  0  0  0
   13.6269   14.0964   22.6040 H   0  0  0  0  0  0  0  0  0  0  0  0
   13.3895   15.8345   22.3548 H   0  0  0  0  0  0  0  0  0  0  0  0
    5.0055   13.9529   27.2163 H   0  0  0  0  0  0  0  0  0  0  0  0
    5.4427   12.9651   28.4409 H   0  0  0  0  0  0  0  0  0  0  0  0
   11.0000   12.6126   21.5016 H   0  0  0  0  0  0  0  0  0  0  0  0
  1 15  1  0  0  0  0
  1 17  1  0  0  0  0
  1 18  2  0  0  0  0
  2  4  1  0  0  0  0
  2  9  1  0  0  0  0
  3  5  1  0  0  0  0
  3  9  1  0  0  0  0
  4 10  1  6  0  0  0
  5 10  1  0  0  0  0
  6  8  1  0  0  0  0
  6 15  1  0  0  0  0
  7 10  1  0  0  0  0
  7 15  1  0  0  0  0
  8 19  1  0  0  0  0
  9 16  1  6  0  0  0
 10 19  1  0  0  0  0
 11 14  1  0  0  0  0
 12 14  1  0  0  0  0
 13 14  1  0  0  0  0
 14 17  1  0  0  0  0
  2 20  1  0  0  0  0
  2 21  1  0  0  0  0
  3 22  1  0  0  0  0
  3 23  1  0  0  0  0
  4 24  1  0  0  0  0
  4 25  1  0  0  0  0
  5 26  1  0  0  0  0
  5 27  1  0  0  0  0
  6 28  1  0  0  0  0
  6 29  1  0  0  0  0
  7 30  1  0  0  0  0
  7 31  1  0  0  0  0
  8 32  1  0  0  0  0
  8 33  1  0  0  0  0
  9 34  1  0  0  0  0
 11 35  1  0  0  0  0
 11 36  1  0  0  0  0
 11 37  1  0  0  0  0
 12 38  1  0  0  0  0
 12 39  1  0  0  0  0
 12 40  1  0  0  0  0
 13 41  1  0  0  0  0
 13 42  1  0  0  0  0
 13 43  1  0  0  0  0
 16 44  1  0  0  0  0
 16 45  1  0  0  0  0
 17 46  1  0  0  0  0
M  END
> <id>
EN300-1084975

> <smiles>
CC(C)(C)NC(=O)N1CCO[C@]2(CC[C@H](N)CC2)C1

> <IUPAC Name>
(6r,9r)-9-amino-N-tert-butyl-1-oxa-4-azaspiro[5.5]undecane-4-carboxamide

> <CAS>
2137065-38-2

> <URL>
https://www.enaminestore.com/catalog/EN300-1084975

> <ROCS_ShapeQuery>
A71EV2A-x0451_0A_A71EV2A-x0310_0A_A71EV2A-x0416_0A_peptide

> <ROCS_TanimotoCombo>
0.486 

> <ROCS_ShapeTanimoto>
0.324 

> <ROCS_ColorTanimoto>
0.162 

> <ROCS_RefTversky>
0.285 

> <ROCS_RefColorTversky>
0.182 

> <ROCS_RefTverskyCombo>
0.467 

> <ROCS_FitTversky>
1.729 

> <ROCS_FitColorTversky>
0.604 

> <ROCS_FitTverskyCombo>
2.333 

> <ROCS_ColorScore>
-5.550

> <ROCS_Overlap>
1976.514

> <ROCS_Rank>
258                 

$$$$
untitled-dbase-14842_66
  -OEChem-11132313473D

 42 43  0     0  0  0  0  0  0999 V2000
    6.9488   13.1857   24.7024 C   0  0  0  0  0  0  0  0  0  0  0  0
    5.8832   11.7259   26.3084 C   0  0  0  0  0  0  0  0  0  0  0  0
    7.6766   12.1086   24.1768 C   0  0  0  0  0  0  0  0  0  0  0  0
    6.5965   10.6441   25.7976 C   0  0  0  0  0  0  0  0  0  0  0  0
    6.0624   12.9961   25.7648 C   0  0  0  0  0  0  0  0  0  0  0  0
    7.5027   10.8396   24.7522 C   0  0  0  0  0  0  0  0  0  0  0  0
   10.8915   12.9138   23.6905 C   0  0  0  0  0  0  0  0  0  0  0  0
    8.5885   12.3235   22.9958 C   0  0  0  0  0  0  0  0  0  0  0  0
   10.2549   10.4990   23.2993 C   0  0  0  0  0  0  0  0  0  0  0  0
    9.5713    9.8127   24.4759 C   0  0  0  0  0  0  0  0  0  0  0  0
    6.3839    9.2898   26.3913 C   0  0  0  0  0  0  0  0  0  0  0  0
   12.8891   14.8980   23.1797 C   0  0  0  0  0  0  0  0  0  0  0  0
   14.2349   13.0225   22.1896 C   0  0  0  0  0  0  0  0  0  0  0  0
   12.0308   13.6564   21.1657 C   0  0  0  0  0  0  0  0  0  0  0  0
   12.8280   13.5490   22.4648 C   0  0  0  0  0  0  0  0  0  0  0  0
    9.9673   11.9383   23.2944 N   0  0  0  0  0  0  0  0  0  0  0  0
    5.3403   14.0923   26.2822 N   0  0  0  0  0  0  0  0  0  0  0  0
   10.5963   13.9358   24.3076 O   0  0  0  0  0  0  0  0  0  0  0  0
    8.1542    9.7286   24.2790 O   0  0  0  0  0  0  0  0  0  0  0  0
   12.1752   12.6071   23.3239 O   0  0  0  0  0  0  0  0  0  0  0  0
    7.0691   14.1796   24.2751 H   0  0  0  0  0  0  0  0  0  0  0  0
    5.1853   11.5780   27.1294 H   0  0  0  0  0  0  0  0  0  0  0  0
    8.2323   11.7336   22.1412 H   0  0  0  0  0  0  0  0  0  0  0  0
    8.5583   13.3711   22.6746 H   0  0  0  0  0  0  0  0  0  0  0  0
   11.3352   10.3410   23.3629 H   0  0  0  0  0  0  0  0  0  0  0  0
    9.9048   10.0887   22.3465 H   0  0  0  0  0  0  0  0  0  0  0  0
    9.9320    8.7798   24.5328 H   0  0  0  0  0  0  0  0  0  0  0  0
    9.8246   10.2840   25.4349 H   0  0  0  0  0  0  0  0  0  0  0  0
    5.5759    8.7677   25.8660 H   0  0  0  0  0  0  0  0  0  0  0  0
    7.2942    8.6812   26.3258 H   0  0  0  0  0  0  0  0  0  0  0  0
    6.1223    9.3598   27.4543 H   0  0  0  0  0  0  0  0  0  0  0  0
   11.8812   15.2794   23.3791 H   0  0  0  0  0  0  0  0  0  0  0  0
   13.4283   14.8269   24.1300 H   0  0  0  0  0  0  0  0  0  0  0  0
   13.3859   15.6494   22.5553 H   0  0  0  0  0  0  0  0  0  0  0  0
   14.1958   12.0547   21.6767 H   0  0  0  0  0  0  0  0  0  0  0  0
   14.7787   12.8538   23.1261 H   0  0  0  0  0  0  0  0  0  0  0  0
   14.8133   13.7183   21.5733 H   0  0  0  0  0  0  0  0  0  0  0  0
   11.9868   12.6889   20.6527 H   0  0  0  0  0  0  0  0  0  0  0  0
   11.0066   13.9977   21.3481 H   0  0  0  0  0  0  0  0  0  0  0  0
   12.5115   14.3537   20.4700 H   0  0  0  0  0  0  0  0  0  0  0  0
    5.5078   15.0051   25.9107 H   0  0  0  0  0  0  0  0  0  0  0  0
    4.7444   13.9536   27.0728 H   0  0  0  0  0  0  0  0  0  0  0  0
  1  3  1  0  0  0  0
  1  5  2  0  0  0  0
  2  4  2  0  0  0  0
  2  5  1  0  0  0  0
  3  6  2  0  0  0  0
  3  8  1  0  0  0  0
  4  6  1  0  0  0  0
  4 11  1  0  0  0  0
  5 17  1  0  0  0  0
  6 19  1  0  0  0  0
  7 16  1  0  0  0  0
  7 18  2  0  0  0  0
  7 20  1  0  0  0  0
  8 16  1  0  0  0  0
  9 10  1  0  0  0  0
  9 16  1  0  0  0  0
 10 19  1  0  0  0  0
 12 15  1  0  0  0  0
 13 15  1  0  0  0  0
 14 15  1  0  0  0  0
 15 20  1  0  0  0  0
  1 21  1  0  0  0  0
  2 22  1  0  0  0  0
  8 23  1  0  0  0  0
  8 24  1  0  0  0  0
  9 25  1  0  0  0  0
  9 26  1  0  0  0  0
 10 27  1  0  0  0  0
 10 28  1  0  0  0  0
 11 29  1  0  0  0  0
 11 30  1  0  0  0  0
 11 31  1  0  0  0  0
 12 32  1  0  0  0  0
 12 33  1  0  0  0  0
 12 34  1  0  0  0  0
 13 35  1  0  0  0  0
 13 36  1  0  0  0  0
 13 37  1  0  0  0  0
 14 38  1  0  0  0  0
 14 39  1  0  0  0  0
 14 40  1  0  0  0  0
 17 41  1  0  0  0  0
 17 42  1  0  0  0  0
M  END
> <id>
EN300-1129040

> <smiles>
CC=1C=C(N)C=C2CN(CCOC12)C(=O)OC(C)(C)C

> <IUPAC Name>
tert-butyl 7-amino-9-methyl-2,3,4,5-tetrahydro-1,4-benzoxazepine-4-carboxylate

> <CAS>
2137999-85-8

> <URL>
https://www.enaminestore.com/catalog/EN300-1129040

> <ROCS_ShapeQuery>
A71EV2A-x0451_0A_A71EV2A-x0310_0A_A71EV2A-x0416_0A_peptide

> <ROCS_TanimotoCombo>
0.486 

> <ROCS_ShapeTanimoto>
0.314 

> <ROCS_ColorTanimoto>
0.172 

> <ROCS_RefTversky>
0.281 

> <ROCS_RefColorTversky>
0.187 

> <ROCS_RefTverskyCombo>
0.467 

> <ROCS_FitTversky>
1.608 

> <ROCS_FitColorTversky>
0.691 

> <ROCS_FitTverskyCombo>
2.299 

> <ROCS_ColorScore>
-5.691

> <ROCS_Overlap>
1947.539

> <ROCS_Rank>
259                 

$$$$
untitled-dbase-44781_70
  -OEChem-11132313473D

 35 36  0     0  0  0  0  0  0999 V2000
    7.9271   13.1523   25.1440 C   0  0  0  0  0  0  0  0  0  0  0  0
    6.8876   12.9716   26.0661 C   0  0  0  0  0  0  0  0  0  0  0  0
    6.8888   10.6172   25.6154 C   0  0  0  0  0  0  0  0  0  0  0  0
    7.9215   10.8058   24.6841 C   0  0  0  0  0  0  0  0  0  0  0  0
    8.5069   12.0693   24.4628 C   0  0  0  0  0  0  0  0  0  0  0  0
    6.3819   11.7035   26.3162 C   0  0  0  0  0  0  0  0  0  0  0  0
    8.3294    9.6438   23.8716 C   0  0  0  0  0  0  0  0  0  0  0  0
   10.4794   13.3345   23.4397 C   0  0  0  0  0  0  0  0  0  0  0  0
    8.9931    9.9760   22.5724 C   0  0  0  0  0  0  0  0  0  0  0  0
   10.0553   11.0253   22.8046 C   0  0  0  0  0  0  0  0  0  0  0  0
   12.2112   15.5224   22.7766 C   0  0  0  0  0  0  0  0  0  0  0  0
   12.0018   14.7206   20.4054 C   0  0  0  0  0  0  0  0  0  0  0  0
    9.9651   15.5165   21.6410 C   0  0  0  0  0  0  0  0  0  0  0  0
   11.3139   14.8095   21.7660 C   0  0  0  0  0  0  0  0  0  0  0  0
    9.6263   12.2084   23.5595 N   0  0  0  0  0  0  0  0  0  0  0  0
    8.0672    8.4954   24.2073 O   0  0  0  0  0  0  0  0  0  0  0  0
   10.6188   14.1729   24.3325 O   0  0  0  0  0  0  0  0  0  0  0  0
   11.0865   13.4705   22.2231 O   0  0  0  0  0  0  0  0  0  0  0  0
    5.1374   11.4819   27.4812 Cl  0  0  0  0  0  0  0  0  0  0  0  0
    8.2255   14.1807   24.9525 H   0  0  0  0  0  0  0  0  0  0  0  0
    6.4778   13.8443   26.5711 H   0  0  0  0  0  0  0  0  0  0  0  0
    6.4860    9.6250   25.8009 H   0  0  0  0  0  0  0  0  0  0  0  0
    9.4184    9.0650   22.1488 H   0  0  0  0  0  0  0  0  0  0  0  0
    8.2414   10.3706   21.8865 H   0  0  0  0  0  0  0  0  0  0  0  0
   10.9221   10.5345   23.2953 H   0  0  0  0  0  0  0  0  0  0  0  0
   10.4522   11.3991   21.8338 H   0  0  0  0  0  0  0  0  0  0  0  0
   11.7210   15.5882   23.7546 H   0  0  0  0  0  0  0  0  0  0  0  0
   13.1682   15.0055   22.9015 H   0  0  0  0  0  0  0  0  0  0  0  0
   12.4128   16.5528   22.4620 H   0  0  0  0  0  0  0  0  0  0  0  0
   11.3615   14.2098   19.6772 H   0  0  0  0  0  0  0  0  0  0  0  0
   12.9240   14.1321   20.4720 H   0  0  0  0  0  0  0  0  0  0  0  0
   12.2507   15.7119   20.0131 H   0  0  0  0  0  0  0  0  0  0  0  0
    9.3213   15.0053   20.9162 H   0  0  0  0  0  0  0  0  0  0  0  0
    9.4404   15.5569   22.6011 H   0  0  0  0  0  0  0  0  0  0  0  0
   10.0945   16.5402   21.2716 H   0  0  0  0  0  0  0  0  0  0  0  0
  1  2  1  0  0  0  0
  1  5  2  0  0  0  0
  2  6  2  0  0  0  0
  3  4  2  0  0  0  0
  3  6  1  0  0  0  0
  4  5  1  0  0  0  0
  4  7  1  0  0  0  0
  5 15  1  0  0  0  0
  6 19  1  0  0  0  0
  7  9  1  0  0  0  0
  7 16  2  0  0  0  0
  8 15  1  0  0  0  0
  8 17  2  0  0  0  0
  8 18  1  0  0  0  0
  9 10  1  0  0  0  0
 10 15  1  0  0  0  0
 11 14  1  0  0  0  0
 12 14  1  0  0  0  0
 13 14  1  0  0  0  0
 14 18  1  0  0  0  0
  1 20  1  0  0  0  0
  2 21  1  0  0  0  0
  3 22  1  0  0  0  0
  9 23  1  0  0  0  0
  9 24  1  0  0  0  0
 10 25  1  0  0  0  0
 10 26  1  0  0  0  0
 11 27  1  0  0  0  0
 11 28  1  0  0  0  0
 11 29  1  0  0  0  0
 12 30  1  0  0  0  0
 12 31  1  0  0  0  0
 12 32  1  0  0  0  0
 13 33  1  0  0  0  0
 13 34  1  0  0  0  0
 13 35  1  0  0  0  0
M  END
> <id>
EN300-180996

> <smiles>
CC(C)(C)OC(=O)N1CCC(=O)C=2C=C(Cl)C=CC12

> <MDLNUMBER>
MFCD28099869

> <IUPAC Name>
tert-butyl 6-chloro-4-oxo-1,2,3,4-tetrahydroquinoline-1-carboxylate

> <CAS>
1823864-49-8

> <URL>
https://www.enaminestore.com/catalog/EN300-180996

> <ROCS_ShapeQuery>
A71EV2A-x0451_0A_A71EV2A-x0310_0A_A71EV2A-x0416_0A_peptide

> <ROCS_TanimotoCombo>
0.486 

> <ROCS_ShapeTanimoto>
0.353 

> <ROCS_ColorTanimoto>
0.133 

> <ROCS_RefTversky>
0.305 

> <ROCS_RefColorTversky>
0.142 

> <ROCS_RefTverskyCombo>
0.447 

> <ROCS_FitTversky>
1.813 

> <ROCS_FitColorTversky>
0.682 

> <ROCS_FitTverskyCombo>
2.495 

> <ROCS_ColorScore>
-4.321

> <ROCS_Overlap>
2113.856

> <ROCS_Rank>
260                 

$$$$
untitled-dbase-50951_139
  -OEChem-11132313473D

 46 48  0     0  0  0  0  0  0999 V2000
   11.7917   15.3548   22.2560 C   0  0  0  0  0  0  0  0  0  0  0  0
   10.2704   13.0524   24.6171 C   0  0  0  0  0  0  0  0  0  0  0  0
    8.9949   13.0985   22.4307 C   0  0  0  0  0  0  0  0  0  0  0  0
    7.2600   10.8103   23.6569 C   0  0  0  0  0  0  0  0  0  0  0  0
    8.3113   10.7706   25.4513 C   0  0  0  0  0  0  0  0  0  0  0  0
   11.5438   13.4081   23.8492 C   0  0  0  0  0  0  0  0  0  0  0  0
   10.2975   13.4504   21.7130 C   0  0  0  0  0  0  0  0  0  0  0  0
    7.9686   11.9425   24.4719 C   0  0  0  0  0  0  0  0  0  0  0  0
    9.2516   12.3259   23.7304 C   0  0  0  0  0  0  0  0  0  0  0  0
    8.6577   10.1523   24.0296 C   0  0  0  0  0  0  0  0  0  0  0  0
    8.9006    8.6844   23.8553 C   0  0  0  0  0  0  0  0  0  0  0  0
   14.0616   14.4913   20.7414 C   0  0  0  0  0  0  0  0  0  0  0  0
   13.0994   15.8599   18.8678 C   0  0  0  0  0  0  0  0  0  0  0  0
   13.7967   16.9802   21.0049 C   0  0  0  0  0  0  0  0  0  0  0  0
   13.2145   15.7115   20.3834 C   0  0  0  0  0  0  0  0  0  0  0  0
   11.2280   14.1262   22.6129 N   0  0  0  0  0  0  0  0  0  0  0  0
    7.0609   12.9096   25.0307 N   0  0  0  0  0  0  0  0  0  0  0  0
   12.1616   16.2075   23.0612 O   0  0  0  0  0  0  0  0  0  0  0  0
    9.7089   10.9849   23.4337 O   0  0  0  0  0  0  0  0  0  0  0  0
   11.8928   15.5160   20.8994 O   0  0  0  0  0  0  0  0  0  0  0  0
   10.5642   12.4367   25.4740 H   0  0  0  0  0  0  0  0  0  0  0  0
    9.8257   13.9706   25.0216 H   0  0  0  0  0  0  0  0  0  0  0  0
    8.4436   14.0215   22.6479 H   0  0  0  0  0  0  0  0  0  0  0  0
    8.3832   12.5154   21.7350 H   0  0  0  0  0  0  0  0  0  0  0  0
    6.3650   10.3457   24.0883 H   0  0  0  0  0  0  0  0  0  0  0  0
    7.0815   10.9845   22.5936 H   0  0  0  0  0  0  0  0  0  0  0  0
    9.1541   10.9074   26.1324 H   0  0  0  0  0  0  0  0  0  0  0  0
    7.4882   10.3036   26.0059 H   0  0  0  0  0  0  0  0  0  0  0  0
   12.2050   14.0038   24.4843 H   0  0  0  0  0  0  0  0  0  0  0  0
   12.0894   12.5012   23.5670 H   0  0  0  0  0  0  0  0  0  0  0  0
   10.7951   12.5399   21.3561 H   0  0  0  0  0  0  0  0  0  0  0  0
   10.0739   14.0599   20.8320 H   0  0  0  0  0  0  0  0  0  0  0  0
    9.9193    8.4098   24.1632 H   0  0  0  0  0  0  0  0  0  0  0  0
    8.7772    8.3820   22.8059 H   0  0  0  0  0  0  0  0  0  0  0  0
    8.1992    8.0902   24.4578 H   0  0  0  0  0  0  0  0  0  0  0  0
   14.1467   14.3813   21.8284 H   0  0  0  0  0  0  0  0  0  0  0  0
   13.6356   13.5700   20.3309 H   0  0  0  0  0  0  0  0  0  0  0  0
   15.0837   14.5995   20.3607 H   0  0  0  0  0  0  0  0  0  0  0  0
   12.4924   16.7343   18.6064 H   0  0  0  0  0  0  0  0  0  0  0  0
   12.5956   14.9917   18.4278 H   0  0  0  0  0  0  0  0  0  0  0  0
   14.0818   15.9665   18.3965 H   0  0  0  0  0  0  0  0  0  0  0  0
   13.1892   17.8557   20.7482 H   0  0  0  0  0  0  0  0  0  0  0  0
   13.8524   16.9061   22.0957 H   0  0  0  0  0  0  0  0  0  0  0  0
   14.8027   17.1777   20.6174 H   0  0  0  0  0  0  0  0  0  0  0  0
    7.1538   12.9169   26.0260 H   0  0  0  0  0  0  0  0  0  0  0  0
    7.2768   13.8159   24.6684 H   0  0  0  0  0  0  0  0  0  0  0  0
  1 16  1  0  0  0  0
  1 18  2  0  0  0  0
  1 20  1  0  0  0  0
  2  6  1  0  0  0  0
  2  9  1  0  0  0  0
  3  7  1  0  0  0  0
  3  9  1  0  0  0  0
  4  8  1  0  0  0  0
  4 10  1  0  0  0  0
  5  8  1  0  0  0  0
  5 10  1  0  0  0  0
  6 16  1  0  0  0  0
  7 16  1  0  0  0  0
  8  9  1  0  0  0  0
  8 17  1  1  0  0  0
  9 19  1  0  0  0  0
 10 11  1  1  0  0  0
 10 19  1  0  0  0  0
 12 15  1  0  0  0  0
 13 15  1  0  0  0  0
 14 15  1  0  0  0  0
 15 20  1  0  0  0  0
  2 21  1  0  0  0  0
  2 22  1  0  0  0  0
  3 23  1  0  0  0  0
  3 24  1  0  0  0  0
  4 25  1  0  0  0  0
  4 26  1  0  0  0  0
  5 27  1  0  0  0  0
  5 28  1  0  0  0  0
  6 29  1  0  0  0  0
  6 30  1  0  0  0  0
  7 31  1  0  0  0  0
  7 32  1  0  0  0  0
 11 33  1  0  0  0  0
 11 34  1  0  0  0  0
 11 35  1  0  0  0  0
 12 36  1  0  0  0  0
 12 37  1  0  0  0  0
 12 38  1  0  0  0  0
 13 39  1  0  0  0  0
 13 40  1  0  0  0  0
 13 41  1  0  0  0  0
 14 42  1  0  0  0  0
 14 43  1  0  0  0  0
 14 44  1  0  0  0  0
 17 45  1  0  0  0  0
 17 46  1  0  0  0  0
M  END
> <id>
EN300-37375266

> <smiles>
CC(C)(C)OC(=O)N1CCC2(CC1)O[C@]3(C)C[C@@]2(N)C3

> <IUPAC Name>
tert-butyl 1-amino-4-methyl-3-oxaspiro[bicyclo[2.1.1]hexane-2,4'-piperidine]-1'-carboxylate

> <CAS>
2243513-67-7

> <URL>
https://www.enaminestore.com/catalog/EN300-37375266

> <ROCS_ShapeQuery>
A71EV2A-x0451_0A_A71EV2A-x0310_0A_A71EV2A-x0416_0A_peptide

> <ROCS_TanimotoCombo>
0.486 

> <ROCS_ShapeTanimoto>
0.322 

> <ROCS_ColorTanimoto>
0.164 

> <ROCS_RefTversky>
0.287 

> <ROCS_RefColorTversky>
0.203 

> <ROCS_RefTverskyCombo>
0.490 

> <ROCS_FitTversky>
1.635 

> <ROCS_FitColorTversky>
0.457 

> <ROCS_FitTverskyCombo>
2.092 

> <ROCS_ColorScore>
-6.250

> <ROCS_Overlap>
1989.190

> <ROCS_Rank>
261                 

$$$$
untitled-dbase-24522_149
  -OEChem-11132313473D

 46 48  0     0  0  0  0  0  0999 V2000
   11.7911   15.3578   22.2565 C   0  0  0  0  0  0  0  0  0  0  0  0
   10.2687   13.0540   24.6178 C   0  0  0  0  0  0  0  0  0  0  0  0
    8.9927   13.1008   22.4318 C   0  0  0  0  0  0  0  0  0  0  0  0
    7.2610   10.8090   23.6560 C   0  0  0  0  0  0  0  0  0  0  0  0
    8.3126   10.7691   25.4503 C   0  0  0  0  0  0  0  0  0  0  0  0
   11.5415   13.4117   23.8499 C   0  0  0  0  0  0  0  0  0  0  0  0
   10.2945   13.4552   21.7140 C   0  0  0  0  0  0  0  0  0  0  0  0
    7.9682   11.9414   24.4721 C   0  0  0  0  0  0  0  0  0  0  0  0
    9.2506   12.3272   23.7306 C   0  0  0  0  0  0  0  0  0  0  0  0
    8.6596   10.1525   24.0280 C   0  0  0  0  0  0  0  0  0  0  0  0
    8.9046    8.6851   23.8522 C   0  0  0  0  0  0  0  0  0  0  0  0
   14.0566   14.4902   20.7375 C   0  0  0  0  0  0  0  0  0  0  0  0
   13.0935   15.8612   18.8660 C   0  0  0  0  0  0  0  0  0  0  0  0
   13.7970   16.9796   21.0020 C   0  0  0  0  0  0  0  0  0  0  0  0
   13.2112   15.7122   20.3813 C   0  0  0  0  0  0  0  0  0  0  0  0
   11.2252   14.1305   22.6140 N   0  0  0  0  0  0  0  0  0  0  0  0
    7.0592   12.9069   25.0312 N   0  0  0  0  0  0  0  0  0  0  0  0
   12.1640   16.2097   23.0612 O   0  0  0  0  0  0  0  0  0  0  0  0
    9.7096   10.9871   23.4327 O   0  0  0  0  0  0  0  0  0  0  0  0
   11.8900   15.5192   20.8998 O   0  0  0  0  0  0  0  0  0  0  0  0
   10.5636   12.4378   25.4737 H   0  0  0  0  0  0  0  0  0  0  0  0
    9.8241   13.9718   25.0228 H   0  0  0  0  0  0  0  0  0  0  0  0
    8.4398   14.0229   22.6494 H   0  0  0  0  0  0  0  0  0  0  0  0
    8.3814   12.5174   21.7357 H   0  0  0  0  0  0  0  0  0  0  0  0
    6.3664   10.3432   24.0870 H   0  0  0  0  0  0  0  0  0  0  0  0
    7.0824   10.9843   22.5929 H   0  0  0  0  0  0  0  0  0  0  0  0
    9.1552   10.9054   26.1316 H   0  0  0  0  0  0  0  0  0  0  0  0
    7.4899   10.3004   26.0043 H   0  0  0  0  0  0  0  0  0  0  0  0
   12.2027   14.0074   24.4854 H   0  0  0  0  0  0  0  0  0  0  0  0
   12.0876   12.5052   23.5669 H   0  0  0  0  0  0  0  0  0  0  0  0
   10.7928   12.5459   21.3543 H   0  0  0  0  0  0  0  0  0  0  0  0
   10.0696   14.0663   20.8342 H   0  0  0  0  0  0  0  0  0  0  0  0
    9.9236    8.4116   24.1598 H   0  0  0  0  0  0  0  0  0  0  0  0
    8.7815    8.3836   22.8026 H   0  0  0  0  0  0  0  0  0  0  0  0
    8.2040    8.0894   24.4542 H   0  0  0  0  0  0  0  0  0  0  0  0
   14.1434   14.3798   21.8243 H   0  0  0  0  0  0  0  0  0  0  0  0
   13.6280   13.5698   20.3276 H   0  0  0  0  0  0  0  0  0  0  0  0
   15.0782   14.5965   20.3550 H   0  0  0  0  0  0  0  0  0  0  0  0
   12.4878   16.7367   18.6059 H   0  0  0  0  0  0  0  0  0  0  0  0
   12.5873   14.9940   18.4267 H   0  0  0  0  0  0  0  0  0  0  0  0
   14.0753   15.9659   18.3929 H   0  0  0  0  0  0  0  0  0  0  0  0
   13.1908   17.8563   20.7467 H   0  0  0  0  0  0  0  0  0  0  0  0
   13.8546   16.9051   22.0927 H   0  0  0  0  0  0  0  0  0  0  0  0
   14.8027   17.1752   20.6127 H   0  0  0  0  0  0  0  0  0  0  0  0
    7.1517   12.9137   26.0266 H   0  0  0  0  0  0  0  0  0  0  0  0
    7.2740   13.8138   24.6697 H   0  0  0  0  0  0  0  0  0  0  0  0
  1 16  1  0  0  0  0
  1 18  2  0  0  0  0
  1 20  1  0  0  0  0
  2  6  1  0  0  0  0
  2  9  1  0  0  0  0
  3  7  1  0  0  0  0
  3  9  1  0  0  0  0
  4  8  1  0  0  0  0
  4 10  1  0  0  0  0
  5  8  1  0  0  0  0
  5 10  1  0  0  0  0
  6 16  1  0  0  0  0
  7 16  1  0  0  0  0
  8  9  1  0  0  0  0
  8 17  1  0  0  0  0
  9 19  1  0  0  0  0
 10 11  1  0  0  0  0
 10 19  1  0  0  0  0
 12 15  1  0  0  0  0
 13 15  1  0  0  0  0
 14 15  1  0  0  0  0
 15 20  1  0  0  0  0
  2 21  1  0  0  0  0
  2 22  1  0  0  0  0
  3 23  1  0  0  0  0
  3 24  1  0  0  0  0
  4 25  1  0  0  0  0
  4 26  1  0  0  0  0
  5 27  1  0  0  0  0
  5 28  1  0  0  0  0
  6 29  1  0  0  0  0
  6 30  1  0  0  0  0
  7 31  1  0  0  0  0
  7 32  1  0  0  0  0
 11 33  1  0  0  0  0
 11 34  1  0  0  0  0
 11 35  1  0  0  0  0
 12 36  1  0  0  0  0
 12 37  1  0  0  0  0
 12 38  1  0  0  0  0
 13 39  1  0  0  0  0
 13 40  1  0  0  0  0
 13 41  1  0  0  0  0
 14 42  1  0  0  0  0
 14 43  1  0  0  0  0
 14 44  1  0  0  0  0
 17 45  1  0  0  0  0
 17 46  1  0  0  0  0
M  END
> <id>
EN300-6487841

> <smiles>
CC(C)(C)OC(=O)N1CCC2(CC1)OC3(C)CC2(N)C3

> <MDLNUMBER>
MFCD31668022

> <IUPAC Name>
tert-butyl 1-amino-4-methyl-3-oxaspiro[bicyclo[2.1.1]hexane-2,4'-piperidine]-1'-carboxylate

> <CAS>
2243513-67-7

> <Purity>
95

> <URL>
https://www.enaminestore.com/catalog/EN300-6487841

> <ROCS_ShapeQuery>
A71EV2A-x0451_0A_A71EV2A-x0310_0A_A71EV2A-x0416_0A_peptide

> <ROCS_TanimotoCombo>
0.486 

> <ROCS_ShapeTanimoto>
0.322 

> <ROCS_ColorTanimoto>
0.164 

> <ROCS_RefTversky>
0.287 

> <ROCS_RefColorTversky>
0.203 

> <ROCS_RefTverskyCombo>
0.490 

> <ROCS_FitTversky>
1.635 

> <ROCS_FitColorTversky>
0.457 

> <ROCS_FitTverskyCombo>
2.092 

> <ROCS_ColorScore>
-6.249

> <ROCS_Overlap>
1989.018

> <ROCS_Rank>
262                 

$$$$
untitled-dbase-45529_2
  -OEChem-11132313473D

 42 43  0     0  0  0  0  0  0999 V2000
    6.3242   11.1155   25.9844 C   0  0  0  0  0  0  0  0  0  0  0  0
    6.8397   12.4138   26.0848 C   0  0  0  0  0  0  0  0  0  0  0  0
    8.0130   10.5773   24.3714 C   0  0  0  0  0  0  0  0  0  0  0  0
    6.9110   10.1880   25.1238 C   0  0  0  0  0  0  0  0  0  0  0  0
    8.5258   11.8736   24.4733 C   0  0  0  0  0  0  0  0  0  0  0  0
    7.9479   12.8027   25.3271 C   0  0  0  0  0  0  0  0  0  0  0  0
   10.3984   13.1737   23.4550 C   0  0  0  0  0  0  0  0  0  0  0  0
    9.8668   10.7563   22.9055 C   0  0  0  0  0  0  0  0  0  0  0  0
    8.7986    9.7428   23.3870 C   0  0  0  0  0  0  0  0  0  0  0  0
    6.3266    8.8190   25.0506 C   0  0  0  0  0  0  0  0  0  0  0  0
    7.9197    9.2780   22.2209 C   0  0  0  0  0  0  0  0  0  0  0  0
    9.4551    8.5408   24.0747 C   0  0  0  0  0  0  0  0  0  0  0  0
   12.1072   15.2992   22.5820 C   0  0  0  0  0  0  0  0  0  0  0  0
   11.7062   14.4228   20.2624 C   0  0  0  0  0  0  0  0  0  0  0  0
    9.7811   15.2927   21.6209 C   0  0  0  0  0  0  0  0  0  0  0  0
   11.1255   14.5680   21.6674 C   0  0  0  0  0  0  0  0  0  0  0  0
    9.6336   12.0266   23.6198 N   0  0  0  0  0  0  0  0  0  0  0  0
   10.6068   14.0296   24.3102 O   0  0  0  0  0  0  0  0  0  0  0  0
   10.9152   13.2495   22.1858 O   0  0  0  0  0  0  0  0  0  0  0  0
    8.2871   14.6689   25.4050 Br  0  0  0  0  0  0  0  0  0  0  0  0
    5.4569   10.8423   26.5806 H   0  0  0  0  0  0  0  0  0  0  0  0
    6.3319   13.1131   26.7462 H   0  0  0  0  0  0  0  0  0  0  0  0
   10.8908   10.4186   23.1101 H   0  0  0  0  0  0  0  0  0  0  0  0
    9.7956   10.9589   21.8295 H   0  0  0  0  0  0  0  0  0  0  0  0
    5.5518    8.7743   24.2749 H   0  0  0  0  0  0  0  0  0  0  0  0
    7.0940    8.0688   24.8181 H   0  0  0  0  0  0  0  0  0  0  0  0
    5.8763    8.5251   26.0082 H   0  0  0  0  0  0  0  0  0  0  0  0
    8.5145    8.6823   21.5341 H   0  0  0  0  0  0  0  0  0  0  0  0
    7.5231   10.1443   21.6987 H   0  0  0  0  0  0  0  0  0  0  0  0
    7.0984    8.6781   22.6030 H   0  0  0  0  0  0  0  0  0  0  0  0
   10.0106    7.9632   23.3413 H   0  0  0  0  0  0  0  0  0  0  0  0
    8.6872    7.9159   24.5219 H   0  0  0  0  0  0  0  0  0  0  0  0
   10.1325    8.8919   24.8481 H   0  0  0  0  0  0  0  0  0  0  0  0
   11.6941   15.4055   23.5915 H   0  0  0  0  0  0  0  0  0  0  0  0
   13.0637   14.7709   22.6515 H   0  0  0  0  0  0  0  0  0  0  0  0
   12.2986   16.3150   22.2178 H   0  0  0  0  0  0  0  0  0  0  0  0
   11.0051   13.8988   19.6028 H   0  0  0  0  0  0  0  0  0  0  0  0
   12.6224   13.8217   20.2790 H   0  0  0  0  0  0  0  0  0  0  0  0
   11.9381   15.3963   19.8185 H   0  0  0  0  0  0  0  0  0  0  0  0
    9.0767   14.7685   20.9650 H   0  0  0  0  0  0  0  0  0  0  0  0
    9.3319   15.3735   22.6161 H   0  0  0  0  0  0  0  0  0  0  0  0
    9.8962   16.3014   21.2078 H   0  0  0  0  0  0  0  0  0  0  0  0
  1  2  1  0  0  0  0
  1  4  2  0  0  0  0
  2  6  2  0  0  0  0
  3  4  1  0  0  0  0
  3  5  2  0  0  0  0
  3  9  1  0  0  0  0
  4 10  1  0  0  0  0
  5  6  1  0  0  0  0
  5 17  1  0  0  0  0
  6 20  1  0  0  0  0
  7 17  1  0  0  0  0
  7 18  2  0  0  0  0
  7 19  1  0  0  0  0
  8  9  1  0  0  0  0
  8 17  1  0  0  0  0
  9 11  1  0  0  0  0
  9 12  1  0  0  0  0
 13 16  1  0  0  0  0
 14 16  1  0  0  0  0
 15 16  1  0  0  0  0
 16 19  1  0  0  0  0
  1 21  1  0  0  0  0
  2 22  1  0  0  0  0
  8 23  1  0  0  0  0
  8 24  1  0  0  0  0
 10 25  1  0  0  0  0
 10 26  1  0  0  0  0
 10 27  1  0  0  0  0
 11 28  1  0  0  0  0
 11 29  1  0  0  0  0
 11 30  1  0  0  0  0
 12 31  1  0  0  0  0
 12 32  1  0  0  0  0
 12 33  1  0  0  0  0
 13 34  1  0  0  0  0
 13 35  1  0  0  0  0
 13 36  1  0  0  0  0
 14 37  1  0  0  0  0
 14 38  1  0  0  0  0
 14 39  1  0  0  0  0
 15 40  1  0  0  0  0
 15 41  1  0  0  0  0
 15 42  1  0  0  0  0
M  END
> <id>
EN300-28297051

> <smiles>
CC=1C=CC(Br)=C2N(CC(C)(C)C21)C(=O)OC(C)(C)C

> <IUPAC Name>
tert-butyl 7-bromo-3,3,4-trimethyl-2,3-dihydro-1H-indole-1-carboxylate

> <CAS>
2680756-10-7

> <URL>
https://www.enaminestore.com/catalog/EN300-28297051

> <ROCS_ShapeQuery>
A71EV2A-x0451_0A_A71EV2A-x0310_0A_A71EV2A-x0416_0A_peptide

> <ROCS_TanimotoCombo>
0.486 

> <ROCS_ShapeTanimoto>
0.356 

> <ROCS_ColorTanimoto>
0.130 

> <ROCS_RefTversky>
0.308 

> <ROCS_RefColorTversky>
0.143 

> <ROCS_RefTverskyCombo>
0.451 

> <ROCS_FitTversky>
1.776 

> <ROCS_FitColorTversky>
0.596 

> <ROCS_FitTverskyCombo>
2.372 

> <ROCS_ColorScore>
-4.350

> <ROCS_Overlap>
2135.552

> <ROCS_Rank>
263                 

$$$$
untitled-dbase-50094_53
  -OEChem-11132313473D

 44 45  0     1  0  0  0  0  0999 V2000
   10.3050   13.2191   23.4598 C   0  0  0  0  0  0  0  0  0  0  0  0
    6.9525   12.3960   26.2966 C   0  0  0  0  0  0  0  0  0  0  0  0
    8.1897   12.9405   25.5722 C   0  0  0  0  0  0  0  0  0  0  0  0
    6.5809   11.0847   25.5941 C   0  0  0  0  0  0  0  0  0  0  0  0
    9.9215    9.4513   23.4227 C   0  0  0  0  0  0  0  0  0  0  0  0
    9.9436   10.8427   22.7588 C   0  0  0  0  0  0  0  0  0  0  0  0
    7.4910    9.6877   23.6432 C   0  0  0  0  0  0  0  0  0  0  0  0
    8.6728   11.7647   24.7135 C   0  0  1  0  0  0  0  0  0  0  0  0
    7.3401   11.1050   24.2507 C   0  0  2  0  0  0  0  0  0  0  0  0
    6.5561   11.9696   23.2352 C   0  0  0  0  0  0  0  0  0  0  0  0
   12.6161   14.7214   22.6718 C   0  0  0  0  0  0  0  0  0  0  0  0
   11.6056   14.7190   20.3722 C   0  0  0  0  0  0  0  0  0  0  0  0
   10.3939   15.8325   22.2695 C   0  0  0  0  0  0  0  0  0  0  0  0
   11.3154   14.6806   21.8710 C   0  0  0  0  0  0  0  0  0  0  0  0
    8.6906    8.9746   24.0617 N   0  0  0  0  0  0  0  0  0  0  0  0
    9.6451   11.9898   23.6384 N   0  0  0  0  0  0  0  0  0  0  0  0
   10.5556   14.0291   24.3484 O   0  0  0  0  0  0  0  0  0  0  0  0
   10.6471   13.4445   22.1496 O   0  0  0  0  0  0  0  0  0  0  0  0
    7.1504   12.2228   27.3610 H   0  0  0  0  0  0  0  0  0  0  0  0
    6.1297   13.1188   26.2350 H   0  0  0  0  0  0  0  0  0  0  0  0
    7.9137   13.8006   24.9607 H   0  0  0  0  0  0  0  0  0  0  0  0
    8.9289   13.2596   26.3050 H   0  0  0  0  0  0  0  0  0  0  0  0
    6.9134   10.2420   26.2183 H   0  0  0  0  0  0  0  0  0  0  0  0
    5.4936   10.9856   25.4807 H   0  0  0  0  0  0  0  0  0  0  0  0
   10.1571    8.7040   22.6225 H   0  0  0  0  0  0  0  0  0  0  0  0
   10.7982    9.3334   24.1188 H   0  0  0  0  0  0  0  0  0  0  0  0
   10.9529   10.9571   22.3276 H   0  0  0  0  0  0  0  0  0  0  0  0
    9.2868   10.8975   21.8760 H   0  0  0  0  0  0  0  0  0  0  0  0
    6.6099    9.0814   23.8683 H   0  0  0  0  0  0  0  0  0  0  0  0
    7.5252    9.7757   22.5541 H   0  0  0  0  0  0  0  0  0  0  0  0
    9.1666   11.0342   25.3757 H   0  0  0  0  0  0  0  0  0  0  0  0
    7.0946   11.9787   22.2970 H   0  0  0  0  0  0  0  0  0  0  0  0
    6.4714   12.9747   23.6262 H   0  0  0  0  0  0  0  0  0  0  0  0
    5.5734   11.5389   23.0971 H   0  0  0  0  0  0  0  0  0  0  0  0
   12.4120   14.6940   23.7481 H   0  0  0  0  0  0  0  0  0  0  0  0
   13.2710   13.8807   22.4205 H   0  0  0  0  0  0  0  0  0  0  0  0
   13.1617   15.6533   22.4842 H   0  0  0  0  0  0  0  0  0  0  0  0
   10.6752   14.6899   19.7937 H   0  0  0  0  0  0  0  0  0  0  0  0
   12.1877   13.8427   20.0647 H   0  0  0  0  0  0  0  0  0  0  0  0
   12.1606   15.6199   20.0910 H   0  0  0  0  0  0  0  0  0  0  0  0
    9.4608   15.8034   21.6953 H   0  0  0  0  0  0  0  0  0  0  0  0
   10.1449   15.7996   23.3352 H   0  0  0  0  0  0  0  0  0  0  0  0
   10.8616   16.7992   22.0508 H   0  0  0  0  0  0  0  0  0  0  0  0
    8.5858    7.9732   23.9083 H   0  0  0  0  0  0  0  0  0  0  0  0
  1 16  1  0  0  0  0
  1 17  2  0  0  0  0
  1 18  1  0  0  0  0
  2  3  1  0  0  0  0
  2  4  1  0  0  0  0
  3  8  1  6  0  0  0
  4  9  1  0  0  0  0
  5  6  1  0  0  0  0
  5 15  1  0  0  0  0
  6 16  1  0  0  0  0
  7  9  1  0  0  0  0
  7 15  1  0  0  0  0
  8  9  1  0  0  0  0
  8 16  1  0  0  0  0
  9 10  1  6  0  0  0
 11 14  1  0  0  0  0
 12 14  1  0  0  0  0
 13 14  1  0  0  0  0
 14 18  1  0  0  0  0
  2 19  1  0  0  0  0
  2 20  1  0  0  0  0
  3 21  1  0  0  0  0
  3 22  1  0  0  0  0
  4 23  1  0  0  0  0
  4 24  1  0  0  0  0
  5 25  1  0  0  0  0
  5 26  1  0  0  0  0
  6 27  1  0  0  0  0
  6 28  1  0  0  0  0
  7 29  1  0  0  0  0
  7 30  1  0  0  0  0
  8 31  1  0  0  0  0
 10 32  1  0  0  0  0
 10 33  1  0  0  0  0
 10 34  1  0  0  0  0
 11 35  1  0  0  0  0
 11 36  1  0  0  0  0
 11 37  1  0  0  0  0
 12 38  1  0  0  0  0
 12 39  1  0  0  0  0
 12 40  1  0  0  0  0
 13 41  1  0  0  0  0
 13 42  1  0  0  0  0
 13 43  1  0  0  0  0
 15 44  1  0  0  0  0
M  END
> <id>
EN300-37335401

> <smiles>
CC(C)(C)OC(=O)N1CCNC[C@@]2(C)CCC[C@H]12 |&1:12,17,r|

> <IUPAC Name>
rac-tert-butyl (5aR,8aS)-5a-methyl-decahydrocyclopenta[e][1,4]diazepine-1-carboxylate

> <Purity>
95

> <URL>
https://www.enaminestore.com/catalog/EN300-37335401

> <ROCS_ShapeQuery>
A71EV2A-x0451_0A_A71EV2A-x0310_0A_A71EV2A-x0416_0A_peptide

> <ROCS_TanimotoCombo>
0.486 

> <ROCS_ShapeTanimoto>
0.329 

> <ROCS_ColorTanimoto>
0.157 

> <ROCS_RefTversky>
0.287 

> <ROCS_RefColorTversky>
0.168 

> <ROCS_RefTverskyCombo>
0.455 

> <ROCS_FitTversky>
1.798 

> <ROCS_FitColorTversky>
0.703 

> <ROCS_FitTverskyCombo>
2.501 

> <ROCS_ColorScore>
-5.124

> <ROCS_Overlap>
1988.816

> <ROCS_Rank>
264                 

$$$$
untitled-dbase-46217_74
  -OEChem-11132313473D

 35 36  0     0  0  0  0  0  0999 V2000
    6.8867   12.9674   26.0649 C   0  0  0  0  0  0  0  0  0  0  0  0
    7.9264   13.1500   25.1433 C   0  0  0  0  0  0  0  0  0  0  0  0
    6.3820   11.6985   26.3133 C   0  0  0  0  0  0  0  0  0  0  0  0
    7.9228   10.8040   24.6805 C   0  0  0  0  0  0  0  0  0  0  0  0
    8.5072   12.0683   24.4609 C   0  0  0  0  0  0  0  0  0  0  0  0
    6.8899   10.6135   25.6113 C   0  0  0  0  0  0  0  0  0  0  0  0
    8.3318    9.6433   23.8667 C   0  0  0  0  0  0  0  0  0  0  0  0
   10.4789   13.3363   23.4399 C   0  0  0  0  0  0  0  0  0  0  0  0
    8.9956    9.9776   22.5681 C   0  0  0  0  0  0  0  0  0  0  0  0
   10.0569   11.0275   22.8018 C   0  0  0  0  0  0  0  0  0  0  0  0
   12.2092   15.5264   22.7798 C   0  0  0  0  0  0  0  0  0  0  0  0
   12.0010   14.7272   20.4076 C   0  0  0  0  0  0  0  0  0  0  0  0
    9.9634   15.5200   21.6436 C   0  0  0  0  0  0  0  0  0  0  0  0
   11.3127   14.8139   21.7681 C   0  0  0  0  0  0  0  0  0  0  0  0
    9.6268   12.2093   23.5581 N   0  0  0  0  0  0  0  0  0  0  0  0
    8.0705    8.4944   24.2010 O   0  0  0  0  0  0  0  0  0  0  0  0
   10.6174   14.1737   24.3336 O   0  0  0  0  0  0  0  0  0  0  0  0
   11.0863   13.4742   22.2235 O   0  0  0  0  0  0  0  0  0  0  0  0
    6.3782    9.3995   25.8541 F   0  0  0  0  0  0  0  0  0  0  0  0
    6.4657   13.8287   26.5775 H   0  0  0  0  0  0  0  0  0  0  0  0
    8.2237   14.1789   24.9530 H   0  0  0  0  0  0  0  0  0  0  0  0
    5.5962   11.5566   27.0469 H   0  0  0  0  0  0  0  0  0  0  0  0
    9.4219    9.0674   22.1437 H   0  0  0  0  0  0  0  0  0  0  0  0
    8.2439   10.3723   21.8822 H   0  0  0  0  0  0  0  0  0  0  0  0
   10.9237   10.5368   23.2924 H   0  0  0  0  0  0  0  0  0  0  0  0
   10.4541   11.4026   21.8316 H   0  0  0  0  0  0  0  0  0  0  0  0
   11.7187   15.5906   23.7577 H   0  0  0  0  0  0  0  0  0  0  0  0
   13.1666   15.0101   22.9043 H   0  0  0  0  0  0  0  0  0  0  0  0
   12.4101   16.5572   22.4665 H   0  0  0  0  0  0  0  0  0  0  0  0
   11.3614   14.2168   19.6786 H   0  0  0  0  0  0  0  0  0  0  0  0
   12.9237   14.1394   20.4738 H   0  0  0  0  0  0  0  0  0  0  0  0
   12.2492   15.7192   20.0165 H   0  0  0  0  0  0  0  0  0  0  0  0
    9.3202   15.0091   20.9180 H   0  0  0  0  0  0  0  0  0  0  0  0
    9.4384   15.5588   22.6036 H   0  0  0  0  0  0  0  0  0  0  0  0
   10.0921   16.5443   21.2754 H   0  0  0  0  0  0  0  0  0  0  0  0
  1  2  1  0  0  0  0
  1  3  2  0  0  0  0
  2  5  2  0  0  0  0
  3  6  1  0  0  0  0
  4  5  1  0  0  0  0
  4  6  2  0  0  0  0
  4  7  1  0  0  0  0
  5 15  1  0  0  0  0
  6 19  1  0  0  0  0
  7  9  1  0  0  0  0
  7 16  2  0  0  0  0
  8 15  1  0  0  0  0
  8 17  2  0  0  0  0
  8 18  1  0  0  0  0
  9 10  1  0  0  0  0
 10 15  1  0  0  0  0
 11 14  1  0  0  0  0
 12 14  1  0  0  0  0
 13 14  1  0  0  0  0
 14 18  1  0  0  0  0
  1 20  1  0  0  0  0
  2 21  1  0  0  0  0
  3 22  1  0  0  0  0
  9 23  1  0  0  0  0
  9 24  1  0  0  0  0
 10 25  1  0  0  0  0
 10 26  1  0  0  0  0
 11 27  1  0  0  0  0
 11 28  1  0  0  0  0
 11 29  1  0  0  0  0
 12 30  1  0  0  0  0
 12 31  1  0  0  0  0
 12 32  1  0  0  0  0
 13 33  1  0  0  0  0
 13 34  1  0  0  0  0
 13 35  1  0  0  0  0
M  END
> <id>
EN300-12709287

> <smiles>
CC(C)(C)OC(=O)N1CCC(=O)C=2C(F)=CC=CC12

> <MDLNUMBER>
MFCD24539212

> <IUPAC Name>
tert-butyl 5-fluoro-4-oxo-1,2,3,4-tetrahydroquinoline-1-carboxylate

> <CAS>
1823227-21-9

> <URL>
https://www.enaminestore.com/catalog/EN300-12709287

> <ROCS_ShapeQuery>
A71EV2A-x0451_0A_A71EV2A-x0310_0A_A71EV2A-x0416_0A_peptide

> <ROCS_TanimotoCombo>
0.486 

> <ROCS_ShapeTanimoto>
0.352 

> <ROCS_ColorTanimoto>
0.133 

> <ROCS_RefTversky>
0.305 

> <ROCS_RefColorTversky>
0.142 

> <ROCS_RefTverskyCombo>
0.447 

> <ROCS_FitTversky>
1.791 

> <ROCS_FitColorTversky>
0.682 

> <ROCS_FitTverskyCombo>
2.472 

> <ROCS_ColorScore>
-4.321

> <ROCS_Overlap>
2115.401

> <ROCS_Rank>
265                 

$$$$
untitled-dbase-23631_7
  -OEChem-11132313473D

 32 33  0     1  0  0  0  0  0999 V2000
   10.3834   13.1791   23.4530 C   0  0  0  0  0  0  0  0  0  0  0  0
    6.7023   12.4328   25.9424 C   0  0  0  0  0  0  0  0  0  0  0  0
    7.9303   13.0482   25.2479 C   0  0  0  0  0  0  0  0  0  0  0  0
    6.6881   10.9514   25.5504 C   0  0  0  0  0  0  0  0  0  0  0  0
    9.8878   10.7723   22.7901 C   0  0  0  0  0  0  0  0  0  0  0  0
    8.3055   12.0159   24.1877 C   0  0  2  0  0  0  0  0  0  0  0  0
    8.0687   10.7232   24.9562 C   0  0  2  0  0  0  0  0  0  0  0  0
    9.4357    9.4658   23.4895 C   0  0  0  0  0  0  0  0  0  0  0  0
    9.2873    8.3556   22.4400 C   0  0  0  0  0  0  0  0  0  0  0  0
   10.4729    9.0116   24.5299 C   0  0  0  0  0  0  0  0  0  0  0  0
    9.6317   11.9983   23.5752 N   0  0  0  0  0  0  0  0  0  0  0  0
   10.9322   13.4311   22.2118 N   0  0  0  0  0  0  0  0  0  0  0  0
   10.5733   13.9831   24.3698 O   0  0  0  0  0  0  0  0  0  0  0  0
    8.1353    9.6075   24.0913 O   0  0  0  0  0  0  0  0  0  0  0  0
    6.7784   12.5566   27.0273 H   0  0  0  0  0  0  0  0  0  0  0  0
    5.7784   12.9211   25.6167 H   0  0  0  0  0  0  0  0  0  0  0  0
    7.6962   14.0284   24.8244 H   0  0  0  0  0  0  0  0  0  0  0  0
    8.7395   13.1736   25.9768 H   0  0  0  0  0  0  0  0  0  0  0  0
    6.4947   10.2963   26.4054 H   0  0  0  0  0  0  0  0  0  0  0  0
    5.9056   10.7511   24.8089 H   0  0  0  0  0  0  0  0  0  0  0  0
   10.9783   10.7621   22.6130 H   0  0  0  0  0  0  0  0  0  0  0  0
    9.4150   10.8386   21.7969 H   0  0  0  0  0  0  0  0  0  0  0  0
    7.5832   12.0789   23.3393 H   0  0  0  0  0  0  0  0  0  0  0  0
    8.7831   10.5881   25.7778 H   0  0  0  0  0  0  0  0  0  0  0  0
    8.9703    7.4374   22.9264 H   0  0  0  0  0  0  0  0  0  0  0  0
   10.2418    8.1934   21.9471 H   0  0  0  0  0  0  0  0  0  0  0  0
    8.5448    8.6504   21.7036 H   0  0  0  0  0  0  0  0  0  0  0  0
   10.1336    8.0951   25.0058 H   0  0  0  0  0  0  0  0  0  0  0  0
   10.5952    9.7854   25.2834 H   0  0  0  0  0  0  0  0  0  0  0  0
   11.4260    8.8319   24.0390 H   0  0  0  0  0  0  0  0  0  0  0  0
   11.4806   14.2767   22.0924 H   0  0  0  0  0  0  0  0  0  0  0  0
   10.8174   12.8182   21.4136 H   0  0  0  0  0  0  0  0  0  0  0  0
  1 11  1  0  0  0  0
  1 12  1  0  0  0  0
  1 13  2  0  0  0  0
  2  3  1  0  0  0  0
  2  4  1  0  0  0  0
  3  6  1  6  0  0  0
  4  7  1  1  0  0  0
  5  8  1  0  0  0  0
  5 11  1  0  0  0  0
  6  7  1  0  0  0  0
  6 11  1  0  0  0  0
  7 14  1  0  0  0  0
  8  9  1  0  0  0  0
  8 10  1  0  0  0  0
  8 14  1  0  0  0  0
  2 15  1  0  0  0  0
  2 16  1  0  0  0  0
  3 17  1  0  0  0  0
  3 18  1  0  0  0  0
  4 19  1  0  0  0  0
  4 20  1  0  0  0  0
  5 21  1  0  0  0  0
  5 22  1  0  0  0  0
  6 23  1  0  0  0  0
  7 24  1  0  0  0  0
  9 25  1  0  0  0  0
  9 26  1  0  0  0  0
  9 27  1  0  0  0  0
 10 28  1  0  0  0  0
 10 29  1  0  0  0  0
 10 30  1  0  0  0  0
 12 31  1  0  0  0  0
 12 32  1  0  0  0  0
M  END
> <id>
EN300-7538717

> <smiles>
CC1(C)CN([C@@H]2CCC[C@H]2O1)C(=O)N |&1:5,9,r|

> <MDLNUMBER>
MFCD32268850

> <IUPAC Name>
rac-(4aR,7aR)-2,2-dimethyl-octahydrocyclopenta[b]morpholine-4-carboxamide

> <CAS>
2408935-79-3

> <URL>
https://www.enaminestore.com/catalog/EN300-7538717

> <ROCS_ShapeQuery>
A71EV2A-x0451_0A_A71EV2A-x0310_0A_A71EV2A-x0416_0A_peptide

> <ROCS_TanimotoCombo>
0.486 

> <ROCS_ShapeTanimoto>
0.290 

> <ROCS_ColorTanimoto>
0.195 

> <ROCS_RefTversky>
0.256 

> <ROCS_RefColorTversky>
0.203 

> <ROCS_RefTverskyCombo>
0.458 

> <ROCS_FitTversky>
1.869 

> <ROCS_FitColorTversky>
0.844 

> <ROCS_FitTverskyCombo>
2.713 

> <ROCS_ColorScore>
-6.161

> <ROCS_Overlap>
1772.692

> <ROCS_Rank>
266                 

$$$$
untitled-dbase-51957_19
  -OEChem-11132313473D

 38 39  0     0  0  0  0  0  0999 V2000
   10.6706   13.0009   23.6854 C   0  0  0  0  0  0  0  0  0  0  0  0
    7.2291   10.4614   23.4119 C   0  0  0  0  0  0  0  0  0  0  0  0
    7.9104   10.4140   25.4247 C   0  0  0  0  0  0  0  0  0  0  0  0
    8.2428   12.6767   24.2245 C   0  0  0  0  0  0  0  0  0  0  0  0
    9.7801   10.7036   23.6557 C   0  0  0  0  0  0  0  0  0  0  0  0
    7.2679   11.5399   24.5444 C   0  0  0  0  0  0  0  0  0  0  0  0
    8.5357    9.9664   24.0790 C   0  0  0  0  0  0  0  0  0  0  0  0
    5.9126   12.0440   25.0069 C   0  0  0  0  0  0  0  0  0  0  0  0
   13.1034   14.3390   22.9993 C   0  0  0  0  0  0  0  0  0  0  0  0
   13.2752   12.6744   21.1261 C   0  0  0  0  0  0  0  0  0  0  0  0
   11.3394   14.2727   21.2053 C   0  0  0  0  0  0  0  0  0  0  0  0
   12.3222   13.4477   22.0350 C   0  0  0  0  0  0  0  0  0  0  0  0
    9.5791   12.1431   23.8861 N   0  0  0  0  0  0  0  0  0  0  0  0
    8.6178    8.5154   24.0087 N   0  0  0  0  0  0  0  0  0  0  0  0
   10.8042   14.0896   24.2413 O   0  0  0  0  0  0  0  0  0  0  0  0
   11.5816   12.4892   22.7988 O   0  0  0  0  0  0  0  0  0  0  0  0
    6.3701    9.7796   23.4648 H   0  0  0  0  0  0  0  0  0  0  0  0
    7.3119   10.8313   22.3852 H   0  0  0  0  0  0  0  0  0  0  0  0
    8.6052   10.7421   26.2038 H   0  0  0  0  0  0  0  0  0  0  0  0
    7.1868    9.7222   25.8752 H   0  0  0  0  0  0  0  0  0  0  0  0
    7.8941   13.2701   23.3713 H   0  0  0  0  0  0  0  0  0  0  0  0
    8.3545   13.3497   25.0826 H   0  0  0  0  0  0  0  0  0  0  0  0
   10.6603   10.3879   24.2278 H   0  0  0  0  0  0  0  0  0  0  0  0
   10.0005   10.5607   22.5914 H   0  0  0  0  0  0  0  0  0  0  0  0
    6.0352   12.7899   25.7948 H   0  0  0  0  0  0  0  0  0  0  0  0
    5.3152   11.2179   25.3978 H   0  0  0  0  0  0  0  0  0  0  0  0
    5.3746   12.5009   24.1737 H   0  0  0  0  0  0  0  0  0  0  0  0
   12.4229   14.8958   23.6534 H   0  0  0  0  0  0  0  0  0  0  0  0
   13.7867   13.7552   23.6246 H   0  0  0  0  0  0  0  0  0  0  0  0
   13.6885   15.0876   22.4530 H   0  0  0  0  0  0  0  0  0  0  0  0
   12.7189   12.0336   20.4325 H   0  0  0  0  0  0  0  0  0  0  0  0
   13.9194   12.0089   21.7121 H   0  0  0  0  0  0  0  0  0  0  0  0
   13.9115   13.3472   20.5421 H   0  0  0  0  0  0  0  0  0  0  0  0
   10.7789   13.6336   20.5135 H   0  0  0  0  0  0  0  0  0  0  0  0
   10.6240   14.8057   21.8400 H   0  0  0  0  0  0  0  0  0  0  0  0
   11.8705   15.0059   20.5875 H   0  0  0  0  0  0  0  0  0  0  0  0
    7.8340    8.1311   24.4846 H   0  0  0  0  0  0  0  0  0  0  0  0
    8.6094    8.2450   23.0520 H   0  0  0  0  0  0  0  0  0  0  0  0
  1 13  1  0  0  0  0
  1 15  2  0  0  0  0
  1 16  1  0  0  0  0
  2  6  1  0  0  0  0
  2  7  1  0  0  0  0
  3  6  1  0  0  0  0
  3  7  1  0  0  0  0
  4  6  1  0  0  0  0
  4 13  1  0  0  0  0
  5  7  1  0  0  0  0
  5 13  1  0  0  0  0
  6  8  1  0  0  0  0
  7 14  1  0  0  0  0
  9 12  1  0  0  0  0
 10 12  1  0  0  0  0
 11 12  1  0  0  0  0
 12 16  1  0  0  0  0
  2 17  1  0  0  0  0
  2 18  1  0  0  0  0
  3 19  1  0  0  0  0
  3 20  1  0  0  0  0
  4 21  1  0  0  0  0
  4 22  1  0  0  0  0
  5 23  1  0  0  0  0
  5 24  1  0  0  0  0
  8 25  1  0  0  0  0
  8 26  1  0  0  0  0
  8 27  1  0  0  0  0
  9 28  1  0  0  0  0
  9 29  1  0  0  0  0
  9 30  1  0  0  0  0
 10 31  1  0  0  0  0
 10 32  1  0  0  0  0
 10 33  1  0  0  0  0
 11 34  1  0  0  0  0
 11 35  1  0  0  0  0
 11 36  1  0  0  0  0
 14 37  1  0  0  0  0
 14 38  1  0  0  0  0
M  END
> <id>
EN300-37337669

> <smiles>
CC(C)(C)OC(=O)N1CC2(C)CC(N)(C2)C1

> <IUPAC Name>
tert-butyl 1-amino-5-methyl-3-azabicyclo[3.1.1]heptane-3-carboxylate

> <Purity>
95

> <URL>
https://www.enaminestore.com/catalog/EN300-37337669

> <ROCS_ShapeQuery>
A71EV2A-x0451_0A_A71EV2A-x0310_0A_A71EV2A-x0416_0A_peptide

> <ROCS_TanimotoCombo>
0.486 

> <ROCS_ShapeTanimoto>
0.286 

> <ROCS_ColorTanimoto>
0.199 

> <ROCS_RefTversky>
0.256 

> <ROCS_RefColorTversky>
0.227 

> <ROCS_RefTverskyCombo>
0.483 

> <ROCS_FitTversky>
1.717 

> <ROCS_FitColorTversky>
0.620 

> <ROCS_FitTverskyCombo>
2.338 

> <ROCS_ColorScore>
-6.948

> <ROCS_Overlap>
1773.021

> <ROCS_Rank>
267                 

$$$$
untitled-dbase-34911_31
  -OEChem-11132313473D

 35 36  0     1  0  0  0  0  0999 V2000
    6.6128   10.4533   25.5496 C   0  0  0  0  0  0  0  0  0  0  0  0
    5.8654   11.5752   25.9033 C   0  0  0  0  0  0  0  0  0  0  0  0
    7.5719   13.0448   24.9771 C   0  0  0  0  0  0  0  0  0  0  0  0
    7.8272   10.6407   24.9017 C   0  0  0  0  0  0  0  0  0  0  0  0
    8.3118   11.9255   24.6236 C   0  0  0  0  0  0  0  0  0  0  0  0
    6.3418   12.8609   25.6180 C   0  0  0  0  0  0  0  0  0  0  0  0
   10.4344   12.8287   23.5592 C   0  0  0  0  0  0  0  0  0  0  0  0
    9.8346   10.4098   23.6965 C   0  0  0  0  0  0  0  0  0  0  0  0
    8.8130    9.5834   24.4930 C   0  0  2  0  0  0  0  0  0  0  0  0
   12.3596   14.5897   22.3820 C   0  0  0  0  0  0  0  0  0  0  0  0
   12.2201   13.0915   20.3707 C   0  0  0  0  0  0  0  0  0  0  0  0
   10.1849   14.3472   21.1384 C   0  0  0  0  0  0  0  0  0  0  0  0
   11.4676   13.6436   21.5794 C   0  0  0  0  0  0  0  0  0  0  0  0
    9.5597   11.8300   23.9727 N   0  0  0  0  0  0  0  0  0  0  0  0
    8.2452    8.5183   23.6812 N   0  0  0  0  0  0  0  0  0  0  0  0
   10.5738   13.8914   24.1650 O   0  0  0  0  0  0  0  0  0  0  0  0
   11.1152   12.5330   22.4126 O   0  0  0  0  0  0  0  0  0  0  0  0
    5.4016   14.2347   26.0659 Cl  0  0  0  0  0  0  0  0  0  0  0  0
    6.2510    9.4578   25.7857 H   0  0  0  0  0  0  0  0  0  0  0  0
    4.9130   11.4374   26.4086 H   0  0  0  0  0  0  0  0  0  0  0  0
    7.9207   14.0503   24.7640 H   0  0  0  0  0  0  0  0  0  0  0  0
   10.8661   10.1651   23.9783 H   0  0  0  0  0  0  0  0  0  0  0  0
    9.7486   10.2676   22.6103 H   0  0  0  0  0  0  0  0  0  0  0  0
    9.2873    9.1708   25.3913 H   0  0  0  0  0  0  0  0  0  0  0  0
   11.8231   14.9882   23.2505 H   0  0  0  0  0  0  0  0  0  0  0  0
   13.2666   14.0875   22.7339 H   0  0  0  0  0  0  0  0  0  0  0  0
   12.6554   15.4549   21.7777 H   0  0  0  0  0  0  0  0  0  0  0  0
   11.5839   12.4122   19.7920 H   0  0  0  0  0  0  0  0  0  0  0  0
   13.0902   12.5049   20.6872 H   0  0  0  0  0  0  0  0  0  0  0  0
   12.5643   13.8926   19.7086 H   0  0  0  0  0  0  0  0  0  0  0  0
    9.5449   13.6688   20.5627 H   0  0  0  0  0  0  0  0  0  0  0  0
    9.6131   14.7178   21.9953 H   0  0  0  0  0  0  0  0  0  0  0  0
   10.4113   15.1928   20.4788 H   0  0  0  0  0  0  0  0  0  0  0  0
    7.2670    8.6738   23.5946 H   0  0  0  0  0  0  0  0  0  0  0  0
    8.6797    8.5372   22.7870 H   0  0  0  0  0  0  0  0  0  0  0  0
  1  2  1  0  0  0  0
  1  4  2  0  0  0  0
  2  6  2  0  0  0  0
  3  5  2  0  0  0  0
  3  6  1  0  0  0  0
  4  5  1  0  0  0  0
  4  9  1  0  0  0  0
  5 14  1  0  0  0  0
  6 18  1  0  0  0  0
  7 14  1  0  0  0  0
  7 16  2  0  0  0  0
  7 17  1  0  0  0  0
  8  9  1  0  0  0  0
  8 14  1  0  0  0  0
  9 15  1  0  0  0  0
 10 13  1  0  0  0  0
 11 13  1  0  0  0  0
 12 13  1  0  0  0  0
 13 17  1  0  0  0  0
  1 19  1  0  0  0  0
  2 20  1  0  0  0  0
  3 21  1  0  0  0  0
  8 22  1  0  0  0  0
  8 23  1  0  0  0  0
  9 24  1  0  0  0  0
 10 25  1  0  0  0  0
 10 26  1  0  0  0  0
 10 27  1  0  0  0  0
 11 28  1  0  0  0  0
 11 29  1  0  0  0  0
 11 30  1  0  0  0  0
 12 31  1  0  0  0  0
 12 32  1  0  0  0  0
 12 33  1  0  0  0  0
 15 34  1  0  0  0  0
 15 35  1  0  0  0  0
M  END
> <id>
EN300-6839239

> <smiles>
CC(C)(C)OC(=O)N1CC(N)C=2C=CC(Cl)=CC12

> <MDLNUMBER>
MFCD26749216

> <IUPAC Name>
tert-butyl 3-amino-6-chloro-2,3-dihydro-1H-indole-1-carboxylate

> <CAS>
1525035-31-7

> <Purity>
95

> <URL>
https://www.enaminestore.com/catalog/EN300-6839239

> <ROCS_ShapeQuery>
A71EV2A-x0451_0A_A71EV2A-x0310_0A_A71EV2A-x0416_0A_peptide

> <ROCS_TanimotoCombo>
0.486 

> <ROCS_ShapeTanimoto>
0.326 

> <ROCS_ColorTanimoto>
0.159 

> <ROCS_RefTversky>
0.286 

> <ROCS_RefColorTversky>
0.171 

> <ROCS_RefTverskyCombo>
0.456 

> <ROCS_FitTversky>
1.766 

> <ROCS_FitColorTversky>
0.711 

> <ROCS_FitTverskyCombo>
2.476 

> <ROCS_ColorScore>
-5.189

> <ROCS_Overlap>
1981.268

> <ROCS_Rank>
268                 

$$$$
untitled-dbase-20445_3
  -OEChem-11132313473D

 32 34  0     1  0  0  0  0  0999 V2000
   10.4048   13.1359   23.6668 C   0  0  0  0  0  0  0  0  0  0  0  0
    8.6424    9.3609   24.1085 C   0  0  0  0  0  0  0  0  0  0  0  0
    8.8306   10.0933   22.7682 C   0  0  0  0  0  0  0  0  0  0  0  0
    6.4921   12.1520   25.7937 C   0  0  0  0  0  0  0  0  0  0  0  0
    6.7122   13.2267   23.7452 C   0  0  0  0  0  0  0  0  0  0  0  0
    9.4508   11.4103   25.2541 C   0  0  0  0  0  0  0  0  0  0  0  0
    8.3057   10.3824   25.2160 C   0  0  1  0  0  0  0  0  0  0  0  0
    6.9642   11.0610   24.8329 C   0  0  2  0  0  0  0  0  0  0  0  0
    7.1192   11.7795   23.4712 C   0  0  2  0  0  0  0  0  0  0  0  0
    8.5675   11.6002   22.9536 C   0  0  1  0  0  0  0  0  0  0  0  0
   10.8401   13.2374   22.2259 C   0  0  0  0  0  0  0  0  0  0  0  0
    6.9225   13.4065   25.1795 N   0  0  0  0  0  0  0  0  0  0  0  0
    9.5223   12.1016   23.9603 N   0  0  0  0  0  0  0  0  0  0  0  0
   10.8351   13.9388   24.4970 O   0  0  0  0  0  0  0  0  0  0  0  0
   10.2642   12.2702   21.4903 F   0  0  0  0  0  0  0  0  0  0  0  0
   10.4888   14.4277   21.7082 F   0  0  0  0  0  0  0  0  0  0  0  0
   12.1747   13.1092   22.1220 F   0  0  0  0  0  0  0  0  0  0  0  0
    7.8427    8.6161   24.0194 H   0  0  0  0  0  0  0  0  0  0  0  0
    9.5571    8.8117   24.3617 H   0  0  0  0  0  0  0  0  0  0  0  0
    9.8477    9.9294   22.3915 H   0  0  0  0  0  0  0  0  0  0  0  0
    8.1483    9.6764   22.0180 H   0  0  0  0  0  0  0  0  0  0  0  0
    5.3975   12.1376   25.8657 H   0  0  0  0  0  0  0  0  0  0  0  0
    6.8970   12.0371   26.8034 H   0  0  0  0  0  0  0  0  0  0  0  0
    7.2861   13.9507   23.1593 H   0  0  0  0  0  0  0  0  0  0  0  0
    5.6502   13.3671   23.5100 H   0  0  0  0  0  0  0  0  0  0  0  0
    9.3100   12.1480   26.0498 H   0  0  0  0  0  0  0  0  0  0  0  0
   10.4131   10.9161   25.4307 H   0  0  0  0  0  0  0  0  0  0  0  0
    8.2165    9.8760   26.1832 H   0  0  0  0  0  0  0  0  0  0  0  0
    6.1854   10.2905   24.7612 H   0  0  0  0  0  0  0  0  0  0  0  0
    6.4254   11.3460   22.7392 H   0  0  0  0  0  0  0  0  0  0  0  0
    8.6998   12.1259   22.0021 H   0  0  0  0  0  0  0  0  0  0  0  0
    6.3747   14.1895   25.5314 H   0  0  0  0  0  0  0  0  0  0  0  0
  1 11  1  0  0  0  0
  1 13  1  0  0  0  0
  1 14  2  0  0  0  0
  2  3  1  0  0  0  0
  2  7  1  0  0  0  0
  3 10  1  0  0  0  0
  4  8  1  0  0  0  0
  4 12  1  0  0  0  0
  5  9  1  0  0  0  0
  5 12  1  0  0  0  0
  6  7  1  0  0  0  0
  6 13  1  0  0  0  0
  7  8  1  0  0  0  0
  8  9  1  0  0  0  0
  9 10  1  0  0  0  0
 10 13  1  0  0  0  0
 11 15  1  0  0  0  0
 11 16  1  0  0  0  0
 11 17  1  0  0  0  0
  2 18  1  0  0  0  0
  2 19  1  0  0  0  0
  3 20  1  0  0  0  0
  3 21  1  0  0  0  0
  4 22  1  0  0  0  0
  4 23  1  0  0  0  0
  5 24  1  0  0  0  0
  5 25  1  0  0  0  0
  6 26  1  0  0  0  0
  6 27  1  0  0  0  0
  7 28  1  0  0  0  0
  8 29  1  0  0  0  0
  9 30  1  0  0  0  0
 10 31  1  0  0  0  0
 12 32  1  0  0  0  0
M  END
> <id>
EN300-322388

> <smiles>
FC(F)(F)C(=O)N1CC2CCC1C3CNCC32

> <MDLNUMBER>
MFCD30486558

> <IUPAC Name>
1-{4,8-diazatricyclo[5.2.2.0,2,6]undecan-8-yl}-2,2,2-trifluoroethan-1-one

> <CAS>
2044902-16-9

> <URL>
https://www.enaminestore.com/catalog/EN300-322388

> <ROCS_ShapeQuery>
A71EV2A-x0451_0A_A71EV2A-x0310_0A_A71EV2A-x0416_0A_peptide

> <ROCS_TanimotoCombo>
0.486 

> <ROCS_ShapeTanimoto>
0.290 

> <ROCS_ColorTanimoto>
0.196 

> <ROCS_RefTversky>
0.261 

> <ROCS_RefColorTversky>
0.224 

> <ROCS_RefTverskyCombo>
0.484 

> <ROCS_FitTversky>
1.626 

> <ROCS_FitColorTversky>
0.612 

> <ROCS_FitTverskyCombo>
2.238 

> <ROCS_ColorScore>
-6.853

> <ROCS_Overlap>
1806.926

> <ROCS_Rank>
269                 

$$$$
untitled-dbase-34184_3
  -OEChem-11132313473D

 32 34  0     1  0  0  0  0  0999 V2000
   10.4048   13.1359   23.6668 C   0  0  0  0  0  0  0  0  0  0  0  0
    8.6424    9.3609   24.1085 C   0  0  0  0  0  0  0  0  0  0  0  0
    8.8306   10.0933   22.7682 C   0  0  0  0  0  0  0  0  0  0  0  0
    6.4921   12.1520   25.7937 C   0  0  0  0  0  0  0  0  0  0  0  0
    6.7122   13.2267   23.7452 C   0  0  0  0  0  0  0  0  0  0  0  0
    9.4508   11.4103   25.2541 C   0  0  0  0  0  0  0  0  0  0  0  0
    8.3057   10.3824   25.2160 C   0  0  1  0  0  0  0  0  0  0  0  0
    6.9642   11.0610   24.8329 C   0  0  2  0  0  0  0  0  0  0  0  0
    7.1192   11.7795   23.4712 C   0  0  2  0  0  0  0  0  0  0  0  0
    8.5675   11.6002   22.9536 C   0  0  1  0  0  0  0  0  0  0  0  0
   10.8401   13.2374   22.2259 C   0  0  0  0  0  0  0  0  0  0  0  0
    6.9225   13.4065   25.1795 N   0  0  0  0  0  0  0  0  0  0  0  0
    9.5223   12.1016   23.9603 N   0  0  0  0  0  0  0  0  0  0  0  0
   10.8351   13.9388   24.4970 O   0  0  0  0  0  0  0  0  0  0  0  0
   10.2642   12.2702   21.4903 F   0  0  0  0  0  0  0  0  0  0  0  0
   10.4888   14.4277   21.7082 F   0  0  0  0  0  0  0  0  0  0  0  0
   12.1747   13.1092   22.1220 F   0  0  0  0  0  0  0  0  0  0  0  0
    7.8427    8.6161   24.0194 H   0  0  0  0  0  0  0  0  0  0  0  0
    9.5571    8.8117   24.3617 H   0  0  0  0  0  0  0  0  0  0  0  0
    9.8477    9.9294   22.3915 H   0  0  0  0  0  0  0  0  0  0  0  0
    8.1483    9.6764   22.0180 H   0  0  0  0  0  0  0  0  0  0  0  0
    5.3975   12.1376   25.8657 H   0  0  0  0  0  0  0  0  0  0  0  0
    6.8970   12.0371   26.8034 H   0  0  0  0  0  0  0  0  0  0  0  0
    7.2861   13.9507   23.1593 H   0  0  0  0  0  0  0  0  0  0  0  0
    5.6502   13.3671   23.5100 H   0  0  0  0  0  0  0  0  0  0  0  0
    9.3100   12.1480   26.0498 H   0  0  0  0  0  0  0  0  0  0  0  0
   10.4131   10.9161   25.4307 H   0  0  0  0  0  0  0  0  0  0  0  0
    8.2165    9.8760   26.1832 H   0  0  0  0  0  0  0  0  0  0  0  0
    6.1854   10.2905   24.7612 H   0  0  0  0  0  0  0  0  0  0  0  0
    6.4254   11.3460   22.7392 H   0  0  0  0  0  0  0  0  0  0  0  0
    8.6998   12.1259   22.0021 H   0  0  0  0  0  0  0  0  0  0  0  0
    6.3747   14.1895   25.5314 H   0  0  0  0  0  0  0  0  0  0  0  0
  1 11  1  0  0  0  0
  1 13  1  0  0  0  0
  1 14  2  0  0  0  0
  2  3  1  0  0  0  0
  2  7  1  0  0  0  0
  3 10  1  0  0  0  0
  4  8  1  0  0  0  0
  4 12  1  0  0  0  0
  5  9  1  0  0  0  0
  5 12  1  0  0  0  0
  6  7  1  0  0  0  0
  6 13  1  0  0  0  0
  7  8  1  0  0  0  0
  8  9  1  0  0  0  0
  9 10  1  0  0  0  0
 10 13  1  0  0  0  0
 11 15  1  0  0  0  0
 11 16  1  0  0  0  0
 11 17  1  0  0  0  0
  2 18  1  0  0  0  0
  2 19  1  0  0  0  0
  3 20  1  0  0  0  0
  3 21  1  0  0  0  0
  4 22  1  0  0  0  0
  4 23  1  0  0  0  0
  5 24  1  0  0  0  0
  5 25  1  0  0  0  0
  6 26  1  0  0  0  0
  6 27  1  0  0  0  0
  7 28  1  0  0  0  0
  8 29  1  0  0  0  0
  9 30  1  0  0  0  0
 10 31  1  0  0  0  0
 12 32  1  0  0  0  0
M  END
> <id>
EN300-322596

> <smiles>
Cl.FC(F)(F)C(=O)N1CC2CCC1C3CNCC32

> <MDLNUMBER>
MFCD30486561

> <IUPAC Name>
1-{4,8-diazatricyclo[5.2.2.0,2,6]undecan-8-yl}-2,2,2-trifluoroethan-1-one hydrochloride

> <CAS>
2044902-17-0

> <Purity>
95

> <URL>
https://www.enaminestore.com/catalog/EN300-322596

> <Saltdate>
Cl

> <ROCS_ShapeQuery>
A71EV2A-x0451_0A_A71EV2A-x0310_0A_A71EV2A-x0416_0A_peptide

> <ROCS_TanimotoCombo>
0.486 

> <ROCS_ShapeTanimoto>
0.290 

> <ROCS_ColorTanimoto>
0.196 

> <ROCS_RefTversky>
0.261 

> <ROCS_RefColorTversky>
0.224 

> <ROCS_RefTverskyCombo>
0.484 

> <ROCS_FitTversky>
1.626 

> <ROCS_FitColorTversky>
0.612 

> <ROCS_FitTverskyCombo>
2.238 

> <ROCS_ColorScore>
-6.853

> <ROCS_Overlap>
1806.926

> <ROCS_Rank>
270                 

$$$$
untitled-dbase-45172_54
  -OEChem-11132313473D

 39 41  0     0  0  0  0  0  0999 V2000
    9.9142   13.1573   24.2109 C   0  0  0  0  0  0  0  0  0  0  0  0
    6.2571   13.9321   26.6608 C   0  0  0  0  0  0  0  0  0  0  0  0
   10.0392   10.5712   24.3578 C   0  0  0  0  0  0  0  0  0  0  0  0
    9.0383   11.2750   22.6570 C   0  0  0  0  0  0  0  0  0  0  0  0
    7.8211   11.9190   26.2598 C   0  0  0  0  0  0  0  0  0  0  0  0
    6.7901   12.6439   24.5087 C   0  0  0  0  0  0  0  0  0  0  0  0
    9.2421   11.9011   24.0867 C   0  0  0  0  0  0  0  0  0  0  0  0
    7.8681   11.5863   24.7652 C   0  0  0  0  0  0  0  0  0  0  0  0
    8.7868   10.0037   23.5694 C   0  0  0  0  0  0  0  0  0  0  0  0
    8.8374    8.6278   22.9701 C   0  0  0  0  0  0  0  0  0  0  0  0
    5.5272   12.9262   28.9633 C   0  0  0  0  0  0  0  0  0  0  0  0
    7.6128   13.8786   29.9892 C   0  0  0  0  0  0  0  0  0  0  0  0
    5.7013   15.3984   29.4022 C   0  0  0  0  0  0  0  0  0  0  0  0
    6.4641   14.1321   29.0154 C   0  0  0  0  0  0  0  0  0  0  0  0
   10.4595   14.1764   24.3116 N   0  0  0  0  0  0  0  0  0  0  0  0
    6.8752   12.9635   25.9196 N   0  0  0  0  0  0  0  0  0  0  0  0
    5.1464   14.3908   26.4087 O   0  0  0  0  0  0  0  0  0  0  0  0
    7.5774   10.2178   24.3697 O   0  0  0  0  0  0  0  0  0  0  0  0
    7.0343   14.3225   27.7159 O   0  0  0  0  0  0  0  0  0  0  0  0
   11.0159   10.4670   23.8709 H   0  0  0  0  0  0  0  0  0  0  0  0
   10.1245   10.2553   25.4019 H   0  0  0  0  0  0  0  0  0  0  0  0
    8.1735   11.6273   22.0866 H   0  0  0  0  0  0  0  0  0  0  0  0
    9.9134   11.2423   21.9975 H   0  0  0  0  0  0  0  0  0  0  0  0
    7.3849   11.1438   26.8964 H   0  0  0  0  0  0  0  0  0  0  0  0
    8.7412   12.2957   26.7142 H   0  0  0  0  0  0  0  0  0  0  0  0
    7.0581   13.4797   23.8572 H   0  0  0  0  0  0  0  0  0  0  0  0
    5.8104   12.2508   24.2219 H   0  0  0  0  0  0  0  0  0  0  0  0
    7.8963    8.3844   22.4602 H   0  0  0  0  0  0  0  0  0  0  0  0
    9.0074    7.8668   23.7427 H   0  0  0  0  0  0  0  0  0  0  0  0
    9.6485    8.5471   22.2348 H   0  0  0  0  0  0  0  0  0  0  0  0
    4.7012   13.1042   28.2654 H   0  0  0  0  0  0  0  0  0  0  0  0
    6.0549   12.0184   28.6532 H   0  0  0  0  0  0  0  0  0  0  0  0
    5.0703   12.7434   29.9427 H   0  0  0  0  0  0  0  0  0  0  0  0
    8.2875   14.7413   30.0297 H   0  0  0  0  0  0  0  0  0  0  0  0
    8.2202   13.0267   29.6629 H   0  0  0  0  0  0  0  0  0  0  0  0
    7.2473   13.6764   31.0012 H   0  0  0  0  0  0  0  0  0  0  0  0
    6.3731   16.2635   29.4396 H   0  0  0  0  0  0  0  0  0  0  0  0
    4.8960   15.6166   28.6932 H   0  0  0  0  0  0  0  0  0  0  0  0
    5.2667   15.3009   30.4036 H   0  0  0  0  0  0  0  0  0  0  0  0
  1  7  1  0  0  0  0
  1 15  3  0  0  0  0
  2 16  1  0  0  0  0
  2 17  2  0  0  0  0
  2 19  1  0  0  0  0
  3  7  1  0  0  0  0
  3  9  1  0  0  0  0
  4  7  1  0  0  0  0
  4  9  1  0  0  0  0
  5  8  1  0  0  0  0
  5 16  1  0  0  0  0
  6  8  1  0  0  0  0
  6 16  1  0  0  0  0
  7  8  1  0  0  0  0
  8 18  1  0  0  0  0
  9 10  1  0  0  0  0
  9 18  1  0  0  0  0
 11 14  1  0  0  0  0
 12 14  1  0  0  0  0
 13 14  1  0  0  0  0
 14 19  1  0  0  0  0
  3 20  1  0  0  0  0
  3 21  1  0  0  0  0
  4 22  1  0  0  0  0
  4 23  1  0  0  0  0
  5 24  1  0  0  0  0
  5 25  1  0  0  0  0
  6 26  1  0  0  0  0
  6 27  1  0  0  0  0
 10 28  1  0  0  0  0
 10 29  1  0  0  0  0
 10 30  1  0  0  0  0
 11 31  1  0  0  0  0
 11 32  1  0  0  0  0
 11 33  1  0  0  0  0
 12 34  1  0  0  0  0
 12 35  1  0  0  0  0
 12 36  1  0  0  0  0
 13 37  1  0  0  0  0
 13 38  1  0  0  0  0
 13 39  1  0  0  0  0
M  END
> <id>
EN300-28281781

> <smiles>
CC(C)(C)OC(=O)N1CC2(C1)OC3(C)CC2(C3)C#N

> <IUPAC Name>
tert-butyl 1'-cyano-4'-methyl-3'-oxaspiro[azetidine-3,2'-bicyclo[2.1.1]hexane]-1-carboxylate

> <CAS>
2680857-46-7

> <URL>
https://www.enaminestore.com/catalog/EN300-28281781

> <ROCS_ShapeQuery>
A71EV2A-x0451_0A_A71EV2A-x0310_0A_A71EV2A-x0416_0A_peptide

> <ROCS_TanimotoCombo>
0.485 

> <ROCS_ShapeTanimoto>
0.251 

> <ROCS_ColorTanimoto>
0.235 

> <ROCS_RefTversky>
0.234 

> <ROCS_RefColorTversky>
0.269 

> <ROCS_RefTverskyCombo>
0.504 

> <ROCS_FitTversky>
1.378 

> <ROCS_FitColorTversky>
0.647 

> <ROCS_FitTverskyCombo>
2.026 

> <ROCS_ColorScore>
-8.274

> <ROCS_Overlap>
1626.659

> <ROCS_Rank>
271                 

$$$$
untitled-dbase-11725_3
  -OEChem-11132313473D

 35 36  0     0  0  0  0  0  0999 V2000
    8.6171    8.5734   23.0945 C   0  0  0  0  0  0  0  0  0  0  0  0
    8.4941    7.4316   22.7438 C   0  0  0  0  0  0  0  0  0  0  0  0
    6.8079   12.5352   26.1392 C   0  0  0  0  0  0  0  0  0  0  0  0
    7.9202   12.9009   25.3741 C   0  0  0  0  0  0  0  0  0  0  0  0
    6.2790   11.2530   26.0644 C   0  0  0  0  0  0  0  0  0  0  0  0
    9.7377   10.7780   23.0473 C   0  0  0  0  0  0  0  0  0  0  0  0
    8.7636    9.9286   23.5089 C   0  0  0  0  0  0  0  0  0  0  0  0
    7.9744   10.6462   24.4379 C   0  0  0  0  0  0  0  0  0  0  0  0
    8.5000   11.9429   24.5204 C   0  0  0  0  0  0  0  0  0  0  0  0
    6.8520   10.3005   25.2193 C   0  0  0  0  0  0  0  0  0  0  0  0
   10.4107   13.1362   23.4270 C   0  0  0  0  0  0  0  0  0  0  0  0
   12.9485   14.2117   22.7524 C   0  0  0  0  0  0  0  0  0  0  0  0
   12.1921   14.0070   20.3659 C   0  0  0  0  0  0  0  0  0  0  0  0
   10.9451   15.5062   21.9489 C   0  0  0  0  0  0  0  0  0  0  0  0
   11.7444   14.2111   21.8116 C   0  0  0  0  0  0  0  0  0  0  0  0
    9.5949   12.0146   23.6524 N   0  0  0  0  0  0  0  0  0  0  0  0
    8.3475    6.0647   22.3238 N   0  0  0  0  0  0  0  0  0  0  0  0
   10.6075   13.9689   24.2965 O   0  0  0  0  0  0  0  0  0  0  0  0
   10.8956   13.1129   22.1591 O   0  0  0  0  0  0  0  0  0  0  0  0
    6.3273    9.0684   25.1633 F   0  0  0  0  0  0  0  0  0  0  0  0
    6.3520   13.2666   26.8015 H   0  0  0  0  0  0  0  0  0  0  0  0
    8.3093   13.9099   25.4535 H   0  0  0  0  0  0  0  0  0  0  0  0
    5.4150   10.9871   26.6667 H   0  0  0  0  0  0  0  0  0  0  0  0
   10.5274   10.5972   22.3290 H   0  0  0  0  0  0  0  0  0  0  0  0
   12.6313   14.3579   23.7911 H   0  0  0  0  0  0  0  0  0  0  0  0
   13.5103   13.2741   22.6891 H   0  0  0  0  0  0  0  0  0  0  0  0
   13.6280   15.0389   22.5173 H   0  0  0  0  0  0  0  0  0  0  0  0
   11.3314   14.0060   19.6874 H   0  0  0  0  0  0  0  0  0  0  0  0
   12.6833   13.0350   20.2429 H   0  0  0  0  0  0  0  0  0  0  0  0
   12.8866   14.7897   20.0437 H   0  0  0  0  0  0  0  0  0  0  0  0
   10.0814   15.5060   21.2742 H   0  0  0  0  0  0  0  0  0  0  0  0
   10.5841   15.6507   22.9723 H   0  0  0  0  0  0  0  0  0  0  0  0
   11.5557   16.3724   21.6694 H   0  0  0  0  0  0  0  0  0  0  0  0
    7.4246    5.6647   22.2315 H   0  0  0  0  0  0  0  0  0  0  0  0
    9.1681    5.5107   22.1241 H   0  0  0  0  0  0  0  0  0  0  0  0
  1  2  3  0  0  0  0
  1  7  1  0  0  0  0
  2 17  1  0  0  0  0
  3  4  1  0  0  0  0
  3  5  2  0  0  0  0
  4  9  2  0  0  0  0
  5 10  1  0  0  0  0
  6  7  2  0  0  0  0
  6 16  1  0  0  0  0
  7  8  1  0  0  0  0
  8  9  1  0  0  0  0
  8 10  2  0  0  0  0
  9 16  1  0  0  0  0
 10 20  1  0  0  0  0
 11 16  1  0  0  0  0
 11 18  2  0  0  0  0
 11 19  1  0  0  0  0
 12 15  1  0  0  0  0
 13 15  1  0  0  0  0
 14 15  1  0  0  0  0
 15 19  1  0  0  0  0
  3 21  1  0  0  0  0
  4 22  1  0  0  0  0
  5 23  1  0  0  0  0
  6 24  1  0  0  0  0
 12 25  1  0  0  0  0
 12 26  1  0  0  0  0
 12 27  1  0  0  0  0
 13 28  1  0  0  0  0
 13 29  1  0  0  0  0
 13 30  1  0  0  0  0
 14 31  1  0  0  0  0
 14 32  1  0  0  0  0
 14 33  1  0  0  0  0
 17 34  1  0  0  0  0
 17 35  1  0  0  0  0
M  END
> <id>
EN300-624598

> <smiles>
CC(C)(C)OC(=O)N1C=C(C#CN)C=2C(F)=CC=CC12

> <MDLNUMBER>
MFCD30752591

> <IUPAC Name>
tert-butyl 3-(2-aminoethynyl)-4-fluoro-1H-indole-1-carboxylate

> <CAS>
2137883-69-1

> <URL>
https://www.enaminestore.com/catalog/EN300-624598

> <ROCS_ShapeQuery>
A71EV2A-x0451_0A_A71EV2A-x0310_0A_A71EV2A-x0416_0A_peptide

> <ROCS_TanimotoCombo>
0.485 

> <ROCS_ShapeTanimoto>
0.352 

> <ROCS_ColorTanimoto>
0.133 

> <ROCS_RefTversky>
0.306 

> <ROCS_RefColorTversky>
0.146 

> <ROCS_RefTverskyCombo>
0.452 

> <ROCS_FitTversky>
1.737 

> <ROCS_FitColorTversky>
0.608 

> <ROCS_FitTverskyCombo>
2.345 

> <ROCS_ColorScore>
-4.439

> <ROCS_Overlap>
2125.829

> <ROCS_Rank>
272                 

$$$$
untitled-dbase-45777_25
  -OEChem-11132313473D

 37 38  0     0  0  0  0  0  0999 V2000
    6.8147   10.6858   25.7095 C   0  0  0  0  0  0  0  0  0  0  0  0
    6.4039   11.7994   26.4342 C   0  0  0  0  0  0  0  0  0  0  0  0
    7.9826   13.1573   25.2092 C   0  0  0  0  0  0  0  0  0  0  0  0
    8.4167   12.0482   24.4599 C   0  0  0  0  0  0  0  0  0  0  0  0
    7.8270   10.7966   24.7449 C   0  0  0  0  0  0  0  0  0  0  0  0
    6.9922   13.0331   26.1882 C   0  0  0  0  0  0  0  0  0  0  0  0
   10.3931   13.1993   23.4626 C   0  0  0  0  0  0  0  0  0  0  0  0
    9.9492    9.9591   22.5622 C   0  0  0  0  0  0  0  0  0  0  0  0
    9.2820   11.2940   22.2609 C   0  0  0  0  0  0  0  0  0  0  0  0
    9.5609    9.4274   23.9329 C   0  0  0  0  0  0  0  0  0  0  0  0
   11.8799   15.4466   22.4831 C   0  0  0  0  0  0  0  0  0  0  0  0
   12.3792   14.0104   20.4838 C   0  0  0  0  0  0  0  0  0  0  0  0
   10.0056   14.6423   21.0084 C   0  0  0  0  0  0  0  0  0  0  0  0
   11.3762   14.3090   21.5960 C   0  0  0  0  0  0  0  0  0  0  0  0
    9.3774   12.2237   23.3973 N   0  0  0  0  0  0  0  0  0  0  0  0
   10.5473   14.0133   24.3707 O   0  0  0  0  0  0  0  0  0  0  0  0
    8.1605    9.5994   24.1547 O   0  0  0  0  0  0  0  0  0  0  0  0
   11.2543   13.1269   22.3960 O   0  0  0  0  0  0  0  0  0  0  0  0
    6.4730   14.5420   27.2035 Br  0  0  0  0  0  0  0  0  0  0  0  0
    6.3259    9.7301   25.8836 H   0  0  0  0  0  0  0  0  0  0  0  0
    5.6258   11.6868   27.1843 H   0  0  0  0  0  0  0  0  0  0  0  0
    8.4550   14.1284   25.0856 H   0  0  0  0  0  0  0  0  0  0  0  0
    9.7027    9.2158   21.7958 H   0  0  0  0  0  0  0  0  0  0  0  0
   11.0351   10.1092   22.5253 H   0  0  0  0  0  0  0  0  0  0  0  0
    9.7357   11.7713   21.3825 H   0  0  0  0  0  0  0  0  0  0  0  0
    8.2363   11.1200   21.9864 H   0  0  0  0  0  0  0  0  0  0  0  0
    9.8643    8.3804   24.0677 H   0  0  0  0  0  0  0  0  0  0  0  0
   10.0894    9.9982   24.7048 H   0  0  0  0  0  0  0  0  0  0  0  0
   11.1627   15.6640   23.2828 H   0  0  0  0  0  0  0  0  0  0  0  0
   12.8459   15.2055   22.9385 H   0  0  0  0  0  0  0  0  0  0  0  0
   11.9903   16.3723   21.9069 H   0  0  0  0  0  0  0  0  0  0  0  0
   12.0218   13.1948   19.8448 H   0  0  0  0  0  0  0  0  0  0  0  0
   13.3371   13.6789   20.9007 H   0  0  0  0  0  0  0  0  0  0  0  0
   12.5598   14.8890   19.8560 H   0  0  0  0  0  0  0  0  0  0  0  0
    9.6441   13.8264   20.3720 H   0  0  0  0  0  0  0  0  0  0  0  0
    9.2637   14.8234   21.7928 H   0  0  0  0  0  0  0  0  0  0  0  0
   10.0612   15.5312   20.3697 H   0  0  0  0  0  0  0  0  0  0  0  0
  1  2  1  0  0  0  0
  1  5  2  0  0  0  0
  2  6  2  0  0  0  0
  3  4  2  0  0  0  0
  3  6  1  0  0  0  0
  4  5  1  0  0  0  0
  4 15  1  0  0  0  0
  5 17  1  0  0  0  0
  6 19  1  0  0  0  0
  7 15  1  0  0  0  0
  7 16  2  0  0  0  0
  7 18  1  0  0  0  0
  8  9  1  0  0  0  0
  8 10  1  0  0  0  0
  9 15  1  0  0  0  0
 10 17  1  0  0  0  0
 11 14  1  0  0  0  0
 12 14  1  0  0  0  0
 13 14  1  0  0  0  0
 14 18  1  0  0  0  0
  1 20  1  0  0  0  0
  2 21  1  0  0  0  0
  3 22  1  0  0  0  0
  8 23  1  0  0  0  0
  8 24  1  0  0  0  0
  9 25  1  0  0  0  0
  9 26  1  0  0  0  0
 10 27  1  0  0  0  0
 10 28  1  0  0  0  0
 11 29  1  0  0  0  0
 11 30  1  0  0  0  0
 11 31  1  0  0  0  0
 12 32  1  0  0  0  0
 12 33  1  0  0  0  0
 12 34  1  0  0  0  0
 13 35  1  0  0  0  0
 13 36  1  0  0  0  0
 13 37  1  0  0  0  0
M  END
> <id>
EN300-12713045

> <smiles>
CC(C)(C)OC(=O)N1CCCOC=2C=CC(Br)=CC12

> <MDLNUMBER>
MFCD28346360

> <IUPAC Name>
tert-butyl 7-bromo-2,3,4,5-tetrahydro-1,5-benzoxazepine-5-carboxylate

> <CAS>
719310-36-8

> <URL>
https://www.enaminestore.com/catalog/EN300-12713045

> <ROCS_ShapeQuery>
A71EV2A-x0451_0A_A71EV2A-x0310_0A_A71EV2A-x0416_0A_peptide

> <ROCS_TanimotoCombo>
0.485 

> <ROCS_ShapeTanimoto>
0.339 

> <ROCS_ColorTanimoto>
0.146 

> <ROCS_RefTversky>
0.295 

> <ROCS_RefColorTversky>
0.158 

> <ROCS_RefTverskyCombo>
0.454 

> <ROCS_FitTversky>
1.767 

> <ROCS_FitColorTversky>
0.661 

> <ROCS_FitTverskyCombo>
2.428 

> <ROCS_ColorScore>
-4.816

> <ROCS_Overlap>
2049.467

> <ROCS_Rank>
273                 

$$$$
untitled-dbase-49500_53
  -OEChem-11132313473D

 38 40  0     0  0  0  0  0  0999 V2000
    7.1603    9.7355   25.0172 C   0  0  0  0  0  0  0  0  0  0  0  0
    8.3933   11.9326   24.1275 C   0  0  0  0  0  0  0  0  0  0  0  0
    9.2538   12.9042   23.5188 C   0  0  0  0  0  0  0  0  0  0  0  0
   10.2983   12.3128   22.8327 C   0  0  0  0  0  0  0  0  0  0  0  0
    7.2392   12.0335   24.9131 C   0  0  0  0  0  0  0  0  0  0  0  0
    8.8353   10.6431   23.8561 C   0  0  0  0  0  0  0  0  0  0  0  0
   12.3667   15.3493   22.3138 C   0  0  0  0  0  0  0  0  0  0  0  0
    9.1254   14.3948   23.5837 C   0  0  0  0  0  0  0  0  0  0  0  0
   11.3689   13.0396   22.0822 C   0  0  0  0  0  0  0  0  0  0  0  0
    9.9009   15.0524   22.4363 C   0  0  0  0  0  0  0  0  0  0  0  0
   14.1978   17.1231   21.0136 C   0  0  0  0  0  0  0  0  0  0  0  0
   14.8247   15.1432   19.6006 C   0  0  0  0  0  0  0  0  0  0  0  0
   12.4782   16.0362   19.5316 C   0  0  0  0  0  0  0  0  0  0  0  0
   13.7106   15.8085   20.4058 C   0  0  0  0  0  0  0  0  0  0  0  0
    6.6196   10.9205   25.3602 N   0  0  0  0  0  0  0  0  0  0  0  0
    8.2567    9.5008   24.2754 N   0  0  0  0  0  0  0  0  0  0  0  0
   11.2586   14.4941   22.3221 N   0  0  0  0  0  0  0  0  0  0  0  0
   12.4542   16.3789   22.9800 O   0  0  0  0  0  0  0  0  0  0  0  0
    6.6938   13.2425   25.2696 O   0  0  0  0  0  0  0  0  0  0  0  0
   13.3564   14.9179   21.4701 O   0  0  0  0  0  0  0  0  0  0  0  0
   10.2458   10.6136   22.9002 S   0  0  0  0  0  0  0  0  0  0  0  0
    6.6440    8.8571   25.3885 H   0  0  0  0  0  0  0  0  0  0  0  0
    8.0747   14.6953   23.5156 H   0  0  0  0  0  0  0  0  0  0  0  0
    9.5140   14.7471   24.5466 H   0  0  0  0  0  0  0  0  0  0  0  0
   12.3590   12.6812   22.3805 H   0  0  0  0  0  0  0  0  0  0  0  0
   11.2526   12.8845   21.0036 H   0  0  0  0  0  0  0  0  0  0  0  0
    9.4004   14.8692   21.4770 H   0  0  0  0  0  0  0  0  0  0  0  0
    9.9353   16.1363   22.5853 H   0  0  0  0  0  0  0  0  0  0  0  0
   13.4010   17.6037   21.5924 H   0  0  0  0  0  0  0  0  0  0  0  0
   15.0600   16.9686   21.6705 H   0  0  0  0  0  0  0  0  0  0  0  0
   14.4828   17.8343   20.2300 H   0  0  0  0  0  0  0  0  0  0  0  0
   14.4795   14.1997   19.1627 H   0  0  0  0  0  0  0  0  0  0  0  0
   15.6750   14.8917   20.2448 H   0  0  0  0  0  0  0  0  0  0  0  0
   15.1812   15.7904   18.7928 H   0  0  0  0  0  0  0  0  0  0  0  0
   12.1285   15.0935   19.0955 H   0  0  0  0  0  0  0  0  0  0  0  0
   11.6554   16.4793   20.1020 H   0  0  0  0  0  0  0  0  0  0  0  0
   12.7143   16.6975   18.6900 H   0  0  0  0  0  0  0  0  0  0  0  0
    5.9056   13.0959   25.8089 H   0  0  0  0  0  0  0  0  0  0  0  0
  1 15  2  0  0  0  0
  1 16  1  0  0  0  0
  2  3  1  0  0  0  0
  2  5  2  0  0  0  0
  2  6  1  0  0  0  0
  3  4  2  0  0  0  0
  3  8  1  0  0  0  0
  4  9  1  0  0  0  0
  4 21  1  0  0  0  0
  5 15  1  0  0  0  0
  5 19  1  0  0  0  0
  6 16  2  0  0  0  0
  6 21  1  0  0  0  0
  7 17  1  0  0  0  0
  7 18  2  0  0  0  0
  7 20  1  0  0  0  0
  8 10  1  0  0  0  0
  9 17  1  0  0  0  0
 10 17  1  0  0  0  0
 11 14  1  0  0  0  0
 12 14  1  0  0  0  0
 13 14  1  0  0  0  0
 14 20  1  0  0  0  0
  1 22  1  0  0  0  0
  8 23  1  0  0  0  0
  8 24  1  0  0  0  0
  9 25  1  0  0  0  0
  9 26  1  0  0  0  0
 10 27  1  0  0  0  0
 10 28  1  0  0  0  0
 11 29  1  0  0  0  0
 11 30  1  0  0  0  0
 11 31  1  0  0  0  0
 12 32  1  0  0  0  0
 12 33  1  0  0  0  0
 12 34  1  0  0  0  0
 13 35  1  0  0  0  0
 13 36  1  0  0  0  0
 13 37  1  0  0  0  0
 19 38  1  0  0  0  0
M  END
> <id>
EN300-3429461

> <smiles>
CC(C)(C)OC(=O)N1CCC2=C(C1)SC=3N=CN=C(O)C23

> <MDLNUMBER>
MFCD30729669

> <IUPAC Name>
tert-butyl 3-hydroxy-8-thia-4,6,11-triazatricyclo[7.4.0.0,2,7]trideca-1(9),2,4,6-tetraene-11-carboxylate

> <CAS>
874801-60-2

> <Purity>
95

> <URL>
https://www.enaminestore.com/catalog/EN300-3429461

> <ROCS_ShapeQuery>
A71EV2A-x0451_0A_A71EV2A-x0310_0A_A71EV2A-x0416_0A_peptide

> <ROCS_TanimotoCombo>
0.485 

> <ROCS_ShapeTanimoto>
0.330 

> <ROCS_ColorTanimoto>
0.155 

> <ROCS_RefTversky>
0.293 

> <ROCS_RefColorTversky>
0.179 

> <ROCS_RefTverskyCombo>
0.472 

> <ROCS_FitTversky>
1.610 

> <ROCS_FitColorTversky>
0.538 

> <ROCS_FitTverskyCombo>
2.148 

> <ROCS_ColorScore>
-5.472

> <ROCS_Overlap>
2037.381

> <ROCS_Rank>
274                 

$$$$
untitled-dbase-30750_48
  -OEChem-11132313473D

 40 41  0     1  0  0  0  0  0999 V2000
   10.3428   13.2572   23.4117 C   0  0  0  0  0  0  0  0  0  0  0  0
    8.7288    9.9403   23.1376 C   0  0  0  0  0  0  0  0  0  0  0  0
    9.8786   10.8814   22.8000 C   0  0  0  0  0  0  0  0  0  0  0  0
    8.3109   10.3041   24.5662 C   0  0  1  0  0  0  0  0  0  0  0  0
    8.7925   11.7578   24.7755 C   0  0  2  0  0  0  0  0  0  0  0  0
    6.8542   10.7624   24.8234 C   0  0  2  0  0  0  0  0  0  0  0  0
    7.3163   12.2548   24.7061 C   0  0  0  0  0  0  0  0  0  0  0  0
    6.9614   13.1405   25.9044 C   0  0  0  0  0  0  0  0  0  0  0  0
    6.8447   12.9157   23.4072 C   0  0  0  0  0  0  0  0  0  0  0  0
   12.6531   14.6705   22.4988 C   0  0  0  0  0  0  0  0  0  0  0  0
   11.5503   14.6432   20.2422 C   0  0  0  0  0  0  0  0  0  0  0  0
   10.4458   15.8312   22.1597 C   0  0  0  0  0  0  0  0  0  0  0  0
   11.3203   14.6464   21.7519 C   0  0  0  0  0  0  0  0  0  0  0  0
    9.6789   12.0612   23.6334 N   0  0  0  0  0  0  0  0  0  0  0  0
   10.6366   14.0609   24.2932 O   0  0  0  0  0  0  0  0  0  0  0  0
    6.3109   10.3478   26.0941 O   0  0  0  0  0  0  0  0  0  0  0  0
   10.6326   13.4359   22.0861 O   0  0  0  0  0  0  0  0  0  0  0  0
    7.9001   10.0313   22.4320 H   0  0  0  0  0  0  0  0  0  0  0  0
    9.0857    8.9054   23.1168 H   0  0  0  0  0  0  0  0  0  0  0  0
   10.8620   10.4331   22.9822 H   0  0  0  0  0  0  0  0  0  0  0  0
    9.8378   11.2096   21.7540 H   0  0  0  0  0  0  0  0  0  0  0  0
    8.6805    9.5884   25.3231 H   0  0  0  0  0  0  0  0  0  0  0  0
    9.3107   11.9225   25.7358 H   0  0  0  0  0  0  0  0  0  0  0  0
    6.1689   10.4551   24.0264 H   0  0  0  0  0  0  0  0  0  0  0  0
    5.9282   13.4662   25.8208 H   0  0  0  0  0  0  0  0  0  0  0  0
    7.6145   14.0086   25.9193 H   0  0  0  0  0  0  0  0  0  0  0  0
    7.0895   12.5751   26.8233 H   0  0  0  0  0  0  0  0  0  0  0  0
    5.8010   13.2108   23.5012 H   0  0  0  0  0  0  0  0  0  0  0  0
    6.9443   12.2152   22.5797 H   0  0  0  0  0  0  0  0  0  0  0  0
    7.4482   13.7984   23.2022 H   0  0  0  0  0  0  0  0  0  0  0  0
   12.4923   14.6728   23.5829 H   0  0  0  0  0  0  0  0  0  0  0  0
   13.2753   13.8071   22.2415 H   0  0  0  0  0  0  0  0  0  0  0  0
   13.2145   15.5829   22.2676 H   0  0  0  0  0  0  0  0  0  0  0  0
   10.5966   14.6260   19.7023 H   0  0  0  0  0  0  0  0  0  0  0  0
   12.0966   13.7449   19.9325 H   0  0  0  0  0  0  0  0  0  0  0  0
   12.1165   15.5223   19.9179 H   0  0  0  0  0  0  0  0  0  0  0  0
    9.4897   15.8142   21.6241 H   0  0  0  0  0  0  0  0  0  0  0  0
   10.2396   15.8291   23.2349 H   0  0  0  0  0  0  0  0  0  0  0  0
   10.9290   16.7799   21.8997 H   0  0  0  0  0  0  0  0  0  0  0  0
    5.4110   10.6972   26.1201 H   0  0  0  0  0  0  0  0  0  0  0  0
  1 14  1  0  0  0  0
  1 15  2  0  0  0  0
  1 17  1  0  0  0  0
  2  3  1  0  0  0  0
  2  4  1  6  0  0  0
  3 14  1  0  0  0  0
  4  5  1  0  0  0  0
  4  6  1  0  0  0  0
  5  7  1  0  0  0  0
  5 14  1  6  0  0  0
  6  7  1  0  0  0  0
  6 16  1  0  0  0  0
  7  8  1  0  0  0  0
  7  9  1  0  0  0  0
 10 13  1  0  0  0  0
 11 13  1  0  0  0  0
 12 13  1  0  0  0  0
 13 17  1  0  0  0  0
  2 18  1  0  0  0  0
  2 19  1  0  0  0  0
  3 20  1  0  0  0  0
  3 21  1  0  0  0  0
  4 22  1  0  0  0  0
  5 23  1  0  0  0  0
  6 24  1  0  0  0  0
  8 25  1  0  0  0  0
  8 26  1  0  0  0  0
  8 27  1  0  0  0  0
  9 28  1  0  0  0  0
  9 29  1  0  0  0  0
  9 30  1  0  0  0  0
 10 31  1  0  0  0  0
 10 32  1  0  0  0  0
 10 33  1  0  0  0  0
 11 34  1  0  0  0  0
 11 35  1  0  0  0  0
 11 36  1  0  0  0  0
 12 37  1  0  0  0  0
 12 38  1  0  0  0  0
 12 39  1  0  0  0  0
 16 40  1  0  0  0  0
M  END
> <id>
EN300-7459252

> <smiles>
CC(C)(C)OC(=O)N1CC[C@@H]2C(O)C(C)(C)[C@@H]21 |&1:10,16,r|

> <IUPAC Name>
rac-tert-butyl (1R,5S)-6-hydroxy-7,7-dimethyl-2-azabicyclo[3.2.0]heptane-2-carboxylate

> <CAS>
2413864-25-0

> <Purity>
95

> <URL>
https://www.enaminestore.com/catalog/EN300-7459252

> <ROCS_ShapeQuery>
A71EV2A-x0451_0A_A71EV2A-x0310_0A_A71EV2A-x0416_0A_peptide

> <ROCS_TanimotoCombo>
0.485 

> <ROCS_ShapeTanimoto>
0.310 

> <ROCS_ColorTanimoto>
0.175 

> <ROCS_RefTversky>
0.273 

> <ROCS_RefColorTversky>
0.205 

> <ROCS_RefTverskyCombo>
0.478 

> <ROCS_FitTversky>
1.772 

> <ROCS_FitColorTversky>
0.548 

> <ROCS_FitTverskyCombo>
2.319 

> <ROCS_ColorScore>
-6.274

> <ROCS_Overlap>
1893.230

> <ROCS_Rank>
275                 

$$$$
untitled-dbase-30779_48
  -OEChem-11132313473D

 40 41  0     1  0  0  0  0  0999 V2000
   10.3422   13.2575   23.4118 C   0  0  0  0  0  0  0  0  0  0  0  0
    8.7289    9.9405   23.1367 C   0  0  0  0  0  0  0  0  0  0  0  0
    9.8785   10.8819   22.7992 C   0  0  0  0  0  0  0  0  0  0  0  0
    8.3108   10.3038   24.5654 C   0  0  1  0  0  0  0  0  0  0  0  0
    8.7926   11.7573   24.7752 C   0  0  2  0  0  0  0  0  0  0  0  0
    6.8542   10.7623   24.8230 C   0  0  2  0  0  0  0  0  0  0  0  0
    7.3165   12.2547   24.7056 C   0  0  0  0  0  0  0  0  0  0  0  0
    6.8452   12.9155   23.4065 C   0  0  0  0  0  0  0  0  0  0  0  0
    6.9617   13.1406   25.9039 C   0  0  0  0  0  0  0  0  0  0  0  0
   12.6512   14.6717   22.4965 C   0  0  0  0  0  0  0  0  0  0  0  0
   11.5457   14.6441   20.2412 C   0  0  0  0  0  0  0  0  0  0  0  0
   10.4432   15.8318   22.1599 C   0  0  0  0  0  0  0  0  0  0  0  0
   11.3175   14.6472   21.7512 C   0  0  0  0  0  0  0  0  0  0  0  0
    9.6792   12.0610   23.6333 N   0  0  0  0  0  0  0  0  0  0  0  0
   10.6365   14.0608   24.2934 O   0  0  0  0  0  0  0  0  0  0  0  0
    6.3111   10.3479   26.0937 O   0  0  0  0  0  0  0  0  0  0  0  0
   10.6306   13.4366   22.0861 O   0  0  0  0  0  0  0  0  0  0  0  0
    7.9001   10.0313   22.4311 H   0  0  0  0  0  0  0  0  0  0  0  0
    9.0857    8.9056   23.1162 H   0  0  0  0  0  0  0  0  0  0  0  0
   10.8620   10.4332   22.9805 H   0  0  0  0  0  0  0  0  0  0  0  0
    9.8373   11.2108   21.7534 H   0  0  0  0  0  0  0  0  0  0  0  0
    8.6812    9.5879   25.3219 H   0  0  0  0  0  0  0  0  0  0  0  0
    9.3105   11.9216   25.7357 H   0  0  0  0  0  0  0  0  0  0  0  0
    6.1684   10.4556   24.0261 H   0  0  0  0  0  0  0  0  0  0  0  0
    5.8016   13.2109   23.5004 H   0  0  0  0  0  0  0  0  0  0  0  0
    6.9447   12.2150   22.5792 H   0  0  0  0  0  0  0  0  0  0  0  0
    7.4489   13.7981   23.2016 H   0  0  0  0  0  0  0  0  0  0  0  0
    5.9287   13.4666   25.8202 H   0  0  0  0  0  0  0  0  0  0  0  0
    7.6151   14.0085   25.9187 H   0  0  0  0  0  0  0  0  0  0  0  0
    7.0897   12.5752   26.8229 H   0  0  0  0  0  0  0  0  0  0  0  0
   12.4917   14.6740   23.5807 H   0  0  0  0  0  0  0  0  0  0  0  0
   13.2734   13.8085   22.2384 H   0  0  0  0  0  0  0  0  0  0  0  0
   13.2121   15.5843   22.2646 H   0  0  0  0  0  0  0  0  0  0  0  0
   10.5914   14.6266   19.7024 H   0  0  0  0  0  0  0  0  0  0  0  0
   12.0919   13.7459   19.9309 H   0  0  0  0  0  0  0  0  0  0  0  0
   12.1113   15.5233   19.9162 H   0  0  0  0  0  0  0  0  0  0  0  0
    9.4865   15.8145   21.6255 H   0  0  0  0  0  0  0  0  0  0  0  0
   10.2383   15.8297   23.2354 H   0  0  0  0  0  0  0  0  0  0  0  0
   10.9258   16.7807   21.8993 H   0  0  0  0  0  0  0  0  0  0  0  0
    5.4113   10.6974   26.1199 H   0  0  0  0  0  0  0  0  0  0  0  0
  1 14  1  0  0  0  0
  1 15  2  0  0  0  0
  1 17  1  0  0  0  0
  2  3  1  0  0  0  0
  2  4  1  6  0  0  0
  3 14  1  0  0  0  0
  4  5  1  0  0  0  0
  4  6  1  0  0  0  0
  5  7  1  0  0  0  0
  5 14  1  6  0  0  0
  6  7  1  0  0  0  0
  6 16  1  1  0  0  0
  7  8  1  0  0  0  0
  7  9  1  0  0  0  0
 10 13  1  0  0  0  0
 11 13  1  0  0  0  0
 12 13  1  0  0  0  0
 13 17  1  0  0  0  0
  2 18  1  0  0  0  0
  2 19  1  0  0  0  0
  3 20  1  0  0  0  0
  3 21  1  0  0  0  0
  4 22  1  0  0  0  0
  5 23  1  0  0  0  0
  6 24  1  0  0  0  0
  8 25  1  0  0  0  0
  8 26  1  0  0  0  0
  8 27  1  0  0  0  0
  9 28  1  0  0  0  0
  9 29  1  0  0  0  0
  9 30  1  0  0  0  0
 10 31  1  0  0  0  0
 10 32  1  0  0  0  0
 10 33  1  0  0  0  0
 11 34  1  0  0  0  0
 11 35  1  0  0  0  0
 11 36  1  0  0  0  0
 12 37  1  0  0  0  0
 12 38  1  0  0  0  0
 12 39  1  0  0  0  0
 16 40  1  0  0  0  0
M  END
> <id>
EN300-7491856

> <smiles>
CC(C)(C)OC(=O)N1CC[C@@H]2[C@@H](O)C(C)(C)[C@@H]21 |&1:10,11,16,r|

> <IUPAC Name>
rac-tert-butyl (1R,5S,6R)-6-hydroxy-7,7-dimethyl-2-azabicyclo[3.2.0]heptane-2-carboxylate

> <CAS>
2413846-94-1

> <Purity>
95

> <URL>
https://www.enaminestore.com/catalog/EN300-7491856

> <ROCS_ShapeQuery>
A71EV2A-x0451_0A_A71EV2A-x0310_0A_A71EV2A-x0416_0A_peptide

> <ROCS_TanimotoCombo>
0.485 

> <ROCS_ShapeTanimoto>
0.310 

> <ROCS_ColorTanimoto>
0.175 

> <ROCS_RefTversky>
0.273 

> <ROCS_RefColorTversky>
0.205 

> <ROCS_RefTverskyCombo>
0.478 

> <ROCS_FitTversky>
1.771 

> <ROCS_FitColorTversky>
0.548 

> <ROCS_FitTverskyCombo>
2.319 

> <ROCS_ColorScore>
-6.274

> <ROCS_Overlap>
1893.101

> <ROCS_Rank>
276                 

$$$$
untitled-dbase-45528_2
  -OEChem-11132313473D

 42 43  0     0  0  0  0  0  0999 V2000
    6.8390   12.4151   26.0838 C   0  0  0  0  0  0  0  0  0  0  0  0
    6.3235   11.1167   25.9840 C   0  0  0  0  0  0  0  0  0  0  0  0
    8.0127   10.5775   24.3717 C   0  0  0  0  0  0  0  0  0  0  0  0
    7.9474   12.8035   25.3261 C   0  0  0  0  0  0  0  0  0  0  0  0
    8.5254   11.8739   24.4730 C   0  0  0  0  0  0  0  0  0  0  0  0
    6.9105   10.1886   25.1241 C   0  0  0  0  0  0  0  0  0  0  0  0
   10.3983   13.1734   23.4543 C   0  0  0  0  0  0  0  0  0  0  0  0
    9.8668   10.7557   22.9062 C   0  0  0  0  0  0  0  0  0  0  0  0
    8.7984    9.7424   23.3880 C   0  0  0  0  0  0  0  0  0  0  0  0
    8.3912   14.2087   25.5256 C   0  0  0  0  0  0  0  0  0  0  0  0
    7.9198    9.2770   22.2219 C   0  0  0  0  0  0  0  0  0  0  0  0
    9.4548    8.5409   24.0766 C   0  0  0  0  0  0  0  0  0  0  0  0
   12.1073   15.2983   22.5805 C   0  0  0  0  0  0  0  0  0  0  0  0
   11.7068   14.4206   20.2614 C   0  0  0  0  0  0  0  0  0  0  0  0
    9.7814   15.2913   21.6189 C   0  0  0  0  0  0  0  0  0  0  0  0
   11.1258   14.5667   21.6661 C   0  0  0  0  0  0  0  0  0  0  0  0
    9.6334   12.0264   23.6196 N   0  0  0  0  0  0  0  0  0  0  0  0
   10.6065   14.0298   24.3091 O   0  0  0  0  0  0  0  0  0  0  0  0
   10.9153   13.2484   22.1853 O   0  0  0  0  0  0  0  0  0  0  0  0
    6.1176    8.4684   25.0854 Br  0  0  0  0  0  0  0  0  0  0  0  0
    6.3605   13.1178   26.7625 H   0  0  0  0  0  0  0  0  0  0  0  0
    5.4600   10.8547   26.5912 H   0  0  0  0  0  0  0  0  0  0  0  0
   10.8918   10.4279   23.1208 H   0  0  0  0  0  0  0  0  0  0  0  0
    9.8071   10.9570   21.8291 H   0  0  0  0  0  0  0  0  0  0  0  0
    9.1313   14.2688   26.3350 H   0  0  0  0  0  0  0  0  0  0  0  0
    8.8446   14.6213   24.6131 H   0  0  0  0  0  0  0  0  0  0  0  0
    7.5471   14.8652   25.7812 H   0  0  0  0  0  0  0  0  0  0  0  0
    8.5158    8.6814   21.5371 H   0  0  0  0  0  0  0  0  0  0  0  0
    7.5245   10.1436   21.7006 H   0  0  0  0  0  0  0  0  0  0  0  0
    7.0996    8.6779   22.6057 H   0  0  0  0  0  0  0  0  0  0  0  0
   10.0097    7.9641   23.3429 H   0  0  0  0  0  0  0  0  0  0  0  0
    8.6861    7.9176   24.5232 H   0  0  0  0  0  0  0  0  0  0  0  0
   10.1313    8.8938   24.8491 H   0  0  0  0  0  0  0  0  0  0  0  0
   11.6940   15.4052   23.5898 H   0  0  0  0  0  0  0  0  0  0  0  0
   13.0638   14.7701   22.6506 H   0  0  0  0  0  0  0  0  0  0  0  0
   12.2988   16.3140   22.2157 H   0  0  0  0  0  0  0  0  0  0  0  0
   11.0059   13.8962   19.6019 H   0  0  0  0  0  0  0  0  0  0  0  0
   12.6231   13.8195   20.2785 H   0  0  0  0  0  0  0  0  0  0  0  0
   11.9389   15.3938   19.8169 H   0  0  0  0  0  0  0  0  0  0  0  0
    9.0772   14.7667   20.9631 H   0  0  0  0  0  0  0  0  0  0  0  0
    9.3319   15.3727   22.6139 H   0  0  0  0  0  0  0  0  0  0  0  0
    9.8966   16.2997   21.2053 H   0  0  0  0  0  0  0  0  0  0  0  0
  1  2  1  0  0  0  0
  1  4  2  0  0  0  0
  2  6  2  0  0  0  0
  3  5  2  0  0  0  0
  3  6  1  0  0  0  0
  3  9  1  0  0  0  0
  4  5  1  0  0  0  0
  4 10  1  0  0  0  0
  5 17  1  0  0  0  0
  6 20  1  0  0  0  0
  7 17  1  0  0  0  0
  7 18  2  0  0  0  0
  7 19  1  0  0  0  0
  8  9  1  0  0  0  0
  8 17  1  0  0  0  0
  9 11  1  0  0  0  0
  9 12  1  0  0  0  0
 13 16  1  0  0  0  0
 14 16  1  0  0  0  0
 15 16  1  0  0  0  0
 16 19  1  0  0  0  0
  1 21  1  0  0  0  0
  2 22  1  0  0  0  0
  8 23  1  0  0  0  0
  8 24  1  0  0  0  0
 10 25  1  0  0  0  0
 10 26  1  0  0  0  0
 10 27  1  0  0  0  0
 11 28  1  0  0  0  0
 11 29  1  0  0  0  0
 11 30  1  0  0  0  0
 12 31  1  0  0  0  0
 12 32  1  0  0  0  0
 12 33  1  0  0  0  0
 13 34  1  0  0  0  0
 13 35  1  0  0  0  0
 13 36  1  0  0  0  0
 14 37  1  0  0  0  0
 14 38  1  0  0  0  0
 14 39  1  0  0  0  0
 15 40  1  0  0  0  0
 15 41  1  0  0  0  0
 15 42  1  0  0  0  0
M  END
> <id>
EN300-28297031

> <smiles>
CC=1C=CC(Br)=C2C1N(CC2(C)C)C(=O)OC(C)(C)C

> <IUPAC Name>
tert-butyl 4-bromo-3,3,7-trimethyl-2,3-dihydro-1H-indole-1-carboxylate

> <CAS>
2680824-14-8

> <URL>
https://www.enaminestore.com/catalog/EN300-28297031

> <ROCS_ShapeQuery>
A71EV2A-x0451_0A_A71EV2A-x0310_0A_A71EV2A-x0416_0A_peptide

> <ROCS_TanimotoCombo>
0.485 

> <ROCS_ShapeTanimoto>
0.355 

> <ROCS_ColorTanimoto>
0.130 

> <ROCS_RefTversky>
0.307 

> <ROCS_RefColorTversky>
0.143 

> <ROCS_RefTverskyCombo>
0.450 

> <ROCS_FitTversky>
1.772 

> <ROCS_FitColorTversky>
0.596 

> <ROCS_FitTverskyCombo>
2.367 

> <ROCS_ColorScore>
-4.350

> <ROCS_Overlap>
2131.446

> <ROCS_Rank>
277                 

$$$$
untitled-dbase-44713_4
  -OEChem-11132313473D

 38 39  0     0  0  0  0  0  0999 V2000
    7.9279   10.7578   24.5926 C   0  0  0  0  0  0  0  0  0  0  0  0
    6.9430   11.0638   25.5465 C   0  0  0  0  0  0  0  0  0  0  0  0
    8.6145   11.9333   24.4076 C   0  0  0  0  0  0  0  0  0  0  0  0
    8.2870    9.5549   23.8825 C   0  0  0  0  0  0  0  0  0  0  0  0
   10.2864   13.3694   23.4191 C   0  0  0  0  0  0  0  0  0  0  0  0
    9.6129    9.6128   23.1308 C   0  0  0  0  0  0  0  0  0  0  0  0
    9.9547   11.0071   22.5791 C   0  0  0  0  0  0  0  0  0  0  0  0
    5.9164   10.1728   26.1136 C   0  0  0  0  0  0  0  0  0  0  0  0
   12.9976   13.7874   22.5915 C   0  0  0  0  0  0  0  0  0  0  0  0
   12.0149   14.7021   20.4685 C   0  0  0  0  0  0  0  0  0  0  0  0
   11.5399   15.8381   22.6576 C   0  0  0  0  0  0  0  0  0  0  0  0
    8.1955   14.2711   25.3285 C   0  0  0  0  0  0  0  0  0  0  0  0
   11.7990   14.5000   21.9668 C   0  0  0  0  0  0  0  0  0  0  0  0
    7.0123   12.3346   25.9589 N   0  0  0  0  0  0  0  0  0  0  0  0
    8.0472   12.8354   25.2567 N   0  0  0  0  0  0  0  0  0  0  0  0
    9.6548   12.1213   23.5061 N   0  0  0  0  0  0  0  0  0  0  0  0
    7.6176    8.5285   23.9431 O   0  0  0  0  0  0  0  0  0  0  0  0
   10.5109   14.1290   24.3591 O   0  0  0  0  0  0  0  0  0  0  0  0
   10.6414   13.6718   22.1281 O   0  0  0  0  0  0  0  0  0  0  0  0
   10.3954    9.2907   23.8283 H   0  0  0  0  0  0  0  0  0  0  0  0
    9.5779    8.8941   22.3048 H   0  0  0  0  0  0  0  0  0  0  0  0
   11.0107   11.0208   22.2883 H   0  0  0  0  0  0  0  0  0  0  0  0
    9.3624   11.1986   21.6754 H   0  0  0  0  0  0  0  0  0  0  0  0
    6.2845    9.6646   27.0213 H   0  0  0  0  0  0  0  0  0  0  0  0
    4.9962   10.7186   26.3881 H   0  0  0  0  0  0  0  0  0  0  0  0
    5.6020    9.3911   25.3991 H   0  0  0  0  0  0  0  0  0  0  0  0
   12.8464   13.6404   23.6669 H   0  0  0  0  0  0  0  0  0  0  0  0
   13.1726   12.8109   22.1283 H   0  0  0  0  0  0  0  0  0  0  0  0
   13.9081   14.3884   22.4866 H   0  0  0  0  0  0  0  0  0  0  0  0
   11.1573   15.2131   20.0162 H   0  0  0  0  0  0  0  0  0  0  0  0
   12.1068   13.7387   19.9540 H   0  0  0  0  0  0  0  0  0  0  0  0
   12.9155   15.2906   20.2659 H   0  0  0  0  0  0  0  0  0  0  0  0
   10.6802   16.3494   22.2097 H   0  0  0  0  0  0  0  0  0  0  0  0
   11.3462   15.7088   23.7274 H   0  0  0  0  0  0  0  0  0  0  0  0
   12.3967   16.5109   22.5377 H   0  0  0  0  0  0  0  0  0  0  0  0
    7.4315   14.7214   24.6893 H   0  0  0  0  0  0  0  0  0  0  0  0
    8.0692   14.5988   26.3641 H   0  0  0  0  0  0  0  0  0  0  0  0
    9.1957   14.5487   24.9845 H   0  0  0  0  0  0  0  0  0  0  0  0
  1  2  1  0  0  0  0
  1  3  2  0  0  0  0
  1  4  1  0  0  0  0
  2  8  1  0  0  0  0
  2 14  2  0  0  0  0
  3 15  1  0  0  0  0
  3 16  1  0  0  0  0
  4  6  1  0  0  0  0
  4 17  2  0  0  0  0
  5 16  1  0  0  0  0
  5 18  2  0  0  0  0
  5 19  1  0  0  0  0
  6  7  1  0  0  0  0
  7 16  1  0  0  0  0
  9 13  1  0  0  0  0
 10 13  1  0  0  0  0
 11 13  1  0  0  0  0
 12 15  1  0  0  0  0
 13 19  1  0  0  0  0
 14 15  1  0  0  0  0
  6 20  1  0  0  0  0
  6 21  1  0  0  0  0
  7 22  1  0  0  0  0
  7 23  1  0  0  0  0
  8 24  1  0  0  0  0
  8 25  1  0  0  0  0
  8 26  1  0  0  0  0
  9 27  1  0  0  0  0
  9 28  1  0  0  0  0
  9 29  1  0  0  0  0
 10 30  1  0  0  0  0
 10 31  1  0  0  0  0
 10 32  1  0  0  0  0
 11 33  1  0  0  0  0
 11 34  1  0  0  0  0
 11 35  1  0  0  0  0
 12 36  1  0  0  0  0
 12 37  1  0  0  0  0
 12 38  1  0  0  0  0
M  END
> <id>
EN300-28282193

> <smiles>
CC1=NN(C)C=2N(CCC(=O)C12)C(=O)OC(C)(C)C

> <IUPAC Name>
tert-butyl 1,3-dimethyl-4-oxo-1H,4H,5H,6H,7H-pyrazolo[3,4-b]pyridine-7-carboxylate

> <CAS>
2680717-51-3

> <URL>
https://www.enaminestore.com/catalog/EN300-28282193

> <ROCS_ShapeQuery>
A71EV2A-x0451_0A_A71EV2A-x0310_0A_A71EV2A-x0416_0A_peptide

> <ROCS_TanimotoCombo>
0.485 

> <ROCS_ShapeTanimoto>
0.352 

> <ROCS_ColorTanimoto>
0.132 

> <ROCS_RefTversky>
0.305 

> <ROCS_RefColorTversky>
0.145 

> <ROCS_RefTverskyCombo>
0.450 

> <ROCS_FitTversky>
1.782 

> <ROCS_FitColorTversky>
0.604 

> <ROCS_FitTverskyCombo>
2.386 

> <ROCS_ColorScore>
-4.408

> <ROCS_Overlap>
2117.972

> <ROCS_Rank>
278                 

$$$$
untitled-dbase-44761_1
  -OEChem-11132313473D

 37 38  0     1  0  0  0  0  0999 V2000
    8.2268   14.1821   25.5465 C   0  0  0  0  0  0  0  0  0  0  0  0
    6.9469   12.0551   25.7587 C   0  0  0  0  0  0  0  0  0  0  0  0
    7.9951   12.8215   25.2085 C   0  0  0  0  0  0  0  0  0  0  0  0
    8.6301   11.9761   24.3226 C   0  0  0  0  0  0  0  0  0  0  0  0
   10.4233   13.3142   23.4062 C   0  0  0  0  0  0  0  0  0  0  0  0
    9.7009    9.6035   23.2103 C   0  0  0  0  0  0  0  0  0  0  0  0
    8.2508    9.5865   23.6774 C   0  0  0  0  0  0  0  0  0  0  0  0
   10.0843   10.9503   22.5713 C   0  0  1  0  0  0  0  0  0  0  0  0
    9.4437   11.1224   21.1896 C   0  0  0  0  0  0  0  0  0  0  0  0
   12.8555   14.7634   22.9490 C   0  0  0  0  0  0  0  0  0  0  0  0
   12.1282   14.8631   20.5468 C   0  0  0  0  0  0  0  0  0  0  0  0
   10.7307   15.9585   22.3232 C   0  0  0  0  0  0  0  0  0  0  0  0
   11.6594   14.7894   21.9984 C   0  0  0  0  0  0  0  0  0  0  0  0
    8.4162   15.2933   25.8225 N   0  0  0  0  0  0  0  0  0  0  0  0
    6.9075   10.8130   25.2740 N   0  0  0  0  0  0  0  0  0  0  0  0
    7.9413   10.7921   24.4169 N   0  0  0  0  0  0  0  0  0  0  0  0
    9.7238   12.0935   23.4549 N   0  0  0  0  0  0  0  0  0  0  0  0
   10.5904   14.0903   24.3440 O   0  0  0  0  0  0  0  0  0  0  0  0
   10.9269   13.5682   22.1539 O   0  0  0  0  0  0  0  0  0  0  0  0
    6.2055   12.3485   26.4891 H   0  0  0  0  0  0  0  0  0  0  0  0
   10.3567    9.4305   24.0744 H   0  0  0  0  0  0  0  0  0  0  0  0
    9.8784    8.7765   22.5132 H   0  0  0  0  0  0  0  0  0  0  0  0
    7.5541    9.5405   22.8341 H   0  0  0  0  0  0  0  0  0  0  0  0
    8.0698    8.7265   24.3309 H   0  0  0  0  0  0  0  0  0  0  0  0
   11.1740   10.9363   22.4374 H   0  0  0  0  0  0  0  0  0  0  0  0
    8.3619   11.1398   21.2908 H   0  0  0  0  0  0  0  0  0  0  0  0
    9.7337   10.2935   20.5496 H   0  0  0  0  0  0  0  0  0  0  0  0
    9.7807   12.0561   20.7473 H   0  0  0  0  0  0  0  0  0  0  0  0
   12.5232   14.7105   23.9919 H   0  0  0  0  0  0  0  0  0  0  0  0
   13.5110   13.9095   22.7492 H   0  0  0  0  0  0  0  0  0  0  0  0
   13.4465   15.6820   22.8591 H   0  0  0  0  0  0  0  0  0  0  0  0
   11.2733   14.8820   19.8613 H   0  0  0  0  0  0  0  0  0  0  0  0
   12.7171   13.9777   20.2814 H   0  0  0  0  0  0  0  0  0  0  0  0
   12.7388   15.7533   20.3642 H   0  0  0  0  0  0  0  0  0  0  0  0
    9.8727   15.9774   21.6414 H   0  0  0  0  0  0  0  0  0  0  0  0
   10.3550   15.9019   23.3500 H   0  0  0  0  0  0  0  0  0  0  0  0
   11.2492   16.9155   22.1942 H   0  0  0  0  0  0  0  0  0  0  0  0
  1  3  1  0  0  0  0
  1 14  3  0  0  0  0
  2  3  1  0  0  0  0
  2 15  2  0  0  0  0
  3  4  2  0  0  0  0
  4 16  1  0  0  0  0
  4 17  1  0  0  0  0
  5 17  1  0  0  0  0
  5 18  2  0  0  0  0
  5 19  1  0  0  0  0
  6  7  1  0  0  0  0
  6  8  1  0  0  0  0
  7 16  1  0  0  0  0
  8  9  1  0  0  0  0
  8 17  1  0  0  0  0
 10 13  1  0  0  0  0
 11 13  1  0  0  0  0
 12 13  1  0  0  0  0
 13 19  1  0  0  0  0
 15 16  1  0  0  0  0
  2 20  1  0  0  0  0
  6 21  1  0  0  0  0
  6 22  1  0  0  0  0
  7 23  1  0  0  0  0
  7 24  1  0  0  0  0
  8 25  1  0  0  0  0
  9 26  1  0  0  0  0
  9 27  1  0  0  0  0
  9 28  1  0  0  0  0
 10 29  1  0  0  0  0
 10 30  1  0  0  0  0
 10 31  1  0  0  0  0
 11 32  1  0  0  0  0
 11 33  1  0  0  0  0
 11 34  1  0  0  0  0
 12 35  1  0  0  0  0
 12 36  1  0  0  0  0
 12 37  1  0  0  0  0
M  END
> <id>
EN300-28281261

> <smiles>
CC1CCN2N=CC(C#N)=C2N1C(=O)OC(C)(C)C

> <IUPAC Name>
tert-butyl 3-cyano-5-methyl-4H,5H,6H,7H-pyrazolo[1,5-a]pyrimidine-4-carboxylate

> <CAS>
2680845-19-4

> <URL>
https://www.enaminestore.com/catalog/EN300-28281261

> <ROCS_ShapeQuery>
A71EV2A-x0451_0A_A71EV2A-x0310_0A_A71EV2A-x0416_0A_peptide

> <ROCS_TanimotoCombo>
0.485 

> <ROCS_ShapeTanimoto>
0.331 

> <ROCS_ColorTanimoto>
0.154 

> <ROCS_RefTversky>
0.291 

> <ROCS_RefColorTversky>
0.165 

> <ROCS_RefTverskyCombo>
0.456 

> <ROCS_FitTversky>
1.705 

> <ROCS_FitColorTversky>
0.688 

> <ROCS_FitTverskyCombo>
2.393 

> <ROCS_ColorScore>
-5.030

> <ROCS_Overlap>
2019.739

> <ROCS_Rank>
279                 

$$$$
untitled-dbase-23837_3
  -OEChem-11132313473D

 44 47  0     1  0  0  0  0  0999 V2000
   11.5190   10.7655   21.4801 C   0  0  0  0  0  0  0  0  0  0  0  0
    8.8642    9.3208   24.4378 C   0  0  0  0  0  0  0  0  0  0  0  0
   11.2253    9.3353   21.9428 C   0  0  0  0  0  0  0  0  0  0  0  0
    7.6799   10.0781   25.0176 C   0  0  0  0  0  0  0  0  0  0  0  0
   11.1900   11.7875   22.5633 C   0  0  1  0  0  0  0  0  0  0  0  0
   10.1462   10.1482   24.1646 C   0  0  1  0  0  0  0  0  0  0  0  0
   11.1558    9.1514   23.4698 C   0  0  2  0  0  0  0  0  0  0  0  0
   11.3110   13.2699   22.1616 C   0  0  2  0  0  0  0  0  0  0  0  0
    9.4282   12.7119   24.0631 C   0  0  2  0  0  0  0  0  0  0  0  0
   11.2218   14.1237   23.4698 C   0  0  2  0  0  0  0  0  0  0  0  0
    9.8741   11.4487   23.3106 C   0  0  1  0  0  0  0  0  0  0  0  0
    7.5045   11.4823   24.4480 C   0  0  1  0  0  0  0  0  0  0  0  0
   12.5463    9.1683   24.1189 C   0  0  0  0  0  0  0  0  0  0  0  0
   10.3567   13.7015   21.0426 C   0  0  0  0  0  0  0  0  0  0  0  0
    6.1523   12.0446   24.8934 C   0  0  0  0  0  0  0  0  0  0  0  0
   10.5487   13.4378   24.5486 O   0  0  0  0  0  0  0  0  0  0  0  0
    8.4942   12.3320   25.0541 O   0  0  0  0  0  0  0  0  0  0  0  0
    8.7985   11.1094   22.4170 O   0  0  0  0  0  0  0  0  0  0  0  0
    7.4848   11.4974   23.0031 O   0  0  0  0  0  0  0  0  0  0  0  0
   10.6446   15.3995   23.2177 O   0  0  0  0  0  0  0  0  0  0  0  0
   12.5893   10.8384   21.2018 H   0  0  0  0  0  0  0  0  0  0  0  0
   10.9627   10.9775   20.5456 H   0  0  0  0  0  0  0  0  0  0  0  0
    9.1362    8.5165   25.1415 H   0  0  0  0  0  0  0  0  0  0  0  0
    8.5397    8.7772   23.5420 H   0  0  0  0  0  0  0  0  0  0  0  0
   10.2868    9.0001   21.4825 H   0  0  0  0  0  0  0  0  0  0  0  0
   12.0126    8.6826   21.5395 H   0  0  0  0  0  0  0  0  0  0  0  0
    6.7534    9.4863   24.8935 H   0  0  0  0  0  0  0  0  0  0  0  0
    7.8511   10.1319   26.1094 H   0  0  0  0  0  0  0  0  0  0  0  0
   12.0247   11.6955   23.2983 H   0  0  0  0  0  0  0  0  0  0  0  0
   10.5246   10.3824   25.1348 H   0  0  0  0  0  0  0  0  0  0  0  0
   10.7507    8.1136   23.6558 H   0  0  0  0  0  0  0  0  0  0  0  0
   12.3158   13.4345   21.7548 H   0  0  0  0  0  0  0  0  0  0  0  0
    8.8706   13.3934   23.4300 H   0  0  0  0  0  0  0  0  0  0  0  0
   12.2432   14.2938   23.8283 H   0  0  0  0  0  0  0  0  0  0  0  0
   12.9995   10.1454   23.9777 H   0  0  0  0  0  0  0  0  0  0  0  0
   13.1705    8.4091   23.6565 H   0  0  0  0  0  0  0  0  0  0  0  0
   12.4520    8.9625   25.1814 H   0  0  0  0  0  0  0  0  0  0  0  0
    9.3284   13.5682   21.3692 H   0  0  0  0  0  0  0  0  0  0  0  0
   10.5353   13.0957   20.1578 H   0  0  0  0  0  0  0  0  0  0  0  0
   10.5261   14.7484   20.8032 H   0  0  0  0  0  0  0  0  0  0  0  0
    6.0194   13.0472   24.4907 H   0  0  0  0  0  0  0  0  0  0  0  0
    6.1112   12.0881   25.9803 H   0  0  0  0  0  0  0  0  0  0  0  0
    5.3497   11.4048   24.5308 H   0  0  0  0  0  0  0  0  0  0  0  0
   10.6224   15.8675   24.0674 H   0  0  0  0  0  0  0  0  0  0  0  0
  1  3  1  0  0  0  0
  1  5  1  1  0  0  0
  2  4  1  0  0  0  0
  2  6  1  1  0  0  0
  3  7  1  0  0  0  0
  4 12  1  0  0  0  0
  5  8  1  0  0  0  0
  5 11  1  0  0  0  0
  6  7  1  0  0  0  0
  6 11  1  0  0  0  0
  7 13  1  6  0  0  0
  8 10  1  0  0  0  0
  8 14  1  1  0  0  0
  9 11  1  0  0  0  0
  9 16  1  6  0  0  0
  9 17  1  0  0  0  0
 10 16  1  0  0  0  0
 10 20  1  1  0  0  0
 11 18  1  1  0  0  0
 12 15  1  0  0  0  0
 12 17  1  0  0  0  0
 12 19  1  0  0  0  0
 18 19  1  0  0  0  0
  1 21  1  0  0  0  0
  1 22  1  0  0  0  0
  2 23  1  0  0  0  0
  2 24  1  0  0  0  0
  3 25  1  0  0  0  0
  3 26  1  0  0  0  0
  4 27  1  0  0  0  0
  4 28  1  0  0  0  0
  5 29  1  0  0  0  0
  6 30  1  0  0  0  0
  7 31  1  0  0  0  0
  8 32  1  0  0  0  0
  9 33  1  0  0  0  0
 10 34  1  0  0  0  0
 13 35  1  0  0  0  0
 13 36  1  0  0  0  0
 13 37  1  0  0  0  0
 14 38  1  0  0  0  0
 14 39  1  0  0  0  0
 14 40  1  0  0  0  0
 15 41  1  0  0  0  0
 15 42  1  0  0  0  0
 15 43  1  0  0  0  0
 20 44  1  0  0  0  0
M  END
> <id>
EN300-27122031

> <smiles>
C[C@@H]1CC[C@H]2[C@@H](C)[C@@H](O)O[C@@H]3OC4(C)CC[C@@H]1[C@]23OO4

> <IUPAC Name>
(4S,5R,8S,9R,10S,12R,13S)-1,5,9-trimethyl-11,14,15,16-tetraoxatetracyclo[10.3.1.0?,.0?,]hexadecan-10-ol

> <URL>
https://www.enaminestore.com/catalog/EN300-27122031

> <ROCS_ShapeQuery>
A71EV2A-x0451_0A_A71EV2A-x0310_0A_A71EV2A-x0416_0A_peptide

> <ROCS_TanimotoCombo>
0.485 

> <ROCS_ShapeTanimoto>
0.310 

> <ROCS_ColorTanimoto>
0.174 

> <ROCS_RefTversky>
0.279 

> <ROCS_RefColorTversky>
0.210 

> <ROCS_RefTverskyCombo>
0.489 

> <ROCS_FitTversky>
1.573 

> <ROCS_FitColorTversky>
0.506 

> <ROCS_FitTverskyCombo>
2.079 

> <ROCS_ColorScore>
-6.449

> <ROCS_Overlap>
1935.408

> <ROCS_Rank>
280                 

$$$$
untitled-dbase-11722_3
  -OEChem-11132313473D

 35 36  0     0  0  0  0  0  0999 V2000
    8.6170    8.5698   23.0984 C   0  0  0  0  0  0  0  0  0  0  0  0
    8.4926    7.4275   22.7499 C   0  0  0  0  0  0  0  0  0  0  0  0
    6.8486   10.2992   25.2147 C   0  0  0  0  0  0  0  0  0  0  0  0
    6.2729   11.2526   26.0569 C   0  0  0  0  0  0  0  0  0  0  0  0
    7.9156   12.9001   25.3692 C   0  0  0  0  0  0  0  0  0  0  0  0
    9.7403   10.7747   23.0503 C   0  0  0  0  0  0  0  0  0  0  0  0
    8.7651    9.9256   23.5102 C   0  0  0  0  0  0  0  0  0  0  0  0
    7.9731   10.6443   24.4361 C   0  0  0  0  0  0  0  0  0  0  0  0
    8.4981   11.9412   24.5184 C   0  0  0  0  0  0  0  0  0  0  0  0
    6.8013   12.5351   26.1316 C   0  0  0  0  0  0  0  0  0  0  0  0
   10.4116   13.1336   23.4289 C   0  0  0  0  0  0  0  0  0  0  0  0
   12.9509   14.2089   22.7601 C   0  0  0  0  0  0  0  0  0  0  0  0
   12.2014   14.0011   20.3718 C   0  0  0  0  0  0  0  0  0  0  0  0
   10.9495   15.5018   21.9493 C   0  0  0  0  0  0  0  0  0  0  0  0
   11.7496   14.2069   21.8159 C   0  0  0  0  0  0  0  0  0  0  0  0
    9.5954   12.0121   23.6534 N   0  0  0  0  0  0  0  0  0  0  0  0
    8.3443    6.0600   22.3326 N   0  0  0  0  0  0  0  0  0  0  0  0
   10.6057   13.9675   24.2979 O   0  0  0  0  0  0  0  0  0  0  0  0
   10.9001   13.1089   22.1624 O   0  0  0  0  0  0  0  0  0  0  0  0
    6.2366   13.4369   26.9465 F   0  0  0  0  0  0  0  0  0  0  0  0
    6.4253    9.2996   25.1667 H   0  0  0  0  0  0  0  0  0  0  0  0
    5.4070   10.9883   26.6573 H   0  0  0  0  0  0  0  0  0  0  0  0
    8.3048   13.9088   25.4503 H   0  0  0  0  0  0  0  0  0  0  0  0
   10.5318   10.5933   22.3343 H   0  0  0  0  0  0  0  0  0  0  0  0
   12.6308   14.3564   23.7978 H   0  0  0  0  0  0  0  0  0  0  0  0
   13.5132   13.2714   22.6996 H   0  0  0  0  0  0  0  0  0  0  0  0
   13.6309   15.0360   22.5260 H   0  0  0  0  0  0  0  0  0  0  0  0
   11.3427   13.9989   19.6908 H   0  0  0  0  0  0  0  0  0  0  0  0
   12.6932   13.0290   20.2514 H   0  0  0  0  0  0  0  0  0  0  0  0
   12.8966   14.7834   20.0506 H   0  0  0  0  0  0  0  0  0  0  0  0
   10.0878   15.5006   21.2721 H   0  0  0  0  0  0  0  0  0  0  0  0
   10.5856   15.6476   22.9715 H   0  0  0  0  0  0  0  0  0  0  0  0
   11.5607   16.3679   21.6704 H   0  0  0  0  0  0  0  0  0  0  0  0
    7.4208    5.6632   22.2337 H   0  0  0  0  0  0  0  0  0  0  0  0
    9.1645    5.5023   22.1412 H   0  0  0  0  0  0  0  0  0  0  0  0
  1  2  3  0  0  0  0
  1  7  1  0  0  0  0
  2 17  1  0  0  0  0
  3  4  1  0  0  0  0
  3  8  2  0  0  0  0
  4 10  2  0  0  0  0
  5  9  2  0  0  0  0
  5 10  1  0  0  0  0
  6  7  2  0  0  0  0
  6 16  1  0  0  0  0
  7  8  1  0  0  0  0
  8  9  1  0  0  0  0
  9 16  1  0  0  0  0
 10 20  1  0  0  0  0
 11 16  1  0  0  0  0
 11 18  2  0  0  0  0
 11 19  1  0  0  0  0
 12 15  1  0  0  0  0
 13 15  1  0  0  0  0
 14 15  1  0  0  0  0
 15 19  1  0  0  0  0
  3 21  1  0  0  0  0
  4 22  1  0  0  0  0
  5 23  1  0  0  0  0
  6 24  1  0  0  0  0
 12 25  1  0  0  0  0
 12 26  1  0  0  0  0
 12 27  1  0  0  0  0
 13 28  1  0  0  0  0
 13 29  1  0  0  0  0
 13 30  1  0  0  0  0
 14 31  1  0  0  0  0
 14 32  1  0  0  0  0
 14 33  1  0  0  0  0
 17 34  1  0  0  0  0
 17 35  1  0  0  0  0
M  END
> <id>
EN300-624594

> <smiles>
CC(C)(C)OC(=O)N1C=C(C#CN)C=2C=CC(F)=CC12

> <MDLNUMBER>
MFCD30752587

> <IUPAC Name>
tert-butyl 3-(2-aminoethynyl)-6-fluoro-1H-indole-1-carboxylate

> <CAS>
2137743-18-9

> <URL>
https://www.enaminestore.com/catalog/EN300-624594

> <ROCS_ShapeQuery>
A71EV2A-x0451_0A_A71EV2A-x0310_0A_A71EV2A-x0416_0A_peptide

> <ROCS_TanimotoCombo>
0.485 

> <ROCS_ShapeTanimoto>
0.351 

> <ROCS_ColorTanimoto>
0.133 

> <ROCS_RefTversky>
0.306 

> <ROCS_RefColorTversky>
0.146 

> <ROCS_RefTverskyCombo>
0.452 

> <ROCS_FitTversky>
1.736 

> <ROCS_FitColorTversky>
0.608 

> <ROCS_FitTverskyCombo>
2.344 

> <ROCS_ColorScore>
-4.440

> <ROCS_Overlap>
2121.986

> <ROCS_Rank>
281                 

$$$$
untitled-dbase-43591_14
  -OEChem-11132313473D

 32 33  0     0  0  0  0  0  0999 V2000
    7.7062   13.1788   25.1793 C   0  0  0  0  0  0  0  0  0  0  0  0
    6.5097   12.9012   25.8493 C   0  0  0  0  0  0  0  0  0  0  0  0
    6.7105   10.5358   25.3527 C   0  0  0  0  0  0  0  0  0  0  0  0
    7.9145   10.7985   24.6760 C   0  0  0  0  0  0  0  0  0  0  0  0
    8.3955   12.1044   24.5964 C   0  0  0  0  0  0  0  0  0  0  0  0
    6.0177   11.6011   25.9357 C   0  0  0  0  0  0  0  0  0  0  0  0
    8.8658   10.0272   23.9862 C   0  0  0  0  0  0  0  0  0  0  0  0
   10.4507   13.0596   23.5211 C   0  0  0  0  0  0  0  0  0  0  0  0
   12.3811   14.7794   22.3555 C   0  0  0  0  0  0  0  0  0  0  0  0
   12.1228   13.3667   20.2946 C   0  0  0  0  0  0  0  0  0  0  0  0
   10.1568   14.6513   21.1848 C   0  0  0  0  0  0  0  0  0  0  0  0
   11.4318   13.8929   21.5507 C   0  0  0  0  0  0  0  0  0  0  0  0
    9.8705   10.7539   23.5026 N   0  0  0  0  0  0  0  0  0  0  0  0
    9.5806   12.0258   23.8769 N   0  0  0  0  0  0  0  0  0  0  0  0
    8.7344    8.6812   23.8507 N   0  0  0  0  0  0  0  0  0  0  0  0
   10.5716   14.0530   24.2190 O   0  0  0  0  0  0  0  0  0  0  0  0
   11.0753   12.7626   22.3521 O   0  0  0  0  0  0  0  0  0  0  0  0
    4.3954   11.2700   26.8514 Br  0  0  0  0  0  0  0  0  0  0  0  0
    8.0735   14.1972   25.1224 H   0  0  0  0  0  0  0  0  0  0  0  0
    5.9680   13.7279   26.3045 H   0  0  0  0  0  0  0  0  0  0  0  0
    6.3305    9.5199   25.4181 H   0  0  0  0  0  0  0  0  0  0  0  0
   11.8888   15.1590   23.2579 H   0  0  0  0  0  0  0  0  0  0  0  0
   13.2840   14.2367   22.6540 H   0  0  0  0  0  0  0  0  0  0  0  0
   12.6821   15.6586   21.7744 H   0  0  0  0  0  0  0  0  0  0  0  0
   11.4453   12.7301   19.7142 H   0  0  0  0  0  0  0  0  0  0  0  0
   12.9849   12.7423   20.5559 H   0  0  0  0  0  0  0  0  0  0  0  0
   12.4680   14.1827   19.6515 H   0  0  0  0  0  0  0  0  0  0  0  0
    9.4756   14.0157   20.6076 H   0  0  0  0  0  0  0  0  0  0  0  0
    9.6279   15.0047   22.0759 H   0  0  0  0  0  0  0  0  0  0  0  0
   10.3858   15.5152   20.5503 H   0  0  0  0  0  0  0  0  0  0  0  0
    9.4043    8.1261   23.3071 H   0  0  0  0  0  0  0  0  0  0  0  0
    7.9116    8.1817   24.2059 H   0  0  0  0  0  0  0  0  0  0  0  0
  1  2  1  0  0  0  0
  1  5  2  0  0  0  0
  2  6  2  0  0  0  0
  3  4  2  0  0  0  0
  3  6  1  0  0  0  0
  4  5  1  0  0  0  0
  4  7  1  0  0  0  0
  5 14  1  0  0  0  0
  6 18  1  0  0  0  0
  7 13  2  0  0  0  0
  7 15  1  0  0  0  0
  8 14  1  0  0  0  0
  8 16  2  0  0  0  0
  8 17  1  0  0  0  0
  9 12  1  0  0  0  0
 10 12  1  0  0  0  0
 11 12  1  0  0  0  0
 12 17  1  0  0  0  0
 13 14  1  0  0  0  0
  1 19  1  0  0  0  0
  2 20  1  0  0  0  0
  3 21  1  0  0  0  0
  9 22  1  0  0  0  0
  9 23  1  0  0  0  0
  9 24  1  0  0  0  0
 10 25  1  0  0  0  0
 10 26  1  0  0  0  0
 10 27  1  0  0  0  0
 11 28  1  0  0  0  0
 11 29  1  0  0  0  0
 11 30  1  0  0  0  0
 15 31  1  0  0  0  0
 15 32  1  0  0  0  0
M  END
> <id>
EN300-12464401

> <smiles>
CC(C)(C)OC(=O)N1N=C(N)C=2C=C(Br)C=CC12

> <MDLNUMBER>
MFCD24470832

> <IUPAC Name>
tert-butyl 3-amino-5-bromo-1H-indazole-1-carboxylate

> <CAS>
1093307-38-0

> <Purity>
95

> <URL>
https://www.enaminestore.com/catalog/EN300-12464401

> <ROCS_ShapeQuery>
A71EV2A-x0451_0A_A71EV2A-x0310_0A_A71EV2A-x0416_0A_peptide

> <ROCS_TanimotoCombo>
0.485 

> <ROCS_ShapeTanimoto>
0.337 

> <ROCS_ColorTanimoto>
0.147 

> <ROCS_RefTversky>
0.293 

> <ROCS_RefColorTversky>
0.167 

> <ROCS_RefTverskyCombo>
0.461 

> <ROCS_FitTversky>
1.790 

> <ROCS_FitColorTversky>
0.554 

> <ROCS_FitTverskyCombo>
2.344 

> <ROCS_ColorScore>
-5.105

> <ROCS_Overlap>
2035.611

> <ROCS_Rank>
282                 

$$$$
untitled-dbase-22950_51
  -OEChem-11132313473D

 36 37  0     1  0  0  0  0  0999 V2000
   10.3117   13.2032   23.3992 C   0  0  0  0  0  0  0  0  0  0  0  0
    9.0379    9.7317   22.6718 C   0  0  0  0  0  0  0  0  0  0  0  0
   10.0292   10.8785   22.6720 C   0  0  0  0  0  0  0  0  0  0  0  0
    6.8540   10.3784   24.8722 C   0  0  0  0  0  0  0  0  0  0  0  0
    7.6534   12.5233   24.9344 C   0  0  0  0  0  0  0  0  0  0  0  0
    8.3665   10.2211   24.9371 C   0  0  2  0  0  0  0  0  0  0  0  0
    8.9064   11.6512   24.8003 C   0  0  1  0  0  0  0  0  0  0  0  0
   12.5780   14.7559   22.5969 C   0  0  0  0  0  0  0  0  0  0  0  0
   11.5370   14.7541   20.3109 C   0  0  0  0  0  0  0  0  0  0  0  0
   10.3281   15.8243   22.2349 C   0  0  0  0  0  0  0  0  0  0  0  0
   11.2678   14.6956   21.8130 C   0  0  0  0  0  0  0  0  0  0  0  0
    8.8822    9.2151   24.0223 N   0  0  0  0  0  0  0  0  0  0  0  0
    9.6791   11.9606   23.5864 N   0  0  0  0  0  0  0  0  0  0  0  0
   10.5508   14.0000   24.3052 O   0  0  0  0  0  0  0  0  0  0  0  0
    6.5954   11.6794   25.3999 O   0  0  0  0  0  0  0  0  0  0  0  0
   10.6292   13.4438   22.0885 O   0  0  0  0  0  0  0  0  0  0  0  0
    8.0680   10.0846   22.3104 H   0  0  0  0  0  0  0  0  0  0  0  0
    9.3620    8.9370   21.9921 H   0  0  0  0  0  0  0  0  0  0  0  0
   11.0365   10.5024   22.9117 H   0  0  0  0  0  0  0  0  0  0  0  0
   10.1015   11.3249   21.6660 H   0  0  0  0  0  0  0  0  0  0  0  0
    6.4400   10.2902   23.8725 H   0  0  0  0  0  0  0  0  0  0  0  0
    6.3675    9.6547   25.5227 H   0  0  0  0  0  0  0  0  0  0  0  0
    7.8005   13.3496   25.6402 H   0  0  0  0  0  0  0  0  0  0  0  0
    7.3365   12.9500   23.9742 H   0  0  0  0  0  0  0  0  0  0  0  0
    8.6238    9.8295   26.0088 H   0  0  0  0  0  0  0  0  0  0  0  0
    9.5481   11.8537   25.6826 H   0  0  0  0  0  0  0  0  0  0  0  0
   12.3891   14.7142   23.6755 H   0  0  0  0  0  0  0  0  0  0  0  0
   13.2467   13.9314   22.3288 H   0  0  0  0  0  0  0  0  0  0  0  0
   13.1017   15.7007   22.4111 H   0  0  0  0  0  0  0  0  0  0  0  0
   10.5996   14.7111   19.7446 H   0  0  0  0  0  0  0  0  0  0  0  0
   12.1328   13.8930   19.9874 H   0  0  0  0  0  0  0  0  0  0  0  0
   12.0694   15.6689   20.0312 H   0  0  0  0  0  0  0  0  0  0  0  0
    9.3882   15.7812   21.6728 H   0  0  0  0  0  0  0  0  0  0  0  0
   10.0942   15.7763   23.3033 H   0  0  0  0  0  0  0  0  0  0  0  0
   10.7727   16.8026   22.0193 H   0  0  0  0  0  0  0  0  0  0  0  0
    8.2486    8.4048   23.9990 H   0  0  0  0  0  0  0  0  0  0  0  0
  1 13  1  0  0  0  0
  1 14  2  0  0  0  0
  1 16  1  0  0  0  0
  2  3  1  0  0  0  0
  2 12  1  0  0  0  0
  3 13  1  0  0  0  0
  4  6  1  6  0  0  0
  4 15  1  0  0  0  0
  5  7  1  6  0  0  0
  5 15  1  0  0  0  0
  6  7  1  0  0  0  0
  6 12  1  0  0  0  0
  7 13  1  0  0  0  0
  8 11  1  0  0  0  0
  9 11  1  0  0  0  0
 10 11  1  0  0  0  0
 11 16  1  0  0  0  0
  2 17  1  0  0  0  0
  2 18  1  0  0  0  0
  3 19  1  0  0  0  0
  3 20  1  0  0  0  0
  4 21  1  0  0  0  0
  4 22  1  0  0  0  0
  5 23  1  0  0  0  0
  5 24  1  0  0  0  0
  6 25  1  0  0  0  0
  7 26  1  0  0  0  0
  8 27  1  0  0  0  0
  8 28  1  0  0  0  0
  8 29  1  0  0  0  0
  9 30  1  0  0  0  0
  9 31  1  0  0  0  0
  9 32  1  0  0  0  0
 10 33  1  0  0  0  0
 10 34  1  0  0  0  0
 10 35  1  0  0  0  0
 12 36  1  0  0  0  0
M  END
> <id>
EN300-7445115

> <smiles>
CC(C)(C)OC(=O)N1CCN[C@@H]2COC[C@@H]21 |&1:11,15,r|

> <MDLNUMBER>
MFCD20230882

> <IUPAC Name>
rac-tert-butyl (4aR,7aS)-octahydrofuro[3,4-b]piperazine-1-carboxylate

> <CAS>
1314393-75-3

> <Purity>
95

> <URL>
https://www.enaminestore.com/catalog/EN300-7445115

> <ROCS_ShapeQuery>
A71EV2A-x0451_0A_A71EV2A-x0310_0A_A71EV2A-x0416_0A_peptide

> <ROCS_TanimotoCombo>
0.485 

> <ROCS_ShapeTanimoto>
0.313 

> <ROCS_ColorTanimoto>
0.171 

> <ROCS_RefTversky>
0.274 

> <ROCS_RefColorTversky>
0.186 

> <ROCS_RefTverskyCombo>
0.460 

> <ROCS_FitTversky>
1.835 

> <ROCS_FitColorTversky>
0.685 

> <ROCS_FitTverskyCombo>
2.520 

> <ROCS_ColorScore>
-5.666

> <ROCS_Overlap>
1900.422

> <ROCS_Rank>
283                 

$$$$
untitled-dbase-23841_3
  -OEChem-11132313473D

 26 28  0     1  0  0  0  0  0999 V2000
   10.5251   13.3308   23.2771 C   0  0  0  0  0  0  0  0  0  0  0  0
    6.7039   10.0546   25.0384 C   0  0  0  0  0  0  0  0  0  0  0  0
    6.6557   11.5219   25.5118 C   0  0  0  0  0  0  0  0  0  0  0  0
    8.8985   10.7502   25.6268 C   0  0  0  0  0  0  0  0  0  0  0  0
    9.7436   10.9559   22.7099 C   0  0  0  0  0  0  0  0  0  0  0  0
    8.1714    9.8884   24.5963 C   0  0  2  0  0  0  0  0  0  0  0  0
    8.1001   12.0038   25.2688 C   0  0  1  0  0  0  0  0  0  0  0  0
    8.3391   10.6712   23.2761 C   0  0  1  0  0  0  0  0  0  0  0  0
    8.2658   12.1367   23.7467 C   0  0  2  0  0  0  0  0  0  0  0  0
    9.6332   12.2882   23.2816 N   0  0  0  0  0  0  0  0  0  0  0  0
   11.3552   13.3670   22.1766 N   0  0  0  0  0  0  0  0  0  0  0  0
   10.5902   14.1702   24.1765 O   0  0  0  0  0  0  0  0  0  0  0  0
    6.4665    9.3831   25.8710 H   0  0  0  0  0  0  0  0  0  0  0  0
    5.9931    9.8670   24.2274 H   0  0  0  0  0  0  0  0  0  0  0  0
    5.9155   12.1034   24.9525 H   0  0  0  0  0  0  0  0  0  0  0  0
    6.4007   11.5660   26.5765 H   0  0  0  0  0  0  0  0  0  0  0  0
    8.7408   10.4170   26.6584 H   0  0  0  0  0  0  0  0  0  0  0  0
    9.9726   10.8428   25.4435 H   0  0  0  0  0  0  0  0  0  0  0  0
   10.5564   10.3560   23.1269 H   0  0  0  0  0  0  0  0  0  0  0  0
    9.8062   10.9717   21.6180 H   0  0  0  0  0  0  0  0  0  0  0  0
    8.5018    8.8499   24.5321 H   0  0  0  0  0  0  0  0  0  0  0  0
    8.3638   12.9061   25.8251 H   0  0  0  0  0  0  0  0  0  0  0  0
    7.6165   10.3872   22.5024 H   0  0  0  0  0  0  0  0  0  0  0  0
    7.5600   12.7852   23.2189 H   0  0  0  0  0  0  0  0  0  0  0  0
   11.2595   12.6491   21.4661 H   0  0  0  0  0  0  0  0  0  0  0  0
   12.0583   14.0874   22.0540 H   0  0  0  0  0  0  0  0  0  0  0  0
  1 10  1  0  0  0  0
  1 11  1  0  0  0  0
  1 12  2  0  0  0  0
  2  3  1  0  0  0  0
  2  6  1  6  0  0  0
  3  7  1  6  0  0  0
  4  6  1  0  0  0  0
  4  7  1  0  0  0  0
  5  8  1  1  0  0  0
  5 10  1  0  0  0  0
  6  8  1  0  0  0  0
  7  9  1  0  0  0  0
  8  9  1  0  0  0  0
  9 10  1  1  0  0  0
  2 13  1  0  0  0  0
  2 14  1  0  0  0  0
  3 15  1  0  0  0  0
  3 16  1  0  0  0  0
  4 17  1  0  0  0  0
  4 18  1  0  0  0  0
  5 19  1  0  0  0  0
  5 20  1  0  0  0  0
  6 21  1  0  0  0  0
  7 22  1  0  0  0  0
  8 23  1  0  0  0  0
  9 24  1  0  0  0  0
 11 25  1  0  0  0  0
 11 26  1  0  0  0  0
M  END
> <id>
EN300-7541941

> <smiles>
NC(=O)N1C[C@@H]2[C@H]1[C@H]3CC[C@@H]2C3 |&1:5,6,7,10,r|

> <IUPAC Name>
rac-(1R,2S,5S,6S)-3-azatricyclo[4.2.1.0,2,5]nonane-3-carboxamide

> <CAS>
2408938-05-4

> <Purity>
95

> <URL>
https://www.enaminestore.com/catalog/EN300-7541941

> <ROCS_ShapeQuery>
A71EV2A-x0451_0A_A71EV2A-x0310_0A_A71EV2A-x0416_0A_peptide

> <ROCS_TanimotoCombo>
0.484 

> <ROCS_ShapeTanimoto>
0.246 

> <ROCS_ColorTanimoto>
0.239 

> <ROCS_RefTversky>
0.222 

> <ROCS_RefColorTversky>
0.284 

> <ROCS_RefTverskyCombo>
0.506 

> <ROCS_FitTversky>
1.736 

> <ROCS_FitColorTversky>
0.602 

> <ROCS_FitTverskyCombo>
2.338 

> <ROCS_ColorScore>
-8.738

> <ROCS_Overlap>
1539.855

> <ROCS_Rank>
284                 

$$$$
untitled-dbase-43649_7
  -OEChem-11132313473D

 44 47  0     1  0  0  0  0  0999 V2000
    7.3591   14.6045   24.8565 C   0  0  0  0  0  0  0  0  0  0  0  0
    7.6391   10.2321   25.1243 C   0  0  0  0  0  0  0  0  0  0  0  0
    6.2128   13.8585   25.5331 C   0  0  0  0  0  0  0  0  0  0  0  0
    8.5594    9.5000   24.1397 C   0  0  0  0  0  0  0  0  0  0  0  0
    7.8122   13.8638   23.5920 C   0  0  1  0  0  0  0  0  0  0  0  0
    7.1479   11.6331   24.6873 C   0  0  1  0  0  0  0  0  0  0  0  0
    6.5850   12.4187   25.9063 C   0  0  2  0  0  0  0  0  0  0  0  0
    8.9225   14.5700   22.7636 C   0  0  2  0  0  0  0  0  0  0  0  0
    9.5806   12.4324   24.7098 C   0  0  2  0  0  0  0  0  0  0  0  0
   10.3559   14.1517   23.1638 C   0  0  1  0  0  0  0  0  0  0  0  0
    8.2479   12.4188   23.9150 C   0  0  2  0  0  0  0  0  0  0  0  0
    9.7998   10.3020   23.6866 C   0  0  2  0  0  0  0  0  0  0  0  0
    5.3636   11.7280   26.5253 C   0  0  0  0  0  0  0  0  0  0  0  0
    8.7885   16.0970   22.7506 C   0  0  0  0  0  0  0  0  0  0  0  0
   10.9438    9.3382   23.3693 C   0  0  0  0  0  0  0  0  0  0  0  0
   10.4461   13.5362   24.4377 O   0  0  0  0  0  0  0  0  0  0  0  0
   10.2727   11.1802   24.7010 O   0  0  0  0  0  0  0  0  0  0  0  0
    8.3154   11.7554   22.6307 O   0  0  0  0  0  0  0  0  0  0  0  0
    9.5640   11.0292   22.4868 O   0  0  0  0  0  0  0  0  0  0  0  0
   10.9795   13.3703   22.1466 O   0  0  0  0  0  0  0  0  0  0  0  0
    7.0037   15.6050   24.6061 H   0  0  0  0  0  0  0  0  0  0  0  0
    8.1785   14.7186   25.5667 H   0  0  0  0  0  0  0  0  0  0  0  0
    6.7704    9.5883   25.3121 H   0  0  0  0  0  0  0  0  0  0  0  0
    8.1618   10.3126   26.0870 H   0  0  0  0  0  0  0  0  0  0  0  0
    5.9152   14.4134   26.4348 H   0  0  0  0  0  0  0  0  0  0  0  0
    5.3365   13.8596   24.8673 H   0  0  0  0  0  0  0  0  0  0  0  0
    8.8831    8.5761   24.6514 H   0  0  0  0  0  0  0  0  0  0  0  0
    7.9797    9.1640   23.2616 H   0  0  0  0  0  0  0  0  0  0  0  0
    6.9253   13.7942   22.9235 H   0  0  0  0  0  0  0  0  0  0  0  0
    6.3311   11.4564   23.9891 H   0  0  0  0  0  0  0  0  0  0  0  0
    7.3620   12.4573   26.6879 H   0  0  0  0  0  0  0  0  0  0  0  0
    8.7828   14.2613   21.7049 H   0  0  0  0  0  0  0  0  0  0  0  0
    9.3129   12.5603   25.8390 H   0  0  0  0  0  0  0  0  0  0  0  0
   11.0081   15.1087   23.2180 H   0  0  0  0  0  0  0  0  0  0  0  0
    4.5684   11.6674   25.7872 H   0  0  0  0  0  0  0  0  0  0  0  0
    5.0188   12.3004   27.3821 H   0  0  0  0  0  0  0  0  0  0  0  0
    5.6370   10.7263   26.8456 H   0  0  0  0  0  0  0  0  0  0  0  0
    8.9137   16.4828   23.7594 H   0  0  0  0  0  0  0  0  0  0  0  0
    7.8048   16.3736   22.3789 H   0  0  0  0  0  0  0  0  0  0  0  0
    9.5511   16.5246   22.1042 H   0  0  0  0  0  0  0  0  0  0  0  0
   11.8208    9.8986   23.0492 H   0  0  0  0  0  0  0  0  0  0  0  0
   10.6444    8.6592   22.5724 H   0  0  0  0  0  0  0  0  0  0  0  0
   11.1951    8.7585   24.2561 H   0  0  0  0  0  0  0  0  0  0  0  0
   10.4267   12.5830   22.0270 H   0  0  0  0  0  0  0  0  0  0  0  0
  1  3  1  0  0  0  0
  1  5  1  1  0  0  0
  2  4  1  0  0  0  0
  2  6  1  1  0  0  0
  3  7  1  0  0  0  0
  4 12  1  0  0  0  0
  5  8  1  0  0  0  0
  5 11  1  0  0  0  0
  6  7  1  0  0  0  0
  6 11  1  0  0  0  0
  7 13  1  6  0  0  0
  8 10  1  0  0  0  0
  8 14  1  1  0  0  0
  9 11  1  0  0  0  0
  9 16  1  6  0  0  0
  9 17  1  0  0  0  0
 10 16  1  0  0  0  0
 10 20  1  0  0  0  0
 11 18  1  6  0  0  0
 12 15  1  1  0  0  0
 12 17  1  0  0  0  0
 12 19  1  0  0  0  0
 18 19  1  0  0  0  0
  1 21  1  0  0  0  0
  1 22  1  0  0  0  0
  2 23  1  0  0  0  0
  2 24  1  0  0  0  0
  3 25  1  0  0  0  0
  3 26  1  0  0  0  0
  4 27  1  0  0  0  0
  4 28  1  0  0  0  0
  5 29  1  0  0  0  0
  6 30  1  0  0  0  0
  7 31  1  0  0  0  0
  8 32  1  0  0  0  0
  9 33  1  0  0  0  0
 10 34  1  0  0  0  0
 13 35  1  0  0  0  0
 13 36  1  0  0  0  0
 13 37  1  0  0  0  0
 14 38  1  0  0  0  0
 14 39  1  0  0  0  0
 14 40  1  0  0  0  0
 15 41  1  0  0  0  0
 15 42  1  0  0  0  0
 15 43  1  0  0  0  0
 20 44  1  0  0  0  0
M  END
> <id>
EN300-20600173

> <smiles>
C[C@@H]1CC[C@H]2[C@@H](C)C(O)O[C@@H]3O[C@@]4(C)CC[C@@H]1[C@@]23OO4

> <MDLNUMBER>
MFCD28384156

> <IUPAC Name>
(1R,4S,5R,8S,9R,12R,13R)-1,5,9-trimethyl-11,14,15,16-tetraoxatetracyclo[10.3.1.0^{4,13}.0^{8,13}]hexadecan-10-ol

> <CAS>
131175-87-6

> <URL>
https://www.enaminestore.com/catalog/EN300-20600173

> <ROCS_ShapeQuery>
A71EV2A-x0451_0A_A71EV2A-x0310_0A_A71EV2A-x0416_0A_peptide

> <ROCS_TanimotoCombo>
0.484 

> <ROCS_ShapeTanimoto>
0.303 

> <ROCS_ColorTanimoto>
0.182 

> <ROCS_RefTversky>
0.274 

> <ROCS_RefColorTversky>
0.218 

> <ROCS_RefTverskyCombo>
0.491 

> <ROCS_FitTversky>
1.541 

> <ROCS_FitColorTversky>
0.522 

> <ROCS_FitTverskyCombo>
2.064 

> <ROCS_ColorScore>
-6.686

> <ROCS_Overlap>
1900.533

> <ROCS_Rank>
285                 

$$$$
untitled-dbase-29330_54
  -OEChem-11132313473D

 38 39  0     1  0  0  0  0  0999 V2000
   10.4885   12.8254   23.6222 C   0  0  0  0  0  0  0  0  0  0  0  0
    6.6510   12.0469   26.1692 C   0  0  0  0  0  0  0  0  0  0  0  0
    6.4697   10.7204   25.4306 C   0  0  0  0  0  0  0  0  0  0  0  0
    8.0573   12.5077   25.8113 C   0  0  0  0  0  0  0  0  0  0  0  0
    9.7414   10.4456   23.6174 C   0  0  0  0  0  0  0  0  0  0  0  0
    7.4534   10.7618   24.2585 C   0  0  1  0  0  0  0  0  0  0  0  0
    8.1689   12.1166   24.3420 C   0  0  2  0  0  0  0  0  0  0  0  0
    8.6102    9.7529   24.3688 C   0  0  1  0  0  0  0  0  0  0  0  0
   12.6673   14.4424   22.7233 C   0  0  0  0  0  0  0  0  0  0  0  0
   12.6855   12.9638   20.6928 C   0  0  0  0  0  0  0  0  0  0  0  0
   10.6600   14.3568   21.2075 C   0  0  0  0  0  0  0  0  0  0  0  0
   11.8232   13.5636   21.8013 C   0  0  0  0  0  0  0  0  0  0  0  0
    9.5285   11.8622   23.8845 N   0  0  0  0  0  0  0  0  0  0  0  0
    8.2756    8.4493   23.8227 N   0  0  0  0  0  0  0  0  0  0  0  0
   10.6103   13.8695   24.2590 O   0  0  0  0  0  0  0  0  0  0  0  0
   11.2904   12.4784   22.5684 O   0  0  0  0  0  0  0  0  0  0  0  0
    5.9163   12.7755   25.8056 H   0  0  0  0  0  0  0  0  0  0  0  0
    6.5108   11.9403   27.2489 H   0  0  0  0  0  0  0  0  0  0  0  0
    6.6708    9.8759   26.0989 H   0  0  0  0  0  0  0  0  0  0  0  0
    5.4371   10.6167   25.0806 H   0  0  0  0  0  0  0  0  0  0  0  0
    8.1916   13.5815   25.9714 H   0  0  0  0  0  0  0  0  0  0  0  0
    8.7930   11.9759   26.4268 H   0  0  0  0  0  0  0  0  0  0  0  0
   10.7372   10.1325   23.9464 H   0  0  0  0  0  0  0  0  0  0  0  0
    9.6730   10.3062   22.5317 H   0  0  0  0  0  0  0  0  0  0  0  0
    6.9366   10.6614   23.2957 H   0  0  0  0  0  0  0  0  0  0  0  0
    7.6916   12.8675   23.7012 H   0  0  0  0  0  0  0  0  0  0  0  0
    8.9071    9.6250   25.4135 H   0  0  0  0  0  0  0  0  0  0  0  0
   12.0520   14.8748   23.5203 H   0  0  0  0  0  0  0  0  0  0  0  0
   13.4844   13.8767   23.1829 H   0  0  0  0  0  0  0  0  0  0  0  0
   13.0978   15.2866   22.1726 H   0  0  0  0  0  0  0  0  0  0  0  0
   12.0839   12.3325   20.0289 H   0  0  0  0  0  0  0  0  0  0  0  0
   13.4648   12.3167   21.1115 H   0  0  0  0  0  0  0  0  0  0  0  0
   13.1669   13.7408   20.0902 H   0  0  0  0  0  0  0  0  0  0  0  0
   10.0543   13.7267   20.5461 H   0  0  0  0  0  0  0  0  0  0  0  0
   10.0093   14.7639   21.9881 H   0  0  0  0  0  0  0  0  0  0  0  0
   11.0276   15.1864   20.5928 H   0  0  0  0  0  0  0  0  0  0  0  0
    9.0768    7.8633   23.8864 H   0  0  0  0  0  0  0  0  0  0  0  0
    7.5249    8.0673   24.3519 H   0  0  0  0  0  0  0  0  0  0  0  0
  1 13  1  0  0  0  0
  1 15  2  0  0  0  0
  1 16  1  0  0  0  0
  2  3  1  0  0  0  0
  2  4  1  0  0  0  0
  3  6  1  0  0  0  0
  4  7  1  0  0  0  0
  5  8  1  0  0  0  0
  5 13  1  0  0  0  0
  6  7  1  0  0  0  0
  6  8  1  0  0  0  0
  7 13  1  0  0  0  0
  8 14  1  0  0  0  0
  9 12  1  0  0  0  0
 10 12  1  0  0  0  0
 11 12  1  0  0  0  0
 12 16  1  0  0  0  0
  2 17  1  0  0  0  0
  2 18  1  0  0  0  0
  3 19  1  0  0  0  0
  3 20  1  0  0  0  0
  4 21  1  0  0  0  0
  4 22  1  0  0  0  0
  5 23  1  0  0  0  0
  5 24  1  0  0  0  0
  6 25  1  0  0  0  0
  7 26  1  0  0  0  0
  8 27  1  0  0  0  0
  9 28  1  0  0  0  0
  9 29  1  0  0  0  0
  9 30  1  0  0  0  0
 10 31  1  0  0  0  0
 10 32  1  0  0  0  0
 10 33  1  0  0  0  0
 11 34  1  0  0  0  0
 11 35  1  0  0  0  0
 11 36  1  0  0  0  0
 14 37  1  0  0  0  0
 14 38  1  0  0  0  0
M  END
> <id>
EN300-37454380

> <smiles>
Cl.CC(C)(C)OC(=O)N1CC(N)C2CCCC21

> <IUPAC Name>
tert-butyl 3-amino-octahydrocyclopenta[b]pyrrole-1-carboxylate hydrochloride

> <CAS>
2803856-93-9

> <Purity>
95

> <URL>
https://www.enaminestore.com/catalog/EN300-37454380

> <ROCS_ShapeQuery>
A71EV2A-x0451_0A_A71EV2A-x0310_0A_A71EV2A-x0416_0A_peptide

> <ROCS_TanimotoCombo>
0.484 

> <ROCS_ShapeTanimoto>
0.303 

> <ROCS_ColorTanimoto>
0.181 

> <ROCS_RefTversky>
0.267 

> <ROCS_RefColorTversky>
0.191 

> <ROCS_RefTverskyCombo>
0.458 

> <ROCS_FitTversky>
1.797 

> <ROCS_FitColorTversky>
0.790 

> <ROCS_FitTverskyCombo>
2.587 

> <ROCS_ColorScore>
-5.800

> <ROCS_Overlap>
1851.468

> <ROCS_Rank>
286                 

$$$$
untitled-dbase-19816_28
  -OEChem-11132313473D

 39 42  0     1  0  0  0  0  0999 V2000
   12.7107   13.4060   22.8824 C   0  0  0  0  0  0  0  0  0  0  0  0
    8.9370   12.3556   24.6935 C   0  0  0  0  0  0  0  0  0  0  0  0
   11.7188   11.3161   23.7874 C   0  0  0  0  0  0  0  0  0  0  0  0
   10.5296   12.4735   22.0332 C   0  0  0  0  0  0  0  0  0  0  0  0
    9.4361   10.9203   24.9490 C   0  0  2  0  0  0  0  0  0  0  0  0
    8.3352   11.9883   23.3233 C   0  0  1  0  0  0  0  0  0  0  0  0
   10.3417   10.6715   23.7097 C   0  0  1  0  0  0  0  0  0  0  0  0
    9.5728   11.4187   22.5734 C   0  0  2  0  0  0  0  0  0  0  0  0
    8.1798   10.0820   24.7401 C   0  0  2  0  0  0  0  0  0  0  0  0
    7.4438   10.7961   23.6527 C   0  0  1  0  0  0  0  0  0  0  0  0
   13.7231   16.0518   22.5029 C   0  0  0  0  0  0  0  0  0  0  0  0
   12.8703   15.8423   20.1496 C   0  0  0  0  0  0  0  0  0  0  0  0
   11.2621   15.7418   22.0762 C   0  0  0  0  0  0  0  0  0  0  0  0
   12.6743   15.4048   21.5996 C   0  0  0  0  0  0  0  0  0  0  0  0
   11.6872   12.4706   22.9112 N   0  0  0  0  0  0  0  0  0  0  0  0
   13.4178   13.6856   23.8481 O   0  0  0  0  0  0  0  0  0  0  0  0
    6.9112   10.6993   24.9769 O   0  0  0  0  0  0  0  0  0  0  0  0
   12.8449   13.9840   21.6483 O   0  0  0  0  0  0  0  0  0  0  0  0
    8.1858   12.6857   25.4191 H   0  0  0  0  0  0  0  0  0  0  0  0
    9.7293   13.1073   24.6510 H   0  0  0  0  0  0  0  0  0  0  0  0
   12.0155   11.6107   24.7991 H   0  0  0  0  0  0  0  0  0  0  0  0
   12.4856   10.6368   23.3977 H   0  0  0  0  0  0  0  0  0  0  0  0
   10.8823   12.2003   21.0323 H   0  0  0  0  0  0  0  0  0  0  0  0
   10.0919   13.4751   21.9758 H   0  0  0  0  0  0  0  0  0  0  0  0
    9.9171   10.7591   25.9155 H   0  0  0  0  0  0  0  0  0  0  0  0
    7.8142   12.7990   22.8106 H   0  0  0  0  0  0  0  0  0  0  0  0
   10.4309    9.6005   23.4923 H   0  0  0  0  0  0  0  0  0  0  0  0
    9.2714   10.7290   21.7762 H   0  0  0  0  0  0  0  0  0  0  0  0
    8.2831    9.0102   24.7239 H   0  0  0  0  0  0  0  0  0  0  0  0
    7.0043   10.2509   22.8345 H   0  0  0  0  0  0  0  0  0  0  0  0
   13.5858   15.7403   23.5446 H   0  0  0  0  0  0  0  0  0  0  0  0
   14.7398   15.7894   22.1927 H   0  0  0  0  0  0  0  0  0  0  0  0
   13.6288   17.1437   22.4918 H   0  0  0  0  0  0  0  0  0  0  0  0
   12.1199   15.3805   19.4979 H   0  0  0  0  0  0  0  0  0  0  0  0
   13.8474   15.5186   19.7730 H   0  0  0  0  0  0  0  0  0  0  0  0
   12.8004   16.9296   20.0427 H   0  0  0  0  0  0  0  0  0  0  0  0
   10.5096   15.2779   21.4284 H   0  0  0  0  0  0  0  0  0  0  0  0
   11.0912   15.4020   23.1028 H   0  0  0  0  0  0  0  0  0  0  0  0
   11.0837   16.8224   22.0328 H   0  0  0  0  0  0  0  0  0  0  0  0
  1 15  1  0  0  0  0
  1 16  2  0  0  0  0
  1 18  1  0  0  0  0
  2  5  1  0  0  0  0
  2  6  1  0  0  0  0
  3  7  1  6  0  0  0
  3 15  1  0  0  0  0
  4  8  1  6  0  0  0
  4 15  1  0  0  0  0
  5  7  1  0  0  0  0
  5  9  1  0  0  0  0
  6  8  1  0  0  0  0
  6 10  1  0  0  0  0
  7  8  1  0  0  0  0
  9 10  1  0  0  0  0
  9 17  1  0  0  0  0
 10 17  1  0  0  0  0
 11 14  1  0  0  0  0
 12 14  1  0  0  0  0
 13 14  1  0  0  0  0
 14 18  1  0  0  0  0
  2 19  1  0  0  0  0
  2 20  1  0  0  0  0
  3 21  1  0  0  0  0
  3 22  1  0  0  0  0
  4 23  1  0  0  0  0
  4 24  1  0  0  0  0
  5 25  1  0  0  0  0
  6 26  1  0  0  0  0
  7 27  1  0  0  0  0
  8 28  1  0  0  0  0
  9 29  1  0  0  0  0
 10 30  1  0  0  0  0
 11 31  1  0  0  0  0
 11 32  1  0  0  0  0
 11 33  1  0  0  0  0
 12 34  1  0  0  0  0
 12 35  1  0  0  0  0
 12 36  1  0  0  0  0
 13 37  1  0  0  0  0
 13 38  1  0  0  0  0
 13 39  1  0  0  0  0
M  END
> <id>
EN300-1708343

> <smiles>
CC(C)(C)OC(=O)N1C[C@H]2C3CC(C4OC43)[C@H]2C1

> <IUPAC Name>
tert-butyl (2R,6S)-9-oxa-4-azatetracyclo[5.3.1.0^{2,6}.0^{8,10}]undecane-4-carboxylate

> <URL>
https://www.enaminestore.com/catalog/EN300-1708343

> <ROCS_ShapeQuery>
A71EV2A-x0451_0A_A71EV2A-x0310_0A_A71EV2A-x0416_0A_peptide

> <ROCS_TanimotoCombo>
0.484 

> <ROCS_ShapeTanimoto>
0.271 

> <ROCS_ColorTanimoto>
0.214 

> <ROCS_RefTversky>
0.248 

> <ROCS_RefColorTversky>
0.299 

> <ROCS_RefTverskyCombo>
0.548 

> <ROCS_FitTversky>
1.496 

> <ROCS_FitColorTversky>
0.427 

> <ROCS_FitTverskyCombo>
1.923 

> <ROCS_ColorScore>
-9.340

> <ROCS_Overlap>
1723.136

> <ROCS_Rank>
287                 

$$$$
untitled-dbase-18123_23
  -OEChem-11132313473D

 34 36  0     1  0  0  0  0  0999 V2000
    9.9674   13.2798   23.4946 C   0  0  0  0  0  0  0  0  0  0  0  0
    8.7825   10.2365   22.5475 C   0  0  0  0  0  0  0  0  0  0  0  0
    9.8324    9.9034   23.6634 C   0  0  0  0  0  0  0  0  0  0  0  0
    7.2704   11.9251   25.5754 C   0  0  0  0  0  0  0  0  0  0  0  0
    7.2782   11.1522   24.2798 C   0  0  2  0  0  0  0  0  0  0  0  0
    8.2865   10.8325   25.3516 C   0  0  1  0  0  0  0  0  0  0  0  0
    8.1324   11.5361   23.0745 C   0  0  1  0  0  0  0  0  0  0  0  0
    9.6323   11.0597   24.6692 C   0  0  2  0  0  0  0  0  0  0  0  0
   12.2856   13.5202   21.8427 C   0  0  0  0  0  0  0  0  0  0  0  0
   10.7691   14.6649   20.1998 C   0  0  0  0  0  0  0  0  0  0  0  0
   11.1483   15.6769   22.4670 C   0  0  0  0  0  0  0  0  0  0  0  0
   11.0299   14.3748   21.6763 C   0  0  0  0  0  0  0  0  0  0  0  0
    9.2907   12.1124   23.7339 N   0  0  0  0  0  0  0  0  0  0  0  0
   10.5547   13.9271   24.3578 O   0  0  0  0  0  0  0  0  0  0  0  0
    9.9082   13.6384   22.1760 O   0  0  0  0  0  0  0  0  0  0  0  0
    9.2961   10.4079   21.5950 H   0  0  0  0  0  0  0  0  0  0  0  0
    8.0635    9.4204   22.4237 H   0  0  0  0  0  0  0  0  0  0  0  0
    9.6443    8.9189   24.1036 H   0  0  0  0  0  0  0  0  0  0  0  0
   10.8421    9.9175   23.2382 H   0  0  0  0  0  0  0  0  0  0  0  0
    7.5965   12.9574   25.5761 H   0  0  0  0  0  0  0  0  0  0  0  0
    6.4653   11.7229   26.2725 H   0  0  0  0  0  0  0  0  0  0  0  0
    6.4793   10.4552   24.0744 H   0  0  0  0  0  0  0  0  0  0  0  0
    8.2015    9.9092   25.9053 H   0  0  0  0  0  0  0  0  0  0  0  0
    7.6454   12.1691   22.3317 H   0  0  0  0  0  0  0  0  0  0  0  0
   10.4715   11.2789   25.3310 H   0  0  0  0  0  0  0  0  0  0  0  0
   12.4763   13.3098   22.9011 H   0  0  0  0  0  0  0  0  0  0  0  0
   12.1993   12.5682   21.3089 H   0  0  0  0  0  0  0  0  0  0  0  0
   13.1702   14.0480   21.4682 H   0  0  0  0  0  0  0  0  0  0  0  0
    9.8690   15.2778   20.0758 H   0  0  0  0  0  0  0  0  0  0  0  0
   10.5892   13.7367   19.6455 H   0  0  0  0  0  0  0  0  0  0  0  0
   11.6114   15.1882   19.7359 H   0  0  0  0  0  0  0  0  0  0  0  0
   10.2477   16.2900   22.3479 H   0  0  0  0  0  0  0  0  0  0  0  0
   11.2989   15.4880   23.5349 H   0  0  0  0  0  0  0  0  0  0  0  0
   11.9850   16.2816   22.0989 H   0  0  0  0  0  0  0  0  0  0  0  0
  1 13  1  0  0  0  0
  1 14  2  0  0  0  0
  1 15  1  0  0  0  0
  2  3  1  0  0  0  0
  2  7  1  1  0  0  0
  3  8  1  1  0  0  0
  4  5  1  0  0  0  0
  4  6  1  0  0  0  0
  5  6  1  0  0  0  0
  5  7  1  0  0  0  0
  6  8  1  0  0  0  0
  7 13  1  0  0  0  0
  8 13  1  0  0  0  0
  9 12  1  0  0  0  0
 10 12  1  0  0  0  0
 11 12  1  0  0  0  0
 12 15  1  0  0  0  0
  2 16  1  0  0  0  0
  2 17  1  0  0  0  0
  3 18  1  0  0  0  0
  3 19  1  0  0  0  0
  4 20  1  0  0  0  0
  4 21  1  0  0  0  0
  5 22  1  0  0  0  0
  6 23  1  0  0  0  0
  7 24  1  0  0  0  0
  8 25  1  0  0  0  0
  9 26  1  0  0  0  0
  9 27  1  0  0  0  0
  9 28  1  0  0  0  0
 10 29  1  0  0  0  0
 10 30  1  0  0  0  0
 10 31  1  0  0  0  0
 11 32  1  0  0  0  0
 11 33  1  0  0  0  0
 11 34  1  0  0  0  0
M  END
> <id>
EN300-1653064

> <smiles>
CC(C)(C)OC(=O)N1[C@H]2CC[C@@H]1C3CC32

> <IUPAC Name>
tert-butyl (1R,5S)-8-azatricyclo[3.2.1.0,2,4]octane-8-carboxylate

> <CAS>
2171446-46-9

> <URL>
https://www.enaminestore.com/catalog/EN300-1653064

> <ROCS_ShapeQuery>
A71EV2A-x0451_0A_A71EV2A-x0310_0A_A71EV2A-x0416_0A_peptide

> <ROCS_TanimotoCombo>
0.484 

> <ROCS_ShapeTanimoto>
0.269 

> <ROCS_ColorTanimoto>
0.215 

> <ROCS_RefTversky>
0.243 

> <ROCS_RefColorTversky>
0.290 

> <ROCS_RefTverskyCombo>
0.533 

> <ROCS_FitTversky>
1.662 

> <ROCS_FitColorTversky>
0.455 

> <ROCS_FitTverskyCombo>
2.117 

> <ROCS_ColorScore>
-9.027

> <ROCS_Overlap>
1682.772

> <ROCS_Rank>
288                 

$$$$
untitled-dbase-11873_69
  -OEChem-11132313473D

 48 50  0     1  0  0  0  0  0999 V2000
   10.2366   13.4339   23.7391 C   0  0  0  0  0  0  0  0  0  0  0  0
    6.7802   11.5058   26.3172 C   0  0  0  0  0  0  0  0  0  0  0  0
   11.2893    8.9920   23.8101 C   0  0  0  0  0  0  0  0  0  0  0  0
    8.1175   12.2100   26.5086 C   0  0  0  0  0  0  0  0  0  0  0  0
    6.3584   11.2556   24.8775 C   0  0  0  0  0  0  0  0  0  0  0  0
   10.7887   10.1464   24.7129 C   0  0  0  0  0  0  0  0  0  0  0  0
   10.2678    9.4597   22.7458 C   0  0  0  0  0  0  0  0  0  0  0  0
    8.4584   13.2117   25.4181 C   0  0  0  0  0  0  0  0  0  0  0  0
    7.4390   10.6496   23.9957 C   0  0  1  0  0  0  0  0  0  0  0  0
    8.7425   11.4011   23.5739 C   0  0  2  0  0  0  0  0  0  0  0  0
    8.3056    9.4729   24.5410 C   0  0  2  0  0  0  0  0  0  0  0  0
    9.5094   10.1240   23.8869 C   0  0  0  0  0  0  0  0  0  0  0  0
   12.4645   14.5687   22.3431 C   0  0  0  0  0  0  0  0  0  0  0  0
   12.0407   12.8019   20.6088 C   0  0  0  0  0  0  0  0  0  0  0  0
   10.2833   14.5312   21.0879 C   0  0  0  0  0  0  0  0  0  0  0  0
   11.4079   13.6845   21.6824 C   0  0  0  0  0  0  0  0  0  0  0  0
    9.1859   12.6529   24.2767 N   0  0  0  0  0  0  0  0  0  0  0  0
    7.8873    8.2538   23.8586 N   0  0  0  0  0  0  0  0  0  0  0  0
   10.5777   14.5377   24.1596 O   0  0  0  0  0  0  0  0  0  0  0  0
   10.8499   12.8198   22.6780 O   0  0  0  0  0  0  0  0  0  0  0  0
    6.7657   10.5669   26.8947 H   0  0  0  0  0  0  0  0  0  0  0  0
    6.0062   12.1391   26.7846 H   0  0  0  0  0  0  0  0  0  0  0  0
   12.3346    9.1000   23.4959 H   0  0  0  0  0  0  0  0  0  0  0  0
   11.1392    7.9828   24.2035 H   0  0  0  0  0  0  0  0  0  0  0  0
    8.1644   12.6858   27.5002 H   0  0  0  0  0  0  0  0  0  0  0  0
    8.9014   11.4368   26.5146 H   0  0  0  0  0  0  0  0  0  0  0  0
    5.5092   10.5659   24.8999 H   0  0  0  0  0  0  0  0  0  0  0  0
    5.9946   12.1840   24.4299 H   0  0  0  0  0  0  0  0  0  0  0  0
   10.6439    9.8476   25.7572 H   0  0  0  0  0  0  0  0  0  0  0  0
   11.4064   11.0450   24.6934 H   0  0  0  0  0  0  0  0  0  0  0  0
   10.6727   10.1101   21.9629 H   0  0  0  0  0  0  0  0  0  0  0  0
    9.7610    8.6146   22.2621 H   0  0  0  0  0  0  0  0  0  0  0  0
    7.5134   13.6484   25.0479 H   0  0  0  0  0  0  0  0  0  0  0  0
    9.0155   14.0718   25.8243 H   0  0  0  0  0  0  0  0  0  0  0  0
    6.8989   10.3559   23.0808 H   0  0  0  0  0  0  0  0  0  0  0  0
    8.6939   11.6001   22.4720 H   0  0  0  0  0  0  0  0  0  0  0  0
    8.3682    9.3716   25.6309 H   0  0  0  0  0  0  0  0  0  0  0  0
   12.0142   15.2038   23.1144 H   0  0  0  0  0  0  0  0  0  0  0  0
   13.2588   13.9723   22.8038 H   0  0  0  0  0  0  0  0  0  0  0  0
   12.9202   15.2463   21.6120 H   0  0  0  0  0  0  0  0  0  0  0  0
   11.2861   12.1658   20.1320 H   0  0  0  0  0  0  0  0  0  0  0  0
   12.7826   12.1249   21.0475 H   0  0  0  0  0  0  0  0  0  0  0  0
   12.5315   13.3984   19.8330 H   0  0  0  0  0  0  0  0  0  0  0  0
    9.5253   13.8972   20.6139 H   0  0  0  0  0  0  0  0  0  0  0  0
    9.7931   15.1440   21.8513 H   0  0  0  0  0  0  0  0  0  0  0  0
   10.6671   15.1933   20.3034 H   0  0  0  0  0  0  0  0  0  0  0  0
    8.5469    7.5390   24.0608 H   0  0  0  0  0  0  0  0  0  0  0  0
    6.9864    8.0013   24.1928 H   0  0  0  0  0  0  0  0  0  0  0  0
  1 17  1  0  0  0  0
  1 19  2  0  0  0  0
  1 20  1  0  0  0  0
  2  4  1  0  0  0  0
  2  5  1  0  0  0  0
  3  6  1  0  0  0  0
  3  7  1  0  0  0  0
  4  8  1  0  0  0  0
  5  9  1  0  0  0  0
  6 12  1  0  0  0  0
  7 12  1  0  0  0  0
  8 17  1  0  0  0  0
  9 10  1  0  0  0  0
  9 11  1  0  0  0  0
 10 12  1  0  0  0  0
 10 17  1  0  0  0  0
 11 12  1  0  0  0  0
 11 18  1  0  0  0  0
 13 16  1  0  0  0  0
 14 16  1  0  0  0  0
 15 16  1  0  0  0  0
 16 20  1  0  0  0  0
  2 21  1  0  0  0  0
  2 22  1  0  0  0  0
  3 23  1  0  0  0  0
  3 24  1  0  0  0  0
  4 25  1  0  0  0  0
  4 26  1  0  0  0  0
  5 27  1  0  0  0  0
  5 28  1  0  0  0  0
  6 29  1  0  0  0  0
  6 30  1  0  0  0  0
  7 31  1  0  0  0  0
  7 32  1  0  0  0  0
  8 33  1  0  0  0  0
  8 34  1  0  0  0  0
  9 35  1  0  0  0  0
 10 36  1  0  0  0  0
 11 37  1  0  0  0  0
 13 38  1  0  0  0  0
 13 39  1  0  0  0  0
 13 40  1  0  0  0  0
 14 41  1  0  0  0  0
 14 42  1  0  0  0  0
 14 43  1  0  0  0  0
 15 44  1  0  0  0  0
 15 45  1  0  0  0  0
 15 46  1  0  0  0  0
 18 47  1  0  0  0  0
 18 48  1  0  0  0  0
M  END
> <id>
EN300-701140

> <smiles>
CC(C)(C)OC(=O)N1CCCCC2C(N)C3(CCC3)C21

> <IUPAC Name>
tert-butyl 9-amino-6-azaspiro[bicyclo[5.2.0]nonane-8,1'-cyclobutane]-6-carboxylate

> <CAS>
2137951-11-0

> <URL>
https://www.enaminestore.com/catalog/EN300-701140

> <ROCS_ShapeQuery>
A71EV2A-x0451_0A_A71EV2A-x0310_0A_A71EV2A-x0416_0A_peptide

> <ROCS_TanimotoCombo>
0.484 

> <ROCS_ShapeTanimoto>
0.334 

> <ROCS_ColorTanimoto>
0.151 

> <ROCS_RefTversky>
0.293 

> <ROCS_RefColorTversky>
0.166 

> <ROCS_RefTverskyCombo>
0.460 

> <ROCS_FitTversky>
1.700 

> <ROCS_FitColorTversky>
0.610 

> <ROCS_FitTverskyCombo>
2.311 

> <ROCS_ColorScore>
-5.074

> <ROCS_Overlap>
2036.307

> <ROCS_Rank>
289                 

$$$$
untitled-dbase-44545_6
  -OEChem-11132313473D

 39 41  0     0  0  0  0  0  0999 V2000
   12.5983    9.3570   23.3722 C   0  0  0  0  0  0  0  0  0  0  0  0
    6.9733   12.7363   26.0948 C   0  0  0  0  0  0  0  0  0  0  0  0
   11.8719    8.2403   22.9827 C   0  0  0  0  0  0  0  0  0  0  0  0
    6.0895   11.7101   25.7970 C   0  0  0  0  0  0  0  0  0  0  0  0
   11.9379   10.5562   23.6476 C   0  0  0  0  0  0  0  0  0  0  0  0
    8.2159   12.8011   25.4560 C   0  0  0  0  0  0  0  0  0  0  0  0
   10.4856    8.3210   22.8844 C   0  0  0  0  0  0  0  0  0  0  0  0
    6.4533   10.7436   24.8663 C   0  0  0  0  0  0  0  0  0  0  0  0
   10.5376   10.6717   23.5276 C   0  0  0  0  0  0  0  0  0  0  0  0
    8.6094   11.8431   24.5025 C   0  0  0  0  0  0  0  0  0  0  0  0
    9.8169    9.5226   23.1686 C   0  0  0  0  0  0  0  0  0  0  0  0
    7.7037   10.8000   24.2273 C   0  0  0  0  0  0  0  0  0  0  0  0
   10.5014   13.1941   23.5629 C   0  0  0  0  0  0  0  0  0  0  0  0
   11.6165   14.5287   20.2183 C   0  0  0  0  0  0  0  0  0  0  0  0
   10.2496   15.7530   21.9275 C   0  0  0  0  0  0  0  0  0  0  0  0
   12.5856   15.0235   22.4746 C   0  0  0  0  0  0  0  0  0  0  0  0
   11.3048   14.6628   21.7133 C   0  0  0  0  0  0  0  0  0  0  0  0
    9.8924   11.9298   23.8345 N   0  0  0  0  0  0  0  0  0  0  0  0
   10.7924   13.4055   22.2091 N   0  0  0  0  0  0  0  0  0  0  0  0
   10.6793   14.0965   24.3843 O   0  0  0  0  0  0  0  0  0  0  0  0
    8.0513    9.5458   23.0168 S   0  0  0  0  0  0  0  0  0  0  0  0
   13.6799    9.2999   23.4561 H   0  0  0  0  0  0  0  0  0  0  0  0
    6.7028   13.4895   26.8310 H   0  0  0  0  0  0  0  0  0  0  0  0
   12.3839    7.3118   22.7422 H   0  0  0  0  0  0  0  0  0  0  0  0
    5.1286   11.6517   26.3015 H   0  0  0  0  0  0  0  0  0  0  0  0
   12.5634   11.3910   23.9354 H   0  0  0  0  0  0  0  0  0  0  0  0
    8.8512   13.6267   25.7490 H   0  0  0  0  0  0  0  0  0  0  0  0
    9.9425    7.4335   22.5764 H   0  0  0  0  0  0  0  0  0  0  0  0
    5.7522    9.9413   24.6609 H   0  0  0  0  0  0  0  0  0  0  0  0
   12.3703   13.7533   20.0387 H   0  0  0  0  0  0  0  0  0  0  0  0
   10.7201   14.2653   19.6460 H   0  0  0  0  0  0  0  0  0  0  0  0
   12.0132   15.4664   19.8119 H   0  0  0  0  0  0  0  0  0  0  0  0
   10.0097   15.8675   22.9910 H   0  0  0  0  0  0  0  0  0  0  0  0
    9.3154   15.5061   21.4098 H   0  0  0  0  0  0  0  0  0  0  0  0
   10.5962   16.7228   21.5536 H   0  0  0  0  0  0  0  0  0  0  0  0
   12.3913   15.1258   23.5486 H   0  0  0  0  0  0  0  0  0  0  0  0
   13.3573   14.2571   22.3427 H   0  0  0  0  0  0  0  0  0  0  0  0
   12.9969   15.9785   22.1275 H   0  0  0  0  0  0  0  0  0  0  0  0
   10.7019   12.6308   21.5632 H   0  0  0  0  0  0  0  0  0  0  0  0
  1  3  2  0  0  0  0
  1  5  1  0  0  0  0
  2  4  2  0  0  0  0
  2  6  1  0  0  0  0
  3  7  1  0  0  0  0
  4  8  1  0  0  0  0
  5  9  2  0  0  0  0
  6 10  2  0  0  0  0
  7 11  2  0  0  0  0
  8 12  2  0  0  0  0
  9 11  1  0  0  0  0
  9 18  1  0  0  0  0
 10 12  1  0  0  0  0
 10 18  1  0  0  0  0
 11 21  1  0  0  0  0
 12 21  1  0  0  0  0
 13 18  1  0  0  0  0
 13 19  1  0  0  0  0
 13 20  2  0  0  0  0
 14 17  1  0  0  0  0
 15 17  1  0  0  0  0
 16 17  1  0  0  0  0
 17 19  1  0  0  0  0
  1 22  1  0  0  0  0
  2 23  1  0  0  0  0
  3 24  1  0  0  0  0
  4 25  1  0  0  0  0
  5 26  1  0  0  0  0
  6 27  1  0  0  0  0
  7 28  1  0  0  0  0
  8 29  1  0  0  0  0
 14 30  1  0  0  0  0
 14 31  1  0  0  0  0
 14 32  1  0  0  0  0
 15 33  1  0  0  0  0
 15 34  1  0  0  0  0
 15 35  1  0  0  0  0
 16 36  1  0  0  0  0
 16 37  1  0  0  0  0
 16 38  1  0  0  0  0
 19 39  1  0  0  0  0
M  END
> <id>
EN300-27061642

> <smiles>
CC(C)(C)NC(=O)N1C=2C=CC=CC2SC=3C=CC=CC13

> <MDLNUMBER>
MFCD03144333

> <IUPAC Name>
N-tert-butyl-10H-phenothiazine-10-carboxamide

> <CAS>
81225-61-8

> <Purity>
95

> <URL>
https://www.enaminestore.com/catalog/EN300-27061642

> <ROCS_ShapeQuery>
A71EV2A-x0451_0A_A71EV2A-x0310_0A_A71EV2A-x0416_0A_peptide

> <ROCS_TanimotoCombo>
0.484 

> <ROCS_ShapeTanimoto>
0.336 

> <ROCS_ColorTanimoto>
0.149 

> <ROCS_RefTversky>
0.297 

> <ROCS_RefColorTversky>
0.160 

> <ROCS_RefTverskyCombo>
0.457 

> <ROCS_FitTversky>
1.641 

> <ROCS_FitColorTversky>
0.669 

> <ROCS_FitTverskyCombo>
2.311 

> <ROCS_ColorScore>
-4.879

> <ROCS_Overlap>
2060.140

> <ROCS_Rank>
290                 

$$$$
untitled-dbase-43815_7
  -OEChem-11132313473D

 44 47  0     1  0  0  0  0  0999 V2000
    7.3739   14.6158   24.8353 C   0  0  0  0  0  0  0  0  0  0  0  0
    7.6432   10.2444   25.1199 C   0  0  0  0  0  0  0  0  0  0  0  0
    6.2222   13.8754   25.5092 C   0  0  0  0  0  0  0  0  0  0  0  0
    8.5650    9.5070   24.1403 C   0  0  0  0  0  0  0  0  0  0  0  0
    7.8304   13.8693   23.5755 C   0  0  1  0  0  0  0  0  0  0  0  0
    7.1541   11.6441   24.6760 C   0  0  1  0  0  0  0  0  0  0  0  0
    6.5887   12.4358   25.8897 C   0  0  2  0  0  0  0  0  0  0  0  0
    8.9499   14.5668   22.7518 C   0  0  2  0  0  0  0  0  0  0  0  0
    9.5875   12.4364   24.7038 C   0  0  2  0  0  0  0  0  0  0  0  0
   10.3810   14.1563   23.1656 C   0  0  1  0  0  0  0  0  0  0  0  0
    8.2580   12.4240   23.9042 C   0  0  2  0  0  0  0  0  0  0  0  0
    9.8067   10.3051   23.6824 C   0  0  2  0  0  0  0  0  0  0  0  0
    5.3630   11.7507   26.5063 C   0  0  0  0  0  0  0  0  0  0  0  0
    8.8127   16.0932   22.7205 C   0  0  0  0  0  0  0  0  0  0  0  0
   10.9480    9.3373   23.3676 C   0  0  0  0  0  0  0  0  0  0  0  0
   10.4485   13.5466   24.4429 O   0  0  0  0  0  0  0  0  0  0  0  0
   10.2839   11.1868   24.6917 O   0  0  0  0  0  0  0  0  0  0  0  0
    8.3245   11.7563   22.6221 O   0  0  0  0  0  0  0  0  0  0  0  0
    9.5715   11.0279   22.4800 O   0  0  0  0  0  0  0  0  0  0  0  0
   10.9597   13.3367   22.1526 O   0  0  0  0  0  0  0  0  0  0  0  0
    7.0224   15.6165   24.5800 H   0  0  0  0  0  0  0  0  0  0  0  0
    8.1903   14.7299   25.5489 H   0  0  0  0  0  0  0  0  0  0  0  0
    6.7736    9.6022   25.3087 H   0  0  0  0  0  0  0  0  0  0  0  0
    8.1643   10.3284   26.0833 H   0  0  0  0  0  0  0  0  0  0  0  0
    5.9219   14.4343   26.4075 H   0  0  0  0  0  0  0  0  0  0  0  0
    5.3494   13.8762   24.8388 H   0  0  0  0  0  0  0  0  0  0  0  0
    8.8879    8.5854   24.6573 H   0  0  0  0  0  0  0  0  0  0  0  0
    7.9859    9.1655   23.2635 H   0  0  0  0  0  0  0  0  0  0  0  0
    6.9478   13.8025   22.9016 H   0  0  0  0  0  0  0  0  0  0  0  0
    6.3398   11.4653   23.9758 H   0  0  0  0  0  0  0  0  0  0  0  0
    7.3629   12.4752   26.6741 H   0  0  0  0  0  0  0  0  0  0  0  0
    8.8189   14.2480   21.6934 H   0  0  0  0  0  0  0  0  0  0  0  0
    9.3138   12.5568   25.8334 H   0  0  0  0  0  0  0  0  0  0  0  0
   11.0375   15.0905   23.1948 H   0  0  0  0  0  0  0  0  0  0  0  0
    4.5705   11.6896   25.7654 H   0  0  0  0  0  0  0  0  0  0  0  0
    5.0164   12.3271   27.3597 H   0  0  0  0  0  0  0  0  0  0  0  0
    5.6324   10.7494   26.8313 H   0  0  0  0  0  0  0  0  0  0  0  0
    8.9289   16.4906   23.7258 H   0  0  0  0  0  0  0  0  0  0  0  0
    7.8316   16.3634   22.3377 H   0  0  0  0  0  0  0  0  0  0  0  0
    9.5797   16.5151   22.0755 H   0  0  0  0  0  0  0  0  0  0  0  0
   11.8261    9.8943   23.0443 H   0  0  0  0  0  0  0  0  0  0  0  0
   10.6461    8.6559   22.5738 H   0  0  0  0  0  0  0  0  0  0  0  0
   11.1990    8.7605   24.2564 H   0  0  0  0  0  0  0  0  0  0  0  0
   10.3885   12.5579   22.0694 H   0  0  0  0  0  0  0  0  0  0  0  0
  1  3  1  0  0  0  0
  1  5  1  0  0  0  0
  2  4  1  0  0  0  0
  2  6  1  0  0  0  0
  3  7  1  0  0  0  0
  4 12  1  0  0  0  0
  5  8  1  0  0  0  0
  5 11  1  0  0  0  0
  6  7  1  0  0  0  0
  6 11  1  0  0  0  0
  7 13  1  0  0  0  0
  8 10  1  0  0  0  0
  8 14  1  0  0  0  0
  9 11  1  0  0  0  0
  9 16  1  0  0  0  0
  9 17  1  0  0  0  0
 10 16  1  0  0  0  0
 10 20  1  0  0  0  0
 11 18  1  0  0  0  0
 12 15  1  0  0  0  0
 12 17  1  0  0  0  0
 12 19  1  0  0  0  0
 18 19  1  0  0  0  0
  1 21  1  0  0  0  0
  1 22  1  0  0  0  0
  2 23  1  0  0  0  0
  2 24  1  0  0  0  0
  3 25  1  0  0  0  0
  3 26  1  0  0  0  0
  4 27  1  0  0  0  0
  4 28  1  0  0  0  0
  5 29  1  0  0  0  0
  6 30  1  0  0  0  0
  7 31  1  0  0  0  0
  8 32  1  0  0  0  0
  9 33  1  0  0  0  0
 10 34  1  0  0  0  0
 13 35  1  0  0  0  0
 13 36  1  0  0  0  0
 13 37  1  0  0  0  0
 14 38  1  0  0  0  0
 14 39  1  0  0  0  0
 14 40  1  0  0  0  0
 15 41  1  0  0  0  0
 15 42  1  0  0  0  0
 15 43  1  0  0  0  0
 20 44  1  0  0  0  0
M  END
> <id>
EN300-19001790

> <smiles>
CC1CCC2C(C)C(O)OC3OC4(C)CCC1C23OO4

> <MDLNUMBER>
MFCD20734738

> <IUPAC Name>
1,5,9-trimethyl-11,14,15,16-tetraoxatetracyclo[10.3.1.0^{4,13}.0^{8,13}]hexadecan-10-ol

> <CAS>
98672-75-4

> <URL>
https://www.enaminestore.com/catalog/EN300-19001790

> <ROCS_ShapeQuery>
A71EV2A-x0451_0A_A71EV2A-x0310_0A_A71EV2A-x0416_0A_peptide

> <ROCS_TanimotoCombo>
0.484 

> <ROCS_ShapeTanimoto>
0.303 

> <ROCS_ColorTanimoto>
0.181 

> <ROCS_RefTversky>
0.274 

> <ROCS_RefColorTversky>
0.217 

> <ROCS_RefTverskyCombo>
0.491 

> <ROCS_FitTversky>
1.541 

> <ROCS_FitColorTversky>
0.522 

> <ROCS_FitTverskyCombo>
2.063 

> <ROCS_ColorScore>
-6.677

> <ROCS_Overlap>
1900.523

> <ROCS_Rank>
291                 

$$$$
untitled-dbase-30916_17
  -OEChem-11132313473D

 35 36  0     0  0  0  0  0  0999 V2000
    7.9783   13.1037   24.9619 C   0  0  0  0  0  0  0  0  0  0  0  0
    6.8529   12.9191   25.7637 C   0  0  0  0  0  0  0  0  0  0  0  0
    8.5993   12.0208   24.3261 C   0  0  0  0  0  0  0  0  0  0  0  0
    7.9986   10.7673   24.5290 C   0  0  0  0  0  0  0  0  0  0  0  0
    6.3626   11.6400   25.9107 C   0  0  0  0  0  0  0  0  0  0  0  0
   10.5586   13.3251   23.4332 C   0  0  0  0  0  0  0  0  0  0  0  0
    8.5595    9.5271   23.8979 C   0  0  0  0  0  0  0  0  0  0  0  0
    9.1822    9.8766   22.5644 C   0  0  0  0  0  0  0  0  0  0  0  0
   10.2342   10.9542   22.7614 C   0  0  0  0  0  0  0  0  0  0  0  0
   12.3941   15.4520   22.8403 C   0  0  0  0  0  0  0  0  0  0  0  0
   12.3495   14.5866   20.4827 C   0  0  0  0  0  0  0  0  0  0  0  0
   10.2432   15.4629   21.5332 C   0  0  0  0  0  0  0  0  0  0  0  0
   11.5607   14.7301   21.7824 C   0  0  0  0  0  0  0  0  0  0  0  0
    6.9069   10.5637   25.3140 N   0  0  0  0  0  0  0  0  0  0  0  0
    9.7734   12.1492   23.4938 N   0  0  0  0  0  0  0  0  0  0  0  0
   10.6554   14.1883   24.3006 O   0  0  0  0  0  0  0  0  0  0  0  0
   11.2661   13.4105   22.2565 O   0  0  0  0  0  0  0  0  0  0  0  0
    4.8345   11.3616   27.0006 Br  0  0  0  0  0  0  0  0  0  0  0  0
    8.3162   14.1259   24.8467 H   0  0  0  0  0  0  0  0  0  0  0  0
    6.3883   13.7733   26.2456 H   0  0  0  0  0  0  0  0  0  0  0  0
    9.3048    9.0906   24.5730 H   0  0  0  0  0  0  0  0  0  0  0  0
    7.7672    8.7843   23.7506 H   0  0  0  0  0  0  0  0  0  0  0  0
    9.6393    8.9860   22.1187 H   0  0  0  0  0  0  0  0  0  0  0  0
    8.4164   10.2308   21.8623 H   0  0  0  0  0  0  0  0  0  0  0  0
   11.0922   10.5540   23.3168 H   0  0  0  0  0  0  0  0  0  0  0  0
   10.6044   11.2567   21.7750 H   0  0  0  0  0  0  0  0  0  0  0  0
   11.8313   15.5570   23.7748 H   0  0  0  0  0  0  0  0  0  0  0  0
   13.3257   14.9178   23.0535 H   0  0  0  0  0  0  0  0  0  0  0  0
   12.6445   16.4681   22.5145 H   0  0  0  0  0  0  0  0  0  0  0  0
   11.7554   14.0692   19.7208 H   0  0  0  0  0  0  0  0  0  0  0  0
   13.2492   13.9800   20.6371 H   0  0  0  0  0  0  0  0  0  0  0  0
   12.6521   15.5603   20.0841 H   0  0  0  0  0  0  0  0  0  0  0  0
    9.6452   14.9453   20.7745 H   0  0  0  0  0  0  0  0  0  0  0  0
    9.6469   15.5427   22.4479 H   0  0  0  0  0  0  0  0  0  0  0  0
   10.4258   16.4724   21.1474 H   0  0  0  0  0  0  0  0  0  0  0  0
  1  2  1  0  0  0  0
  1  3  2  0  0  0  0
  2  5  2  0  0  0  0
  3  4  1  0  0  0  0
  3 15  1  0  0  0  0
  4  7  1  0  0  0  0
  4 14  2  0  0  0  0
  5 14  1  0  0  0  0
  5 18  1  0  0  0  0
  6 15  1  0  0  0  0
  6 16  2  0  0  0  0
  6 17  1  0  0  0  0
  7  8  1  0  0  0  0
  8  9  1  0  0  0  0
  9 15  1  0  0  0  0
 10 13  1  0  0  0  0
 11 13  1  0  0  0  0
 12 13  1  0  0  0  0
 13 17  1  0  0  0  0
  1 19  1  0  0  0  0
  2 20  1  0  0  0  0
  7 21  1  0  0  0  0
  7 22  1  0  0  0  0
  8 23  1  0  0  0  0
  8 24  1  0  0  0  0
  9 25  1  0  0  0  0
  9 26  1  0  0  0  0
 10 27  1  0  0  0  0
 10 28  1  0  0  0  0
 10 29  1  0  0  0  0
 11 30  1  0  0  0  0
 11 31  1  0  0  0  0
 11 32  1  0  0  0  0
 12 33  1  0  0  0  0
 12 34  1  0  0  0  0
 12 35  1  0  0  0  0
M  END
> <id>
EN300-6926743

> <smiles>
CC(C)(C)OC(=O)N1CCCC=2N=C(Br)C=CC12

> <MDLNUMBER>
MFCD32671025

> <IUPAC Name>
tert-butyl 6-bromo-1,2,3,4-tetrahydro-1,5-naphthyridine-1-carboxylate

> <CAS>
2188181-83-9

> <Purity>
95

> <URL>
https://www.enaminestore.com/catalog/EN300-6926743

> <ROCS_ShapeQuery>
A71EV2A-x0451_0A_A71EV2A-x0310_0A_A71EV2A-x0416_0A_peptide

> <ROCS_TanimotoCombo>
0.484 

> <ROCS_ShapeTanimoto>
0.341 

> <ROCS_ColorTanimoto>
0.144 

> <ROCS_RefTversky>
0.295 

> <ROCS_RefColorTversky>
0.156 

> <ROCS_RefTverskyCombo>
0.451 

> <ROCS_FitTversky>
1.831 

> <ROCS_FitColorTversky>
0.649 

> <ROCS_FitTverskyCombo>
2.481 

> <ROCS_ColorScore>
-4.734

> <ROCS_Overlap>
2046.053

> <ROCS_Rank>
292                 

$$$$
untitled-dbase-43793_7
  -OEChem-11132313473D

 44 47  0     1  0  0  0  0  0999 V2000
    7.3737   14.6161   24.8349 C   0  0  0  0  0  0  0  0  0  0  0  0
    7.6423   10.2448   25.1192 C   0  0  0  0  0  0  0  0  0  0  0  0
    6.2216   13.8758   25.5080 C   0  0  0  0  0  0  0  0  0  0  0  0
    8.5644    9.5073   24.1400 C   0  0  0  0  0  0  0  0  0  0  0  0
    7.8308   13.8697   23.5752 C   0  0  1  0  0  0  0  0  0  0  0  0
    7.1537   11.6446   24.6751 C   0  0  1  0  0  0  0  0  0  0  0  0
    6.5877   12.4364   25.8885 C   0  0  2  0  0  0  0  0  0  0  0  0
    8.9505   14.5674   22.7520 C   0  0  2  0  0  0  0  0  0  0  0  0
    9.5872   12.4367   24.7041 C   0  0  2  0  0  0  0  0  0  0  0  0
   10.3814   14.1563   23.1657 C   0  0  1  0  0  0  0  0  0  0  0  0
    8.2581   12.4244   23.9039 C   0  0  2  0  0  0  0  0  0  0  0  0
    9.8066   10.3052   23.6831 C   0  0  2  0  0  0  0  0  0  0  0  0
    5.3616   11.7514   26.5045 C   0  0  0  0  0  0  0  0  0  0  0  0
    8.8138   16.0937   22.7216 C   0  0  0  0  0  0  0  0  0  0  0  0
   10.9480    9.3373   23.3690 C   0  0  0  0  0  0  0  0  0  0  0  0
   10.4489   13.5463   24.4430 O   0  0  0  0  0  0  0  0  0  0  0  0
   10.2830   11.1868   24.6928 O   0  0  0  0  0  0  0  0  0  0  0  0
    8.3253   11.7568   22.6219 O   0  0  0  0  0  0  0  0  0  0  0  0
    9.5722   11.0281   22.4805 O   0  0  0  0  0  0  0  0  0  0  0  0
   10.9598   13.3365   22.1524 O   0  0  0  0  0  0  0  0  0  0  0  0
    7.0227   15.6168   24.5796 H   0  0  0  0  0  0  0  0  0  0  0  0
    8.1897   14.7298   25.5489 H   0  0  0  0  0  0  0  0  0  0  0  0
    6.7725    9.6026   25.3075 H   0  0  0  0  0  0  0  0  0  0  0  0
    8.1627   10.3287   26.0829 H   0  0  0  0  0  0  0  0  0  0  0  0
    5.9205   14.4347   26.4060 H   0  0  0  0  0  0  0  0  0  0  0  0
    5.3491   13.8768   24.8372 H   0  0  0  0  0  0  0  0  0  0  0  0
    8.8870    8.5856   24.6570 H   0  0  0  0  0  0  0  0  0  0  0  0
    7.9858    9.1661   23.2628 H   0  0  0  0  0  0  0  0  0  0  0  0
    6.9483   13.8029   22.9010 H   0  0  0  0  0  0  0  0  0  0  0  0
    6.3397   11.4659   23.9745 H   0  0  0  0  0  0  0  0  0  0  0  0
    7.3613   12.4754   26.6735 H   0  0  0  0  0  0  0  0  0  0  0  0
    8.8195   14.2496   21.6933 H   0  0  0  0  0  0  0  0  0  0  0  0
    9.3129   12.5578   25.8334 H   0  0  0  0  0  0  0  0  0  0  0  0
   11.0383   15.0900   23.1949 H   0  0  0  0  0  0  0  0  0  0  0  0
    4.5695   11.6905   25.7632 H   0  0  0  0  0  0  0  0  0  0  0  0
    5.0147   12.3277   27.3579 H   0  0  0  0  0  0  0  0  0  0  0  0
    5.6307   10.7500   26.8294 H   0  0  0  0  0  0  0  0  0  0  0  0
    8.9301   16.4905   23.7272 H   0  0  0  0  0  0  0  0  0  0  0  0
    7.8328   16.3645   22.3389 H   0  0  0  0  0  0  0  0  0  0  0  0
    9.5811   16.5158   22.0770 H   0  0  0  0  0  0  0  0  0  0  0  0
   11.8263    9.8942   23.0464 H   0  0  0  0  0  0  0  0  0  0  0  0
   10.6466    8.6559   22.5750 H   0  0  0  0  0  0  0  0  0  0  0  0
   11.1984    8.7605   24.2580 H   0  0  0  0  0  0  0  0  0  0  0  0
   10.3883   12.5580   22.0692 H   0  0  0  0  0  0  0  0  0  0  0  0
  1  3  1  0  0  0  0
  1  5  1  1  0  0  0
  2  4  1  0  0  0  0
  2  6  1  1  0  0  0
  3  7  1  0  0  0  0
  4 12  1  0  0  0  0
  5  8  1  0  0  0  0
  5 11  1  0  0  0  0
  6  7  1  0  0  0  0
  6 11  1  0  0  0  0
  7 13  1  6  0  0  0
  8 10  1  0  0  0  0
  8 14  1  1  0  0  0
  9 11  1  0  0  0  0
  9 16  1  6  0  0  0
  9 17  1  0  0  0  0
 10 16  1  0  0  0  0
 10 20  1  6  0  0  0
 11 18  1  6  0  0  0
 12 15  1  1  0  0  0
 12 17  1  0  0  0  0
 12 19  1  0  0  0  0
 18 19  1  0  0  0  0
  1 21  1  0  0  0  0
  1 22  1  0  0  0  0
  2 23  1  0  0  0  0
  2 24  1  0  0  0  0
  3 25  1  0  0  0  0
  3 26  1  0  0  0  0
  4 27  1  0  0  0  0
  4 28  1  0  0  0  0
  5 29  1  0  0  0  0
  6 30  1  0  0  0  0
  7 31  1  0  0  0  0
  8 32  1  0  0  0  0
  9 33  1  0  0  0  0
 10 34  1  0  0  0  0
 13 35  1  0  0  0  0
 13 36  1  0  0  0  0
 13 37  1  0  0  0  0
 14 38  1  0  0  0  0
 14 39  1  0  0  0  0
 14 40  1  0  0  0  0
 15 41  1  0  0  0  0
 15 42  1  0  0  0  0
 15 43  1  0  0  0  0
 20 44  1  0  0  0  0
M  END
> <id>
EN300-7407671

> <smiles>
C[C@@H]1CC[C@H]2[C@@H](C)[C@H](O)O[C@@H]3O[C@@]4(C)CC[C@@H]1[C@@]23OO4

> <MDLNUMBER>
MFCD00236467

> <IUPAC Name>
(1R,4S,5R,8S,9R,10R,12R,13R)-1,5,9-trimethyl-11,14,15,16-tetraoxatetracyclo[10.3.1.0^{4,13}.0^{8,13}]hexadecan-10-ol

> <CAS>
81496-81-3

> <URL>
https://www.enaminestore.com/catalog/EN300-7407671

> <ROCS_ShapeQuery>
A71EV2A-x0451_0A_A71EV2A-x0310_0A_A71EV2A-x0416_0A_peptide

> <ROCS_TanimotoCombo>
0.484 

> <ROCS_ShapeTanimoto>
0.303 

> <ROCS_ColorTanimoto>
0.181 

> <ROCS_RefTversky>
0.274 

> <ROCS_RefColorTversky>
0.217 

> <ROCS_RefTverskyCombo>
0.491 

> <ROCS_FitTversky>
1.541 

> <ROCS_FitColorTversky>
0.522 

> <ROCS_FitTverskyCombo>
2.063 

> <ROCS_ColorScore>
-6.677

> <ROCS_Overlap>
1900.448

> <ROCS_Rank>
293                 

$$$$
untitled-dbase-46762_17
  -OEChem-11132313473D

 38 39  0     1  0  0  0  0  0999 V2000
   10.7517   12.6779   24.0786 C   0  0  0  0  0  0  0  0  0  0  0  0
    7.5493   11.7022   25.8967 C   0  0  0  0  0  0  0  0  0  0  0  0
    7.5230   12.6545   24.6930 C   0  0  0  0  0  0  0  0  0  0  0  0
    7.4881   10.2189   25.4983 C   0  0  0  0  0  0  0  0  0  0  0  0
    7.8089   10.7714   23.0774 C   0  0  0  0  0  0  0  0  0  0  0  0
    9.7721   10.3553   24.3502 C   0  0  0  0  0  0  0  0  0  0  0  0
    8.3649   12.1255   23.5209 C   0  0  2  0  0  0  0  0  0  0  0  0
    8.3101    9.8866   24.2286 C   0  0  1  0  0  0  0  0  0  0  0  0
   13.2298   14.0927   24.2353 C   0  0  0  0  0  0  0  0  0  0  0  0
   14.2572   12.0333   23.2289 C   0  0  0  0  0  0  0  0  0  0  0  0
   12.5383   13.3320   21.9379 C   0  0  0  0  0  0  0  0  0  0  0  0
   12.9947   12.8869   23.3266 C   0  0  0  0  0  0  0  0  0  0  0  0
    9.7092   11.7737   23.9879 N   0  0  0  0  0  0  0  0  0  0  0  0
    8.1988    8.4681   23.9248 N   0  0  0  0  0  0  0  0  0  0  0  0
   10.6081   13.8800   24.2887 O   0  0  0  0  0  0  0  0  0  0  0  0
   11.9678   12.0737   23.9051 O   0  0  0  0  0  0  0  0  0  0  0  0
    8.4735   11.8754   26.4632 H   0  0  0  0  0  0  0  0  0  0  0  0
    6.7279   11.9409   26.5819 H   0  0  0  0  0  0  0  0  0  0  0  0
    6.4854   12.7834   24.3602 H   0  0  0  0  0  0  0  0  0  0  0  0
    7.8795   13.6434   25.0040 H   0  0  0  0  0  0  0  0  0  0  0  0
    7.8289    9.6122   26.3470 H   0  0  0  0  0  0  0  0  0  0  0  0
    6.4363    9.9516   25.3273 H   0  0  0  0  0  0  0  0  0  0  0  0
    6.7188   10.7659   22.9690 H   0  0  0  0  0  0  0  0  0  0  0  0
    8.2498   10.4740   22.1171 H   0  0  0  0  0  0  0  0  0  0  0  0
   10.1965   10.2296   25.3516 H   0  0  0  0  0  0  0  0  0  0  0  0
   10.4340    9.8670   23.6249 H   0  0  0  0  0  0  0  0  0  0  0  0
    8.4094   12.8568   22.7080 H   0  0  0  0  0  0  0  0  0  0  0  0
   12.3258   14.7079   24.3079 H   0  0  0  0  0  0  0  0  0  0  0  0
   13.5238   13.7860   25.2444 H   0  0  0  0  0  0  0  0  0  0  0  0
   14.0137   14.7418   23.8286 H   0  0  0  0  0  0  0  0  0  0  0  0
   14.0931   11.1670   22.5779 H   0  0  0  0  0  0  0  0  0  0  0  0
   14.5348   11.6333   24.2109 H   0  0  0  0  0  0  0  0  0  0  0  0
   15.1032   12.6067   22.8364 H   0  0  0  0  0  0  0  0  0  0  0  0
   12.3696   12.4673   21.2859 H   0  0  0  0  0  0  0  0  0  0  0  0
   11.6128   13.9149   21.9852 H   0  0  0  0  0  0  0  0  0  0  0  0
   13.3088   13.9407   21.4510 H   0  0  0  0  0  0  0  0  0  0  0  0
    8.5501    7.9507   24.6977 H   0  0  0  0  0  0  0  0  0  0  0  0
    7.2406    8.2527   23.7701 H   0  0  0  0  0  0  0  0  0  0  0  0
  1 13  1  0  0  0  0
  1 15  2  0  0  0  0
  1 16  1  0  0  0  0
  2  3  1  0  0  0  0
  2  4  1  0  0  0  0
  3  7  1  0  0  0  0
  4  8  1  0  0  0  0
  5  7  1  0  0  0  0
  5  8  1  0  0  0  0
  6  8  1  0  0  0  0
  6 13  1  0  0  0  0
  7 13  1  0  0  0  0
  8 14  1  0  0  0  0
  9 12  1  0  0  0  0
 10 12  1  0  0  0  0
 11 12  1  0  0  0  0
 12 16  1  0  0  0  0
  2 17  1  0  0  0  0
  2 18  1  0  0  0  0
  3 19  1  0  0  0  0
  3 20  1  0  0  0  0
  4 21  1  0  0  0  0
  4 22  1  0  0  0  0
  5 23  1  0  0  0  0
  5 24  1  0  0  0  0
  6 25  1  0  0  0  0
  6 26  1  0  0  0  0
  7 27  1  0  0  0  0
  9 28  1  0  0  0  0
  9 29  1  0  0  0  0
  9 30  1  0  0  0  0
 10 31  1  0  0  0  0
 10 32  1  0  0  0  0
 10 33  1  0  0  0  0
 11 34  1  0  0  0  0
 11 35  1  0  0  0  0
 11 36  1  0  0  0  0
 14 37  1  0  0  0  0
 14 38  1  0  0  0  0
M  END
> <id>
EN300-33048410

> <smiles>
Cl.CC(C)(C)OC(=O)N1CC2(N)CC1CCC2

> <MDLNUMBER>
MFCD34551064

> <IUPAC Name>
tert-butyl 1-amino-6-azabicyclo[3.2.1]octane-6-carboxylate hydrochloride

> <CAS>
2703781-83-1

> <Purity>
95

> <URL>
https://www.enaminestore.com/catalog/EN300-33048410

> <ROCS_ShapeQuery>
A71EV2A-x0451_0A_A71EV2A-x0310_0A_A71EV2A-x0416_0A_peptide

> <ROCS_TanimotoCombo>
0.484 

> <ROCS_ShapeTanimoto>
0.265 

> <ROCS_ColorTanimoto>
0.219 

> <ROCS_RefTversky>
0.241 

> <ROCS_RefColorTversky>
0.244 

> <ROCS_RefTverskyCombo>
0.485 

> <ROCS_FitTversky>
1.612 

> <ROCS_FitColorTversky>
0.683 

> <ROCS_FitTverskyCombo>
2.295 

> <ROCS_ColorScore>
-7.471

> <ROCS_Overlap>
1667.044

> <ROCS_Rank>
294                 

$$$$
untitled-dbase-46751_17
  -OEChem-11132313473D

 38 39  0     1  0  0  0  0  0999 V2000
   10.7517   12.6779   24.0786 C   0  0  0  0  0  0  0  0  0  0  0  0
    7.5493   11.7022   25.8967 C   0  0  0  0  0  0  0  0  0  0  0  0
    7.5230   12.6545   24.6930 C   0  0  0  0  0  0  0  0  0  0  0  0
    7.4881   10.2189   25.4983 C   0  0  0  0  0  0  0  0  0  0  0  0
    7.8089   10.7714   23.0774 C   0  0  0  0  0  0  0  0  0  0  0  0
    9.7721   10.3553   24.3502 C   0  0  0  0  0  0  0  0  0  0  0  0
    8.3649   12.1255   23.5209 C   0  0  2  0  0  0  0  0  0  0  0  0
    8.3101    9.8866   24.2286 C   0  0  1  0  0  0  0  0  0  0  0  0
   13.2298   14.0927   24.2353 C   0  0  0  0  0  0  0  0  0  0  0  0
   14.2572   12.0333   23.2289 C   0  0  0  0  0  0  0  0  0  0  0  0
   12.5383   13.3320   21.9379 C   0  0  0  0  0  0  0  0  0  0  0  0
   12.9947   12.8869   23.3266 C   0  0  0  0  0  0  0  0  0  0  0  0
    9.7092   11.7737   23.9879 N   0  0  0  0  0  0  0  0  0  0  0  0
    8.1988    8.4681   23.9248 N   0  0  0  0  0  0  0  0  0  0  0  0
   10.6081   13.8800   24.2887 O   0  0  0  0  0  0  0  0  0  0  0  0
   11.9678   12.0737   23.9051 O   0  0  0  0  0  0  0  0  0  0  0  0
    8.4735   11.8754   26.4632 H   0  0  0  0  0  0  0  0  0  0  0  0
    6.7279   11.9409   26.5819 H   0  0  0  0  0  0  0  0  0  0  0  0
    6.4854   12.7834   24.3602 H   0  0  0  0  0  0  0  0  0  0  0  0
    7.8795   13.6434   25.0040 H   0  0  0  0  0  0  0  0  0  0  0  0
    7.8289    9.6122   26.3470 H   0  0  0  0  0  0  0  0  0  0  0  0
    6.4363    9.9516   25.3273 H   0  0  0  0  0  0  0  0  0  0  0  0
    6.7188   10.7659   22.9690 H   0  0  0  0  0  0  0  0  0  0  0  0
    8.2498   10.4740   22.1171 H   0  0  0  0  0  0  0  0  0  0  0  0
   10.1965   10.2296   25.3516 H   0  0  0  0  0  0  0  0  0  0  0  0
   10.4340    9.8670   23.6249 H   0  0  0  0  0  0  0  0  0  0  0  0
    8.4094   12.8568   22.7080 H   0  0  0  0  0  0  0  0  0  0  0  0
   12.3258   14.7079   24.3079 H   0  0  0  0  0  0  0  0  0  0  0  0
   13.5238   13.7860   25.2444 H   0  0  0  0  0  0  0  0  0  0  0  0
   14.0137   14.7418   23.8286 H   0  0  0  0  0  0  0  0  0  0  0  0
   14.0931   11.1670   22.5779 H   0  0  0  0  0  0  0  0  0  0  0  0
   14.5348   11.6333   24.2109 H   0  0  0  0  0  0  0  0  0  0  0  0
   15.1032   12.6067   22.8364 H   0  0  0  0  0  0  0  0  0  0  0  0
   12.3696   12.4673   21.2859 H   0  0  0  0  0  0  0  0  0  0  0  0
   11.6128   13.9149   21.9852 H   0  0  0  0  0  0  0  0  0  0  0  0
   13.3088   13.9407   21.4510 H   0  0  0  0  0  0  0  0  0  0  0  0
    8.5501    7.9507   24.6977 H   0  0  0  0  0  0  0  0  0  0  0  0
    7.2406    8.2527   23.7701 H   0  0  0  0  0  0  0  0  0  0  0  0
  1 13  1  0  0  0  0
  1 15  2  0  0  0  0
  1 16  1  0  0  0  0
  2  3  1  0  0  0  0
  2  4  1  0  0  0  0
  3  7  1  0  0  0  0
  4  8  1  0  0  0  0
  5  7  1  0  0  0  0
  5  8  1  0  0  0  0
  6  8  1  0  0  0  0
  6 13  1  0  0  0  0
  7 13  1  0  0  0  0
  8 14  1  0  0  0  0
  9 12  1  0  0  0  0
 10 12  1  0  0  0  0
 11 12  1  0  0  0  0
 12 16  1  0  0  0  0
  2 17  1  0  0  0  0
  2 18  1  0  0  0  0
  3 19  1  0  0  0  0
  3 20  1  0  0  0  0
  4 21  1  0  0  0  0
  4 22  1  0  0  0  0
  5 23  1  0  0  0  0
  5 24  1  0  0  0  0
  6 25  1  0  0  0  0
  6 26  1  0  0  0  0
  7 27  1  0  0  0  0
  9 28  1  0  0  0  0
  9 29  1  0  0  0  0
  9 30  1  0  0  0  0
 10 31  1  0  0  0  0
 10 32  1  0  0  0  0
 10 33  1  0  0  0  0
 11 34  1  0  0  0  0
 11 35  1  0  0  0  0
 11 36  1  0  0  0  0
 14 37  1  0  0  0  0
 14 38  1  0  0  0  0
M  END
> <id>
EN300-33048411

> <smiles>
CC(C)(C)OC(=O)N1CC2(N)CC1CCC2

> <MDLNUMBER>
MFCD34551049

> <IUPAC Name>
tert-butyl 1-amino-6-azabicyclo[3.2.1]octane-6-carboxylate

> <CAS>
2703772-05-6

> <URL>
https://www.enaminestore.com/catalog/EN300-33048411

> <ROCS_ShapeQuery>
A71EV2A-x0451_0A_A71EV2A-x0310_0A_A71EV2A-x0416_0A_peptide

> <ROCS_TanimotoCombo>
0.484 

> <ROCS_ShapeTanimoto>
0.265 

> <ROCS_ColorTanimoto>
0.219 

> <ROCS_RefTversky>
0.241 

> <ROCS_RefColorTversky>
0.244 

> <ROCS_RefTverskyCombo>
0.485 

> <ROCS_FitTversky>
1.612 

> <ROCS_FitColorTversky>
0.683 

> <ROCS_FitTverskyCombo>
2.295 

> <ROCS_ColorScore>
-7.471

> <ROCS_Overlap>
1667.044

> <ROCS_Rank>
295                 

$$$$
untitled-dbase-46424_243
  -OEChem-11132313473D

 44 46  0     0  0  0  0  0  0999 V2000
    7.0767   10.0828   25.4917 C   0  0  0  0  0  0  0  0  0  0  0  0
    7.6589   12.7115   24.8801 C   0  0  0  0  0  0  0  0  0  0  0  0
    8.4222   11.7067   24.3273 C   0  0  0  0  0  0  0  0  0  0  0  0
    8.1110   10.3824   24.6280 C   0  0  0  0  0  0  0  0  0  0  0  0
    6.3572   11.1585   25.9915 C   0  0  0  0  0  0  0  0  0  0  0  0
   12.0648   15.2461   22.3593 C   0  0  0  0  0  0  0  0  0  0  0  0
    9.4323   12.6504   22.1994 C   0  0  0  0  0  0  0  0  0  0  0  0
   10.8866   12.2018   24.2655 C   0  0  0  0  0  0  0  0  0  0  0  0
   10.7393   13.2578   21.7023 C   0  0  0  0  0  0  0  0  0  0  0  0
   11.1849   13.6930   24.1291 C   0  0  0  0  0  0  0  0  0  0  0  0
    9.7636   10.2455   23.0600 C   0  0  0  0  0  0  0  0  0  0  0  0
    9.6469   11.7637   23.4457 C   0  0  0  0  0  0  0  0  0  0  0  0
   13.6812   17.2962   21.1893 C   0  0  0  0  0  0  0  0  0  0  0  0
   13.4744   15.9857   19.0564 C   0  0  0  0  0  0  0  0  0  0  0  0
   11.4209   16.9433   20.1400 C   0  0  0  0  0  0  0  0  0  0  0  0
   12.8040   16.3405   20.3819 C   0  0  0  0  0  0  0  0  0  0  0  0
    6.6171   12.4617   25.7057 N   0  0  0  0  0  0  0  0  0  0  0  0
    9.0069    9.4875   24.0500 N   0  0  0  0  0  0  0  0  0  0  0  0
   11.3594   14.0966   22.7293 N   0  0  0  0  0  0  0  0  0  0  0  0
   12.1622   16.2542   23.0565 O   0  0  0  0  0  0  0  0  0  0  0  0
   12.6486   15.1264   21.1254 O   0  0  0  0  0  0  0  0  0  0  0  0
    5.0353   10.9133   27.0597 Cl  0  0  0  0  0  0  0  0  0  0  0  0
    6.8422    9.0589   25.7587 H   0  0  0  0  0  0  0  0  0  0  0  0
    7.8619   13.7593   24.6901 H   0  0  0  0  0  0  0  0  0  0  0  0
    8.7363   13.4658   22.4347 H   0  0  0  0  0  0  0  0  0  0  0  0
    8.9633   12.0748   21.3924 H   0  0  0  0  0  0  0  0  0  0  0  0
   11.7700   11.6257   23.9651 H   0  0  0  0  0  0  0  0  0  0  0  0
   10.7221   11.9776   25.3275 H   0  0  0  0  0  0  0  0  0  0  0  0
   11.4621   12.4742   21.4420 H   0  0  0  0  0  0  0  0  0  0  0  0
   10.5536   13.8390   20.7919 H   0  0  0  0  0  0  0  0  0  0  0  0
   10.3834   14.2669   24.6101 H   0  0  0  0  0  0  0  0  0  0  0  0
   12.1134   13.9574   24.6539 H   0  0  0  0  0  0  0  0  0  0  0  0
    9.3224   10.0564   22.0731 H   0  0  0  0  0  0  0  0  0  0  0  0
   10.7993    9.8940   23.0274 H   0  0  0  0  0  0  0  0  0  0  0  0
   13.2035   17.5533   22.1414 H   0  0  0  0  0  0  0  0  0  0  0  0
   14.6639   16.8615   21.3995 H   0  0  0  0  0  0  0  0  0  0  0  0
   13.8281   18.2403   20.6522 H   0  0  0  0  0  0  0  0  0  0  0  0
   12.8484   15.3002   18.4738 H   0  0  0  0  0  0  0  0  0  0  0  0
   14.4248   15.4670   19.2263 H   0  0  0  0  0  0  0  0  0  0  0  0
   13.6691   16.8767   18.4509 H   0  0  0  0  0  0  0  0  0  0  0  0
   10.7914   16.2580   19.5609 H   0  0  0  0  0  0  0  0  0  0  0  0
   10.9096   17.1702   21.0812 H   0  0  0  0  0  0  0  0  0  0  0  0
   11.4951   17.8658   19.5529 H   0  0  0  0  0  0  0  0  0  0  0  0
    8.7988    8.5063   23.9542 H   0  0  0  0  0  0  0  0  0  0  0  0
  1  4  2  0  0  0  0
  1  5  1  0  0  0  0
  2  3  2  0  0  0  0
  2 17  1  0  0  0  0
  3  4  1  0  0  0  0
  3 12  1  0  0  0  0
  4 18  1  0  0  0  0
  5 17  2  0  0  0  0
  5 22  1  0  0  0  0
  6 19  1  0  0  0  0
  6 20  2  0  0  0  0
  6 21  1  0  0  0  0
  7  9  1  0  0  0  0
  7 12  1  0  0  0  0
  8 10  1  0  0  0  0
  8 12  1  0  0  0  0
  9 19  1  0  0  0  0
 10 19  1  0  0  0  0
 11 12  1  0  0  0  0
 11 18  1  0  0  0  0
 13 16  1  0  0  0  0
 14 16  1  0  0  0  0
 15 16  1  0  0  0  0
 16 21  1  0  0  0  0
  1 23  1  0  0  0  0
  2 24  1  0  0  0  0
  7 25  1  0  0  0  0
  7 26  1  0  0  0  0
  8 27  1  0  0  0  0
  8 28  1  0  0  0  0
  9 29  1  0  0  0  0
  9 30  1  0  0  0  0
 10 31  1  0  0  0  0
 10 32  1  0  0  0  0
 11 33  1  0  0  0  0
 11 34  1  0  0  0  0
 13 35  1  0  0  0  0
 13 36  1  0  0  0  0
 13 37  1  0  0  0  0
 14 38  1  0  0  0  0
 14 39  1  0  0  0  0
 14 40  1  0  0  0  0
 15 41  1  0  0  0  0
 15 42  1  0  0  0  0
 15 43  1  0  0  0  0
 18 44  1  0  0  0  0
M  END
> <id>
EN300-12734190

> <smiles>
CC(C)(C)OC(=O)N1CCC2(CNC=3C=C(Cl)N=CC32)CC1

> <MDLNUMBER>
MFCD23159229

> <IUPAC Name>
tert-butyl 6'-chloro-1',2'-dihydrospiro[piperidine-4,3'-pyrrolo[3,2-c]pyridine]-1-carboxylate

> <CAS>
1823790-57-3

> <Purity>
95

> <URL>
https://www.enaminestore.com/catalog/EN300-12734190

> <ROCS_ShapeQuery>
A71EV2A-x0451_0A_A71EV2A-x0310_0A_A71EV2A-x0416_0A_peptide

> <ROCS_TanimotoCombo>
0.484 

> <ROCS_ShapeTanimoto>
0.356 

> <ROCS_ColorTanimoto>
0.128 

> <ROCS_RefTversky>
0.311 

> <ROCS_RefColorTversky>
0.144 

> <ROCS_RefTverskyCombo>
0.456 

> <ROCS_FitTversky>
1.662 

> <ROCS_FitColorTversky>
0.533 

> <ROCS_FitTverskyCombo>
2.195 

> <ROCS_ColorScore>
-4.403

> <ROCS_Overlap>
2163.281

> <ROCS_Rank>
296                 

$$$$
untitled-dbase-31645_36
  -OEChem-11132313473D

 32 33  0     1  0  0  0  0  0999 V2000
   10.3935   13.1387   23.5157 C   0  0  0  0  0  0  0  0  0  0  0  0
    9.4418   11.7730   25.4408 C   0  0  0  0  0  0  0  0  0  0  0  0
    7.4279   11.4569   23.4397 C   0  0  0  0  0  0  0  0  0  0  0  0
    8.9038   11.1209   23.2244 C   0  0  2  0  0  0  0  0  0  0  0  0
    8.4816   10.5831   25.3071 C   0  0  2  0  0  0  0  0  0  0  0  0
    9.0359    9.8699   24.0784 C   0  0  1  0  0  0  0  0  0  0  0  0
   12.8871   14.2128   22.6252 C   0  0  0  0  0  0  0  0  0  0  0  0
   12.2602   13.3076   20.3675 C   0  0  0  0  0  0  0  0  0  0  0  0
   10.8342   15.0703   21.4481 C   0  0  0  0  0  0  0  0  0  0  0  0
   11.7316   13.8575   21.6905 C   0  0  0  0  0  0  0  0  0  0  0  0
    9.6610   12.0888   24.0260 N   0  0  0  0  0  0  0  0  0  0  0  0
   10.5322   14.2231   24.0761 O   0  0  0  0  0  0  0  0  0  0  0  0
    7.2123   11.1207   24.8382 O   0  0  0  0  0  0  0  0  0  0  0  0
    8.2161    8.7981   23.6652 O   0  0  0  0  0  0  0  0  0  0  0  0
   10.9495   12.8270   22.3043 O   0  0  0  0  0  0  0  0  0  0  0  0
    9.0028   12.6400   25.9428 H   0  0  0  0  0  0  0  0  0  0  0  0
   10.4009   11.5039   25.8929 H   0  0  0  0  0  0  0  0  0  0  0  0
    7.1874   12.5119   23.2752 H   0  0  0  0  0  0  0  0  0  0  0  0
    6.7613   10.8366   22.8323 H   0  0  0  0  0  0  0  0  0  0  0  0
    9.2114   11.0677   22.1789 H   0  0  0  0  0  0  0  0  0  0  0  0
    8.3340    9.9816   26.2055 H   0  0  0  0  0  0  0  0  0  0  0  0
   10.0673    9.5207   24.1978 H   0  0  0  0  0  0  0  0  0  0  0  0
   12.5118   14.6080   23.5759 H   0  0  0  0  0  0  0  0  0  0  0  0
   13.5183   13.3432   22.8349 H   0  0  0  0  0  0  0  0  0  0  0  0
   13.5145   14.9990   22.1898 H   0  0  0  0  0  0  0  0  0  0  0  0
   11.4346   13.0513   19.6938 H   0  0  0  0  0  0  0  0  0  0  0  0
   12.8264   12.3829   20.5276 H   0  0  0  0  0  0  0  0  0  0  0  0
   12.9099   14.0286   19.8610 H   0  0  0  0  0  0  0  0  0  0  0  0
   10.0054   14.8156   20.7778 H   0  0  0  0  0  0  0  0  0  0  0  0
   10.4161   15.4560   22.3836 H   0  0  0  0  0  0  0  0  0  0  0  0
   11.3922   15.8761   20.9577 H   0  0  0  0  0  0  0  0  0  0  0  0
    8.3788    8.0565   24.2751 H   0  0  0  0  0  0  0  0  0  0  0  0
  1 11  1  0  0  0  0
  1 12  2  0  0  0  0
  1 15  1  0  0  0  0
  2  5  1  6  0  0  0
  2 11  1  0  0  0  0
  3  4  1  0  0  0  0
  3 13  1  0  0  0  0
  4  6  1  0  0  0  0
  4 11  1  0  0  0  0
  5  6  1  0  0  0  0
  5 13  1  0  0  0  0
  6 14  1  1  0  0  0
  7 10  1  0  0  0  0
  8 10  1  0  0  0  0
  9 10  1  0  0  0  0
 10 15  1  0  0  0  0
  2 16  1  0  0  0  0
  2 17  1  0  0  0  0
  3 18  1  0  0  0  0
  3 19  1  0  0  0  0
  4 20  1  0  0  0  0
  5 21  1  0  0  0  0
  6 22  1  0  0  0  0
  7 23  1  0  0  0  0
  7 24  1  0  0  0  0
  7 25  1  0  0  0  0
  8 26  1  0  0  0  0
  8 27  1  0  0  0  0
  8 28  1  0  0  0  0
  9 29  1  0  0  0  0
  9 30  1  0  0  0  0
  9 31  1  0  0  0  0
 14 32  1  0  0  0  0
M  END
> <id>
EN300-26666024

> <smiles>
CC(C)(C)OC(=O)N1C[C@H]2OCC1[C@@H]2O

> <IUPAC Name>
tert-butyl (1R,7S)-7-hydroxy-2-oxa-5-azabicyclo[2.2.1]heptane-5-carboxylate

> <CAS>
2413864-22-7

> <URL>
https://www.enaminestore.com/catalog/EN300-26666024

> <ROCS_ShapeQuery>
A71EV2A-x0451_0A_A71EV2A-x0310_0A_A71EV2A-x0416_0A_peptide

> <ROCS_TanimotoCombo>
0.484 

> <ROCS_ShapeTanimoto>
0.271 

> <ROCS_ColorTanimoto>
0.213 

> <ROCS_RefTversky>
0.244 

> <ROCS_RefColorTversky>
0.247 

> <ROCS_RefTverskyCombo>
0.491 

> <ROCS_FitTversky>
1.678 

> <ROCS_FitColorTversky>
0.608 

> <ROCS_FitTverskyCombo>
2.286 

> <ROCS_ColorScore>
-7.573

> <ROCS_Overlap>
1692.088

> <ROCS_Rank>
297                 

$$$$
untitled-dbase-20658_3
  -OEChem-11132313473D

 38 39  0     0  0  0  0  0  0999 V2000
    8.6296    8.5727   23.0883 C   0  0  0  0  0  0  0  0  0  0  0  0
    8.5150    7.4318   22.7320 C   0  0  0  0  0  0  0  0  0  0  0  0
    6.8060   12.5334   26.1368 C   0  0  0  0  0  0  0  0  0  0  0  0
    6.2782   11.2506   26.0622 C   0  0  0  0  0  0  0  0  0  0  0  0
    7.9185   12.8997   25.3724 C   0  0  0  0  0  0  0  0  0  0  0  0
    9.7399   10.7772   23.0483 C   0  0  0  0  0  0  0  0  0  0  0  0
    8.7661    9.9271   23.5094 C   0  0  0  0  0  0  0  0  0  0  0  0
    7.9755   10.6446   24.4374 C   0  0  0  0  0  0  0  0  0  0  0  0
    6.8527   10.2983   25.2180 C   0  0  0  0  0  0  0  0  0  0  0  0
    8.4999   11.9418   24.5197 C   0  0  0  0  0  0  0  0  0  0  0  0
   10.4105   13.1362   23.4273 C   0  0  0  0  0  0  0  0  0  0  0  0
    6.2323    8.9353   25.1897 C   0  0  0  0  0  0  0  0  0  0  0  0
   12.9478   14.2136   22.7543 C   0  0  0  0  0  0  0  0  0  0  0  0
   12.1937   14.0071   20.3673 C   0  0  0  0  0  0  0  0  0  0  0  0
   10.9441   15.5059   21.9485 C   0  0  0  0  0  0  0  0  0  0  0  0
   11.7446   14.2115   21.8125 C   0  0  0  0  0  0  0  0  0  0  0  0
    9.5954   12.0140   23.6526 N   0  0  0  0  0  0  0  0  0  0  0  0
    8.3785    6.0660   22.3053 N   0  0  0  0  0  0  0  0  0  0  0  0
   10.6058   13.9695   24.2966 O   0  0  0  0  0  0  0  0  0  0  0  0
   10.8965   13.1127   22.1599 O   0  0  0  0  0  0  0  0  0  0  0  0
    6.3494   13.2648   26.7987 H   0  0  0  0  0  0  0  0  0  0  0  0
    5.4129   10.9966   26.6693 H   0  0  0  0  0  0  0  0  0  0  0  0
    8.3071   13.9088   25.4529 H   0  0  0  0  0  0  0  0  0  0  0  0
   10.5308   10.5966   22.3312 H   0  0  0  0  0  0  0  0  0  0  0  0
    5.4540    8.8929   24.4211 H   0  0  0  0  0  0  0  0  0  0  0  0
    6.9831    8.1671   24.9748 H   0  0  0  0  0  0  0  0  0  0  0  0
    5.7855    8.6878   26.1589 H   0  0  0  0  0  0  0  0  0  0  0  0
   12.6297   14.3600   23.7927 H   0  0  0  0  0  0  0  0  0  0  0  0
   13.5105   13.2764   22.6920 H   0  0  0  0  0  0  0  0  0  0  0  0
   13.6269   15.0412   22.5194 H   0  0  0  0  0  0  0  0  0  0  0  0
   11.3336   14.0049   19.6881 H   0  0  0  0  0  0  0  0  0  0  0  0
   12.6858   13.0354   20.2452 H   0  0  0  0  0  0  0  0  0  0  0  0
   12.8878   14.7901   20.0453 H   0  0  0  0  0  0  0  0  0  0  0  0
   10.0809   15.5047   21.2731 H   0  0  0  0  0  0  0  0  0  0  0  0
   10.5821   15.6507   22.9716 H   0  0  0  0  0  0  0  0  0  0  0  0
   11.5541   16.3725   21.6691 H   0  0  0  0  0  0  0  0  0  0  0  0
    7.4592    5.6550   22.2254 H   0  0  0  0  0  0  0  0  0  0  0  0
    9.2025    5.5235   22.0885 H   0  0  0  0  0  0  0  0  0  0  0  0
  1  2  3  0  0  0  0
  1  7  1  0  0  0  0
  2 18  1  0  0  0  0
  3  4  1  0  0  0  0
  3  5  2  0  0  0  0
  4  9  2  0  0  0  0
  5 10  1  0  0  0  0
  6  7  2  0  0  0  0
  6 17  1  0  0  0  0
  7  8  1  0  0  0  0
  8  9  1  0  0  0  0
  8 10  2  0  0  0  0
  9 12  1  0  0  0  0
 10 17  1  0  0  0  0
 11 17  1  0  0  0  0
 11 19  2  0  0  0  0
 11 20  1  0  0  0  0
 13 16  1  0  0  0  0
 14 16  1  0  0  0  0
 15 16  1  0  0  0  0
 16 20  1  0  0  0  0
  3 21  1  0  0  0  0
  4 22  1  0  0  0  0
  5 23  1  0  0  0  0
  6 24  1  0  0  0  0
 12 25  1  0  0  0  0
 12 26  1  0  0  0  0
 12 27  1  0  0  0  0
 13 28  1  0  0  0  0
 13 29  1  0  0  0  0
 13 30  1  0  0  0  0
 14 31  1  0  0  0  0
 14 32  1  0  0  0  0
 14 33  1  0  0  0  0
 15 34  1  0  0  0  0
 15 35  1  0  0  0  0
 15 36  1  0  0  0  0
 18 37  1  0  0  0  0
 18 38  1  0  0  0  0
M  END
> <id>
EN300-624593

> <smiles>
CC=1C=CC=C2N(C=C(C#CN)C12)C(=O)OC(C)(C)C

> <MDLNUMBER>
MFCD30752586

> <IUPAC Name>
tert-butyl 3-(2-aminoethynyl)-4-methyl-1H-indole-1-carboxylate

> <CAS>
2138202-17-0

> <URL>
https://www.enaminestore.com/catalog/EN300-624593

> <ROCS_ShapeQuery>
A71EV2A-x0451_0A_A71EV2A-x0310_0A_A71EV2A-x0416_0A_peptide

> <ROCS_TanimotoCombo>
0.484 

> <ROCS_ShapeTanimoto>
0.351 

> <ROCS_ColorTanimoto>
0.133 

> <ROCS_RefTversky>
0.305 

> <ROCS_RefColorTversky>
0.146 

> <ROCS_RefTverskyCombo>
0.451 

> <ROCS_FitTversky>
1.738 

> <ROCS_FitColorTversky>
0.607 

> <ROCS_FitTverskyCombo>
2.345 

> <ROCS_ColorScore>
-4.435

> <ROCS_Overlap>
2117.872

> <ROCS_Rank>
298                 

$$$$
untitled-dbase-42858_36
  -OEChem-11132313473D

 32 33  0     1  0  0  0  0  0999 V2000
   10.3937   13.1387   23.5150 C   0  0  0  0  0  0  0  0  0  0  0  0
    9.4410   11.7746   25.4408 C   0  0  0  0  0  0  0  0  0  0  0  0
    7.4279   11.4570   23.4395 C   0  0  0  0  0  0  0  0  0  0  0  0
    8.9040   11.1208   23.2247 C   0  0  2  0  0  0  0  0  0  0  0  0
    8.4813   10.5841   25.3076 C   0  0  2  0  0  0  0  0  0  0  0  0
    9.0360    9.8704   24.0793 C   0  0  1  0  0  0  0  0  0  0  0  0
   12.8870   14.2124   22.6243 C   0  0  0  0  0  0  0  0  0  0  0  0
   12.2606   13.3057   20.3671 C   0  0  0  0  0  0  0  0  0  0  0  0
   10.8342   15.0688   21.4465 C   0  0  0  0  0  0  0  0  0  0  0  0
   11.7317   13.8563   21.6897 C   0  0  0  0  0  0  0  0  0  0  0  0
    9.6609   12.0893   24.0259 N   0  0  0  0  0  0  0  0  0  0  0  0
   10.5323   14.2234   24.0745 O   0  0  0  0  0  0  0  0  0  0  0  0
    7.2119   11.1210   24.8379 O   0  0  0  0  0  0  0  0  0  0  0  0
    8.2162    8.7984   23.6663 O   0  0  0  0  0  0  0  0  0  0  0  0
   10.9497   12.8261   22.3039 O   0  0  0  0  0  0  0  0  0  0  0  0
    9.0014   12.6417   25.9413 H   0  0  0  0  0  0  0  0  0  0  0  0
   10.3999   11.5064   25.8938 H   0  0  0  0  0  0  0  0  0  0  0  0
    7.1874   12.5117   23.2744 H   0  0  0  0  0  0  0  0  0  0  0  0
    6.7615   10.8362   22.8323 H   0  0  0  0  0  0  0  0  0  0  0  0
    9.2118   11.0674   22.1794 H   0  0  0  0  0  0  0  0  0  0  0  0
    8.3341    9.9827   26.2059 H   0  0  0  0  0  0  0  0  0  0  0  0
   10.0671    9.5211   24.1997 H   0  0  0  0  0  0  0  0  0  0  0  0
   12.5115   14.6080   23.5748 H   0  0  0  0  0  0  0  0  0  0  0  0
   13.5183   13.3429   22.8346 H   0  0  0  0  0  0  0  0  0  0  0  0
   13.5144   14.9984   22.1887 H   0  0  0  0  0  0  0  0  0  0  0  0
   11.4351   13.0490   19.6934 H   0  0  0  0  0  0  0  0  0  0  0  0
   12.8269   12.3812   20.5278 H   0  0  0  0  0  0  0  0  0  0  0  0
   12.9102   14.0266   19.8603 H   0  0  0  0  0  0  0  0  0  0  0  0
   10.0054   14.8137   20.7762 H   0  0  0  0  0  0  0  0  0  0  0  0
   10.4159   15.4550   22.3817 H   0  0  0  0  0  0  0  0  0  0  0  0
   11.3921   15.8744   20.9557 H   0  0  0  0  0  0  0  0  0  0  0  0
    8.3788    8.0571   24.2765 H   0  0  0  0  0  0  0  0  0  0  0  0
  1 11  1  0  0  0  0
  1 12  2  0  0  0  0
  1 15  1  0  0  0  0
  2  5  1  6  0  0  0
  2 11  1  0  0  0  0
  3  4  1  6  0  0  0
  3 13  1  0  0  0  0
  4  6  1  0  0  0  0
  4 11  1  0  0  0  0
  5  6  1  0  0  0  0
  5 13  1  0  0  0  0
  6 14  1  1  0  0  0
  7 10  1  0  0  0  0
  8 10  1  0  0  0  0
  9 10  1  0  0  0  0
 10 15  1  0  0  0  0
  2 16  1  0  0  0  0
  2 17  1  0  0  0  0
  3 18  1  0  0  0  0
  3 19  1  0  0  0  0
  4 20  1  0  0  0  0
  5 21  1  0  0  0  0
  6 22  1  0  0  0  0
  7 23  1  0  0  0  0
  7 24  1  0  0  0  0
  7 25  1  0  0  0  0
  8 26  1  0  0  0  0
  8 27  1  0  0  0  0
  8 28  1  0  0  0  0
  9 29  1  0  0  0  0
  9 30  1  0  0  0  0
  9 31  1  0  0  0  0
 14 32  1  0  0  0  0
M  END
> <id>
EN300-27718337

> <smiles>
CC(C)(C)OC(=O)N1C[C@H]2OC[C@@H]1[C@@H]2O

> <IUPAC Name>
tert-butyl (1R,4R,7S)-7-hydroxy-2-oxa-5-azabicyclo[2.2.1]heptane-5-carboxylate

> <CAS>
2580102-62-9

> <URL>
https://www.enaminestore.com/catalog/EN300-27718337

> <ROCS_ShapeQuery>
A71EV2A-x0451_0A_A71EV2A-x0310_0A_A71EV2A-x0416_0A_peptide

> <ROCS_TanimotoCombo>
0.484 

> <ROCS_ShapeTanimoto>
0.271 

> <ROCS_ColorTanimoto>
0.213 

> <ROCS_RefTversky>
0.244 

> <ROCS_RefColorTversky>
0.247 

> <ROCS_RefTverskyCombo>
0.491 

> <ROCS_FitTversky>
1.678 

> <ROCS_FitColorTversky>
0.608 

> <ROCS_FitTverskyCombo>
2.286 

> <ROCS_ColorScore>
-7.573

> <ROCS_Overlap>
1692.023

> <ROCS_Rank>
299                 

$$$$
untitled-dbase-45130_65
  -OEChem-11132313473D

 35 36  0     0  0  0  0  0  0999 V2000
    6.8882   10.6070   25.6081 C   0  0  0  0  0  0  0  0  0  0  0  0
    6.3783   11.6919   26.3087 C   0  0  0  0  0  0  0  0  0  0  0  0
    7.9236   13.1440   25.1408 C   0  0  0  0  0  0  0  0  0  0  0  0
    7.9225   10.7979   24.6789 C   0  0  0  0  0  0  0  0  0  0  0  0
    8.5064   12.0625   24.4598 C   0  0  0  0  0  0  0  0  0  0  0  0
    6.8826   12.9610   26.0607 C   0  0  0  0  0  0  0  0  0  0  0  0
    8.3338    9.6372   23.8663 C   0  0  0  0  0  0  0  0  0  0  0  0
   10.4790   13.3315   23.4417 C   0  0  0  0  0  0  0  0  0  0  0  0
    8.9995    9.9714   22.5687 C   0  0  0  0  0  0  0  0  0  0  0  0
   10.0597   11.0222   22.8038 C   0  0  0  0  0  0  0  0  0  0  0  0
   12.2088   15.5226   22.7837 C   0  0  0  0  0  0  0  0  0  0  0  0
   12.0052   14.7224   20.4115 C   0  0  0  0  0  0  0  0  0  0  0  0
    9.9649   15.5142   21.6437 C   0  0  0  0  0  0  0  0  0  0  0  0
   11.3145   14.8091   21.7708 C   0  0  0  0  0  0  0  0  0  0  0  0
    9.6274   12.2040   23.5589 N   0  0  0  0  0  0  0  0  0  0  0  0
    8.0726    8.4881   24.2005 O   0  0  0  0  0  0  0  0  0  0  0  0
   10.6153   14.1694   24.3353 O   0  0  0  0  0  0  0  0  0  0  0  0
   11.0883   13.4694   22.2263 O   0  0  0  0  0  0  0  0  0  0  0  0
    6.3618   14.0222   26.6925 F   0  0  0  0  0  0  0  0  0  0  0  0
    6.4772    9.6212   25.8025 H   0  0  0  0  0  0  0  0  0  0  0  0
    5.5913   11.5502   27.0410 H   0  0  0  0  0  0  0  0  0  0  0  0
    8.2204   14.1731   24.9509 H   0  0  0  0  0  0  0  0  0  0  0  0
    9.4270    9.0615   22.1454 H   0  0  0  0  0  0  0  0  0  0  0  0
    8.2487   10.3653   21.8816 H   0  0  0  0  0  0  0  0  0  0  0  0
   10.9261   10.5323   23.2960 H   0  0  0  0  0  0  0  0  0  0  0  0
   10.4580   11.3972   21.8340 H   0  0  0  0  0  0  0  0  0  0  0  0
   11.7165   15.5868   23.7608 H   0  0  0  0  0  0  0  0  0  0  0  0
   13.1663   15.0070   22.9100 H   0  0  0  0  0  0  0  0  0  0  0  0
   12.4094   16.5535   22.4703 H   0  0  0  0  0  0  0  0  0  0  0  0
   11.3672   14.2112   19.6816 H   0  0  0  0  0  0  0  0  0  0  0  0
   12.9282   14.1352   20.4794 H   0  0  0  0  0  0  0  0  0  0  0  0
   12.2534   15.7144   20.0204 H   0  0  0  0  0  0  0  0  0  0  0  0
    9.3233   15.0026   20.9172 H   0  0  0  0  0  0  0  0  0  0  0  0
    9.4383   15.5530   22.6028 H   0  0  0  0  0  0  0  0  0  0  0  0
   10.0935   16.5384   21.2754 H   0  0  0  0  0  0  0  0  0  0  0  0
  1  2  1  0  0  0  0
  1  4  2  0  0  0  0
  2  6  2  0  0  0  0
  3  5  2  0  0  0  0
  3  6  1  0  0  0  0
  4  5  1  0  0  0  0
  4  7  1  0  0  0  0
  5 15  1  0  0  0  0
  6 19  1  0  0  0  0
  7  9  1  0  0  0  0
  7 16  2  0  0  0  0
  8 15  1  0  0  0  0
  8 17  2  0  0  0  0
  8 18  1  0  0  0  0
  9 10  1  0  0  0  0
 10 15  1  0  0  0  0
 11 14  1  0  0  0  0
 12 14  1  0  0  0  0
 13 14  1  0  0  0  0
 14 18  1  0  0  0  0
  1 20  1  0  0  0  0
  2 21  1  0  0  0  0
  3 22  1  0  0  0  0
  9 23  1  0  0  0  0
  9 24  1  0  0  0  0
 10 25  1  0  0  0  0
 10 26  1  0  0  0  0
 11 27  1  0  0  0  0
 11 28  1  0  0  0  0
 11 29  1  0  0  0  0
 12 30  1  0  0  0  0
 12 31  1  0  0  0  0
 12 32  1  0  0  0  0
 13 33  1  0  0  0  0
 13 34  1  0  0  0  0
 13 35  1  0  0  0  0
M  END
> <id>
EN300-7380642

> <smiles>
CC(C)(C)OC(=O)N1CCC(=O)C=2C=CC(F)=CC12

> <MDLNUMBER>
MFCD11111220

> <IUPAC Name>
tert-butyl 7-fluoro-4-oxo-1,2,3,4-tetrahydroquinoline-1-carboxylate

> <CAS>
1211594-21-6

> <URL>
https://www.enaminestore.com/catalog/EN300-7380642

> <ROCS_ShapeQuery>
A71EV2A-x0451_0A_A71EV2A-x0310_0A_A71EV2A-x0416_0A_peptide

> <ROCS_TanimotoCombo>
0.484 

> <ROCS_ShapeTanimoto>
0.350 

> <ROCS_ColorTanimoto>
0.133 

> <ROCS_RefTversky>
0.303 

> <ROCS_RefColorTversky>
0.142 

> <ROCS_RefTverskyCombo>
0.446 

> <ROCS_FitTversky>
1.789 

> <ROCS_FitColorTversky>
0.681 

> <ROCS_FitTverskyCombo>
2.471 

> <ROCS_ColorScore>
-4.320

> <ROCS_Overlap>
2105.233

> <ROCS_Rank>
300                 

$$$$
untitled-dbase-23773_7
  -OEChem-11132313473D

 36 37  0     1  0  0  0  0  0999 V2000
    6.4019   11.8531   25.4975 C   0  0  0  0  0  0  0  0  0  0  0  0
   10.3835   13.1921   23.4485 C   0  0  0  0  0  0  0  0  0  0  0  0
    7.2788   12.6045   24.5294 C   0  0  0  0  0  0  0  0  0  0  0  0
    7.0848   10.6348   26.0709 C   0  0  0  0  0  0  0  0  0  0  0  0
    9.4011   11.0867   22.6020 C   0  0  0  0  0  0  0  0  0  0  0  0
    9.1574    9.6981   23.1674 C   0  0  0  0  0  0  0  0  0  0  0  0
    8.6491   11.9774   24.8088 C   0  0  1  0  0  0  0  0  0  0  0  0
    8.3410   10.5305   25.2078 C   0  0  2  0  0  0  0  0  0  0  0  0
   12.2256   15.1990   22.5722 C   0  0  0  0  0  0  0  0  0  0  0  0
   11.9198   14.2167   20.2808 C   0  0  0  0  0  0  0  0  0  0  0  0
    9.9592   15.2320   21.4781 C   0  0  0  0  0  0  0  0  0  0  0  0
   11.2673   14.4590   21.6401 C   0  0  0  0  0  0  0  0  0  0  0  0
    9.5533   12.0844   23.6602 N   0  0  0  0  0  0  0  0  0  0  0  0
    5.2601   12.1906   25.7843 O   0  0  0  0  0  0  0  0  0  0  0  0
   10.5751   14.0820   24.2752 O   0  0  0  0  0  0  0  0  0  0  0  0
    8.0490    9.7249   24.0640 O   0  0  0  0  0  0  0  0  0  0  0  0
   10.9729   13.1792   22.2116 O   0  0  0  0  0  0  0  0  0  0  0  0
    6.9183   12.4088   23.5154 H   0  0  0  0  0  0  0  0  0  0  0  0
    7.2717   13.6760   24.7429 H   0  0  0  0  0  0  0  0  0  0  0  0
    7.3358   10.8450   27.1145 H   0  0  0  0  0  0  0  0  0  0  0  0
    6.4369    9.7595   25.9832 H   0  0  0  0  0  0  0  0  0  0  0  0
   10.2778   11.0860   21.9465 H   0  0  0  0  0  0  0  0  0  0  0  0
    8.5395   11.4030   22.0023 H   0  0  0  0  0  0  0  0  0  0  0  0
    8.9127    9.0051   22.3563 H   0  0  0  0  0  0  0  0  0  0  0  0
   10.0451    9.3084   23.6798 H   0  0  0  0  0  0  0  0  0  0  0  0
    9.0941   12.4879   25.6726 H   0  0  0  0  0  0  0  0  0  0  0  0
    9.1603   10.0657   25.7685 H   0  0  0  0  0  0  0  0  0  0  0  0
   11.7609   15.3748   23.5490 H   0  0  0  0  0  0  0  0  0  0  0  0
   13.1536   14.6383   22.7245 H   0  0  0  0  0  0  0  0  0  0  0  0
   12.4796   16.1858   22.1686 H   0  0  0  0  0  0  0  0  0  0  0  0
   11.2358   13.6860   19.6087 H   0  0  0  0  0  0  0  0  0  0  0  0
   12.8077   13.5820   20.3816 H   0  0  0  0  0  0  0  0  0  0  0  0
   12.2171   15.1554   19.8022 H   0  0  0  0  0  0  0  0  0  0  0  0
    9.2717   14.7014   20.8095 H   0  0  0  0  0  0  0  0  0  0  0  0
    9.4583   15.3831   22.4397 H   0  0  0  0  0  0  0  0  0  0  0  0
   10.1397   16.2119   21.0216 H   0  0  0  0  0  0  0  0  0  0  0  0
  1  3  1  0  0  0  0
  1  4  1  0  0  0  0
  1 14  2  0  0  0  0
  2 13  1  0  0  0  0
  2 15  2  0  0  0  0
  2 17  1  0  0  0  0
  3  7  1  6  0  0  0
  4  8  1  6  0  0  0
  5  6  1  0  0  0  0
  5 13  1  0  0  0  0
  6 16  1  0  0  0  0
  7  8  1  0  0  0  0
  7 13  1  0  0  0  0
  8 16  1  0  0  0  0
  9 12  1  0  0  0  0
 10 12  1  0  0  0  0
 11 12  1  0  0  0  0
 12 17  1  0  0  0  0
  3 18  1  0  0  0  0
  3 19  1  0  0  0  0
  4 20  1  0  0  0  0
  4 21  1  0  0  0  0
  5 22  1  0  0  0  0
  5 23  1  0  0  0  0
  6 24  1  0  0  0  0
  6 25  1  0  0  0  0
  7 26  1  0  0  0  0
  8 27  1  0  0  0  0
  9 28  1  0  0  0  0
  9 29  1  0  0  0  0
  9 30  1  0  0  0  0
 10 31  1  0  0  0  0
 10 32  1  0  0  0  0
 10 33  1  0  0  0  0
 11 34  1  0  0  0  0
 11 35  1  0  0  0  0
 11 36  1  0  0  0  0
M  END
> <id>
EN300-7538947

> <smiles>
CC(C)(C)OC(=O)N1CCO[C@@H]2CC(=O)C[C@@H]21 |&1:11,16,r|

> <MDLNUMBER>
MFCD32640724

> <IUPAC Name>
rac-tert-butyl (4aR,7aS)-6-oxo-octahydrocyclopenta[b][1,4]oxazine-4-carboxylate

> <CAS>
2408936-34-3

> <Purity>
95

> <URL>
https://www.enaminestore.com/catalog/EN300-7538947

> <ROCS_ShapeQuery>
A71EV2A-x0451_0A_A71EV2A-x0310_0A_A71EV2A-x0416_0A_peptide

> <ROCS_TanimotoCombo>
0.483 

> <ROCS_ShapeTanimoto>
0.317 

> <ROCS_ColorTanimoto>
0.167 

> <ROCS_RefTversky>
0.278 

> <ROCS_RefColorTversky>
0.178 

> <ROCS_RefTverskyCombo>
0.455 

> <ROCS_FitTversky>
1.783 

> <ROCS_FitColorTversky>
0.737 

> <ROCS_FitTverskyCombo>
2.521 

> <ROCS_ColorScore>
-5.401

> <ROCS_Overlap>
1926.859

> <ROCS_Rank>
301                 

$$$$
untitled-dbase-22523_7
  -OEChem-11132313473D

 36 37  0     1  0  0  0  0  0999 V2000
    6.4010   11.8514   25.4946 C   0  0  0  0  0  0  0  0  0  0  0  0
   10.3839   13.1920   23.4489 C   0  0  0  0  0  0  0  0  0  0  0  0
    7.2793   12.6042   24.5289 C   0  0  0  0  0  0  0  0  0  0  0  0
    7.0844   10.6345   26.0702 C   0  0  0  0  0  0  0  0  0  0  0  0
    9.4016   11.0865   22.6022 C   0  0  0  0  0  0  0  0  0  0  0  0
    9.1581    9.6978   23.1676 C   0  0  0  0  0  0  0  0  0  0  0  0
    8.6494   11.9771   24.8090 C   0  0  1  0  0  0  0  0  0  0  0  0
    8.3413   10.5302   25.2080 C   0  0  2  0  0  0  0  0  0  0  0  0
   12.2256   15.1992   22.5726 C   0  0  0  0  0  0  0  0  0  0  0  0
   11.9196   14.2171   20.2811 C   0  0  0  0  0  0  0  0  0  0  0  0
    9.9591   15.2321   21.4788 C   0  0  0  0  0  0  0  0  0  0  0  0
   11.2672   14.4592   21.6405 C   0  0  0  0  0  0  0  0  0  0  0  0
    9.5539   12.0841   23.6607 N   0  0  0  0  0  0  0  0  0  0  0  0
    5.2577   12.1868   25.7775 O   0  0  0  0  0  0  0  0  0  0  0  0
   10.5754   14.0818   24.2758 O   0  0  0  0  0  0  0  0  0  0  0  0
    8.0499    9.7242   24.0644 O   0  0  0  0  0  0  0  0  0  0  0  0
   10.9731   13.1795   22.2119 O   0  0  0  0  0  0  0  0  0  0  0  0
    6.9202   12.4101   23.5141 H   0  0  0  0  0  0  0  0  0  0  0  0
    7.2717   13.6754   24.7440 H   0  0  0  0  0  0  0  0  0  0  0  0
    7.3344   10.8463   27.1137 H   0  0  0  0  0  0  0  0  0  0  0  0
    6.4373    9.7585   25.9832 H   0  0  0  0  0  0  0  0  0  0  0  0
   10.2782   11.0859   21.9467 H   0  0  0  0  0  0  0  0  0  0  0  0
    8.5399   11.4028   22.0027 H   0  0  0  0  0  0  0  0  0  0  0  0
    8.9133    9.0049   22.3564 H   0  0  0  0  0  0  0  0  0  0  0  0
   10.0459    9.3082   23.6799 H   0  0  0  0  0  0  0  0  0  0  0  0
    9.0941   12.4878   25.6730 H   0  0  0  0  0  0  0  0  0  0  0  0
    9.1603   10.0657   25.7694 H   0  0  0  0  0  0  0  0  0  0  0  0
   11.7610   15.3749   23.5495 H   0  0  0  0  0  0  0  0  0  0  0  0
   13.1537   14.6387   22.7247 H   0  0  0  0  0  0  0  0  0  0  0  0
   12.4795   16.1861   22.1691 H   0  0  0  0  0  0  0  0  0  0  0  0
   11.2355   13.6864   19.6091 H   0  0  0  0  0  0  0  0  0  0  0  0
   12.8075   13.5826   20.3817 H   0  0  0  0  0  0  0  0  0  0  0  0
   12.2167   15.1559   19.8026 H   0  0  0  0  0  0  0  0  0  0  0  0
    9.2715   14.7015   20.8102 H   0  0  0  0  0  0  0  0  0  0  0  0
    9.4582   15.3830   22.4405 H   0  0  0  0  0  0  0  0  0  0  0  0
   10.1394   16.2121   21.0224 H   0  0  0  0  0  0  0  0  0  0  0  0
  1  3  1  0  0  0  0
  1  4  1  0  0  0  0
  1 14  2  0  0  0  0
  2 13  1  0  0  0  0
  2 15  2  0  0  0  0
  2 17  1  0  0  0  0
  3  7  1  0  0  0  0
  4  8  1  0  0  0  0
  5  6  1  0  0  0  0
  5 13  1  0  0  0  0
  6 16  1  0  0  0  0
  7  8  1  0  0  0  0
  7 13  1  0  0  0  0
  8 16  1  0  0  0  0
  9 12  1  0  0  0  0
 10 12  1  0  0  0  0
 11 12  1  0  0  0  0
 12 17  1  0  0  0  0
  3 18  1  0  0  0  0
  3 19  1  0  0  0  0
  4 20  1  0  0  0  0
  4 21  1  0  0  0  0
  5 22  1  0  0  0  0
  5 23  1  0  0  0  0
  6 24  1  0  0  0  0
  6 25  1  0  0  0  0
  7 26  1  0  0  0  0
  8 27  1  0  0  0  0
  9 28  1  0  0  0  0
  9 29  1  0  0  0  0
  9 30  1  0  0  0  0
 10 31  1  0  0  0  0
 10 32  1  0  0  0  0
 10 33  1  0  0  0  0
 11 34  1  0  0  0  0
 11 35  1  0  0  0  0
 11 36  1  0  0  0  0
M  END
> <id>
EN300-7473370

> <smiles>
CC(C)(C)OC(=O)N1CCOC2CC(=O)CC21

> <IUPAC Name>
tert-butyl 6-oxo-octahydrocyclopenta[b]morpholine-4-carboxylate

> <CAS>
2383938-71-2

> <URL>
https://www.enaminestore.com/catalog/EN300-7473370

> <ROCS_ShapeQuery>
A71EV2A-x0451_0A_A71EV2A-x0310_0A_A71EV2A-x0416_0A_peptide

> <ROCS_TanimotoCombo>
0.483 

> <ROCS_ShapeTanimoto>
0.316 

> <ROCS_ColorTanimoto>
0.167 

> <ROCS_RefTversky>
0.278 

> <ROCS_RefColorTversky>
0.178 

> <ROCS_RefTverskyCombo>
0.455 

> <ROCS_FitTversky>
1.783 

> <ROCS_FitColorTversky>
0.737 

> <ROCS_FitTverskyCombo>
2.520 

> <ROCS_ColorScore>
-5.401

> <ROCS_Overlap>
1926.689

> <ROCS_Rank>
302                 

$$$$
untitled-dbase-49715_18
  -OEChem-11132313473D

 38 39  0     0  0  0  0  0  0999 V2000
   10.5927   12.8706   23.6976 C   0  0  0  0  0  0  0  0  0  0  0  0
    7.9458   11.7270   25.7528 C   0  0  0  0  0  0  0  0  0  0  0  0
    7.1853   11.9721   23.3815 C   0  0  0  0  0  0  0  0  0  0  0  0
    8.0010   10.1990   25.5786 C   0  0  0  0  0  0  0  0  0  0  0  0
    7.2412   10.4446   23.2033 C   0  0  0  0  0  0  0  0  0  0  0  0
    9.6810   10.5238   23.7537 C   0  0  0  0  0  0  0  0  0  0  0  0
    8.2335   12.4217   24.4120 C   0  0  0  0  0  0  0  0  0  0  0  0
    8.3415    9.8482   24.1122 C   0  0  0  0  0  0  0  0  0  0  0  0
   12.9175   14.3115   22.8627 C   0  0  0  0  0  0  0  0  0  0  0  0
   12.9630   12.7394   20.9042 C   0  0  0  0  0  0  0  0  0  0  0  0
   11.0010   14.2728   21.2317 C   0  0  0  0  0  0  0  0  0  0  0  0
   12.0760   13.4414   21.9302 C   0  0  0  0  0  0  0  0  0  0  0  0
    9.5554   11.9752   23.9418 N   0  0  0  0  0  0  0  0  0  0  0  0
    8.4369    8.4029   23.9426 N   0  0  0  0  0  0  0  0  0  0  0  0
   10.7463   13.9357   24.2911 O   0  0  0  0  0  0  0  0  0  0  0  0
   11.4329   12.4272   22.7102 O   0  0  0  0  0  0  0  0  0  0  0  0
    6.9590   12.0216   26.1291 H   0  0  0  0  0  0  0  0  0  0  0  0
    8.6762   12.0430   26.5075 H   0  0  0  0  0  0  0  0  0  0  0  0
    7.3626   12.4672   22.4190 H   0  0  0  0  0  0  0  0  0  0  0  0
    6.1815   12.2700   23.7073 H   0  0  0  0  0  0  0  0  0  0  0  0
    8.7515    9.7830   26.2632 H   0  0  0  0  0  0  0  0  0  0  0  0
    7.0373    9.7619   25.8703 H   0  0  0  0  0  0  0  0  0  0  0  0
    6.2613   10.0115   23.4419 H   0  0  0  0  0  0  0  0  0  0  0  0
    7.4378   10.2097   22.1493 H   0  0  0  0  0  0  0  0  0  0  0  0
   10.5009   10.1687   24.3900 H   0  0  0  0  0  0  0  0  0  0  0  0
    9.9647   10.3400   22.7103 H   0  0  0  0  0  0  0  0  0  0  0  0
    8.2119   13.5095   24.5313 H   0  0  0  0  0  0  0  0  0  0  0  0
   12.2845   14.8171   23.6007 H   0  0  0  0  0  0  0  0  0  0  0  0
   13.6696   13.7209   23.3960 H   0  0  0  0  0  0  0  0  0  0  0  0
   13.4310   15.1015   22.3029 H   0  0  0  0  0  0  0  0  0  0  0  0
   12.3634   12.1139   20.2330 H   0  0  0  0  0  0  0  0  0  0  0  0
   13.6748   12.0679   21.3980 H   0  0  0  0  0  0  0  0  0  0  0  0
   13.5261   13.4569   20.2987 H   0  0  0  0  0  0  0  0  0  0  0  0
   10.3972   13.6489   20.5628 H   0  0  0  0  0  0  0  0  0  0  0  0
   10.3321   14.7545   21.9523 H   0  0  0  0  0  0  0  0  0  0  0  0
   11.4547   15.0490   20.6049 H   0  0  0  0  0  0  0  0  0  0  0  0
    9.1540    8.0646   24.5407 H   0  0  0  0  0  0  0  0  0  0  0  0
    7.5614    8.0018   24.1853 H   0  0  0  0  0  0  0  0  0  0  0  0
  1 13  1  0  0  0  0
  1 15  2  0  0  0  0
  1 16  1  0  0  0  0
  2  4  1  0  0  0  0
  2  7  1  0  0  0  0
  3  5  1  0  0  0  0
  3  7  1  0  0  0  0
  4  8  1  0  0  0  0
  5  8  1  0  0  0  0
  6  8  1  0  0  0  0
  6 13  1  0  0  0  0
  7 13  1  0  0  0  0
  8 14  1  0  0  0  0
  9 12  1  0  0  0  0
 10 12  1  0  0  0  0
 11 12  1  0  0  0  0
 12 16  1  0  0  0  0
  2 17  1  0  0  0  0
  2 18  1  0  0  0  0
  3 19  1  0  0  0  0
  3 20  1  0  0  0  0
  4 21  1  0  0  0  0
  4 22  1  0  0  0  0
  5 23  1  0  0  0  0
  5 24  1  0  0  0  0
  6 25  1  0  0  0  0
  6 26  1  0  0  0  0
  7 27  1  0  0  0  0
  9 28  1  0  0  0  0
  9 29  1  0  0  0  0
  9 30  1  0  0  0  0
 10 31  1  0  0  0  0
 10 32  1  0  0  0  0
 10 33  1  0  0  0  0
 11 34  1  0  0  0  0
 11 35  1  0  0  0  0
 11 36  1  0  0  0  0
 14 37  1  0  0  0  0
 14 38  1  0  0  0  0
M  END
> <id>
EN300-6492028

> <smiles>
CC(C)(C)OC(=O)N1CC2(N)CCC1CC2

> <MDLNUMBER>
MFCD31620790

> <IUPAC Name>
tert-butyl 4-amino-2-azabicyclo[2.2.2]octane-2-carboxylate

> <CAS>
1311390-89-2

> <Purity>
95

> <URL>
https://www.enaminestore.com/catalog/EN300-6492028

> <ROCS_ShapeQuery>
A71EV2A-x0451_0A_A71EV2A-x0310_0A_A71EV2A-x0416_0A_peptide

> <ROCS_TanimotoCombo>
0.483 

> <ROCS_ShapeTanimoto>
0.278 

> <ROCS_ColorTanimoto>
0.205 

> <ROCS_RefTversky>
0.250 

> <ROCS_RefColorTversky>
0.232 

> <ROCS_RefTverskyCombo>
0.482 

> <ROCS_FitTversky>
1.678 

> <ROCS_FitColorTversky>
0.640 

> <ROCS_FitTverskyCombo>
2.317 

> <ROCS_ColorScore>
-7.108

> <ROCS_Overlap>
1733.242

> <ROCS_Rank>
303                 

$$$$
untitled-dbase-42253_4
  -OEChem-11132313473D

 39 40  0     1  0  0  0  0  0999 V2000
    7.7400   13.2351   25.0620 C   0  0  0  0  0  0  0  0  0  0  0  0
    6.6125   13.2104   25.8823 C   0  0  0  0  0  0  0  0  0  0  0  0
    6.4640   10.8344   25.5752 C   0  0  0  0  0  0  0  0  0  0  0  0
    8.2624   12.0575   24.4915 C   0  0  0  0  0  0  0  0  0  0  0  0
    7.6096   10.8181   24.7477 C   0  0  0  0  0  0  0  0  0  0  0  0
    5.9749   12.0103   26.1408 C   0  0  0  0  0  0  0  0  0  0  0  0
   10.2706   13.2031   23.4916 C   0  0  0  0  0  0  0  0  0  0  0  0
    9.6373   10.8832   22.8148 C   0  0  0  0  0  0  0  0  0  0  0  0
    9.4125    9.6211   23.6211 C   0  0  0  0  0  0  0  0  0  0  0  0
   12.8892   14.2569   22.9773 C   0  0  0  0  0  0  0  0  0  0  0  0
   12.2001   14.2917   20.5621 C   0  0  0  0  0  0  0  0  0  0  0  0
   10.9618   15.6959   22.2363 C   0  0  0  0  0  0  0  0  0  0  0  0
    7.4575    8.3417   24.4880 C   0  0  0  0  0  0  0  0  0  0  0  0
   11.7158   14.3867   22.0073 C   0  0  0  0  0  0  0  0  0  0  0  0
    9.4130   12.0908   23.6185 N   0  0  0  0  0  0  0  0  0  0  0  0
    8.0798    9.6249   24.1967 N   0  0  1  0  0  0  0  0  0  0  0  0
   10.5436   14.0130   24.3737 O   0  0  0  0  0  0  0  0  0  0  0  0
    4.8717   11.9785   26.9360 O   0  0  0  0  0  0  0  0  0  0  0  0
   10.8148   13.2959   22.2332 O   0  0  0  0  0  0  0  0  0  0  0  0
    8.1577   14.2144   24.8587 H   0  0  0  0  0  0  0  0  0  0  0  0
    6.2334   14.1378   26.3029 H   0  0  0  0  0  0  0  0  0  0  0  0
    5.9297    9.9143   25.8029 H   0  0  0  0  0  0  0  0  0  0  0  0
   10.6580   10.8603   22.4202 H   0  0  0  0  0  0  0  0  0  0  0  0
    8.9595   10.9304   21.9531 H   0  0  0  0  0  0  0  0  0  0  0  0
    9.5468    8.7552   22.9618 H   0  0  0  0  0  0  0  0  0  0  0  0
   10.1613    9.5368   24.4187 H   0  0  0  0  0  0  0  0  0  0  0  0
   12.5457   14.3246   24.0157 H   0  0  0  0  0  0  0  0  0  0  0  0
   13.4171   13.3066   22.8469 H   0  0  0  0  0  0  0  0  0  0  0  0
   13.6063   15.0735   22.8350 H   0  0  0  0  0  0  0  0  0  0  0  0
   11.3613   14.3843   19.8627 H   0  0  0  0  0  0  0  0  0  0  0  0
   12.6580   13.3151   20.3673 H   0  0  0  0  0  0  0  0  0  0  0  0
   12.9331   15.0709   20.3296 H   0  0  0  0  0  0  0  0  0  0  0  0
   10.1200   15.7892   21.5407 H   0  0  0  0  0  0  0  0  0  0  0  0
   10.5749   15.7650   23.2582 H   0  0  0  0  0  0  0  0  0  0  0  0
   11.6128   16.5580   22.0514 H   0  0  0  0  0  0  0  0  0  0  0  0
    7.9900    7.5445   23.9487 H   0  0  0  0  0  0  0  0  0  0  0  0
    7.5059    8.1480   25.5698 H   0  0  0  0  0  0  0  0  0  0  0  0
    6.4058    8.3628   24.1660 H   0  0  0  0  0  0  0  0  0  0  0  0
    4.6538   12.8722   27.2462 H   0  0  0  0  0  0  0  0  0  0  0  0
  1  2  1  0  0  0  0
  1  4  2  0  0  0  0
  2  6  2  0  0  0  0
  3  5  2  0  0  0  0
  3  6  1  0  0  0  0
  4  5  1  0  0  0  0
  4 15  1  0  0  0  0
  5 16  1  0  0  0  0
  6 18  1  0  0  0  0
  7 15  1  0  0  0  0
  7 17  2  0  0  0  0
  7 19  1  0  0  0  0
  8  9  1  0  0  0  0
  8 15  1  0  0  0  0
  9 16  1  0  0  0  0
 10 14  1  0  0  0  0
 11 14  1  0  0  0  0
 12 14  1  0  0  0  0
 13 16  1  0  0  0  0
 14 19  1  0  0  0  0
  1 20  1  0  0  0  0
  2 21  1  0  0  0  0
  3 22  1  0  0  0  0
  8 23  1  0  0  0  0
  8 24  1  0  0  0  0
  9 25  1  0  0  0  0
  9 26  1  0  0  0  0
 10 27  1  0  0  0  0
 10 28  1  0  0  0  0
 10 29  1  0  0  0  0
 11 30  1  0  0  0  0
 11 31  1  0  0  0  0
 11 32  1  0  0  0  0
 12 33  1  0  0  0  0
 12 34  1  0  0  0  0
 12 35  1  0  0  0  0
 13 36  1  0  0  0  0
 13 37  1  0  0  0  0
 13 38  1  0  0  0  0
 18 39  1  0  0  0  0
M  END
> <id>
EN300-27718639

> <smiles>
CN1CCN(C(=O)OC(C)(C)C)C=2C=CC(O)=CC12

> <IUPAC Name>
tert-butyl 6-hydroxy-4-methyl-1,2,3,4-tetrahydroquinoxaline-1-carboxylate

> <CAS>
2580252-99-7

> <URL>
https://www.enaminestore.com/catalog/EN300-27718639

> <ROCS_ShapeQuery>
A71EV2A-x0451_0A_A71EV2A-x0310_0A_A71EV2A-x0416_0A_peptide

> <ROCS_TanimotoCombo>
0.483 

> <ROCS_ShapeTanimoto>
0.356 

> <ROCS_ColorTanimoto>
0.127 

> <ROCS_RefTversky>
0.307 

> <ROCS_RefColorTversky>
0.140 

> <ROCS_RefTverskyCombo>
0.447 

> <ROCS_FitTversky>
1.815 

> <ROCS_FitColorTversky>
0.585 

> <ROCS_FitTverskyCombo>
2.400 

> <ROCS_ColorScore>
-4.263

> <ROCS_Overlap>
2129.207

> <ROCS_Rank>
304                 

$$$$
untitled-dbase-12659_418
  -OEChem-11132313473D

 48 50  0     0  0  0  0  0  0999 V2000
    5.9770   12.0199   26.1348 C   0  0  0  0  0  0  0  0  0  0  0  0
    6.6744   13.2125   25.9480 C   0  0  0  0  0  0  0  0  0  0  0  0
    6.3884   10.8585   25.4803 C   0  0  0  0  0  0  0  0  0  0  0  0
    7.7867   13.2467   25.1076 C   0  0  0  0  0  0  0  0  0  0  0  0
    7.5139   10.8865   24.6490 C   0  0  0  0  0  0  0  0  0  0  0  0
    8.2220   12.0809   24.4728 C   0  0  0  0  0  0  0  0  0  0  0  0
    7.8961    9.6390   23.9525 C   0  0  0  0  0  0  0  0  0  0  0  0
   11.6548   15.0829   22.3415 C   0  0  0  0  0  0  0  0  0  0  0  0
   11.1714   11.3114   22.5031 C   0  0  0  0  0  0  0  0  0  0  0  0
   11.3740   12.3974   24.7711 C   0  0  0  0  0  0  0  0  0  0  0  0
   11.3855   12.6494   21.7883 C   0  0  0  0  0  0  0  0  0  0  0  0
   12.2910   13.3485   23.9945 C   0  0  0  0  0  0  0  0  0  0  0  0
   10.2726   10.1332   24.5501 C   0  0  0  0  0  0  0  0  0  0  0  0
   10.4800   11.5006   23.8731 C   0  0  0  0  0  0  0  0  0  0  0  0
   13.4270   15.1256   20.0959 C   0  0  0  0  0  0  0  0  0  0  0  0
   11.4617   15.9941   18.7950 C   0  0  0  0  0  0  0  0  0  0  0  0
   12.3799   17.3292   20.7139 C   0  0  0  0  0  0  0  0  0  0  0  0
   12.1267   15.9247   20.1680 C   0  0  0  0  0  0  0  0  0  0  0  0
    9.2450    9.3497   23.8921 N   0  0  0  0  0  0  0  0  0  0  0  0
   11.7345   13.7357   22.7058 N   0  0  0  0  0  0  0  0  0  0  0  0
    7.0232    8.9170   23.4791 O   0  0  0  0  0  0  0  0  0  0  0  0
   11.9386   16.0221   23.0822 O   0  0  0  0  0  0  0  0  0  0  0  0
    9.2510   12.2093   23.5852 O   0  0  0  0  0  0  0  0  0  0  0  0
   11.2244   15.2482   21.0508 O   0  0  0  0  0  0  0  0  0  0  0  0
    5.1159   11.9934   26.7962 H   0  0  0  0  0  0  0  0  0  0  0  0
    6.3577   14.1131   26.4657 H   0  0  0  0  0  0  0  0  0  0  0  0
    5.8192    9.9430   25.6216 H   0  0  0  0  0  0  0  0  0  0  0  0
    8.3128   14.1857   24.9540 H   0  0  0  0  0  0  0  0  0  0  0  0
   10.5654   10.6724   21.8572 H   0  0  0  0  0  0  0  0  0  0  0  0
   12.1399   10.8222   22.6371 H   0  0  0  0  0  0  0  0  0  0  0  0
   11.9976   11.7681   25.4308 H   0  0  0  0  0  0  0  0  0  0  0  0
   10.7400   13.0102   25.4353 H   0  0  0  0  0  0  0  0  0  0  0  0
   12.1549   12.5213   21.0110 H   0  0  0  0  0  0  0  0  0  0  0  0
   10.4673   12.9571   21.2600 H   0  0  0  0  0  0  0  0  0  0  0  0
   12.4620   14.2738   24.5676 H   0  0  0  0  0  0  0  0  0  0  0  0
   13.2779   12.8784   23.8658 H   0  0  0  0  0  0  0  0  0  0  0  0
   11.1973    9.5423   24.5382 H   0  0  0  0  0  0  0  0  0  0  0  0
    9.9826   10.2484   25.6010 H   0  0  0  0  0  0  0  0  0  0  0  0
   13.9075   15.0735   21.0794 H   0  0  0  0  0  0  0  0  0  0  0  0
   13.2541   14.1051   19.7389 H   0  0  0  0  0  0  0  0  0  0  0  0
   14.1467   15.6094   19.4256 H   0  0  0  0  0  0  0  0  0  0  0  0
   10.5283   16.5666   18.8421 H   0  0  0  0  0  0  0  0  0  0  0  0
   11.1919   14.9925   18.4409 H   0  0  0  0  0  0  0  0  0  0  0  0
   12.1169   16.4597   18.0518 H   0  0  0  0  0  0  0  0  0  0  0  0
   11.4474   17.9027   20.7658 H   0  0  0  0  0  0  0  0  0  0  0  0
   12.8232   17.2991   21.7146 H   0  0  0  0  0  0  0  0  0  0  0  0
   13.0509   17.8892   20.0525 H   0  0  0  0  0  0  0  0  0  0  0  0
    9.5353    8.5384   23.3539 H   0  0  0  0  0  0  0  0  0  0  0  0
  1  2  2  0  0  0  0
  1  3  1  0  0  0  0
  2  4  1  0  0  0  0
  3  5  2  0  0  0  0
  4  6  2  0  0  0  0
  5  6  1  0  0  0  0
  5  7  1  0  0  0  0
  6 23  1  0  0  0  0
  7 19  1  0  0  0  0
  7 21  2  0  0  0  0
  8 20  1  0  0  0  0
  8 22  2  0  0  0  0
  8 24  1  0  0  0  0
  9 11  1  0  0  0  0
  9 14  1  0  0  0  0
 10 12  1  0  0  0  0
 10 14  1  0  0  0  0
 11 20  1  0  0  0  0
 12 20  1  0  0  0  0
 13 14  1  0  0  0  0
 13 19  1  0  0  0  0
 14 23  1  0  0  0  0
 15 18  1  0  0  0  0
 16 18  1  0  0  0  0
 17 18  1  0  0  0  0
 18 24  1  0  0  0  0
  1 25  1  0  0  0  0
  2 26  1  0  0  0  0
  3 27  1  0  0  0  0
  4 28  1  0  0  0  0
  9 29  1  0  0  0  0
  9 30  1  0  0  0  0
 10 31  1  0  0  0  0
 10 32  1  0  0  0  0
 11 33  1  0  0  0  0
 11 34  1  0  0  0  0
 12 35  1  0  0  0  0
 12 36  1  0  0  0  0
 13 37  1  0  0  0  0
 13 38  1  0  0  0  0
 15 39  1  0  0  0  0
 15 40  1  0  0  0  0
 15 41  1  0  0  0  0
 16 42  1  0  0  0  0
 16 43  1  0  0  0  0
 16 44  1  0  0  0  0
 17 45  1  0  0  0  0
 17 46  1  0  0  0  0
 17 47  1  0  0  0  0
 19 48  1  0  0  0  0
M  END
> <id>
EN300-370284

> <smiles>
CC(C)(C)OC(=O)N1CCC2(CC1)CNC(=O)C=3C=CC=CC3O2

> <MDLNUMBER>
MFCD31421211

> <IUPAC Name>
tert-butyl 5-oxo-4,5-dihydro-3H-spiro[1,4-benzoxazepine-2,4'-piperidine]-1'-carboxylate

> <CAS>
2138211-63-7

> <Purity>
95

> <URL>
https://www.enaminestore.com/catalog/EN300-370284

> <ROCS_ShapeQuery>
A71EV2A-x0451_0A_A71EV2A-x0310_0A_A71EV2A-x0416_0A_peptide

> <ROCS_TanimotoCombo>
0.483 

> <ROCS_ShapeTanimoto>
0.373 

> <ROCS_ColorTanimoto>
0.110 

> <ROCS_RefTversky>
0.326 

> <ROCS_RefColorTversky>
0.129 

> <ROCS_RefTverskyCombo>
0.456 

> <ROCS_FitTversky>
1.621 

> <ROCS_FitColorTversky>
0.430 

> <ROCS_FitTverskyCombo>
2.051 

> <ROCS_ColorScore>
-3.951

> <ROCS_Overlap>
2267.669

> <ROCS_Rank>
305                 

$$$$
untitled-dbase-14594_161
  -OEChem-11132313473D

 51 53  0     1  0  0  0  0  0999 V2000
    6.1378   11.2210   26.6224 C   0  0  0  0  0  0  0  0  0  0  0  0
    6.6698   12.3319   26.0028 C   0  0  0  0  0  0  0  0  0  0  0  0
    6.7081   10.1063   25.9706 C   0  0  0  0  0  0  0  0  0  0  0  0
    7.5669   10.6149   25.0212 C   0  0  0  0  0  0  0  0  0  0  0  0
   10.4478   13.3672   23.3063 C   0  0  0  0  0  0  0  0  0  0  0  0
    6.4845    8.6473   26.1098 C   0  0  0  0  0  0  0  0  0  0  0  0
    8.2796   10.4495   22.6230 C   0  0  0  0  0  0  0  0  0  0  0  0
    9.8869    9.7431   24.4424 C   0  0  0  0  0  0  0  0  0  0  0  0
    7.5384    7.8602   25.3010 C   0  0  0  0  0  0  0  0  0  0  0  0
    9.4556   11.3417   22.2244 C   0  0  0  0  0  0  0  0  0  0  0  0
    8.3944    9.8398   24.0386 C   0  0  1  0  0  0  0  0  0  0  0  0
   10.6836   11.0894   24.4020 C   0  0  0  0  0  0  0  0  0  0  0  0
   12.1566   10.7698   24.0611 C   0  0  0  0  0  0  0  0  0  0  0  0
   10.6726   11.7143   25.8192 C   0  0  0  0  0  0  0  0  0  0  0  0
   12.9649   14.4611   22.4805 C   0  0  0  0  0  0  0  0  0  0  0  0
   11.7487   15.2187   20.4175 C   0  0  0  0  0  0  0  0  0  0  0  0
   11.0632   16.0991   22.6676 C   0  0  0  0  0  0  0  0  0  0  0  0
   11.6185   14.8972   21.9047 C   0  0  0  0  0  0  0  0  0  0  0  0
    7.8230    8.4533   23.9754 N   0  0  0  0  0  0  0  0  0  0  0  0
   10.1246   11.9971   23.3543 N   0  0  0  0  0  0  0  0  0  0  0  0
   10.5054   14.1136   24.2806 O   0  0  0  0  0  0  0  0  0  0  0  0
    7.5327   11.9708   25.0123 O   0  0  0  0  0  0  0  0  0  0  0  0
   10.6946   13.8098   22.0319 O   0  0  0  0  0  0  0  0  0  0  0  0
    5.4315   11.2226   27.4400 H   0  0  0  0  0  0  0  0  0  0  0  0
    6.5427   13.3953   26.1424 H   0  0  0  0  0  0  0  0  0  0  0  0
    6.5274    8.3477   27.1652 H   0  0  0  0  0  0  0  0  0  0  0  0
    5.4784    8.4044   25.7391 H   0  0  0  0  0  0  0  0  0  0  0  0
    7.3519   11.0438   22.5396 H   0  0  0  0  0  0  0  0  0  0  0  0
    8.1706    9.6468   21.8719 H   0  0  0  0  0  0  0  0  0  0  0  0
    9.9196    9.3585   25.4663 H   0  0  0  0  0  0  0  0  0  0  0  0
   10.3966    8.9951   23.8345 H   0  0  0  0  0  0  0  0  0  0  0  0
    8.4698    7.7708   25.8765 H   0  0  0  0  0  0  0  0  0  0  0  0
    7.1708    6.8365   25.1535 H   0  0  0  0  0  0  0  0  0  0  0  0
   10.2157   10.7670   21.6898 H   0  0  0  0  0  0  0  0  0  0  0  0
    9.0759   12.0881   21.5239 H   0  0  0  0  0  0  0  0  0  0  0  0
   12.7215   11.6942   24.0295 H   0  0  0  0  0  0  0  0  0  0  0  0
   12.1983   10.2798   23.0953 H   0  0  0  0  0  0  0  0  0  0  0  0
   12.5628   10.1157   24.8239 H   0  0  0  0  0  0  0  0  0  0  0  0
   11.2231   12.6412   25.7840 H   0  0  0  0  0  0  0  0  0  0  0  0
   11.1406   11.0194   26.4984 H   0  0  0  0  0  0  0  0  0  0  0  0
    9.6470   11.8913   26.1023 H   0  0  0  0  0  0  0  0  0  0  0  0
   12.8756   14.2294   23.5479 H   0  0  0  0  0  0  0  0  0  0  0  0
   13.3574   13.5786   21.9648 H   0  0  0  0  0  0  0  0  0  0  0  0
   13.7040   15.2664   22.3998 H   0  0  0  0  0  0  0  0  0  0  0  0
   10.7850   15.5321   20.0002 H   0  0  0  0  0  0  0  0  0  0  0  0
   12.0562   14.3316   19.8519 H   0  0  0  0  0  0  0  0  0  0  0  0
   12.4792   16.0143   20.2386 H   0  0  0  0  0  0  0  0  0  0  0  0
   10.0974   16.4121   22.2548 H   0  0  0  0  0  0  0  0  0  0  0  0
   10.9282   15.8747   23.7306 H   0  0  0  0  0  0  0  0  0  0  0  0
   11.7328   16.9619   22.5761 H   0  0  0  0  0  0  0  0  0  0  0  0
    8.4090    7.8357   23.4305 H   0  0  0  0  0  0  0  0  0  0  0  0
  1  2  2  0  0  0  0
  1  3  1  0  0  0  0
  2 22  1  0  0  0  0
  3  4  2  0  0  0  0
  3  6  1  0  0  0  0
  4 11  1  0  0  0  0
  4 22  1  0  0  0  0
  5 20  1  0  0  0  0
  5 21  2  0  0  0  0
  5 23  1  0  0  0  0
  6  9  1  0  0  0  0
  7 10  1  0  0  0  0
  7 11  1  0  0  0  0
  8 11  1  0  0  0  0
  8 12  1  0  0  0  0
  9 19  1  0  0  0  0
 10 20  1  0  0  0  0
 11 19  1  0  0  0  0
 12 13  1  0  0  0  0
 12 14  1  0  0  0  0
 12 20  1  0  0  0  0
 15 18  1  0  0  0  0
 16 18  1  0  0  0  0
 17 18  1  0  0  0  0
 18 23  1  0  0  0  0
  1 24  1  0  0  0  0
  2 25  1  0  0  0  0
  6 26  1  0  0  0  0
  6 27  1  0  0  0  0
  7 28  1  0  0  0  0
  7 29  1  0  0  0  0
  8 30  1  0  0  0  0
  8 31  1  0  0  0  0
  9 32  1  0  0  0  0
  9 33  1  0  0  0  0
 10 34  1  0  0  0  0
 10 35  1  0  0  0  0
 13 36  1  0  0  0  0
 13 37  1  0  0  0  0
 13 38  1  0  0  0  0
 14 39  1  0  0  0  0
 14 40  1  0  0  0  0
 14 41  1  0  0  0  0
 15 42  1  0  0  0  0
 15 43  1  0  0  0  0
 15 44  1  0  0  0  0
 16 45  1  0  0  0  0
 16 46  1  0  0  0  0
 16 47  1  0  0  0  0
 17 48  1  0  0  0  0
 17 49  1  0  0  0  0
 17 50  1  0  0  0  0
 19 51  1  0  0  0  0
M  END
> <id>
EN300-1076763

> <smiles>
CC(C)(C)OC(=O)N1CCC2(CC1(C)C)NCCC=3C=COC32

> <IUPAC Name>
tert-butyl 2',2'-dimethyl-5,6-dihydro-4H-spiro[furo[2,3-c]pyridine-7,4'-piperidine]-1'-carboxylate

> <CAS>
2137450-61-2

> <URL>
https://www.enaminestore.com/catalog/EN300-1076763

> <ROCS_ShapeQuery>
A71EV2A-x0451_0A_A71EV2A-x0310_0A_A71EV2A-x0416_0A_peptide

> <ROCS_TanimotoCombo>
0.483 

> <ROCS_ShapeTanimoto>
0.346 

> <ROCS_ColorTanimoto>
0.137 

> <ROCS_RefTversky>
0.307 

> <ROCS_RefColorTversky>
0.161 

> <ROCS_RefTverskyCombo>
0.468 

> <ROCS_FitTversky>
1.584 

> <ROCS_FitColorTversky>
0.484 

> <ROCS_FitTverskyCombo>
2.067 

> <ROCS_ColorScore>
-4.911

> <ROCS_Overlap>
2133.146

> <ROCS_Rank>
306                 

$$$$
untitled-dbase-34807_30
  -OEChem-11132313473D

 38 39  0     1  0  0  0  0  0999 V2000
   10.1880   13.6283   23.3459 C   0  0  0  0  0  0  0  0  0  0  0  0
    7.8622   11.0560   25.5305 C   0  0  0  0  0  0  0  0  0  0  0  0
    6.9781   11.3000   24.2985 C   0  0  0  0  0  0  0  0  0  0  0  0
   10.1670   11.4202   24.5568 C   0  0  0  0  0  0  0  0  0  0  0  0
    8.7183   11.8105   22.5371 C   0  0  0  0  0  0  0  0  0  0  0  0
    9.1281   10.3678   24.9853 C   0  0  2  0  0  0  0  0  0  0  0  0
    7.7807   10.7342   23.1115 C   0  0  1  0  0  0  0  0  0  0  0  0
    8.6334    9.6214   23.7378 C   0  0  0  0  0  0  0  0  0  0  0  0
   12.1948   13.1205   21.3708 C   0  0  0  0  0  0  0  0  0  0  0  0
   10.9844   14.8189   19.9710 C   0  0  0  0  0  0  0  0  0  0  0  0
   12.0060   15.5025   22.1612 C   0  0  0  0  0  0  0  0  0  0  0  0
   11.3208   14.3736   21.3925 C   0  0  0  0  0  0  0  0  0  0  0  0
    9.6593   12.3444   23.5295 N   0  0  0  0  0  0  0  0  0  0  0  0
    7.8476    8.4319   24.0603 N   0  0  0  0  0  0  0  0  0  0  0  0
   10.6846   14.3066   24.2434 O   0  0  0  0  0  0  0  0  0  0  0  0
   10.0877   14.0579   22.0489 O   0  0  0  0  0  0  0  0  0  0  0  0
    8.0855   11.9863   26.0634 H   0  0  0  0  0  0  0  0  0  0  0  0
    7.3397   10.3956   26.2325 H   0  0  0  0  0  0  0  0  0  0  0  0
    6.0309   10.7595   24.4127 H   0  0  0  0  0  0  0  0  0  0  0  0
    6.7347   12.3606   24.1748 H   0  0  0  0  0  0  0  0  0  0  0  0
   10.5055   11.9946   25.4250 H   0  0  0  0  0  0  0  0  0  0  0  0
   11.0478   10.9280   24.1296 H   0  0  0  0  0  0  0  0  0  0  0  0
    9.3213   11.3897   21.7221 H   0  0  0  0  0  0  0  0  0  0  0  0
    8.1245   12.6274   22.1103 H   0  0  0  0  0  0  0  0  0  0  0  0
    9.5746    9.7012   25.7308 H   0  0  0  0  0  0  0  0  0  0  0  0
    7.1211   10.3678   22.3180 H   0  0  0  0  0  0  0  0  0  0  0  0
    9.4691    9.3255   23.0766 H   0  0  0  0  0  0  0  0  0  0  0  0
   12.4384   12.7977   22.3893 H   0  0  0  0  0  0  0  0  0  0  0  0
   11.7000   12.2925   20.8526 H   0  0  0  0  0  0  0  0  0  0  0  0
   13.1506   13.3189   20.8725 H   0  0  0  0  0  0  0  0  0  0  0  0
   10.3575   15.7178   19.9817 H   0  0  0  0  0  0  0  0  0  0  0  0
   10.4092   14.0476   19.4462 H   0  0  0  0  0  0  0  0  0  0  0  0
   11.8875   15.0331   19.3903 H   0  0  0  0  0  0  0  0  0  0  0  0
   11.3793   16.4016   22.1769 H   0  0  0  0  0  0  0  0  0  0  0  0
   12.2217   15.2136   23.1949 H   0  0  0  0  0  0  0  0  0  0  0  0
   12.9461   15.7894   21.6764 H   0  0  0  0  0  0  0  0  0  0  0  0
    7.8603    8.3095   25.0450 H   0  0  0  0  0  0  0  0  0  0  0  0
    6.9207    8.5760   23.7363 H   0  0  0  0  0  0  0  0  0  0  0  0
  1 13  1  0  0  0  0
  1 15  2  0  0  0  0
  1 16  1  0  0  0  0
  2  3  1  0  0  0  0
  2  6  1  0  0  0  0
  3  7  1  0  0  0  0
  4  6  1  0  0  0  0
  4 13  1  0  0  0  0
  5  7  1  0  0  0  0
  5 13  1  0  0  0  0
  6  8  1  0  0  0  0
  7  8  1  0  0  0  0
  8 14  1  0  0  0  0
  9 12  1  0  0  0  0
 10 12  1  0  0  0  0
 11 12  1  0  0  0  0
 12 16  1  0  0  0  0
  2 17  1  0  0  0  0
  2 18  1  0  0  0  0
  3 19  1  0  0  0  0
  3 20  1  0  0  0  0
  4 21  1  0  0  0  0
  4 22  1  0  0  0  0
  5 23  1  0  0  0  0
  5 24  1  0  0  0  0
  6 25  1  0  0  0  0
  7 26  1  0  0  0  0
  8 27  1  0  0  0  0
  9 28  1  0  0  0  0
  9 29  1  0  0  0  0
  9 30  1  0  0  0  0
 10 31  1  0  0  0  0
 10 32  1  0  0  0  0
 10 33  1  0  0  0  0
 11 34  1  0  0  0  0
 11 35  1  0  0  0  0
 11 36  1  0  0  0  0
 14 37  1  0  0  0  0
 14 38  1  0  0  0  0
M  END
> <id>
EN300-1265923

> <smiles>
CC(C)(C)OC(=O)N1CC2CCC(C1)C2N

> <MDLNUMBER>
MFCD22566230

> <IUPAC Name>
tert-butyl 8-amino-3-azabicyclo[3.2.1]octane-3-carboxylate

> <CAS>
1330763-51-3

> <Purity>
95

> <URL>
https://www.enaminestore.com/catalog/EN300-1265923

> <ROCS_ShapeQuery>
A71EV2A-x0451_0A_A71EV2A-x0310_0A_A71EV2A-x0416_0A_peptide

> <ROCS_TanimotoCombo>
0.483 

> <ROCS_ShapeTanimoto>
0.266 

> <ROCS_ColorTanimoto>
0.217 

> <ROCS_RefTversky>
0.241 

> <ROCS_RefColorTversky>
0.242 

> <ROCS_RefTverskyCombo>
0.483 

> <ROCS_FitTversky>
1.623 

> <ROCS_FitColorTversky>
0.679 

> <ROCS_FitTverskyCombo>
2.302 

> <ROCS_ColorScore>
-7.410

> <ROCS_Overlap>
1673.143

> <ROCS_Rank>
307                 

$$$$
untitled-dbase-17831_8
  -OEChem-11132313473D

 38 39  0     0  0  0  0  0  0999 V2000
    9.0503   10.2381   23.5504 C   0  0  0  0  0  0  0  0  0  0  0  0
    9.4454   11.5837   23.6501 C   0  0  0  0  0  0  0  0  0  0  0  0
    7.8717    9.9042   24.2268 C   0  0  0  0  0  0  0  0  0  0  0  0
    7.6188   11.9898   25.0289 C   0  0  0  0  0  0  0  0  0  0  0  0
   11.2271    9.1307   22.8392 C   0  0  0  0  0  0  0  0  0  0  0  0
   11.9268   10.1866   22.4111 C   0  0  0  0  0  0  0  0  0  0  0  0
   11.1085   13.4096   23.3419 C   0  0  0  0  0  0  0  0  0  0  0  0
    9.7313    9.1197   22.7964 C   0  0  0  0  0  0  0  0  0  0  0  0
   11.2226   11.3834   21.8681 C   0  0  0  0  0  0  0  0  0  0  0  0
    6.8557   12.9718   25.8505 C   0  0  0  0  0  0  0  0  0  0  0  0
   11.7944   16.1497   22.8405 C   0  0  0  0  0  0  0  0  0  0  0  0
   13.3704   15.2451   21.1065 C   0  0  0  0  0  0  0  0  0  0  0  0
   10.8992   14.8639   20.8708 C   0  0  0  0  0  0  0  0  0  0  0  0
   12.0592   15.0132   21.8541 C   0  0  0  0  0  0  0  0  0  0  0  0
    8.7248   12.4481   24.4162 N   0  0  0  0  0  0  0  0  0  0  0  0
    7.1343   10.7475   24.9715 N   0  0  0  0  0  0  0  0  0  0  0  0
   10.6074   12.1383   22.9673 N   0  0  0  0  0  0  0  0  0  0  0  0
   10.6649   14.1173   24.2445 O   0  0  0  0  0  0  0  0  0  0  0  0
   12.1926   13.7918   22.5910 O   0  0  0  0  0  0  0  0  0  0  0  0
    7.1175    8.3459   24.1774 Cl  0  0  0  0  0  0  0  0  0  0  0  0
   11.7488    8.2582   23.2203 H   0  0  0  0  0  0  0  0  0  0  0  0
   13.0110   10.1780   22.4484 H   0  0  0  0  0  0  0  0  0  0  0  0
    9.4655    8.1404   23.2076 H   0  0  0  0  0  0  0  0  0  0  0  0
    9.3784    9.1118   21.7575 H   0  0  0  0  0  0  0  0  0  0  0  0
   11.9426   11.9868   21.3078 H   0  0  0  0  0  0  0  0  0  0  0  0
   10.4442   11.1226   21.1406 H   0  0  0  0  0  0  0  0  0  0  0  0
    6.0985   13.4770   25.2378 H   0  0  0  0  0  0  0  0  0  0  0  0
    6.3500   12.4806   26.6923 H   0  0  0  0  0  0  0  0  0  0  0  0
    7.5193   13.7338   26.2805 H   0  0  0  0  0  0  0  0  0  0  0  0
   10.8540   15.9870   23.3792 H   0  0  0  0  0  0  0  0  0  0  0  0
   12.6027   16.2447   23.5729 H   0  0  0  0  0  0  0  0  0  0  0  0
   11.6886   17.1062   22.3158 H   0  0  0  0  0  0  0  0  0  0  0  0
   13.5644   14.4320   20.3976 H   0  0  0  0  0  0  0  0  0  0  0  0
   14.2185   15.2582   21.8007 H   0  0  0  0  0  0  0  0  0  0  0  0
   13.3593   16.1907   20.5548 H   0  0  0  0  0  0  0  0  0  0  0  0
   11.0888   14.0487   20.1631 H   0  0  0  0  0  0  0  0  0  0  0  0
    9.9558   14.6602   21.3878 H   0  0  0  0  0  0  0  0  0  0  0  0
   10.7779   15.7727   20.2703 H   0  0  0  0  0  0  0  0  0  0  0  0
  1  2  1  0  0  0  0
  1  3  2  0  0  0  0
  1  8  1  0  0  0  0
  2 15  2  0  0  0  0
  2 17  1  0  0  0  0
  3 16  1  0  0  0  0
  3 20  1  0  0  0  0
  4 10  1  0  0  0  0
  4 15  1  0  0  0  0
  4 16  2  0  0  0  0
  5  6  2  0  0  0  0
  5  8  1  0  0  0  0
  6  9  1  0  0  0  0
  7 17  1  0  0  0  0
  7 18  2  0  0  0  0
  7 19  1  0  0  0  0
  9 17  1  0  0  0  0
 11 14  1  0  0  0  0
 12 14  1  0  0  0  0
 13 14  1  0  0  0  0
 14 19  1  0  0  0  0
  5 21  1  0  0  0  0
  6 22  1  0  0  0  0
  8 23  1  0  0  0  0
  8 24  1  0  0  0  0
  9 25  1  0  0  0  0
  9 26  1  0  0  0  0
 10 27  1  0  0  0  0
 10 28  1  0  0  0  0
 10 29  1  0  0  0  0
 11 30  1  0  0  0  0
 11 31  1  0  0  0  0
 11 32  1  0  0  0  0
 12 33  1  0  0  0  0
 12 34  1  0  0  0  0
 12 35  1  0  0  0  0
 13 36  1  0  0  0  0
 13 37  1  0  0  0  0
 13 38  1  0  0  0  0
M  END
> <id>
EN300-1600046

> <smiles>
CC=1N=C(Cl)C=2CC=CCN(C(=O)OC(C)(C)C)C2N1

> <IUPAC Name>
tert-butyl 4-chloro-2-methyl-5H,8H,9H-pyrimido[4,5-b]azepine-9-carboxylate

> <CAS>
2171936-84-6

> <URL>
https://www.enaminestore.com/catalog/EN300-1600046

> <ROCS_ShapeQuery>
A71EV2A-x0451_0A_A71EV2A-x0310_0A_A71EV2A-x0416_0A_peptide

> <ROCS_TanimotoCombo>
0.483 

> <ROCS_ShapeTanimoto>
0.354 

> <ROCS_ColorTanimoto>
0.129 

> <ROCS_RefTversky>
0.307 

> <ROCS_RefColorTversky>
0.141 

> <ROCS_RefTverskyCombo>
0.449 

> <ROCS_FitTversky>
1.760 

> <ROCS_FitColorTversky>
0.590 

> <ROCS_FitTverskyCombo>
2.350 

> <ROCS_ColorScore>
-4.304

> <ROCS_Overlap>
2131.219

> <ROCS_Rank>
308                 

$$$$
untitled-dbase-23673_6
  -OEChem-11132313473D

 30 31  0     1  0  0  0  0  0999 V2000
   10.3838   13.1672   23.4510 C   0  0  0  0  0  0  0  0  0  0  0  0
    9.9280   10.7547   22.7691 C   0  0  0  0  0  0  0  0  0  0  0  0
    7.9037   12.9689   25.2172 C   0  0  0  0  0  0  0  0  0  0  0  0
    6.7500   10.9563   25.5319 C   0  0  0  0  0  0  0  0  0  0  0  0
    8.3241   11.9704   24.1555 C   0  0  2  0  0  0  0  0  0  0  0  0
    8.1056   10.6876   24.9215 C   0  0  2  0  0  0  0  0  0  0  0  0
    9.4641    9.4379   23.4488 C   0  0  0  0  0  0  0  0  0  0  0  0
    9.3085    8.3456   22.3818 C   0  0  0  0  0  0  0  0  0  0  0  0
   10.4998    8.9608   24.4807 C   0  0  0  0  0  0  0  0  0  0  0  0
    9.6501   11.9751   23.5564 N   0  0  0  0  0  0  0  0  0  0  0  0
   10.9408   13.4349   22.2167 N   0  0  0  0  0  0  0  0  0  0  0  0
   10.5495   13.9661   24.3769 O   0  0  0  0  0  0  0  0  0  0  0  0
    6.7726   12.3547   25.8827 O   0  0  0  0  0  0  0  0  0  0  0  0
    8.1645    9.5734   24.0591 O   0  0  0  0  0  0  0  0  0  0  0  0
   11.0219   10.7484   22.6201 H   0  0  0  0  0  0  0  0  0  0  0  0
    9.4787   10.8293   21.7664 H   0  0  0  0  0  0  0  0  0  0  0  0
    8.6817   13.1311   25.9694 H   0  0  0  0  0  0  0  0  0  0  0  0
    7.5914   13.9312   24.8061 H   0  0  0  0  0  0  0  0  0  0  0  0
    5.9321   10.7803   24.8252 H   0  0  0  0  0  0  0  0  0  0  0  0
    6.5649   10.3547   26.4258 H   0  0  0  0  0  0  0  0  0  0  0  0
    7.6027   12.0150   23.3050 H   0  0  0  0  0  0  0  0  0  0  0  0
    8.8323   10.5644   25.7324 H   0  0  0  0  0  0  0  0  0  0  0  0
    8.9839    7.4223   22.8534 H   0  0  0  0  0  0  0  0  0  0  0  0
   10.2623    8.1839   21.8875 H   0  0  0  0  0  0  0  0  0  0  0  0
    8.5691    8.6577   21.6494 H   0  0  0  0  0  0  0  0  0  0  0  0
   10.1550    8.0394   24.9430 H   0  0  0  0  0  0  0  0  0  0  0  0
   10.6285    9.7221   25.2457 H   0  0  0  0  0  0  0  0  0  0  0  0
   11.4509    8.7821   23.9856 H   0  0  0  0  0  0  0  0  0  0  0  0
   11.4775   14.2892   22.1074 H   0  0  0  0  0  0  0  0  0  0  0  0
   10.8427   12.8247   21.4142 H   0  0  0  0  0  0  0  0  0  0  0  0
  1 10  1  0  0  0  0
  1 11  1  0  0  0  0
  1 12  2  0  0  0  0
  2  7  1  0  0  0  0
  2 10  1  0  0  0  0
  3  5  1  6  0  0  0
  3 13  1  0  0  0  0
  4  6  1  1  0  0  0
  4 13  1  0  0  0  0
  5  6  1  0  0  0  0
  5 10  1  0  0  0  0
  6 14  1  0  0  0  0
  7  8  1  0  0  0  0
  7  9  1  0  0  0  0
  7 14  1  0  0  0  0
  2 15  1  0  0  0  0
  2 16  1  0  0  0  0
  3 17  1  0  0  0  0
  3 18  1  0  0  0  0
  4 19  1  0  0  0  0
  4 20  1  0  0  0  0
  5 21  1  0  0  0  0
  6 22  1  0  0  0  0
  8 23  1  0  0  0  0
  8 24  1  0  0  0  0
  8 25  1  0  0  0  0
  9 26  1  0  0  0  0
  9 27  1  0  0  0  0
  9 28  1  0  0  0  0
 11 29  1  0  0  0  0
 11 30  1  0  0  0  0
M  END
> <id>
EN300-7539270

> <smiles>
CC1(C)CN([C@@H]2COC[C@H]2O1)C(=O)N |&1:5,9,r|

> <MDLNUMBER>
MFCD32268987

> <IUPAC Name>
rac-(4aR,7aS)-2,2-dimethyl-hexahydro-2H-furo[3,4-b]morpholine-4-carboxamide

> <CAS>
2408937-90-4

> <Purity>
95

> <URL>
https://www.enaminestore.com/catalog/EN300-7539270

> <ROCS_ShapeQuery>
A71EV2A-x0451_0A_A71EV2A-x0310_0A_A71EV2A-x0416_0A_peptide

> <ROCS_TanimotoCombo>
0.483 

> <ROCS_ShapeTanimoto>
0.292 

> <ROCS_ColorTanimoto>
0.191 

> <ROCS_RefTversky>
0.257 

> <ROCS_RefColorTversky>
0.204 

> <ROCS_RefTverskyCombo>
0.461 

> <ROCS_FitTversky>
1.863 

> <ROCS_FitColorTversky>
0.753 

> <ROCS_FitTverskyCombo>
2.617 

> <ROCS_ColorScore>
-6.217

> <ROCS_Overlap>
1779.296

> <ROCS_Rank>
309                 

$$$$
untitled-dbase-14515_12
  -OEChem-11132313473D

 36 37  0     0  0  0  0  0  0999 V2000
   10.3802   13.2126   23.4855 C   0  0  0  0  0  0  0  0  0  0  0  0
    9.1972    8.8210   23.9974 C   0  0  0  0  0  0  0  0  0  0  0  0
    7.4774    9.0838   22.8548 C   0  0  0  0  0  0  0  0  0  0  0  0
    9.1670   11.0946   22.7362 C   0  0  0  0  0  0  0  0  0  0  0  0
    8.8555   11.9565   24.9913 C   0  0  0  0  0  0  0  0  0  0  0  0
    8.3966   10.0921   23.5895 C   0  0  0  0  0  0  0  0  0  0  0  0
    7.8067   10.9052   24.7295 C   0  0  0  0  0  0  0  0  0  0  0  0
   11.7805   14.4660   20.2809 C   0  0  0  0  0  0  0  0  0  0  0  0
   11.4570   15.6100   22.4888 C   0  0  0  0  0  0  0  0  0  0  0  0
   13.2778   13.9084   22.2101 C   0  0  0  0  0  0  0  0  0  0  0  0
   11.8521   14.2980   21.8030 C   0  0  0  0  0  0  0  0  0  0  0  0
    7.9697    8.0312   23.7663 N   0  0  0  0  0  0  0  0  0  0  0  0
    9.5161   12.1380   23.7039 N   0  0  0  0  0  0  0  0  0  0  0  0
   10.9373   13.2571   22.2122 N   0  0  0  0  0  0  0  0  0  0  0  0
   10.6271   14.0557   24.3524 O   0  0  0  0  0  0  0  0  0  0  0  0
    6.6483   11.4818   24.3332 F   0  0  0  0  0  0  0  0  0  0  0  0
    7.5528   10.1582   25.8221 F   0  0  0  0  0  0  0  0  0  0  0  0
   10.0407    8.5582   23.3556 H   0  0  0  0  0  0  0  0  0  0  0  0
    9.5307    8.8084   25.0402 H   0  0  0  0  0  0  0  0  0  0  0  0
    6.3979    9.2639   22.9566 H   0  0  0  0  0  0  0  0  0  0  0  0
    7.6888    8.9064   21.7929 H   0  0  0  0  0  0  0  0  0  0  0  0
   10.1039   10.6730   22.3523 H   0  0  0  0  0  0  0  0  0  0  0  0
    8.5872   11.5160   21.9075 H   0  0  0  0  0  0  0  0  0  0  0  0
    8.4112   12.9160   25.2774 H   0  0  0  0  0  0  0  0  0  0  0  0
    9.5821   11.6579   25.7526 H   0  0  0  0  0  0  0  0  0  0  0  0
   12.0592   13.5389   19.7664 H   0  0  0  0  0  0  0  0  0  0  0  0
   10.7703   14.7397   19.9569 H   0  0  0  0  0  0  0  0  0  0  0  0
   12.4687   15.2468   19.9369 H   0  0  0  0  0  0  0  0  0  0  0  0
   11.5007   15.5145   23.5800 H   0  0  0  0  0  0  0  0  0  0  0  0
   10.4315   15.8982   22.2300 H   0  0  0  0  0  0  0  0  0  0  0  0
   12.1221   16.4297   22.1952 H   0  0  0  0  0  0  0  0  0  0  0  0
   13.3578   13.7815   23.2960 H   0  0  0  0  0  0  0  0  0  0  0  0
   13.5853   12.9693   21.7369 H   0  0  0  0  0  0  0  0  0  0  0  0
   13.9979   14.6826   21.9206 H   0  0  0  0  0  0  0  0  0  0  0  0
    8.1495    7.1444   23.2930 H   0  0  0  0  0  0  0  0  0  0  0  0
   10.7565   12.5083   21.5523 H   0  0  0  0  0  0  0  0  0  0  0  0
  1 13  1  0  0  0  0
  1 14  1  0  0  0  0
  1 15  2  0  0  0  0
  2  6  1  0  0  0  0
  2 12  1  0  0  0  0
  3  6  1  0  0  0  0
  3 12  1  0  0  0  0
  4  6  1  0  0  0  0
  4 13  1  0  0  0  0
  5  7  1  0  0  0  0
  5 13  1  0  0  0  0
  6  7  1  0  0  0  0
  7 16  1  0  0  0  0
  7 17  1  0  0  0  0
  8 11  1  0  0  0  0
  9 11  1  0  0  0  0
 10 11  1  0  0  0  0
 11 14  1  0  0  0  0
  2 18  1  0  0  0  0
  2 19  1  0  0  0  0
  3 20  1  0  0  0  0
  3 21  1  0  0  0  0
  4 22  1  0  0  0  0
  4 23  1  0  0  0  0
  5 24  1  0  0  0  0
  5 25  1  0  0  0  0
  8 26  1  0  0  0  0
  8 27  1  0  0  0  0
  8 28  1  0  0  0  0
  9 29  1  0  0  0  0
  9 30  1  0  0  0  0
  9 31  1  0  0  0  0
 10 32  1  0  0  0  0
 10 33  1  0  0  0  0
 10 34  1  0  0  0  0
 12 35  1  0  0  0  0
 14 36  1  0  0  0  0
M  END
> <id>
EN300-766981

> <smiles>
CC(C)(C)NC(=O)N1CC2(CNC2)C(F)(F)C1

> <MDLNUMBER>
MFCD31591294

> <IUPAC Name>
N-tert-butyl-8,8-difluoro-2,6-diazaspiro[3.4]octane-6-carboxamide

> <CAS>
2137714-52-2

> <URL>
https://www.enaminestore.com/catalog/EN300-766981

> <ROCS_ShapeQuery>
A71EV2A-x0451_0A_A71EV2A-x0310_0A_A71EV2A-x0416_0A_peptide

> <ROCS_TanimotoCombo>
0.483 

> <ROCS_ShapeTanimoto>
0.306 

> <ROCS_ColorTanimoto>
0.176 

> <ROCS_RefTversky>
0.271 

> <ROCS_RefColorTversky>
0.190 

> <ROCS_RefTverskyCombo>
0.462 

> <ROCS_FitTversky>
1.737 

> <ROCS_FitColorTversky>
0.704 

> <ROCS_FitTverskyCombo>
2.440 

> <ROCS_ColorScore>
-5.802

> <ROCS_Overlap>
1880.693

> <ROCS_Rank>
310                 

$$$$
untitled-dbase-11723_3
  -OEChem-11132313473D

 35 36  0     0  0  0  0  0  0999 V2000
    8.6074    8.5733   23.1032 C   0  0  0  0  0  0  0  0  0  0  0  0
    8.4802    7.4310   22.7556 C   0  0  0  0  0  0  0  0  0  0  0  0
    7.9191   12.9055   25.3737 C   0  0  0  0  0  0  0  0  0  0  0  0
    6.8060   12.5427   26.1389 C   0  0  0  0  0  0  0  0  0  0  0  0
    6.8471   10.3065   25.2226 C   0  0  0  0  0  0  0  0  0  0  0  0
    9.7345   10.7762   23.0512 C   0  0  0  0  0  0  0  0  0  0  0  0
    8.7589    9.9289   23.5137 C   0  0  0  0  0  0  0  0  0  0  0  0
    7.9704   10.6493   24.4412 C   0  0  0  0  0  0  0  0  0  0  0  0
    8.4979   11.9453   24.5218 C   0  0  0  0  0  0  0  0  0  0  0  0
    6.2751   11.2611   26.0659 C   0  0  0  0  0  0  0  0  0  0  0  0
   10.4109   13.1340   23.4274 C   0  0  0  0  0  0  0  0  0  0  0  0
   12.9505   14.2046   22.7522 C   0  0  0  0  0  0  0  0  0  0  0  0
   12.1950   13.9972   20.3657 C   0  0  0  0  0  0  0  0  0  0  0  0
   10.9495   15.5007   21.9457 C   0  0  0  0  0  0  0  0  0  0  0  0
   11.7469   14.2043   21.8109 C   0  0  0  0  0  0  0  0  0  0  0  0
    9.5932   12.0140   23.6542 N   0  0  0  0  0  0  0  0  0  0  0  0
    8.3285    6.0635   22.3396 N   0  0  0  0  0  0  0  0  0  0  0  0
   10.6085   13.9678   24.2957 O   0  0  0  0  0  0  0  0  0  0  0  0
   10.8963   13.1079   22.1598 O   0  0  0  0  0  0  0  0  0  0  0  0
    5.2082   10.9377   26.8088 F   0  0  0  0  0  0  0  0  0  0  0  0
    8.3100   13.9138   25.4531 H   0  0  0  0  0  0  0  0  0  0  0  0
    6.3509   13.2758   26.7998 H   0  0  0  0  0  0  0  0  0  0  0  0
    6.4219    9.3076   25.1766 H   0  0  0  0  0  0  0  0  0  0  0  0
   10.5244   10.5929   22.3337 H   0  0  0  0  0  0  0  0  0  0  0  0
   12.6331   14.3529   23.7906 H   0  0  0  0  0  0  0  0  0  0  0  0
   13.5109   13.2660   22.6907 H   0  0  0  0  0  0  0  0  0  0  0  0
   13.6314   15.0304   22.5161 H   0  0  0  0  0  0  0  0  0  0  0  0
   11.3345   13.9964   19.6868 H   0  0  0  0  0  0  0  0  0  0  0  0
   12.6847   13.0243   20.2445 H   0  0  0  0  0  0  0  0  0  0  0  0
   12.8907   14.7783   20.0426 H   0  0  0  0  0  0  0  0  0  0  0  0
   10.0861   15.5008   21.2706 H   0  0  0  0  0  0  0  0  0  0  0  0
   10.5882   15.6475   22.9688 H   0  0  0  0  0  0  0  0  0  0  0  0
   11.5615   16.3656   21.6651 H   0  0  0  0  0  0  0  0  0  0  0  0
    7.4040    5.6682   22.2431 H   0  0  0  0  0  0  0  0  0  0  0  0
    9.1472    5.5042   22.1466 H   0  0  0  0  0  0  0  0  0  0  0  0
  1  2  3  0  0  0  0
  1  7  1  0  0  0  0
  2 17  1  0  0  0  0
  3  4  1  0  0  0  0
  3  9  2  0  0  0  0
  4 10  2  0  0  0  0
  5  8  2  0  0  0  0
  5 10  1  0  0  0  0
  6  7  2  0  0  0  0
  6 16  1  0  0  0  0
  7  8  1  0  0  0  0
  8  9  1  0  0  0  0
  9 16  1  0  0  0  0
 10 20  1  0  0  0  0
 11 16  1  0  0  0  0
 11 18  2  0  0  0  0
 11 19  1  0  0  0  0
 12 15  1  0  0  0  0
 13 15  1  0  0  0  0
 14 15  1  0  0  0  0
 15 19  1  0  0  0  0
  3 21  1  0  0  0  0
  4 22  1  0  0  0  0
  5 23  1  0  0  0  0
  6 24  1  0  0  0  0
 12 25  1  0  0  0  0
 12 26  1  0  0  0  0
 12 27  1  0  0  0  0
 13 28  1  0  0  0  0
 13 29  1  0  0  0  0
 13 30  1  0  0  0  0
 14 31  1  0  0  0  0
 14 32  1  0  0  0  0
 14 33  1  0  0  0  0
 17 34  1  0  0  0  0
 17 35  1  0  0  0  0
M  END
> <id>
EN300-624595

> <smiles>
CC(C)(C)OC(=O)N1C=C(C#CN)C=2C=C(F)C=CC12

> <MDLNUMBER>
MFCD30752588

> <IUPAC Name>
tert-butyl 3-(2-aminoethynyl)-5-fluoro-1H-indole-1-carboxylate

> <CAS>
2137804-90-9

> <URL>
https://www.enaminestore.com/catalog/EN300-624595

> <ROCS_ShapeQuery>
A71EV2A-x0451_0A_A71EV2A-x0310_0A_A71EV2A-x0416_0A_peptide

> <ROCS_TanimotoCombo>
0.483 

> <ROCS_ShapeTanimoto>
0.349 

> <ROCS_ColorTanimoto>
0.133 

> <ROCS_RefTversky>
0.304 

> <ROCS_RefColorTversky>
0.146 

> <ROCS_RefTverskyCombo>
0.450 

> <ROCS_FitTversky>
1.728 

> <ROCS_FitColorTversky>
0.608 

> <ROCS_FitTverskyCombo>
2.336 

> <ROCS_ColorScore>
-4.441

> <ROCS_Overlap>
2112.807

> <ROCS_Rank>
311                 

$$$$
untitled-dbase-45611_20
  -OEChem-11132313473D

 43 44  0     0  0  0  0  0  0999 V2000
    7.8803   13.0060   25.0618 C   0  0  0  0  0  0  0  0  0  0  0  0
    6.8569   12.8134   25.9908 C   0  0  0  0  0  0  0  0  0  0  0  0
    6.9881   10.4474   25.6137 C   0  0  0  0  0  0  0  0  0  0  0  0
    8.0160   10.6236   24.6647 C   0  0  0  0  0  0  0  0  0  0  0  0
    8.5049   11.9222   24.4107 C   0  0  0  0  0  0  0  0  0  0  0  0
    6.4194   11.5315   26.2775 C   0  0  0  0  0  0  0  0  0  0  0  0
    9.3804    9.7052   22.9044 C   0  0  0  0  0  0  0  0  0  0  0  0
    8.5624    9.4675   23.9371 C   0  0  0  0  0  0  0  0  0  0  0  0
   10.2856   13.3575   23.3861 C   0  0  0  0  0  0  0  0  0  0  0  0
    9.8573   11.0664   22.4454 C   0  0  0  0  0  0  0  0  0  0  0  0
    8.1729    8.0662   24.3100 C   0  0  0  0  0  0  0  0  0  0  0  0
   11.3782   10.9034   22.2038 C   0  0  0  0  0  0  0  0  0  0  0  0
    9.1548   11.4019   21.1182 C   0  0  0  0  0  0  0  0  0  0  0  0
   12.9257   13.8729   22.3965 C   0  0  0  0  0  0  0  0  0  0  0  0
   11.7815   14.9030   20.4118 C   0  0  0  0  0  0  0  0  0  0  0  0
   11.4515   15.8906   22.6975 C   0  0  0  0  0  0  0  0  0  0  0  0
   11.6766   14.6033   21.9056 C   0  0  0  0  0  0  0  0  0  0  0  0
    9.5815   12.1314   23.4639 N   0  0  0  0  0  0  0  0  0  0  0  0
   10.5694   14.0631   24.3524 O   0  0  0  0  0  0  0  0  0  0  0  0
   10.5437   13.7471   22.0954 O   0  0  0  0  0  0  0  0  0  0  0  0
    5.0370   11.2595   27.5357 Br  0  0  0  0  0  0  0  0  0  0  0  0
    8.1399   14.0367   24.8380 H   0  0  0  0  0  0  0  0  0  0  0  0
    6.4094   13.6802   26.4704 H   0  0  0  0  0  0  0  0  0  0  0  0
    6.6083    9.4522   25.8355 H   0  0  0  0  0  0  0  0  0  0  0  0
    9.7429    8.8512   22.3325 H   0  0  0  0  0  0  0  0  0  0  0  0
    7.2941    7.7721   23.7417 H   0  0  0  0  0  0  0  0  0  0  0  0
    7.9521    8.0230   25.3739 H   0  0  0  0  0  0  0  0  0  0  0  0
    8.9957    7.3910   24.0874 H   0  0  0  0  0  0  0  0  0  0  0  0
   11.7811   11.8506   21.8710 H   0  0  0  0  0  0  0  0  0  0  0  0
   11.5309   10.1464   21.4463 H   0  0  0  0  0  0  0  0  0  0  0  0
   11.8475   10.6035   23.1312 H   0  0  0  0  0  0  0  0  0  0  0  0
    9.4859   12.3763   20.7745 H   0  0  0  0  0  0  0  0  0  0  0  0
    8.0813   11.4151   21.2751 H   0  0  0  0  0  0  0  0  0  0  0  0
    9.4071   10.6484   20.3794 H   0  0  0  0  0  0  0  0  0  0  0  0
   12.8543   13.6559   23.4683 H   0  0  0  0  0  0  0  0  0  0  0  0
   13.0789   12.9306   21.8604 H   0  0  0  0  0  0  0  0  0  0  0  0
   13.8188   14.4946   22.2659 H   0  0  0  0  0  0  0  0  0  0  0  0
   10.8874   15.4270   20.0553 H   0  0  0  0  0  0  0  0  0  0  0  0
   11.8479   13.9757   19.8314 H   0  0  0  0  0  0  0  0  0  0  0  0
   12.6579   15.5182   20.1838 H   0  0  0  0  0  0  0  0  0  0  0  0
   10.5556   16.4146   22.3455 H   0  0  0  0  0  0  0  0  0  0  0  0
   11.3370   15.6909   23.7678 H   0  0  0  0  0  0  0  0  0  0  0  0
   12.2892   16.5839   22.5602 H   0  0  0  0  0  0  0  0  0  0  0  0
  1  2  1  0  0  0  0
  1  5  2  0  0  0  0
  2  6  2  0  0  0  0
  3  4  2  0  0  0  0
  3  6  1  0  0  0  0
  4  5  1  0  0  0  0
  4  8  1  0  0  0  0
  5 18  1  0  0  0  0
  6 21  1  0  0  0  0
  7  8  2  0  0  0  0
  7 10  1  0  0  0  0
  8 11  1  0  0  0  0
  9 18  1  0  0  0  0
  9 19  2  0  0  0  0
  9 20  1  0  0  0  0
 10 12  1  0  0  0  0
 10 13  1  0  0  0  0
 10 18  1  0  0  0  0
 14 17  1  0  0  0  0
 15 17  1  0  0  0  0
 16 17  1  0  0  0  0
 17 20  1  0  0  0  0
  1 22  1  0  0  0  0
  2 23  1  0  0  0  0
  3 24  1  0  0  0  0
  7 25  1  0  0  0  0
 11 26  1  0  0  0  0
 11 27  1  0  0  0  0
 11 28  1  0  0  0  0
 12 29  1  0  0  0  0
 12 30  1  0  0  0  0
 12 31  1  0  0  0  0
 13 32  1  0  0  0  0
 13 33  1  0  0  0  0
 13 34  1  0  0  0  0
 14 35  1  0  0  0  0
 14 36  1  0  0  0  0
 14 37  1  0  0  0  0
 15 38  1  0  0  0  0
 15 39  1  0  0  0  0
 15 40  1  0  0  0  0
 16 41  1  0  0  0  0
 16 42  1  0  0  0  0
 16 43  1  0  0  0  0
M  END
> <id>
EN300-3614537

> <smiles>
CC1=CC(C)(C)N(C(=O)OC(C)(C)C)C=2C=CC(Br)=CC12

> <MDLNUMBER>
MFCD13248579

> <IUPAC Name>
tert-butyl 6-bromo-2,2,4-trimethyl-1,2-dihydroquinoline-1-carboxylate

> <CAS>
179894-35-0

> <URL>
https://www.enaminestore.com/catalog/EN300-3614537

> <ROCS_ShapeQuery>
A71EV2A-x0451_0A_A71EV2A-x0310_0A_A71EV2A-x0416_0A_peptide

> <ROCS_TanimotoCombo>
0.483 

> <ROCS_ShapeTanimoto>
0.363 

> <ROCS_ColorTanimoto>
0.120 

> <ROCS_RefTversky>
0.314 

> <ROCS_RefColorTversky>
0.132 

> <ROCS_RefTverskyCombo>
0.446 

> <ROCS_FitTversky>
1.756 

> <ROCS_FitColorTversky>
0.553 

> <ROCS_FitTverskyCombo>
2.309 

> <ROCS_ColorScore>
-4.029

> <ROCS_Overlap>
2178.862

> <ROCS_Rank>
312                 

$$$$
untitled-dbase-29509_47
  -OEChem-11132313473D

 38 39  0     1  0  0  0  0  0999 V2000
   10.0020   13.3646   23.5173 C   0  0  0  0  0  0  0  0  0  0  0  0
    8.4150   10.4475   22.5214 C   0  0  0  0  0  0  0  0  0  0  0  0
    9.9098   10.1041   24.5886 C   0  0  0  0  0  0  0  0  0  0  0  0
    6.8035   11.7746   24.0325 C   0  0  0  0  0  0  0  0  0  0  0  0
    8.1851   11.4594   25.9401 C   0  0  0  0  0  0  0  0  0  0  0  0
    8.0303   11.8185   23.1123 C   0  0  1  0  0  0  0  0  0  0  0  0
    9.4461   11.4935   25.0684 C   0  0  2  0  0  0  0  0  0  0  0  0
    8.9986    9.4512   23.5358 C   0  0  0  0  0  0  0  0  0  0  0  0
   12.4871   13.0923   22.1264 C   0  0  0  0  0  0  0  0  0  0  0  0
   11.2751   14.0608   20.1510 C   0  0  0  0  0  0  0  0  0  0  0  0
   11.5414   15.4217   22.2451 C   0  0  0  0  0  0  0  0  0  0  0  0
   11.3566   14.0160   21.6753 C   0  0  0  0  0  0  0  0  0  0  0  0
    9.1695   12.3114   23.8901 N   0  0  0  0  0  0  0  0  0  0  0  0
   10.5762   14.1071   24.3114 O   0  0  0  0  0  0  0  0  0  0  0  0
    7.0398   11.0107   25.2154 O   0  0  0  0  0  0  0  0  0  0  0  0
    7.9333    8.7451   24.1674 O   0  0  0  0  0  0  0  0  0  0  0  0
   10.1162   13.4876   22.1584 O   0  0  0  0  0  0  0  0  0  0  0  0
    7.5434   10.0092   22.0201 H   0  0  0  0  0  0  0  0  0  0  0  0
    9.1741   10.6244   21.7476 H   0  0  0  0  0  0  0  0  0  0  0  0
   10.9054   10.2262   24.1413 H   0  0  0  0  0  0  0  0  0  0  0  0
   10.0291    9.4412   25.4539 H   0  0  0  0  0  0  0  0  0  0  0  0
    6.5029   12.7884   24.3237 H   0  0  0  0  0  0  0  0  0  0  0  0
    5.9541   11.3217   23.5106 H   0  0  0  0  0  0  0  0  0  0  0  0
    8.3275   10.7806   26.7874 H   0  0  0  0  0  0  0  0  0  0  0  0
    7.9727   12.4535   26.3521 H   0  0  0  0  0  0  0  0  0  0  0  0
    7.8061   12.4953   22.2815 H   0  0  0  0  0  0  0  0  0  0  0  0
   10.2574   11.9408   25.6540 H   0  0  0  0  0  0  0  0  0  0  0  0
    9.5714    8.6928   22.9893 H   0  0  0  0  0  0  0  0  0  0  0  0
   12.5489   13.0574   23.2200 H   0  0  0  0  0  0  0  0  0  0  0  0
   12.3479   12.0724   21.7533 H   0  0  0  0  0  0  0  0  0  0  0  0
   13.4573   13.4605   21.7736 H   0  0  0  0  0  0  0  0  0  0  0  0
   10.4652   14.7224   19.8229 H   0  0  0  0  0  0  0  0  0  0  0  0
   11.0481   13.0692   19.7430 H   0  0  0  0  0  0  0  0  0  0  0  0
   12.2117   14.4125   19.7065 H   0  0  0  0  0  0  0  0  0  0  0  0
   10.7306   16.0845   21.9216 H   0  0  0  0  0  0  0  0  0  0  0  0
   11.5651   15.4134   23.3396 H   0  0  0  0  0  0  0  0  0  0  0  0
   12.4721   15.8709   21.8800 H   0  0  0  0  0  0  0  0  0  0  0  0
    7.3851    9.4113   24.6101 H   0  0  0  0  0  0  0  0  0  0  0  0
  1 13  1  0  0  0  0
  1 14  2  0  0  0  0
  1 17  1  0  0  0  0
  2  6  1  0  0  0  0
  2  8  1  0  0  0  0
  3  7  1  0  0  0  0
  3  8  1  0  0  0  0
  4  6  1  1  0  0  0
  4 15  1  0  0  0  0
  5  7  1  1  0  0  0
  5 15  1  0  0  0  0
  6 13  1  0  0  0  0
  7 13  1  0  0  0  0
  8 16  1  1  0  0  0
  9 12  1  0  0  0  0
 10 12  1  0  0  0  0
 11 12  1  0  0  0  0
 12 17  1  0  0  0  0
  2 18  1  0  0  0  0
  2 19  1  0  0  0  0
  3 20  1  0  0  0  0
  3 21  1  0  0  0  0
  4 22  1  0  0  0  0
  4 23  1  0  0  0  0
  5 24  1  0  0  0  0
  5 25  1  0  0  0  0
  6 26  1  0  0  0  0
  7 27  1  0  0  0  0
  8 28  1  0  0  0  0
  9 29  1  0  0  0  0
  9 30  1  0  0  0  0
  9 31  1  0  0  0  0
 10 32  1  0  0  0  0
 10 33  1  0  0  0  0
 10 34  1  0  0  0  0
 11 35  1  0  0  0  0
 11 36  1  0  0  0  0
 11 37  1  0  0  0  0
 16 38  1  0  0  0  0
M  END
> <id>
EN300-7157260

> <smiles>
CC(C)(C)OC(=O)N1[C@H]2COC[C@@H]1C[C@H](O)C2

> <MDLNUMBER>
MFCD27956889

> <IUPAC Name>
tert-butyl (1R,5S,7s)-7-hydroxy-3-oxa-9-azabicyclo[3.3.1]nonane-9-carboxylate

> <CAS>
1148006-31-8

> <URL>
https://www.enaminestore.com/catalog/EN300-7157260

> <ROCS_ShapeQuery>
A71EV2A-x0451_0A_A71EV2A-x0310_0A_A71EV2A-x0416_0A_peptide

> <ROCS_TanimotoCombo>
0.482 

> <ROCS_ShapeTanimoto>
0.286 

> <ROCS_ColorTanimoto>
0.196 

> <ROCS_RefTversky>
0.257 

> <ROCS_RefColorTversky>
0.210 

> <ROCS_RefTverskyCombo>
0.467 

> <ROCS_FitTversky>
1.654 

> <ROCS_FitColorTversky>
0.749 

> <ROCS_FitTverskyCombo>
2.403 

> <ROCS_ColorScore>
-6.395

> <ROCS_Overlap>
1784.223

> <ROCS_Rank>
313                 

$$$$
untitled-dbase-45349_0
  -OEChem-11132313473D

 36 37  0     1  0  0  0  0  0999 V2000
    6.9485   12.0555   25.7627 C   0  0  0  0  0  0  0  0  0  0  0  0
    7.9965   12.8213   25.2113 C   0  0  0  0  0  0  0  0  0  0  0  0
    8.6297   11.9756   24.3243 C   0  0  0  0  0  0  0  0  0  0  0  0
   10.4226   13.3126   23.4058 C   0  0  0  0  0  0  0  0  0  0  0  0
    9.6972    9.6025   23.2100 C   0  0  0  0  0  0  0  0  0  0  0  0
    8.2478    9.5864   23.6791 C   0  0  0  0  0  0  0  0  0  0  0  0
   10.0807   10.9492   22.5708 C   0  0  1  0  0  0  0  0  0  0  0  0
    9.4384   11.1221   21.1900 C   0  0  0  0  0  0  0  0  0  0  0  0
   12.8552   14.7602   22.9456 C   0  0  0  0  0  0  0  0  0  0  0  0
   12.1247   14.8610   20.5445 C   0  0  0  0  0  0  0  0  0  0  0  0
   10.7304   15.9570   22.3230 C   0  0  0  0  0  0  0  0  0  0  0  0
   11.6579   14.7873   21.9967 C   0  0  0  0  0  0  0  0  0  0  0  0
    6.9076   10.8135   25.2778 N   0  0  0  0  0  0  0  0  0  0  0  0
    7.9402   10.7921   24.4193 N   0  0  0  0  0  0  0  0  0  0  0  0
    9.7223   12.0924   23.4552 N   0  0  0  0  0  0  0  0  0  0  0  0
   10.5916   14.0884   24.3436 O   0  0  0  0  0  0  0  0  0  0  0  0
   10.9247   13.5666   22.1528 O   0  0  0  0  0  0  0  0  0  0  0  0
    8.1304   14.6308   25.6765 Br  0  0  0  0  0  0  0  0  0  0  0  0
    6.1997   12.3488   26.4856 H   0  0  0  0  0  0  0  0  0  0  0  0
   10.3543    9.4288   24.0730 H   0  0  0  0  0  0  0  0  0  0  0  0
    9.8732    8.7757   22.5122 H   0  0  0  0  0  0  0  0  0  0  0  0
    7.5496    9.5412   22.8369 H   0  0  0  0  0  0  0  0  0  0  0  0
    8.0670    8.7265   24.3327 H   0  0  0  0  0  0  0  0  0  0  0  0
   11.1710   10.9337   22.4352 H   0  0  0  0  0  0  0  0  0  0  0  0
    8.3568   11.1410   21.2927 H   0  0  0  0  0  0  0  0  0  0  0  0
    9.7262   10.2928   20.5495 H   0  0  0  0  0  0  0  0  0  0  0  0
    9.7760   12.0553   20.7471 H   0  0  0  0  0  0  0  0  0  0  0  0
   12.5243   14.7073   23.9890 H   0  0  0  0  0  0  0  0  0  0  0  0
   13.5099   13.9059   22.7447 H   0  0  0  0  0  0  0  0  0  0  0  0
   13.4468   15.6784   22.8551 H   0  0  0  0  0  0  0  0  0  0  0  0
   11.2689   14.8807   19.8601 H   0  0  0  0  0  0  0  0  0  0  0  0
   12.7127   13.9753   20.2781 H   0  0  0  0  0  0  0  0  0  0  0  0
   12.7357   15.7508   20.3612 H   0  0  0  0  0  0  0  0  0  0  0  0
    9.8715   15.9767   21.6425 H   0  0  0  0  0  0  0  0  0  0  0  0
   10.3561   15.9005   23.3503 H   0  0  0  0  0  0  0  0  0  0  0  0
   11.2494   16.9136   22.1936 H   0  0  0  0  0  0  0  0  0  0  0  0
  1  2  1  0  0  0  0
  1 13  2  0  0  0  0
  2  3  2  0  0  0  0
  2 18  1  0  0  0  0
  3 14  1  0  0  0  0
  3 15  1  0  0  0  0
  4 15  1  0  0  0  0
  4 16  2  0  0  0  0
  4 17  1  0  0  0  0
  5  6  1  0  0  0  0
  5  7  1  0  0  0  0
  6 14  1  0  0  0  0
  7  8  1  0  0  0  0
  7 15  1  0  0  0  0
  9 12  1  0  0  0  0
 10 12  1  0  0  0  0
 11 12  1  0  0  0  0
 12 17  1  0  0  0  0
 13 14  1  0  0  0  0
  1 19  1  0  0  0  0
  5 20  1  0  0  0  0
  5 21  1  0  0  0  0
  6 22  1  0  0  0  0
  6 23  1  0  0  0  0
  7 24  1  0  0  0  0
  8 25  1  0  0  0  0
  8 26  1  0  0  0  0
  8 27  1  0  0  0  0
  9 28  1  0  0  0  0
  9 29  1  0  0  0  0
  9 30  1  0  0  0  0
 10 31  1  0  0  0  0
 10 32  1  0  0  0  0
 10 33  1  0  0  0  0
 11 34  1  0  0  0  0
 11 35  1  0  0  0  0
 11 36  1  0  0  0  0
M  END
> <id>
EN300-28293171

> <smiles>
CC1CCN2N=CC(Br)=C2N1C(=O)OC(C)(C)C

> <IUPAC Name>
tert-butyl 3-bromo-5-methyl-4H,5H,6H,7H-pyrazolo[1,5-a]pyrimidine-4-carboxylate

> <CAS>
2680695-99-0

> <URL>
https://www.enaminestore.com/catalog/EN300-28293171

> <ROCS_ShapeQuery>
A71EV2A-x0451_0A_A71EV2A-x0310_0A_A71EV2A-x0416_0A_peptide

> <ROCS_TanimotoCombo>
0.482 

> <ROCS_ShapeTanimoto>
0.329 

> <ROCS_ColorTanimoto>
0.154 

> <ROCS_RefTversky>
0.287 

> <ROCS_RefColorTversky>
0.165 

> <ROCS_RefTverskyCombo>
0.453 

> <ROCS_FitTversky>
1.772 

> <ROCS_FitColorTversky>
0.688 

> <ROCS_FitTverskyCombo>
2.460 

> <ROCS_ColorScore>
-5.029

> <ROCS_Overlap>
1993.885

> <ROCS_Rank>
314                 

$$$$
untitled-dbase-45097_17
  -OEChem-11132313473D

 35 36  0     0  0  0  0  0  0999 V2000
    7.9748   13.1014   24.9595 C   0  0  0  0  0  0  0  0  0  0  0  0
    6.3594   11.6375   25.9085 C   0  0  0  0  0  0  0  0  0  0  0  0
    8.5985   12.0180   24.3271 C   0  0  0  0  0  0  0  0  0  0  0  0
    6.8482   12.9170   25.7596 C   0  0  0  0  0  0  0  0  0  0  0  0
    7.9990   10.7641   24.5316 C   0  0  0  0  0  0  0  0  0  0  0  0
   10.5576   13.3230   23.4351 C   0  0  0  0  0  0  0  0  0  0  0  0
    8.5627    9.5233   23.9041 C   0  0  0  0  0  0  0  0  0  0  0  0
    9.1874    9.8709   22.5710 C   0  0  0  0  0  0  0  0  0  0  0  0
   10.2377   10.9502   22.7677 C   0  0  0  0  0  0  0  0  0  0  0  0
   12.3914   15.4511   22.8410 C   0  0  0  0  0  0  0  0  0  0  0  0
   12.3523   14.5807   20.4852 C   0  0  0  0  0  0  0  0  0  0  0  0
   10.2429   15.4564   21.5300 C   0  0  0  0  0  0  0  0  0  0  0  0
   11.5609   14.7259   21.7831 C   0  0  0  0  0  0  0  0  0  0  0  0
    6.9062   10.5607   25.3150 N   0  0  0  0  0  0  0  0  0  0  0  0
    9.7739   12.1462   23.4967 N   0  0  0  0  0  0  0  0  0  0  0  0
   10.6518   14.1881   24.3008 O   0  0  0  0  0  0  0  0  0  0  0  0
   11.2672   13.4068   22.2595 O   0  0  0  0  0  0  0  0  0  0  0  0
    6.0114   14.3764   26.6096 Br  0  0  0  0  0  0  0  0  0  0  0  0
    8.3229   14.1188   24.8291 H   0  0  0  0  0  0  0  0  0  0  0  0
    5.4881   11.4237   26.5193 H   0  0  0  0  0  0  0  0  0  0  0  0
    9.3070    9.0891   24.5819 H   0  0  0  0  0  0  0  0  0  0  0  0
    7.7718    8.7794   23.7565 H   0  0  0  0  0  0  0  0  0  0  0  0
    9.6467    8.9799   22.1281 H   0  0  0  0  0  0  0  0  0  0  0  0
    8.4224   10.2223   21.8667 H   0  0  0  0  0  0  0  0  0  0  0  0
   11.0950   10.5524   23.3258 H   0  0  0  0  0  0  0  0  0  0  0  0
   10.6098   11.2511   21.7815 H   0  0  0  0  0  0  0  0  0  0  0  0
   11.8268   15.5573   23.7743 H   0  0  0  0  0  0  0  0  0  0  0  0
   13.3233   14.9186   23.0571 H   0  0  0  0  0  0  0  0  0  0  0  0
   12.6411   16.4668   22.5135 H   0  0  0  0  0  0  0  0  0  0  0  0
   11.7602   14.0609   19.7233 H   0  0  0  0  0  0  0  0  0  0  0  0
   13.2525   13.9755   20.6425 H   0  0  0  0  0  0  0  0  0  0  0  0
   12.6544   15.5540   20.0851 H   0  0  0  0  0  0  0  0  0  0  0  0
    9.6470   14.9364   20.7712 H   0  0  0  0  0  0  0  0  0  0  0  0
    9.6448   15.5373   22.4434 H   0  0  0  0  0  0  0  0  0  0  0  0
   10.4249   16.4653   21.1424 H   0  0  0  0  0  0  0  0  0  0  0  0
  1  3  2  0  0  0  0
  1  4  1  0  0  0  0
  2  4  2  0  0  0  0
  2 14  1  0  0  0  0
  3  5  1  0  0  0  0
  3 15  1  0  0  0  0
  4 18  1  0  0  0  0
  5  7  1  0  0  0  0
  5 14  2  0  0  0  0
  6 15  1  0  0  0  0
  6 16  2  0  0  0  0
  6 17  1  0  0  0  0
  7  8  1  0  0  0  0
  8  9  1  0  0  0  0
  9 15  1  0  0  0  0
 10 13  1  0  0  0  0
 11 13  1  0  0  0  0
 12 13  1  0  0  0  0
 13 17  1  0  0  0  0
  1 19  1  0  0  0  0
  2 20  1  0  0  0  0
  7 21  1  0  0  0  0
  7 22  1  0  0  0  0
  8 23  1  0  0  0  0
  8 24  1  0  0  0  0
  9 25  1  0  0  0  0
  9 26  1  0  0  0  0
 10 27  1  0  0  0  0
 10 28  1  0  0  0  0
 10 29  1  0  0  0  0
 11 30  1  0  0  0  0
 11 31  1  0  0  0  0
 11 32  1  0  0  0  0
 12 33  1  0  0  0  0
 12 34  1  0  0  0  0
 12 35  1  0  0  0  0
M  END
> <id>
EN300-12588537

> <smiles>
CC(C)(C)OC(=O)N1CCCC=2N=CC(Br)=CC12

> <MDLNUMBER>
MFCD22548071

> <IUPAC Name>
tert-butyl 7-bromo-1,2,3,4-tetrahydro-1,5-naphthyridine-1-carboxylate

> <CAS>
1393583-78-2

> <URL>
https://www.enaminestore.com/catalog/EN300-12588537

> <ROCS_ShapeQuery>
A71EV2A-x0451_0A_A71EV2A-x0310_0A_A71EV2A-x0416_0A_peptide

> <ROCS_TanimotoCombo>
0.482 

> <ROCS_ShapeTanimoto>
0.339 

> <ROCS_ColorTanimoto>
0.144 

> <ROCS_RefTversky>
0.294 

> <ROCS_RefColorTversky>
0.156 

> <ROCS_RefTverskyCombo>
0.449 

> <ROCS_FitTversky>
1.824 

> <ROCS_FitColorTversky>
0.649 

> <ROCS_FitTverskyCombo>
2.474 

> <ROCS_ColorScore>
-4.734

> <ROCS_Overlap>
2037.885

> <ROCS_Rank>
315                 

$$$$
untitled-dbase-34291_17
  -OEChem-11132313473D

 41 42  0     1  0  0  0  0  0999 V2000
    6.5104   11.3633   26.1328 C   0  0  0  0  0  0  0  0  0  0  0  0
    6.9277   12.6573   25.8629 C   0  0  0  0  0  0  0  0  0  0  0  0
    7.1480   10.2910   25.5131 C   0  0  0  0  0  0  0  0  0  0  0  0
    7.9693   12.8784   24.9616 C   0  0  0  0  0  0  0  0  0  0  0  0
    8.2174   10.4825   24.6126 C   0  0  0  0  0  0  0  0  0  0  0  0
    8.6227   11.8083   24.3166 C   0  0  0  0  0  0  0  0  0  0  0  0
   10.4766   13.2026   23.4098 C   0  0  0  0  0  0  0  0  0  0  0  0
   10.2636    9.3401   23.7807 C   0  0  0  0  0  0  0  0  0  0  0  0
    9.6459   11.1899   22.1422 C   0  0  0  0  0  0  0  0  0  0  0  0
   10.4734    9.9207   22.3814 C   0  0  1  0  0  0  0  0  0  0  0  0
   11.9650   10.1587   22.1360 C   0  0  0  0  0  0  0  0  0  0  0  0
   11.6189   15.6746   22.5154 C   0  0  0  0  0  0  0  0  0  0  0  0
   12.3285   14.3946   20.4740 C   0  0  0  0  0  0  0  0  0  0  0  0
    9.8866   14.6533   21.0019 C   0  0  0  0  0  0  0  0  0  0  0  0
   11.2900   14.5055   21.5881 C   0  0  0  0  0  0  0  0  0  0  0  0
    8.8634    9.3381   24.1506 N   0  0  0  0  0  0  0  0  0  0  0  0
    9.6116   12.0958   23.3046 N   0  0  0  0  0  0  0  0  0  0  0  0
   10.5042   13.9981   24.3470 O   0  0  0  0  0  0  0  0  0  0  0  0
   11.3413   13.2926   22.3481 O   0  0  0  0  0  0  0  0  0  0  0  0
    5.6865   11.1857   26.8169 H   0  0  0  0  0  0  0  0  0  0  0  0
    6.4593   13.4975   26.3670 H   0  0  0  0  0  0  0  0  0  0  0  0
    6.7830    9.2850   25.7162 H   0  0  0  0  0  0  0  0  0  0  0  0
    8.2981   13.9061   24.8234 H   0  0  0  0  0  0  0  0  0  0  0  0
   10.6662    8.3221   23.8371 H   0  0  0  0  0  0  0  0  0  0  0  0
   10.8257    9.9241   24.5169 H   0  0  0  0  0  0  0  0  0  0  0  0
   10.0211   11.7575   21.2748 H   0  0  0  0  0  0  0  0  0  0  0  0
    8.6213   10.9041   21.8625 H   0  0  0  0  0  0  0  0  0  0  0  0
   10.1459    9.1484   21.6647 H   0  0  0  0  0  0  0  0  0  0  0  0
   12.3325   10.9167   22.8241 H   0  0  0  0  0  0  0  0  0  0  0  0
   12.1181   10.4970   21.1137 H   0  0  0  0  0  0  0  0  0  0  0  0
   12.5140    9.2332   22.2944 H   0  0  0  0  0  0  0  0  0  0  0  0
   10.8757   15.7576   23.3165 H   0  0  0  0  0  0  0  0  0  0  0  0
   12.6088   15.5630   22.9696 H   0  0  0  0  0  0  0  0  0  0  0  0
   11.5933   16.6251   21.9704 H   0  0  0  0  0  0  0  0  0  0  0  0
   12.0964   13.5571   19.8062 H   0  0  0  0  0  0  0  0  0  0  0  0
   13.3237   14.1937   20.8867 H   0  0  0  0  0  0  0  0  0  0  0  0
   12.3794   15.3106   19.8765 H   0  0  0  0  0  0  0  0  0  0  0  0
    9.6505   13.8148   20.3367 H   0  0  0  0  0  0  0  0  0  0  0  0
    9.1243   14.6973   21.7865 H   0  0  0  0  0  0  0  0  0  0  0  0
    9.8124   15.5615   20.3929 H   0  0  0  0  0  0  0  0  0  0  0  0
    8.2936    8.5542   23.8546 H   0  0  0  0  0  0  0  0  0  0  0  0
  1  2  2  0  0  0  0
  1  3  1  0  0  0  0
  2  4  1  0  0  0  0
  3  5  2  0  0  0  0
  4  6  2  0  0  0  0
  5  6  1  0  0  0  0
  5 16  1  0  0  0  0
  6 17  1  0  0  0  0
  7 17  1  0  0  0  0
  7 18  2  0  0  0  0
  7 19  1  0  0  0  0
  8 10  1  0  0  0  0
  8 16  1  0  0  0  0
  9 10  1  0  0  0  0
  9 17  1  0  0  0  0
 10 11  1  0  0  0  0
 12 15  1  0  0  0  0
 13 15  1  0  0  0  0
 14 15  1  0  0  0  0
 15 19  1  0  0  0  0
  1 20  1  0  0  0  0
  2 21  1  0  0  0  0
  3 22  1  0  0  0  0
  4 23  1  0  0  0  0
  8 24  1  0  0  0  0
  8 25  1  0  0  0  0
  9 26  1  0  0  0  0
  9 27  1  0  0  0  0
 10 28  1  0  0  0  0
 11 29  1  0  0  0  0
 11 30  1  0  0  0  0
 11 31  1  0  0  0  0
 12 32  1  0  0  0  0
 12 33  1  0  0  0  0
 12 34  1  0  0  0  0
 13 35  1  0  0  0  0
 13 36  1  0  0  0  0
 13 37  1  0  0  0  0
 14 38  1  0  0  0  0
 14 39  1  0  0  0  0
 14 40  1  0  0  0  0
 16 41  1  0  0  0  0
M  END
> <id>
EN300-98108

> <smiles>
CC1CNC=2C=CC=CC2N(C1)C(=O)OC(C)(C)C

> <MDLNUMBER>
MFCD21602677

> <IUPAC Name>
tert-butyl 3-methyl-2,3,4,5-tetrahydro-1H-1,5-benzodiazepine-1-carboxylate

> <CAS>
1375473-73-6

> <Purity>
95

> <URL>
https://www.enaminestore.com/catalog/EN300-98108

> <ROCS_ShapeQuery>
A71EV2A-x0451_0A_A71EV2A-x0310_0A_A71EV2A-x0416_0A_peptide

> <ROCS_TanimotoCombo>
0.482 

> <ROCS_ShapeTanimoto>
0.340 

> <ROCS_ColorTanimoto>
0.142 

> <ROCS_RefTversky>
0.296 

> <ROCS_RefColorTversky>
0.151 

> <ROCS_RefTverskyCombo>
0.447 

> <ROCS_FitTversky>
1.764 

> <ROCS_FitColorTversky>
0.722 

> <ROCS_FitTverskyCombo>
2.486 

> <ROCS_ColorScore>
-4.574

> <ROCS_Overlap>
2055.727

> <ROCS_Rank>
316                 

$$$$
untitled-dbase-31593_7
  -OEChem-11132313473D

 37 38  0     0  0  0  0  0  0999 V2000
    8.7682    8.5651   22.9465 C   0  0  0  0  0  0  0  0  0  0  0  0
    8.6814    7.4298   22.5641 C   0  0  0  0  0  0  0  0  0  0  0  0
    6.8244   12.3821   26.0916 C   0  0  0  0  0  0  0  0  0  0  0  0
    7.9293   12.8027   25.3443 C   0  0  0  0  0  0  0  0  0  0  0  0
    6.3345   11.0874   25.9768 C   0  0  0  0  0  0  0  0  0  0  0  0
    9.8224   10.8026   22.9694 C   0  0  0  0  0  0  0  0  0  0  0  0
    8.8717    9.9116   23.4003 C   0  0  0  0  0  0  0  0  0  0  0  0
    8.0562   10.5784   24.3445 C   0  0  0  0  0  0  0  0  0  0  0  0
    8.5423   11.8873   24.4672 C   0  0  0  0  0  0  0  0  0  0  0  0
    6.9404   10.1771   25.1085 C   0  0  0  0  0  0  0  0  0  0  0  0
   10.4223   13.1679   23.4204 C   0  0  0  0  0  0  0  0  0  0  0  0
   12.9303   14.3375   22.7929 C   0  0  0  0  0  0  0  0  0  0  0  0
   12.1935   14.1791   20.3968 C   0  0  0  0  0  0  0  0  0  0  0  0
   10.8935   15.5943   22.0141 C   0  0  0  0  0  0  0  0  0  0  0  0
    8.5736    6.0480   22.0977 C   0  0  0  0  0  0  0  0  0  0  0  0
   11.7320   14.3281   21.8449 C   0  0  0  0  0  0  0  0  0  0  0  0
    9.6392   12.0165   23.6086 N   0  0  0  0  0  0  0  0  0  0  0  0
   10.5892   13.9808   24.3147 O   0  0  0  0  0  0  0  0  0  0  0  0
    9.8402    5.4113   22.1895 O   0  0  0  0  0  0  0  0  0  0  0  0
   10.9146   13.1956   22.1555 O   0  0  0  0  0  0  0  0  0  0  0  0
    6.4532    8.9320   25.0141 F   0  0  0  0  0  0  0  0  0  0  0  0
    6.3431   13.0802   26.7716 H   0  0  0  0  0  0  0  0  0  0  0  0
    8.2875   13.8201   25.4550 H   0  0  0  0  0  0  0  0  0  0  0  0
    5.4756   10.7786   26.5659 H   0  0  0  0  0  0  0  0  0  0  0  0
   10.6210   10.6661   22.2512 H   0  0  0  0  0  0  0  0  0  0  0  0
   12.6032   14.4443   23.8334 H   0  0  0  0  0  0  0  0  0  0  0  0
   13.5203   13.4193   22.7064 H   0  0  0  0  0  0  0  0  0  0  0  0
   13.5860   15.1910   22.5859 H   0  0  0  0  0  0  0  0  0  0  0  0
   11.3369   14.1719   19.7131 H   0  0  0  0  0  0  0  0  0  0  0  0
   12.7143   13.2261   20.2493 H   0  0  0  0  0  0  0  0  0  0  0  0
   12.8659   14.9910   20.1015 H   0  0  0  0  0  0  0  0  0  0  0  0
   10.0339   15.5878   21.3342 H   0  0  0  0  0  0  0  0  0  0  0  0
   10.5227   15.6985   23.0389 H   0  0  0  0  0  0  0  0  0  0  0  0
   11.4793   16.4860   21.7632 H   0  0  0  0  0  0  0  0  0  0  0  0
    7.8587    5.4880   22.7081 H   0  0  0  0  0  0  0  0  0  0  0  0
    8.2441    6.0162   21.0548 H   0  0  0  0  0  0  0  0  0  0  0  0
   10.4499    5.9164   21.6272 H   0  0  0  0  0  0  0  0  0  0  0  0
  1  2  3  0  0  0  0
  1  7  1  0  0  0  0
  2 15  1  0  0  0  0
  3  4  1  0  0  0  0
  3  5  2  0  0  0  0
  4  9  2  0  0  0  0
  5 10  1  0  0  0  0
  6  7  2  0  0  0  0
  6 17  1  0  0  0  0
  7  8  1  0  0  0  0
  8  9  1  0  0  0  0
  8 10  2  0  0  0  0
  9 17  1  0  0  0  0
 10 21  1  0  0  0  0
 11 17  1  0  0  0  0
 11 18  2  0  0  0  0
 11 20  1  0  0  0  0
 12 16  1  0  0  0  0
 13 16  1  0  0  0  0
 14 16  1  0  0  0  0
 15 19  1  0  0  0  0
 16 20  1  0  0  0  0
  3 22  1  0  0  0  0
  4 23  1  0  0  0  0
  5 24  1  0  0  0  0
  6 25  1  0  0  0  0
 12 26  1  0  0  0  0
 12 27  1  0  0  0  0
 12 28  1  0  0  0  0
 13 29  1  0  0  0  0
 13 30  1  0  0  0  0
 13 31  1  0  0  0  0
 14 32  1  0  0  0  0
 14 33  1  0  0  0  0
 14 34  1  0  0  0  0
 15 35  1  0  0  0  0
 15 36  1  0  0  0  0
 19 37  1  0  0  0  0
M  END
> <id>
EN300-697697

> <smiles>
CC(C)(C)OC(=O)N1C=C(C#CCO)C=2C(F)=CC=CC12

> <MDLNUMBER>
MFCD31431498

> <IUPAC Name>
tert-butyl 4-fluoro-3-(3-hydroxyprop-1-yn-1-yl)-1H-indole-1-carboxylate

> <CAS>
2137730-43-7

> <URL>
https://www.enaminestore.com/catalog/EN300-697697

> <ROCS_ShapeQuery>
A71EV2A-x0451_0A_A71EV2A-x0310_0A_A71EV2A-x0416_0A_peptide

> <ROCS_TanimotoCombo>
0.482 

> <ROCS_ShapeTanimoto>
0.351 

> <ROCS_ColorTanimoto>
0.131 

> <ROCS_RefTversky>
0.307 

> <ROCS_RefColorTversky>
0.143 

> <ROCS_RefTverskyCombo>
0.451 

> <ROCS_FitTversky>
1.690 

> <ROCS_FitColorTversky>
0.598 

> <ROCS_FitTverskyCombo>
2.287 

> <ROCS_ColorScore>
-4.365

> <ROCS_Overlap>
2133.827

> <ROCS_Rank>
317                 

$$$$
untitled-dbase-50406_18
  -OEChem-11132313473D

 35 36  0     0  0  0  0  0  0999 V2000
    6.9158   10.5696   25.6074 C   0  0  0  0  0  0  0  0  0  0  0  0
    6.3879   11.6354   26.3286 C   0  0  0  0  0  0  0  0  0  0  0  0
    7.8802   13.1441   25.1685 C   0  0  0  0  0  0  0  0  0  0  0  0
    7.9317   10.7918   24.6656 C   0  0  0  0  0  0  0  0  0  0  0  0
    8.4371   12.0863   24.4309 C   0  0  0  0  0  0  0  0  0  0  0  0
    6.8692   12.9200   26.1090 C   0  0  0  0  0  0  0  0  0  0  0  0
    8.5014    9.6164   23.9639 C   0  0  0  0  0  0  0  0  0  0  0  0
   10.2427   13.4646   23.3753 C   0  0  0  0  0  0  0  0  0  0  0  0
    9.6753    9.8609   23.0593 C   0  0  0  0  0  0  0  0  0  0  0  0
    9.5871   11.2345   22.4278 C   0  0  0  0  0  0  0  0  0  0  0  0
   12.9639   13.5346   22.4716 C   0  0  0  0  0  0  0  0  0  0  0  0
   12.0643   14.6994   20.4361 C   0  0  0  0  0  0  0  0  0  0  0  0
   11.8238   15.7671   22.6967 C   0  0  0  0  0  0  0  0  0  0  0  0
   11.8646   14.4466   21.9289 C   0  0  0  0  0  0  0  0  0  0  0  0
    9.4530   12.2994   23.4331 N   0  0  0  0  0  0  0  0  0  0  0  0
    8.0674    8.4861   24.1620 O   0  0  0  0  0  0  0  0  0  0  0  0
   10.6069   14.1359   24.3380 O   0  0  0  0  0  0  0  0  0  0  0  0
   10.6034   13.7862   22.0900 O   0  0  0  0  0  0  0  0  0  0  0  0
    6.2049   14.2441   26.9882 Cl  0  0  0  0  0  0  0  0  0  0  0  0
    6.5301    9.5716   25.7983 H   0  0  0  0  0  0  0  0  0  0  0  0
    5.6021   11.4485   27.0557 H   0  0  0  0  0  0  0  0  0  0  0  0
    8.1831   14.1722   24.9967 H   0  0  0  0  0  0  0  0  0  0  0  0
   10.5966    9.7486   23.6412 H   0  0  0  0  0  0  0  0  0  0  0  0
    9.6696    9.1014   22.2699 H   0  0  0  0  0  0  0  0  0  0  0  0
   10.4708   11.3855   21.8011 H   0  0  0  0  0  0  0  0  0  0  0  0
    8.7109   11.3061   21.7707 H   0  0  0  0  0  0  0  0  0  0  0  0
   12.8242   13.3507   23.5429 H   0  0  0  0  0  0  0  0  0  0  0  0
   12.9810   12.5706   21.9527 H   0  0  0  0  0  0  0  0  0  0  0  0
   13.9490   14.0029   22.3643 H   0  0  0  0  0  0  0  0  0  0  0  0
   11.2777   15.3534   20.0426 H   0  0  0  0  0  0  0  0  0  0  0  0
   11.9995   13.7633   19.8697 H   0  0  0  0  0  0  0  0  0  0  0  0
   13.0349   15.1623   20.2310 H   0  0  0  0  0  0  0  0  0  0  0  0
   11.0354   16.4215   22.3077 H   0  0  0  0  0  0  0  0  0  0  0  0
   11.6444   15.6072   23.7649 H   0  0  0  0  0  0  0  0  0  0  0  0
   12.7659   16.3149   22.5801 H   0  0  0  0  0  0  0  0  0  0  0  0
  1  2  1  0  0  0  0
  1  4  2  0  0  0  0
  2  6  2  0  0  0  0
  3  5  2  0  0  0  0
  3  6  1  0  0  0  0
  4  5  1  0  0  0  0
  4  7  1  0  0  0  0
  5 15  1  0  0  0  0
  6 19  1  0  0  0  0
  7  9  1  0  0  0  0
  7 16  2  0  0  0  0
  8 15  1  0  0  0  0
  8 17  2  0  0  0  0
  8 18  1  0  0  0  0
  9 10  1  0  0  0  0
 10 15  1  0  0  0  0
 11 14  1  0  0  0  0
 12 14  1  0  0  0  0
 13 14  1  0  0  0  0
 14 18  1  0  0  0  0
  1 20  1  0  0  0  0
  2 21  1  0  0  0  0
  3 22  1  0  0  0  0
  9 23  1  0  0  0  0
  9 24  1  0  0  0  0
 10 25  1  0  0  0  0
 10 26  1  0  0  0  0
 11 27  1  0  0  0  0
 11 28  1  0  0  0  0
 11 29  1  0  0  0  0
 12 30  1  0  0  0  0
 12 31  1  0  0  0  0
 12 32  1  0  0  0  0
 13 33  1  0  0  0  0
 13 34  1  0  0  0  0
 13 35  1  0  0  0  0
M  END
> <id>
EN300-181547

> <smiles>
CC(C)(C)OC(=O)N1CCC(=O)C=2C=CC(Cl)=CC12

> <MDLNUMBER>
MFCD10697723

> <IUPAC Name>
tert-butyl 7-chloro-4-oxo-1,2,3,4-tetrahydroquinoline-1-carboxylate

> <CAS>
944906-93-8

> <URL>
https://www.enaminestore.com/catalog/EN300-181547

> <ROCS_ShapeQuery>
A71EV2A-x0451_0A_A71EV2A-x0310_0A_A71EV2A-x0416_0A_peptide

> <ROCS_TanimotoCombo>
0.482 

> <ROCS_ShapeTanimoto>
0.348 

> <ROCS_ColorTanimoto>
0.134 

> <ROCS_RefTversky>
0.301 

> <ROCS_RefColorTversky>
0.143 

> <ROCS_RefTverskyCombo>
0.445 

> <ROCS_FitTversky>
1.794 

> <ROCS_FitColorTversky>
0.686 

> <ROCS_FitTverskyCombo>
2.480 

> <ROCS_ColorScore>
-4.347

> <ROCS_Overlap>
2091.378

> <ROCS_Rank>
318                 

$$$$
untitled-dbase-12003_7
  -OEChem-11132313473D

 37 38  0     0  0  0  0  0  0999 V2000
    8.7717    8.5593   22.9505 C   0  0  0  0  0  0  0  0  0  0  0  0
    8.6845    7.4231   22.5707 C   0  0  0  0  0  0  0  0  0  0  0  0
    6.9397   10.1730   25.1037 C   0  0  0  0  0  0  0  0  0  0  0  0
    6.3305   11.0841   25.9688 C   0  0  0  0  0  0  0  0  0  0  0  0
    7.9252   12.8000   25.3379 C   0  0  0  0  0  0  0  0  0  0  0  0
    9.8267   10.7980   22.9713 C   0  0  0  0  0  0  0  0  0  0  0  0
    8.8758    9.9068   23.4011 C   0  0  0  0  0  0  0  0  0  0  0  0
    8.0571   10.5743   24.3420 C   0  0  0  0  0  0  0  0  0  0  0  0
    8.5415   11.8839   24.4640 C   0  0  0  0  0  0  0  0  0  0  0  0
    6.8187   12.3795   26.0828 C   0  0  0  0  0  0  0  0  0  0  0  0
   10.4230   13.1647   23.4202 C   0  0  0  0  0  0  0  0  0  0  0  0
   12.9315   14.3359   22.7976 C   0  0  0  0  0  0  0  0  0  0  0  0
   12.2014   14.1728   20.3997 C   0  0  0  0  0  0  0  0  0  0  0  0
   10.8955   15.5893   22.0111 C   0  0  0  0  0  0  0  0  0  0  0  0
    8.5761    6.0403   22.1076 C   0  0  0  0  0  0  0  0  0  0  0  0
   11.7358   14.3237   21.8463 C   0  0  0  0  0  0  0  0  0  0  0  0
    9.6406   12.0128   23.6081 N   0  0  0  0  0  0  0  0  0  0  0  0
   10.5867   13.9792   24.3135 O   0  0  0  0  0  0  0  0  0  0  0  0
    9.8418    5.4024   22.2033 O   0  0  0  0  0  0  0  0  0  0  0  0
   10.9187   13.1908   22.1566 O   0  0  0  0  0  0  0  0  0  0  0  0
    6.2222   13.2401   26.9193 F   0  0  0  0  0  0  0  0  0  0  0  0
    6.5477    9.1627   25.0249 H   0  0  0  0  0  0  0  0  0  0  0  0
    5.4700   10.7765   26.5562 H   0  0  0  0  0  0  0  0  0  0  0  0
    8.2827   13.8174   25.4497 H   0  0  0  0  0  0  0  0  0  0  0  0
   10.6273   10.6613   22.2554 H   0  0  0  0  0  0  0  0  0  0  0  0
   12.6015   14.4440   23.8370 H   0  0  0  0  0  0  0  0  0  0  0  0
   13.5227   13.4181   22.7141 H   0  0  0  0  0  0  0  0  0  0  0  0
   13.5869   15.1897   22.5909 H   0  0  0  0  0  0  0  0  0  0  0  0
   11.3467   14.1636   19.7137 H   0  0  0  0  0  0  0  0  0  0  0  0
   12.7235   13.2201   20.2551 H   0  0  0  0  0  0  0  0  0  0  0  0
   12.8738   14.9849   20.1049 H   0  0  0  0  0  0  0  0  0  0  0  0
   10.0378   15.5808   21.3289 H   0  0  0  0  0  0  0  0  0  0  0  0
   10.5219   15.6948   23.0348 H   0  0  0  0  0  0  0  0  0  0  0  0
   11.4811   16.4812   21.7605 H   0  0  0  0  0  0  0  0  0  0  0  0
    7.8594    5.4825   22.7180 H   0  0  0  0  0  0  0  0  0  0  0  0
    8.2485    6.0062   21.0641 H   0  0  0  0  0  0  0  0  0  0  0  0
   10.4531    5.9055   21.6410 H   0  0  0  0  0  0  0  0  0  0  0  0
  1  2  3  0  0  0  0
  1  7  1  0  0  0  0
  2 15  1  0  0  0  0
  3  4  1  0  0  0  0
  3  8  2  0  0  0  0
  4 10  2  0  0  0  0
  5  9  2  0  0  0  0
  5 10  1  0  0  0  0
  6  7  2  0  0  0  0
  6 17  1  0  0  0  0
  7  8  1  0  0  0  0
  8  9  1  0  0  0  0
  9 17  1  0  0  0  0
 10 21  1  0  0  0  0
 11 17  1  0  0  0  0
 11 18  2  0  0  0  0
 11 20  1  0  0  0  0
 12 16  1  0  0  0  0
 13 16  1  0  0  0  0
 14 16  1  0  0  0  0
 15 19  1  0  0  0  0
 16 20  1  0  0  0  0
  3 22  1  0  0  0  0
  4 23  1  0  0  0  0
  5 24  1  0  0  0  0
  6 25  1  0  0  0  0
 12 26  1  0  0  0  0
 12 27  1  0  0  0  0
 12 28  1  0  0  0  0
 13 29  1  0  0  0  0
 13 30  1  0  0  0  0
 13 31  1  0  0  0  0
 14 32  1  0  0  0  0
 14 33  1  0  0  0  0
 14 34  1  0  0  0  0
 15 35  1  0  0  0  0
 15 36  1  0  0  0  0
 19 37  1  0  0  0  0
M  END
> <id>
EN300-697693

> <smiles>
CC(C)(C)OC(=O)N1C=C(C#CCO)C=2C=CC(F)=CC12

> <MDLNUMBER>
MFCD31431494

> <IUPAC Name>
tert-butyl 6-fluoro-3-(3-hydroxyprop-1-yn-1-yl)-1H-indole-1-carboxylate

> <CAS>
2138259-96-6

> <URL>
https://www.enaminestore.com/catalog/EN300-697693

> <ROCS_ShapeQuery>
A71EV2A-x0451_0A_A71EV2A-x0310_0A_A71EV2A-x0416_0A_peptide

> <ROCS_TanimotoCombo>
0.482 

> <ROCS_ShapeTanimoto>
0.351 

> <ROCS_ColorTanimoto>
0.131 

> <ROCS_RefTversky>
0.307 

> <ROCS_RefColorTversky>
0.143 

> <ROCS_RefTverskyCombo>
0.451 

> <ROCS_FitTversky>
1.691 

> <ROCS_FitColorTversky>
0.598 

> <ROCS_FitTverskyCombo>
2.289 

> <ROCS_ColorScore>
-4.365

> <ROCS_Overlap>
2132.847

> <ROCS_Rank>
319                 

$$$$
untitled-dbase-45291_70
  -OEChem-11132313473D

 35 36  0     0  0  0  0  0  0999 V2000
    7.9256   13.1497   25.1444 C   0  0  0  0  0  0  0  0  0  0  0  0
    6.8860   12.9681   26.0663 C   0  0  0  0  0  0  0  0  0  0  0  0
    6.8890   10.6138   25.6154 C   0  0  0  0  0  0  0  0  0  0  0  0
    7.9218   10.8032   24.6843 C   0  0  0  0  0  0  0  0  0  0  0  0
    8.5063   12.0672   24.4632 C   0  0  0  0  0  0  0  0  0  0  0  0
    6.3812   11.6996   26.3162 C   0  0  0  0  0  0  0  0  0  0  0  0
    8.3307    9.6416   23.8718 C   0  0  0  0  0  0  0  0  0  0  0  0
   10.4780   13.3339   23.4406 C   0  0  0  0  0  0  0  0  0  0  0  0
    8.9944    9.9744   22.5728 C   0  0  0  0  0  0  0  0  0  0  0  0
   10.0558   11.0244   22.8052 C   0  0  0  0  0  0  0  0  0  0  0  0
   12.2084   15.5232   22.7780 C   0  0  0  0  0  0  0  0  0  0  0  0
   12.0000   14.7214   20.4067 C   0  0  0  0  0  0  0  0  0  0  0  0
    9.9625   15.5157   21.6420 C   0  0  0  0  0  0  0  0  0  0  0  0
   11.3118   14.8096   21.7672 C   0  0  0  0  0  0  0  0  0  0  0  0
    9.6258   12.2071   23.5602 N   0  0  0  0  0  0  0  0  0  0  0  0
    8.0693    8.4930   24.2073 O   0  0  0  0  0  0  0  0  0  0  0  0
   10.6167   14.1723   24.3335 O   0  0  0  0  0  0  0  0  0  0  0  0
   11.0853   13.4704   22.2241 O   0  0  0  0  0  0  0  0  0  0  0  0
    5.0135   11.4550   27.5938 Br  0  0  0  0  0  0  0  0  0  0  0  0
    8.2230   14.1784   24.9531 H   0  0  0  0  0  0  0  0  0  0  0  0
    6.4758   13.8410   26.5701 H   0  0  0  0  0  0  0  0  0  0  0  0
    6.4884    9.6206   25.7988 H   0  0  0  0  0  0  0  0  0  0  0  0
    9.4206    9.0637   22.1493 H   0  0  0  0  0  0  0  0  0  0  0  0
    8.2426   10.3683   21.8866 H   0  0  0  0  0  0  0  0  0  0  0  0
   10.9227   10.5342   23.2963 H   0  0  0  0  0  0  0  0  0  0  0  0
   10.4529   11.3985   21.8346 H   0  0  0  0  0  0  0  0  0  0  0  0
   11.7179   15.5885   23.7559 H   0  0  0  0  0  0  0  0  0  0  0  0
   13.1658   15.0069   22.9030 H   0  0  0  0  0  0  0  0  0  0  0  0
   12.4093   16.5537   22.4635 H   0  0  0  0  0  0  0  0  0  0  0  0
   11.3603   14.2102   19.6783 H   0  0  0  0  0  0  0  0  0  0  0  0
   12.9226   14.1336   20.4735 H   0  0  0  0  0  0  0  0  0  0  0  0
   12.2482   15.7129   20.0145 H   0  0  0  0  0  0  0  0  0  0  0  0
    9.3192   15.0040   20.9170 H   0  0  0  0  0  0  0  0  0  0  0  0
    9.4376   15.5556   22.6020 H   0  0  0  0  0  0  0  0  0  0  0  0
   10.0912   16.5395   21.2727 H   0  0  0  0  0  0  0  0  0  0  0  0
  1  2  1  0  0  0  0
  1  5  2  0  0  0  0
  2  6  2  0  0  0  0
  3  4  2  0  0  0  0
  3  6  1  0  0  0  0
  4  5  1  0  0  0  0
  4  7  1  0  0  0  0
  5 15  1  0  0  0  0
  6 19  1  0  0  0  0
  7  9  1  0  0  0  0
  7 16  2  0  0  0  0
  8 15  1  0  0  0  0
  8 17  2  0  0  0  0
  8 18  1  0  0  0  0
  9 10  1  0  0  0  0
 10 15  1  0  0  0  0
 11 14  1  0  0  0  0
 12 14  1  0  0  0  0
 13 14  1  0  0  0  0
 14 18  1  0  0  0  0
  1 20  1  0  0  0  0
  2 21  1  0  0  0  0
  3 22  1  0  0  0  0
  9 23  1  0  0  0  0
  9 24  1  0  0  0  0
 10 25  1  0  0  0  0
 10 26  1  0  0  0  0
 11 27  1  0  0  0  0
 11 28  1  0  0  0  0
 11 29  1  0  0  0  0
 12 30  1  0  0  0  0
 12 31  1  0  0  0  0
 12 32  1  0  0  0  0
 13 33  1  0  0  0  0
 13 34  1  0  0  0  0
 13 35  1  0  0  0  0
M  END
> <id>
EN300-658649

> <smiles>
CC(C)(C)OC(=O)N1CCC(=O)C=2C=C(Br)C=CC12

> <MDLNUMBER>
MFCD24539217

> <IUPAC Name>
tert-butyl 6-bromo-4-oxo-1,2,3,4-tetrahydroquinoline-1-carboxylate

> <CAS>
1821212-17-2

> <URL>
https://www.enaminestore.com/catalog/EN300-658649

> <ROCS_ShapeQuery>
A71EV2A-x0451_0A_A71EV2A-x0310_0A_A71EV2A-x0416_0A_peptide

> <ROCS_TanimotoCombo>
0.482 

> <ROCS_ShapeTanimoto>
0.353 

> <ROCS_ColorTanimoto>
0.129 

> <ROCS_RefTversky>
0.304 

> <ROCS_RefColorTversky>
0.142 

> <ROCS_RefTverskyCombo>
0.446 

> <ROCS_FitTversky>
1.817 

> <ROCS_FitColorTversky>
0.593 

> <ROCS_FitTverskyCombo>
2.410 

> <ROCS_ColorScore>
-4.321

> <ROCS_Overlap>
2111.501

> <ROCS_Rank>
320                 

$$$$
untitled-dbase-8425_96
  -OEChem-11132313473D

 44 46  0     0  0  0  0  0  0999 V2000
    6.2134    9.6137   25.2267 C   0  0  0  0  0  0  0  0  0  0  0  0
    7.6831   11.0634   24.6849 C   0  0  0  0  0  0  0  0  0  0  0  0
    8.0212    9.9076   24.0293 C   0  0  0  0  0  0  0  0  0  0  0  0
   10.6381   13.1961   23.5684 C   0  0  0  0  0  0  0  0  0  0  0  0
    9.1957    9.7293   23.1721 C   0  0  0  0  0  0  0  0  0  0  0  0
    7.5632   13.3622   23.7738 C   0  0  0  0  0  0  0  0  0  0  0  0
    8.7310   12.9312   26.0046 C   0  0  0  0  0  0  0  0  0  0  0  0
   10.2602   10.7170   23.6614 C   0  0  0  0  0  0  0  0  0  0  0  0
    6.3223   13.8352   24.5425 C   0  0  0  0  0  0  0  0  0  0  0  0
    7.8032   14.0862   26.3798 C   0  0  0  0  0  0  0  0  0  0  0  0
    8.4439   12.3692   24.5835 C   0  0  0  0  0  0  0  0  0  0  0  0
   12.6700   15.0310   22.7197 C   0  0  0  0  0  0  0  0  0  0  0  0
   13.0293   13.4554   20.7968 C   0  0  0  0  0  0  0  0  0  0  0  0
   10.8145   14.6074   21.0728 C   0  0  0  0  0  0  0  0  0  0  0  0
   12.0151   14.0023   21.7991 C   0  0  0  0  0  0  0  0  0  0  0  0
    6.5502   10.8693   25.4385 N   0  0  0  0  0  0  0  0  0  0  0  0
    7.0801    8.9863   24.3711 N   0  0  0  0  0  0  0  0  0  0  0  0
    9.7673   12.1137   23.8500 N   0  0  0  0  0  0  0  0  0  0  0  0
   10.6050   14.2902   24.1282 O   0  0  0  0  0  0  0  0  0  0  0  0
    6.4744   13.8092   25.9607 O   0  0  0  0  0  0  0  0  0  0  0  0
   11.5593   12.9024   22.5957 O   0  0  0  0  0  0  0  0  0  0  0  0
    5.3639    9.1027   25.6571 H   0  0  0  0  0  0  0  0  0  0  0  0
    9.5818    8.7062   23.2294 H   0  0  0  0  0  0  0  0  0  0  0  0
    8.9387    9.9379   22.1276 H   0  0  0  0  0  0  0  0  0  0  0  0
    7.2526   12.9247   22.8153 H   0  0  0  0  0  0  0  0  0  0  0  0
    8.1190   14.2713   23.5289 H   0  0  0  0  0  0  0  0  0  0  0  0
    9.7478   13.3281   26.0431 H   0  0  0  0  0  0  0  0  0  0  0  0
    8.6627   12.1428   26.7587 H   0  0  0  0  0  0  0  0  0  0  0  0
   10.6483   10.4039   24.6413 H   0  0  0  0  0  0  0  0  0  0  0  0
   11.1055   10.6779   22.9668 H   0  0  0  0  0  0  0  0  0  0  0  0
    6.0979   14.8812   24.2567 H   0  0  0  0  0  0  0  0  0  0  0  0
    5.4173   13.2607   24.2601 H   0  0  0  0  0  0  0  0  0  0  0  0
    7.8186   14.3001   27.4505 H   0  0  0  0  0  0  0  0  0  0  0  0
    8.1306   14.9939   25.8667 H   0  0  0  0  0  0  0  0  0  0  0  0
   11.9453   15.4260   23.4407 H   0  0  0  0  0  0  0  0  0  0  0  0
   13.5109   14.5999   23.2727 H   0  0  0  0  0  0  0  0  0  0  0  0
   13.0366   15.8908   22.1473 H   0  0  0  0  0  0  0  0  0  0  0  0
   12.5636   12.7169   20.1342 H   0  0  0  0  0  0  0  0  0  0  0  0
   13.8460   12.9365   21.3117 H   0  0  0  0  0  0  0  0  0  0  0  0
   13.4585   14.2521   20.1808 H   0  0  0  0  0  0  0  0  0  0  0  0
   10.3446   13.8697   20.4123 H   0  0  0  0  0  0  0  0  0  0  0  0
   10.0592   14.9719   21.7765 H   0  0  0  0  0  0  0  0  0  0  0  0
   11.1258   15.4412   20.4332 H   0  0  0  0  0  0  0  0  0  0  0  0
    7.0318    8.0233   24.0658 H   0  0  0  0  0  0  0  0  0  0  0  0
  1 16  2  0  0  0  0
  1 17  1  0  0  0  0
  2  3  2  0  0  0  0
  2 11  1  0  0  0  0
  2 16  1  0  0  0  0
  3  5  1  0  0  0  0
  3 17  1  0  0  0  0
  4 18  1  0  0  0  0
  4 19  2  0  0  0  0
  4 21  1  0  0  0  0
  5  8  1  0  0  0  0
  6  9  1  0  0  0  0
  6 11  1  0  0  0  0
  7 10  1  0  0  0  0
  7 11  1  0  0  0  0
  8 18  1  0  0  0  0
  9 20  1  0  0  0  0
 10 20  1  0  0  0  0
 11 18  1  0  0  0  0
 12 15  1  0  0  0  0
 13 15  1  0  0  0  0
 14 15  1  0  0  0  0
 15 21  1  0  0  0  0
  1 22  1  0  0  0  0
  5 23  1  0  0  0  0
  5 24  1  0  0  0  0
  6 25  1  0  0  0  0
  6 26  1  0  0  0  0
  7 27  1  0  0  0  0
  7 28  1  0  0  0  0
  8 29  1  0  0  0  0
  8 30  1  0  0  0  0
  9 31  1  0  0  0  0
  9 32  1  0  0  0  0
 10 33  1  0  0  0  0
 10 34  1  0  0  0  0
 12 35  1  0  0  0  0
 12 36  1  0  0  0  0
 12 37  1  0  0  0  0
 13 38  1  0  0  0  0
 13 39  1  0  0  0  0
 13 40  1  0  0  0  0
 14 41  1  0  0  0  0
 14 42  1  0  0  0  0
 14 43  1  0  0  0  0
 17 44  1  0  0  0  0
M  END
> <id>
EN300-262914

> <smiles>
CC(C)(C)OC(=O)N1CCC=2NC=NC2C31CCOCC3

> <MDLNUMBER>
MFCD29991358

> <IUPAC Name>
tert-butyl 1,5,6,7-tetrahydrospiro[imidazo[4,5-c]pyridine-4,4'-oxane]-5-carboxylate

> <CAS>
1955557-23-9

> <Purity>
95

> <URL>
https://www.enaminestore.com/catalog/EN300-262914

> <ROCS_ShapeQuery>
A71EV2A-x0451_0A_A71EV2A-x0310_0A_A71EV2A-x0416_0A_peptide

> <ROCS_TanimotoCombo>
0.482 

> <ROCS_ShapeTanimoto>
0.341 

> <ROCS_ColorTanimoto>
0.141 

> <ROCS_RefTversky>
0.301 

> <ROCS_RefColorTversky>
0.164 

> <ROCS_RefTverskyCombo>
0.465 

> <ROCS_FitTversky>
1.645 

> <ROCS_FitColorTversky>
0.494 

> <ROCS_FitTverskyCombo>
2.140 

> <ROCS_ColorScore>
-5.021

> <ROCS_Overlap>
2090.319

> <ROCS_Rank>
321                 

$$$$
untitled-dbase-11724_3
  -OEChem-11132313473D

 38 39  0     0  0  0  0  0  0999 V2000
    8.6068    8.5727   23.1025 C   0  0  0  0  0  0  0  0  0  0  0  0
    8.4797    7.4305   22.7545 C   0  0  0  0  0  0  0  0  0  0  0  0
    6.8056   12.5408   26.1403 C   0  0  0  0  0  0  0  0  0  0  0  0
    7.9185   12.9041   25.3750 C   0  0  0  0  0  0  0  0  0  0  0  0
    6.8467   10.3050   25.2231 C   0  0  0  0  0  0  0  0  0  0  0  0
    9.7335   10.7758   23.0511 C   0  0  0  0  0  0  0  0  0  0  0  0
    8.7581    9.9283   23.5135 C   0  0  0  0  0  0  0  0  0  0  0  0
    7.9697   10.6482   24.4415 C   0  0  0  0  0  0  0  0  0  0  0  0
    6.2748   11.2593   26.0669 C   0  0  0  0  0  0  0  0  0  0  0  0
    8.4972   11.9442   24.5225 C   0  0  0  0  0  0  0  0  0  0  0  0
   10.4098   13.1335   23.4281 C   0  0  0  0  0  0  0  0  0  0  0  0
    5.0868   10.8979   26.8942 C   0  0  0  0  0  0  0  0  0  0  0  0
   12.9492   14.2045   22.7528 C   0  0  0  0  0  0  0  0  0  0  0  0
   12.1931   13.9981   20.3664 C   0  0  0  0  0  0  0  0  0  0  0  0
   10.9479   15.5009   21.9473 C   0  0  0  0  0  0  0  0  0  0  0  0
   11.7453   14.2046   21.8117 C   0  0  0  0  0  0  0  0  0  0  0  0
    9.5923   12.0133   23.6547 N   0  0  0  0  0  0  0  0  0  0  0  0
    8.3282    6.0631   22.3380 N   0  0  0  0  0  0  0  0  0  0  0  0
   10.6076   13.9669   24.2967 O   0  0  0  0  0  0  0  0  0  0  0  0
   10.8949   13.1080   22.1604 O   0  0  0  0  0  0  0  0  0  0  0  0
    6.3573   13.2812   26.7993 H   0  0  0  0  0  0  0  0  0  0  0  0
    8.3094   13.9123   25.4545 H   0  0  0  0  0  0  0  0  0  0  0  0
    6.4285    9.3027   25.1699 H   0  0  0  0  0  0  0  0  0  0  0  0
   10.5237   10.5927   22.3341 H   0  0  0  0  0  0  0  0  0  0  0  0
    4.1614   11.1068   26.3441 H   0  0  0  0  0  0  0  0  0  0  0  0
    5.0990    9.8344   27.1646 H   0  0  0  0  0  0  0  0  0  0  0  0
    5.0693   11.4649   27.8339 H   0  0  0  0  0  0  0  0  0  0  0  0
   12.6320   14.3525   23.7913 H   0  0  0  0  0  0  0  0  0  0  0  0
   13.5097   13.2660   22.6907 H   0  0  0  0  0  0  0  0  0  0  0  0
   13.6299   15.0305   22.5169 H   0  0  0  0  0  0  0  0  0  0  0  0
   11.3325   13.9975   19.6877 H   0  0  0  0  0  0  0  0  0  0  0  0
   12.6829   13.0252   20.2447 H   0  0  0  0  0  0  0  0  0  0  0  0
   12.8887   14.7794   20.0434 H   0  0  0  0  0  0  0  0  0  0  0  0
   10.0843   15.5012   21.2724 H   0  0  0  0  0  0  0  0  0  0  0  0
   10.5869   15.6472   22.9705 H   0  0  0  0  0  0  0  0  0  0  0  0
   11.5597   16.3659   21.6669 H   0  0  0  0  0  0  0  0  0  0  0  0
    7.4038    5.6677   22.2416 H   0  0  0  0  0  0  0  0  0  0  0  0
    9.1470    5.5041   22.1446 H   0  0  0  0  0  0  0  0  0  0  0  0
  1  2  3  0  0  0  0
  1  7  1  0  0  0  0
  2 18  1  0  0  0  0
  3  4  1  0  0  0  0
  3  9  2  0  0  0  0
  4 10  2  0  0  0  0
  5  8  2  0  0  0  0
  5  9  1  0  0  0  0
  6  7  2  0  0  0  0
  6 17  1  0  0  0  0
  7  8  1  0  0  0  0
  8 10  1  0  0  0  0
  9 12  1  0  0  0  0
 10 17  1  0  0  0  0
 11 17  1  0  0  0  0
 11 19  2  0  0  0  0
 11 20  1  0  0  0  0
 13 16  1  0  0  0  0
 14 16  1  0  0  0  0
 15 16  1  0  0  0  0
 16 20  1  0  0  0  0
  3 21  1  0  0  0  0
  4 22  1  0  0  0  0
  5 23  1  0  0  0  0
  6 24  1  0  0  0  0
 12 25  1  0  0  0  0
 12 26  1  0  0  0  0
 12 27  1  0  0  0  0
 13 28  1  0  0  0  0
 13 29  1  0  0  0  0
 13 30  1  0  0  0  0
 14 31  1  0  0  0  0
 14 32  1  0  0  0  0
 14 33  1  0  0  0  0
 15 34  1  0  0  0  0
 15 35  1  0  0  0  0
 15 36  1  0  0  0  0
 18 37  1  0  0  0  0
 18 38  1  0  0  0  0
M  END
> <id>
EN300-624597

> <smiles>
CC=1C=CC=2N(C=C(C#CN)C2C1)C(=O)OC(C)(C)C

> <MDLNUMBER>
MFCD30752590

> <IUPAC Name>
tert-butyl 3-(2-aminoethynyl)-5-methyl-1H-indole-1-carboxylate

> <CAS>
2137743-24-7

> <URL>
https://www.enaminestore.com/catalog/EN300-624597

> <ROCS_ShapeQuery>
A71EV2A-x0451_0A_A71EV2A-x0310_0A_A71EV2A-x0416_0A_peptide

> <ROCS_TanimotoCombo>
0.482 

> <ROCS_ShapeTanimoto>
0.349 

> <ROCS_ColorTanimoto>
0.133 

> <ROCS_RefTversky>
0.304 

> <ROCS_RefColorTversky>
0.146 

> <ROCS_RefTverskyCombo>
0.450 

> <ROCS_FitTversky>
1.731 

> <ROCS_FitColorTversky>
0.608 

> <ROCS_FitTverskyCombo>
2.340 

> <ROCS_ColorScore>
-4.441

> <ROCS_Overlap>
2108.695

> <ROCS_Rank>
322                 

$$$$
untitled-dbase-24682_63
  -OEChem-11132313473D

 41 42  0     1  0  0  0  0  0999 V2000
   10.4803   12.8344   23.5886 C   0  0  0  0  0  0  0  0  0  0  0  0
    5.7787   11.8367   25.7632 C   0  0  0  0  0  0  0  0  0  0  0  0
    6.8033   12.7924   26.3818 C   0  0  0  0  0  0  0  0  0  0  0  0
    6.4130   10.5174   25.3409 C   0  0  0  0  0  0  0  0  0  0  0  0
    8.2311   12.5957   25.8603 C   0  0  0  0  0  0  0  0  0  0  0  0
    9.7737   10.4128   23.6126 C   0  0  0  0  0  0  0  0  0  0  0  0
    7.4971   10.7466   24.2819 C   0  0  1  0  0  0  0  0  0  0  0  0
    8.2313   12.0960   24.4151 C   0  0  2  0  0  0  0  0  0  0  0  0
    8.6388    9.7170   24.3520 C   0  0  1  0  0  0  0  0  0  0  0  0
   13.1722   13.7166   23.2053 C   0  0  0  0  0  0  0  0  0  0  0  0
   12.8752   12.9917   20.8188 C   0  0  0  0  0  0  0  0  0  0  0  0
   11.4341   14.8214   21.7587 C   0  0  0  0  0  0  0  0  0  0  0  0
   12.1718   13.5194   22.0674 C   0  0  0  0  0  0  0  0  0  0  0  0
    9.5754   11.8303   23.9007 N   0  0  0  0  0  0  0  0  0  0  0  0
    8.2884    8.4327   23.7698 N   0  0  0  0  0  0  0  0  0  0  0  0
   10.6127   13.8726   24.2325 O   0  0  0  0  0  0  0  0  0  0  0  0
   11.2119   12.5360   22.4699 O   0  0  0  0  0  0  0  0  0  0  0  0
    4.9675   11.6522   26.4813 H   0  0  0  0  0  0  0  0  0  0  0  0
    5.3167   12.3173   24.8899 H   0  0  0  0  0  0  0  0  0  0  0  0
    6.4885   13.8391   26.2011 H   0  0  0  0  0  0  0  0  0  0  0  0
    6.7988   12.6681   27.4814 H   0  0  0  0  0  0  0  0  0  0  0  0
    6.8159   10.0033   26.2032 H   0  0  0  0  0  0  0  0  0  0  0  0
    5.6405    9.8904   24.9060 H   0  0  0  0  0  0  0  0  0  0  0  0
    8.7715   13.5417   25.9357 H   0  0  0  0  0  0  0  0  0  0  0  0
    8.7409   11.8844   26.5167 H   0  0  0  0  0  0  0  0  0  0  0  0
   10.7658   10.0926   23.9442 H   0  0  0  0  0  0  0  0  0  0  0  0
    9.7140   10.2919   22.5249 H   0  0  0  0  0  0  0  0  0  0  0  0
    7.0248   10.6862   23.3066 H   0  0  0  0  0  0  0  0  0  0  0  0
    7.7284   12.8504   23.7777 H   0  0  0  0  0  0  0  0  0  0  0  0
    8.9344    9.5474   25.3976 H   0  0  0  0  0  0  0  0  0  0  0  0
   12.6712   14.0953   24.1034 H   0  0  0  0  0  0  0  0  0  0  0  0
   13.6829   12.7821   23.4599 H   0  0  0  0  0  0  0  0  0  0  0  0
   13.9290   14.4622   22.9358 H   0  0  0  0  0  0  0  0  0  0  0  0
   12.1611   12.8487   19.9997 H   0  0  0  0  0  0  0  0  0  0  0  0
   13.3261   12.0111   21.0099 H   0  0  0  0  0  0  0  0  0  0  0  0
   13.6607   13.6742   20.4787 H   0  0  0  0  0  0  0  0  0  0  0  0
   10.7164   14.6803   20.9424 H   0  0  0  0  0  0  0  0  0  0  0  0
   10.8930   15.1956   22.6338 H   0  0  0  0  0  0  0  0  0  0  0  0
   12.1339   15.5960   21.4245 H   0  0  0  0  0  0  0  0  0  0  0  0
    9.0827    7.8364   23.8173 H   0  0  0  0  0  0  0  0  0  0  0  0
    7.5334    8.0460   24.2887 H   0  0  0  0  0  0  0  0  0  0  0  0
  1 14  1  0  0  0  0
  1 16  2  0  0  0  0
  1 17  1  0  0  0  0
  2  3  1  0  0  0  0
  2  4  1  0  0  0  0
  3  5  1  0  0  0  0
  4  7  1  0  0  0  0
  5  8  1  0  0  0  0
  6  9  1  0  0  0  0
  6 14  1  0  0  0  0
  7  8  1  0  0  0  0
  7  9  1  0  0  0  0
  8 14  1  0  0  0  0
  9 15  1  0  0  0  0
 10 13  1  0  0  0  0
 11 13  1  0  0  0  0
 12 13  1  0  0  0  0
 13 17  1  0  0  0  0
  2 18  1  0  0  0  0
  2 19  1  0  0  0  0
  3 20  1  0  0  0  0
  3 21  1  0  0  0  0
  4 22  1  0  0  0  0
  4 23  1  0  0  0  0
  5 24  1  0  0  0  0
  5 25  1  0  0  0  0
  6 26  1  0  0  0  0
  6 27  1  0  0  0  0
  7 28  1  0  0  0  0
  8 29  1  0  0  0  0
  9 30  1  0  0  0  0
 10 31  1  0  0  0  0
 10 32  1  0  0  0  0
 10 33  1  0  0  0  0
 11 34  1  0  0  0  0
 11 35  1  0  0  0  0
 11 36  1  0  0  0  0
 12 37  1  0  0  0  0
 12 38  1  0  0  0  0
 12 39  1  0  0  0  0
 15 40  1  0  0  0  0
 15 41  1  0  0  0  0
M  END
> <id>
EN300-6481416

> <smiles>
CC(C)(C)OC(=O)N1CC(N)C2CCCCC21

> <MDLNUMBER>
MFCD28633203

> <IUPAC Name>
tert-butyl 3-amino-octahydro-1H-indole-1-carboxylate

> <CAS>
1782247-66-8

> <Purity>
95

> <URL>
https://www.enaminestore.com/catalog/EN300-6481416

> <ROCS_ShapeQuery>
A71EV2A-x0451_0A_A71EV2A-x0310_0A_A71EV2A-x0416_0A_peptide

> <ROCS_TanimotoCombo>
0.482 

> <ROCS_ShapeTanimoto>
0.311 

> <ROCS_ColorTanimoto>
0.171 

> <ROCS_RefTversky>
0.273 

> <ROCS_RefColorTversky>
0.181 

> <ROCS_RefTverskyCombo>
0.455 

> <ROCS_FitTversky>
1.780 

> <ROCS_FitColorTversky>
0.754 

> <ROCS_FitTverskyCombo>
2.534 

> <ROCS_ColorScore>
-5.517

> <ROCS_Overlap>
1895.985

> <ROCS_Rank>
323                 

$$$$
untitled-dbase-9954_75
  -OEChem-11132313473D

 37 38  0     0  0  0  0  0  0999 V2000
    6.9965   10.2527   25.9707 C   0  0  0  0  0  0  0  0  0  0  0  0
    6.3264   11.2156   26.7219 C   0  0  0  0  0  0  0  0  0  0  0  0
    7.0276   12.9227   25.1596 C   0  0  0  0  0  0  0  0  0  0  0  0
    7.7079   11.9670   24.3922 C   0  0  0  0  0  0  0  0  0  0  0  0
    7.7000   10.6312   24.8247 C   0  0  0  0  0  0  0  0  0  0  0  0
    6.3457   12.5496   26.3197 C   0  0  0  0  0  0  0  0  0  0  0  0
   10.8082   12.9955   23.5096 C   0  0  0  0  0  0  0  0  0  0  0  0
    8.3957   12.3769   23.1155 C   0  0  0  0  0  0  0  0  0  0  0  0
   10.1913   10.6632   22.9269 C   0  0  0  0  0  0  0  0  0  0  0  0
    9.7429    9.7931   24.0957 C   0  0  0  0  0  0  0  0  0  0  0  0
   12.6695   15.0860   22.9124 C   0  0  0  0  0  0  0  0  0  0  0  0
   13.8152   13.3958   21.4495 C   0  0  0  0  0  0  0  0  0  0  0  0
   11.4571   14.0957   20.9416 C   0  0  0  0  0  0  0  0  0  0  0  0
   12.4818   13.8413   22.0461 C   0  0  0  0  0  0  0  0  0  0  0  0
    9.8274   12.0641   23.1458 N   0  0  0  0  0  0  0  0  0  0  0  0
   10.6284   13.9184   24.3020 O   0  0  0  0  0  0  0  0  0  0  0  0
    8.3187    9.6330   24.1146 O   0  0  0  0  0  0  0  0  0  0  0  0
   12.0032   12.7766   22.8758 O   0  0  0  0  0  0  0  0  0  0  0  0
    5.6994   13.4747   27.0412 F   0  0  0  0  0  0  0  0  0  0  0  0
    6.9750    9.2133   26.2864 H   0  0  0  0  0  0  0  0  0  0  0  0
    5.7868   10.9269   27.6190 H   0  0  0  0  0  0  0  0  0  0  0  0
    7.0160   13.9665   24.8562 H   0  0  0  0  0  0  0  0  0  0  0  0
    7.9386   11.8575   22.2645 H   0  0  0  0  0  0  0  0  0  0  0  0
    8.2558   13.4473   22.9311 H   0  0  0  0  0  0  0  0  0  0  0  0
   11.2760   10.5785   22.8067 H   0  0  0  0  0  0  0  0  0  0  0  0
    9.7193   10.3388   21.9928 H   0  0  0  0  0  0  0  0  0  0  0  0
   10.1604    8.7887   23.9609 H   0  0  0  0  0  0  0  0  0  0  0  0
   10.1264   10.1616   25.0570 H   0  0  0  0  0  0  0  0  0  0  0  0
   11.7147   15.4089   23.3425 H   0  0  0  0  0  0  0  0  0  0  0  0
   13.3758   14.9061   23.7294 H   0  0  0  0  0  0  0  0  0  0  0  0
   13.0391   15.9266   22.3141 H   0  0  0  0  0  0  0  0  0  0  0  0
   13.6853   12.5030   20.8272 H   0  0  0  0  0  0  0  0  0  0  0  0
   14.5238   13.1211   22.2392 H   0  0  0  0  0  0  0  0  0  0  0  0
   14.2667   14.1828   20.8368 H   0  0  0  0  0  0  0  0  0  0  0  0
   11.3224   13.2030   20.3200 H   0  0  0  0  0  0  0  0  0  0  0  0
   10.4833   14.3807   21.3527 H   0  0  0  0  0  0  0  0  0  0  0  0
   11.7980   14.8917   20.2696 H   0  0  0  0  0  0  0  0  0  0  0  0
  1  2  1  0  0  0  0
  1  5  2  0  0  0  0
  2  6  2  0  0  0  0
  3  4  2  0  0  0  0
  3  6  1  0  0  0  0
  4  5  1  0  0  0  0
  4  8  1  0  0  0  0
  5 17  1  0  0  0  0
  6 19  1  0  0  0  0
  7 15  1  0  0  0  0
  7 16  2  0  0  0  0
  7 18  1  0  0  0  0
  8 15  1  0  0  0  0
  9 10  1  0  0  0  0
  9 15  1  0  0  0  0
 10 17  1  0  0  0  0
 11 14  1  0  0  0  0
 12 14  1  0  0  0  0
 13 14  1  0  0  0  0
 14 18  1  0  0  0  0
  1 20  1  0  0  0  0
  2 21  1  0  0  0  0
  3 22  1  0  0  0  0
  8 23  1  0  0  0  0
  8 24  1  0  0  0  0
  9 25  1  0  0  0  0
  9 26  1  0  0  0  0
 10 27  1  0  0  0  0
 10 28  1  0  0  0  0
 11 29  1  0  0  0  0
 11 30  1  0  0  0  0
 11 31  1  0  0  0  0
 12 32  1  0  0  0  0
 12 33  1  0  0  0  0
 12 34  1  0  0  0  0
 13 35  1  0  0  0  0
 13 36  1  0  0  0  0
 13 37  1  0  0  0  0
M  END
> <id>
EN300-336170

> <smiles>
CC(C)(C)OC(=O)N1CCOC=2C=CC(F)=CC2C1

> <MDLNUMBER>
MFCD30498193

> <IUPAC Name>
tert-butyl 7-fluoro-2,3,4,5-tetrahydro-1,4-benzoxazepine-4-carboxylate

> <CAS>
2060053-50-9

> <URL>
https://www.enaminestore.com/catalog/EN300-336170

> <ROCS_ShapeQuery>
A71EV2A-x0451_0A_A71EV2A-x0310_0A_A71EV2A-x0416_0A_peptide

> <ROCS_TanimotoCombo>
0.482 

> <ROCS_ShapeTanimoto>
0.326 

> <ROCS_ColorTanimoto>
0.156 

> <ROCS_RefTversky>
0.287 

> <ROCS_RefColorTversky>
0.163 

> <ROCS_RefTverskyCombo>
0.450 

> <ROCS_FitTversky>
1.702 

> <ROCS_FitColorTversky>
0.781 

> <ROCS_FitTverskyCombo>
2.483 

> <ROCS_ColorScore>
-4.947

> <ROCS_Overlap>
1994.209

> <ROCS_Rank>
324                 

$$$$
untitled-dbase-20044_186
  -OEChem-11132313473D

 49 51  0     0  0  0  0  0  0999 V2000
   10.5558   12.3849   22.2435 C   0  0  0  0  0  0  0  0  0  0  0  0
    5.8106   11.9388   27.0203 C   0  0  0  0  0  0  0  0  0  0  0  0
    8.2276   11.6530   22.7596 C   0  0  0  0  0  0  0  0  0  0  0  0
    6.3652   11.4835   24.5954 C   0  0  0  0  0  0  0  0  0  0  0  0
    9.9458   11.3633   24.4752 C   0  0  0  0  0  0  0  0  0  0  0  0
    8.0833   11.1940   26.3111 C   0  0  0  0  0  0  0  0  0  0  0  0
    7.6171   11.0163   23.9516 C   0  0  0  0  0  0  0  0  0  0  0  0
    8.6563   10.8412   24.9897 C   0  0  0  0  0  0  0  0  0  0  0  0
   10.3062   14.9923   22.2521 C   0  0  0  0  0  0  0  0  0  0  0  0
   12.2288   15.1264   23.8630 C   0  0  0  0  0  0  0  0  0  0  0  0
   12.6582   14.6055   21.4438 C   0  0  0  0  0  0  0  0  0  0  0  0
    4.3950   12.5745   29.4204 C   0  0  0  0  0  0  0  0  0  0  0  0
    6.6557   12.6633   30.5117 C   0  0  0  0  0  0  0  0  0  0  0  0
    6.0957   14.2681   28.6626 C   0  0  0  0  0  0  0  0  0  0  0  0
   11.6856   14.4414   22.6108 C   0  0  0  0  0  0  0  0  0  0  0  0
    5.8817   12.8575   29.2096 C   0  0  0  0  0  0  0  0  0  0  0  0
    9.6358   11.8278   23.1185 N   0  0  0  0  0  0  0  0  0  0  0  0
    6.6955   11.5590   26.0228 N   0  0  0  0  0  0  0  0  0  0  0  0
   10.4843   12.2979   21.0197 O   0  0  0  0  0  0  0  0  0  0  0  0
    4.6407   12.2575   26.8202 O   0  0  0  0  0  0  0  0  0  0  0  0
    8.0906    9.7138   24.3117 O   0  0  0  0  0  0  0  0  0  0  0  0
   11.5567   13.0458   22.9041 O   0  0  0  0  0  0  0  0  0  0  0  0
    6.3941   11.9172   28.2588 O   0  0  0  0  0  0  0  0  0  0  0  0
    8.1610   11.0235   21.8667 H   0  0  0  0  0  0  0  0  0  0  0  0
    7.8044   12.6371   22.5342 H   0  0  0  0  0  0  0  0  0  0  0  0
    6.0568   12.4783   24.2587 H   0  0  0  0  0  0  0  0  0  0  0  0
    5.5365   10.7826   24.4549 H   0  0  0  0  0  0  0  0  0  0  0  0
   10.3245   12.2123   25.0532 H   0  0  0  0  0  0  0  0  0  0  0  0
   10.7184   10.5900   24.4223 H   0  0  0  0  0  0  0  0  0  0  0  0
    8.0944   10.3532   27.0117 H   0  0  0  0  0  0  0  0  0  0  0  0
    8.5761   12.0531   26.7773 H   0  0  0  0  0  0  0  0  0  0  0  0
    9.9128   14.5032   21.3538 H   0  0  0  0  0  0  0  0  0  0  0  0
    9.5901   14.8492   23.0678 H   0  0  0  0  0  0  0  0  0  0  0  0
   10.3602   16.0627   22.0227 H   0  0  0  0  0  0  0  0  0  0  0  0
   13.2184   14.7342   24.1240 H   0  0  0  0  0  0  0  0  0  0  0  0
   11.5820   14.9316   24.7261 H   0  0  0  0  0  0  0  0  0  0  0  0
   12.3098   16.2098   23.7279 H   0  0  0  0  0  0  0  0  0  0  0  0
   13.6477   14.2104   21.7009 H   0  0  0  0  0  0  0  0  0  0  0  0
   12.3023   14.0889   20.5465 H   0  0  0  0  0  0  0  0  0  0  0  0
   12.8015   15.6649   21.2020 H   0  0  0  0  0  0  0  0  0  0  0  0
    3.8360   12.7128   28.4881 H   0  0  0  0  0  0  0  0  0  0  0  0
    4.2256   11.5541   29.7794 H   0  0  0  0  0  0  0  0  0  0  0  0
    3.9632   13.2730   30.1463 H   0  0  0  0  0  0  0  0  0  0  0  0
    7.7229   12.8653   30.3650 H   0  0  0  0  0  0  0  0  0  0  0  0
    6.5826   11.6261   30.8582 H   0  0  0  0  0  0  0  0  0  0  0  0
    6.2842   13.3207   31.3044 H   0  0  0  0  0  0  0  0  0  0  0  0
    7.1620   14.4713   28.5112 H   0  0  0  0  0  0  0  0  0  0  0  0
    5.5774   14.4139   27.7093 H   0  0  0  0  0  0  0  0  0  0  0  0
    5.7354   15.0205   29.3734 H   0  0  0  0  0  0  0  0  0  0  0  0
  1 17  1  0  0  0  0
  1 19  2  0  0  0  0
  1 22  1  0  0  0  0
  2 18  1  0  0  0  0
  2 20  2  0  0  0  0
  2 23  1  0  0  0  0
  3  7  1  0  0  0  0
  3 17  1  0  0  0  0
  4  7  1  0  0  0  0
  4 18  1  0  0  0  0
  5  8  1  0  0  0  0
  5 17  1  0  0  0  0
  6  8  1  0  0  0  0
  6 18  1  0  0  0  0
  7  8  1  0  0  0  0
  7 21  1  0  0  0  0
  8 21  1  0  0  0  0
  9 15  1  0  0  0  0
 10 15  1  0  0  0  0
 11 15  1  0  0  0  0
 12 16  1  0  0  0  0
 13 16  1  0  0  0  0
 14 16  1  0  0  0  0
 15 22  1  0  0  0  0
 16 23  1  0  0  0  0
  3 24  1  0  0  0  0
  3 25  1  0  0  0  0
  4 26  1  0  0  0  0
  4 27  1  0  0  0  0
  5 28  1  0  0  0  0
  5 29  1  0  0  0  0
  6 30  1  0  0  0  0
  6 31  1  0  0  0  0
  9 32  1  0  0  0  0
  9 33  1  0  0  0  0
  9 34  1  0  0  0  0
 10 35  1  0  0  0  0
 10 36  1  0  0  0  0
 10 37  1  0  0  0  0
 11 38  1  0  0  0  0
 11 39  1  0  0  0  0
 11 40  1  0  0  0  0
 12 41  1  0  0  0  0
 12 42  1  0  0  0  0
 12 43  1  0  0  0  0
 13 44  1  0  0  0  0
 13 45  1  0  0  0  0
 13 46  1  0  0  0  0
 14 47  1  0  0  0  0
 14 48  1  0  0  0  0
 14 49  1  0  0  0  0
M  END
> <id>
EN300-1708464

> <smiles>
CC(C)(C)OC(=O)N1CC23CN(CC3(C1)O2)C(=O)OC(C)(C)C

> <MDLNUMBER>
MFCD32760825

> <IUPAC Name>
3,7-di-tert-butyl 9-oxa-3,7-diazatricyclo[3.3.1.0,1,5]nonane-3,7-dicarboxylate

> <CAS>
2219408-98-5

> <URL>
https://www.enaminestore.com/catalog/EN300-1708464

> <ROCS_ShapeQuery>
A71EV2A-x0451_0A_A71EV2A-x0310_0A_A71EV2A-x0416_0A_peptide

> <ROCS_TanimotoCombo>
0.482 

> <ROCS_ShapeTanimoto>
0.301 

> <ROCS_ColorTanimoto>
0.181 

> <ROCS_RefTversky>
0.276 

> <ROCS_RefColorTversky>
0.223 

> <ROCS_RefTverskyCombo>
0.499 

> <ROCS_FitTversky>
1.413 

> <ROCS_FitColorTversky>
0.490 

> <ROCS_FitTverskyCombo>
1.903 

> <ROCS_ColorScore>
-6.864

> <ROCS_Overlap>
1920.750

> <ROCS_Rank>
325                 

$$$$
untitled-dbase-5510_66
  -OEChem-11132313473D

 39 40  0     0  0  0  0  0  0999 V2000
    5.8830   11.7255   26.3089 C   0  0  0  0  0  0  0  0  0  0  0  0
    6.5964   10.6436   25.7981 C   0  0  0  0  0  0  0  0  0  0  0  0
    6.9486   13.1853   24.7029 C   0  0  0  0  0  0  0  0  0  0  0  0
    7.6764   12.1082   24.1773 C   0  0  0  0  0  0  0  0  0  0  0  0
    6.0622   12.9957   25.7653 C   0  0  0  0  0  0  0  0  0  0  0  0
    7.5026   10.8392   24.7527 C   0  0  0  0  0  0  0  0  0  0  0  0
   10.8913   12.9135   23.6910 C   0  0  0  0  0  0  0  0  0  0  0  0
    8.5883   12.3231   22.9964 C   0  0  0  0  0  0  0  0  0  0  0  0
   10.2548   10.4987   23.2998 C   0  0  0  0  0  0  0  0  0  0  0  0
    9.5712    9.8124   24.4764 C   0  0  0  0  0  0  0  0  0  0  0  0
   12.8888   14.8979   23.1803 C   0  0  0  0  0  0  0  0  0  0  0  0
   14.2347   13.0224   22.1901 C   0  0  0  0  0  0  0  0  0  0  0  0
   12.0306   13.6562   21.1663 C   0  0  0  0  0  0  0  0  0  0  0  0
   12.8278   13.5488   22.4654 C   0  0  0  0  0  0  0  0  0  0  0  0
    9.9671   11.9380   23.2949 N   0  0  0  0  0  0  0  0  0  0  0  0
    5.3394   14.0913   26.2825 N   0  0  0  0  0  0  0  0  0  0  0  0
   10.5960   13.9356   24.3082 O   0  0  0  0  0  0  0  0  0  0  0  0
    8.1541    9.7283   24.2795 O   0  0  0  0  0  0  0  0  0  0  0  0
   12.1750   12.6068   23.3245 O   0  0  0  0  0  0  0  0  0  0  0  0
    5.1884   11.5669   27.1297 H   0  0  0  0  0  0  0  0  0  0  0  0
    6.4504    9.6540   26.2229 H   0  0  0  0  0  0  0  0  0  0  0  0
    7.0686   14.1792   24.2756 H   0  0  0  0  0  0  0  0  0  0  0  0
    8.2320   11.7327   22.1421 H   0  0  0  0  0  0  0  0  0  0  0  0
    8.5576   13.3707   22.6746 H   0  0  0  0  0  0  0  0  0  0  0  0
   11.3351   10.3406   23.3635 H   0  0  0  0  0  0  0  0  0  0  0  0
    9.9045   10.0882   22.3472 H   0  0  0  0  0  0  0  0  0  0  0  0
    9.9324    8.7797   24.5341 H   0  0  0  0  0  0  0  0  0  0  0  0
    9.8241   10.2843   25.4352 H   0  0  0  0  0  0  0  0  0  0  0  0
   11.8810   15.2791   23.3797 H   0  0  0  0  0  0  0  0  0  0  0  0
   13.4280   14.8268   24.1306 H   0  0  0  0  0  0  0  0  0  0  0  0
   13.3857   15.6492   22.5559 H   0  0  0  0  0  0  0  0  0  0  0  0
   14.1957   12.0545   21.6773 H   0  0  0  0  0  0  0  0  0  0  0  0
   14.7785   12.8537   23.1267 H   0  0  0  0  0  0  0  0  0  0  0  0
   14.8131   13.7182   21.5739 H   0  0  0  0  0  0  0  0  0  0  0  0
   11.9867   12.6887   20.6533 H   0  0  0  0  0  0  0  0  0  0  0  0
   11.0064   13.9975   21.3486 H   0  0  0  0  0  0  0  0  0  0  0  0
   12.5113   14.3535   20.4706 H   0  0  0  0  0  0  0  0  0  0  0  0
    4.6681   13.9342   27.0065 H   0  0  0  0  0  0  0  0  0  0  0  0
    5.4413   14.9885   25.8534 H   0  0  0  0  0  0  0  0  0  0  0  0
  1  2  1  0  0  0  0
  1  5  2  0  0  0  0
  2  6  2  0  0  0  0
  3  4  2  0  0  0  0
  3  5  1  0  0  0  0
  4  6  1  0  0  0  0
  4  8  1  0  0  0  0
  5 16  1  0  0  0  0
  6 18  1  0  0  0  0
  7 15  1  0  0  0  0
  7 17  2  0  0  0  0
  7 19  1  0  0  0  0
  8 15  1  0  0  0  0
  9 10  1  0  0  0  0
  9 15  1  0  0  0  0
 10 18  1  0  0  0  0
 11 14  1  0  0  0  0
 12 14  1  0  0  0  0
 13 14  1  0  0  0  0
 14 19  1  0  0  0  0
  1 20  1  0  0  0  0
  2 21  1  0  0  0  0
  3 22  1  0  0  0  0
  8 23  1  0  0  0  0
  8 24  1  0  0  0  0
  9 25  1  0  0  0  0
  9 26  1  0  0  0  0
 10 27  1  0  0  0  0
 10 28  1  0  0  0  0
 11 29  1  0  0  0  0
 11 30  1  0  0  0  0
 11 31  1  0  0  0  0
 12 32  1  0  0  0  0
 12 33  1  0  0  0  0
 12 34  1  0  0  0  0
 13 35  1  0  0  0  0
 13 36  1  0  0  0  0
 13 37  1  0  0  0  0
 16 38  1  0  0  0  0
 16 39  1  0  0  0  0
M  END
> <id>
EN300-219094

> <smiles>
Cl.CC(C)(C)OC(=O)N1CCOC=2C=CC(N)=CC2C1

> <MDLNUMBER>
MFCD28954223

> <IUPAC Name>
tert-butyl 7-amino-2,3,4,5-tetrahydro-1,4-benzoxazepine-4-carboxylate hydrochloride

> <CAS>
1803582-66-2

> <Purity>
95

> <URL>
https://www.enaminestore.com/catalog/EN300-219094

> <Saltdate>
Cl

> <ROCS_ShapeQuery>
A71EV2A-x0451_0A_A71EV2A-x0310_0A_A71EV2A-x0416_0A_peptide

> <ROCS_TanimotoCombo>
0.482 

> <ROCS_ShapeTanimoto>
0.309 

> <ROCS_ColorTanimoto>
0.172 

> <ROCS_RefTversky>
0.276 

> <ROCS_RefColorTversky>
0.187 

> <ROCS_RefTverskyCombo>
0.463 

> <ROCS_FitTversky>
1.638 

> <ROCS_FitColorTversky>
0.691 

> <ROCS_FitTverskyCombo>
2.329 

> <ROCS_ColorScore>
-5.691

> <ROCS_Overlap>
1915.320

> <ROCS_Rank>
326                 

$$$$
untitled-dbase-5564_66
  -OEChem-11132313473D

 39 40  0     0  0  0  0  0  0999 V2000
    5.8830   11.7255   26.3089 C   0  0  0  0  0  0  0  0  0  0  0  0
    6.5964   10.6436   25.7981 C   0  0  0  0  0  0  0  0  0  0  0  0
    6.9486   13.1853   24.7029 C   0  0  0  0  0  0  0  0  0  0  0  0
    7.6764   12.1082   24.1773 C   0  0  0  0  0  0  0  0  0  0  0  0
    6.0622   12.9957   25.7653 C   0  0  0  0  0  0  0  0  0  0  0  0
    7.5026   10.8392   24.7527 C   0  0  0  0  0  0  0  0  0  0  0  0
   10.8913   12.9135   23.6910 C   0  0  0  0  0  0  0  0  0  0  0  0
    8.5883   12.3231   22.9964 C   0  0  0  0  0  0  0  0  0  0  0  0
   10.2548   10.4987   23.2998 C   0  0  0  0  0  0  0  0  0  0  0  0
    9.5712    9.8124   24.4764 C   0  0  0  0  0  0  0  0  0  0  0  0
   12.8888   14.8979   23.1803 C   0  0  0  0  0  0  0  0  0  0  0  0
   14.2347   13.0224   22.1901 C   0  0  0  0  0  0  0  0  0  0  0  0
   12.0306   13.6562   21.1663 C   0  0  0  0  0  0  0  0  0  0  0  0
   12.8278   13.5488   22.4654 C   0  0  0  0  0  0  0  0  0  0  0  0
    9.9671   11.9380   23.2949 N   0  0  0  0  0  0  0  0  0  0  0  0
    5.3394   14.0913   26.2825 N   0  0  0  0  0  0  0  0  0  0  0  0
   10.5960   13.9356   24.3082 O   0  0  0  0  0  0  0  0  0  0  0  0
    8.1541    9.7283   24.2795 O   0  0  0  0  0  0  0  0  0  0  0  0
   12.1750   12.6068   23.3245 O   0  0  0  0  0  0  0  0  0  0  0  0
    5.1884   11.5669   27.1297 H   0  0  0  0  0  0  0  0  0  0  0  0
    6.4504    9.6540   26.2229 H   0  0  0  0  0  0  0  0  0  0  0  0
    7.0686   14.1792   24.2756 H   0  0  0  0  0  0  0  0  0  0  0  0
    8.2320   11.7327   22.1421 H   0  0  0  0  0  0  0  0  0  0  0  0
    8.5576   13.3707   22.6746 H   0  0  0  0  0  0  0  0  0  0  0  0
   11.3351   10.3406   23.3635 H   0  0  0  0  0  0  0  0  0  0  0  0
    9.9045   10.0882   22.3472 H   0  0  0  0  0  0  0  0  0  0  0  0
    9.9324    8.7797   24.5341 H   0  0  0  0  0  0  0  0  0  0  0  0
    9.8241   10.2843   25.4352 H   0  0  0  0  0  0  0  0  0  0  0  0
   11.8810   15.2791   23.3797 H   0  0  0  0  0  0  0  0  0  0  0  0
   13.4280   14.8268   24.1306 H   0  0  0  0  0  0  0  0  0  0  0  0
   13.3857   15.6492   22.5559 H   0  0  0  0  0  0  0  0  0  0  0  0
   14.1957   12.0545   21.6773 H   0  0  0  0  0  0  0  0  0  0  0  0
   14.7785   12.8537   23.1267 H   0  0  0  0  0  0  0  0  0  0  0  0
   14.8131   13.7182   21.5739 H   0  0  0  0  0  0  0  0  0  0  0  0
   11.9867   12.6887   20.6533 H   0  0  0  0  0  0  0  0  0  0  0  0
   11.0064   13.9975   21.3486 H   0  0  0  0  0  0  0  0  0  0  0  0
   12.5113   14.3535   20.4706 H   0  0  0  0  0  0  0  0  0  0  0  0
    4.6681   13.9342   27.0065 H   0  0  0  0  0  0  0  0  0  0  0  0
    5.4413   14.9885   25.8534 H   0  0  0  0  0  0  0  0  0  0  0  0
  1  2  1  0  0  0  0
  1  5  2  0  0  0  0
  2  6  2  0  0  0  0
  3  4  2  0  0  0  0
  3  5  1  0  0  0  0
  4  6  1  0  0  0  0
  4  8  1  0  0  0  0
  5 16  1  0  0  0  0
  6 18  1  0  0  0  0
  7 15  1  0  0  0  0
  7 17  2  0  0  0  0
  7 19  1  0  0  0  0
  8 15  1  0  0  0  0
  9 10  1  0  0  0  0
  9 15  1  0  0  0  0
 10 18  1  0  0  0  0
 11 14  1  0  0  0  0
 12 14  1  0  0  0  0
 13 14  1  0  0  0  0
 14 19  1  0  0  0  0
  1 20  1  0  0  0  0
  2 21  1  0  0  0  0
  3 22  1  0  0  0  0
  8 23  1  0  0  0  0
  8 24  1  0  0  0  0
  9 25  1  0  0  0  0
  9 26  1  0  0  0  0
 10 27  1  0  0  0  0
 10 28  1  0  0  0  0
 11 29  1  0  0  0  0
 11 30  1  0  0  0  0
 11 31  1  0  0  0  0
 12 32  1  0  0  0  0
 12 33  1  0  0  0  0
 12 34  1  0  0  0  0
 13 35  1  0  0  0  0
 13 36  1  0  0  0  0
 13 37  1  0  0  0  0
 16 38  1  0  0  0  0
 16 39  1  0  0  0  0
M  END
> <id>
EN300-125741

> <smiles>
CC(C)(C)OC(=O)N1CCOC=2C=CC(N)=CC2C1

> <MDLNUMBER>
MFCD14582650

> <IUPAC Name>
tert-butyl 7-amino-2,3,4,5-tetrahydro-1,4-benzoxazepine-4-carboxylate

> <CAS>
1205750-08-8

> <Purity>
95

> <URL>
https://www.enaminestore.com/catalog/EN300-125741

> <ROCS_ShapeQuery>
A71EV2A-x0451_0A_A71EV2A-x0310_0A_A71EV2A-x0416_0A_peptide

> <ROCS_TanimotoCombo>
0.482 

> <ROCS_ShapeTanimoto>
0.309 

> <ROCS_ColorTanimoto>
0.172 

> <ROCS_RefTversky>
0.276 

> <ROCS_RefColorTversky>
0.187 

> <ROCS_RefTverskyCombo>
0.463 

> <ROCS_FitTversky>
1.638 

> <ROCS_FitColorTversky>
0.691 

> <ROCS_FitTverskyCombo>
2.329 

> <ROCS_ColorScore>
-5.691

> <ROCS_Overlap>
1915.320

> <ROCS_Rank>
327                 

$$$$
untitled-dbase-34168_19
  -OEChem-11132313473D

 30 32  0     1  0  0  0  0  0999 V2000
    6.7349   11.9903   25.8281 C   0  0  0  0  0  0  0  0  0  0  0  0
    7.7219   12.8628   25.3981 C   0  0  0  0  0  0  0  0  0  0  0  0
    7.8856   10.8666   24.4467 C   0  0  0  0  0  0  0  0  0  0  0  0
   11.2862   14.9813   22.4573 C   0  0  0  0  0  0  0  0  0  0  0  0
    9.9350   10.8341   23.2705 C   0  0  0  0  0  0  0  0  0  0  0  0
   10.6910   13.1915   24.2227 C   0  0  0  0  0  0  0  0  0  0  0  0
    9.3427   13.3070   22.5427 C   0  0  0  0  0  0  0  0  0  0  0  0
    8.6140   10.0238   23.4727 C   0  0  1  0  0  0  0  0  0  0  0  0
    9.5798   12.2852   23.6712 C   0  0  0  0  0  0  0  0  0  0  0  0
   11.9644   15.9930   20.4216 C   0  0  0  0  0  0  0  0  0  0  0  0
    6.8402   10.7442   25.2258 N   0  0  0  0  0  0  0  0  0  0  0  0
    8.4219   12.1049   24.5310 N   0  0  0  0  0  0  0  0  0  0  0  0
   10.5549   13.9610   22.9992 N   0  0  0  0  0  0  0  0  0  0  0  0
    8.8750    8.6825   23.9650 N   0  0  0  0  0  0  0  0  0  0  0  0
   11.9135   15.8066   23.1152 O   0  0  0  0  0  0  0  0  0  0  0  0
   11.2290   14.9629   21.0912 O   0  0  0  0  0  0  0  0  0  0  0  0
    5.9485   12.1948   26.5404 H   0  0  0  0  0  0  0  0  0  0  0  0
    7.9523   13.8918   25.6347 H   0  0  0  0  0  0  0  0  0  0  0  0
   10.7184   10.4587   23.9419 H   0  0  0  0  0  0  0  0  0  0  0  0
   10.3103   10.7499   22.2462 H   0  0  0  0  0  0  0  0  0  0  0  0
   10.4653   13.7595   25.1281 H   0  0  0  0  0  0  0  0  0  0  0  0
   11.6774   12.7272   24.3120 H   0  0  0  0  0  0  0  0  0  0  0  0
    9.4373   12.9228   21.5233 H   0  0  0  0  0  0  0  0  0  0  0  0
    8.4524   13.9361   22.6216 H   0  0  0  0  0  0  0  0  0  0  0  0
    8.0558    9.9806   22.5371 H   0  0  0  0  0  0  0  0  0  0  0  0
   11.8478   15.8813   19.3409 H   0  0  0  0  0  0  0  0  0  0  0  0
   13.0206   15.9237   20.6940 H   0  0  0  0  0  0  0  0  0  0  0  0
   11.5739   16.9659   20.7293 H   0  0  0  0  0  0  0  0  0  0  0  0
    9.8592    8.5530   24.0277 H   0  0  0  0  0  0  0  0  0  0  0  0
    8.4560    8.5869   24.8621 H   0  0  0  0  0  0  0  0  0  0  0  0
  1  2  2  0  0  0  0
  1 11  1  0  0  0  0
  2 12  1  0  0  0  0
  3  8  1  0  0  0  0
  3 11  2  0  0  0  0
  3 12  1  0  0  0  0
  4 13  1  0  0  0  0
  4 15  2  0  0  0  0
  4 16  1  0  0  0  0
  5  8  1  0  0  0  0
  5  9  1  0  0  0  0
  6  9  1  0  0  0  0
  6 13  1  0  0  0  0
  7  9  1  0  0  0  0
  7 13  1  0  0  0  0
  8 14  1  0  0  0  0
  9 12  1  0  0  0  0
 10 16  1  0  0  0  0
  1 17  1  0  0  0  0
  2 18  1  0  0  0  0
  5 19  1  0  0  0  0
  5 20  1  0  0  0  0
  6 21  1  0  0  0  0
  6 22  1  0  0  0  0
  7 23  1  0  0  0  0
  7 24  1  0  0  0  0
  8 25  1  0  0  0  0
 10 26  1  0  0  0  0
 10 27  1  0  0  0  0
 10 28  1  0  0  0  0
 14 29  1  0  0  0  0
 14 30  1  0  0  0  0
M  END
> <id>
EN300-393326

> <smiles>
COC(=O)N1CC2(C1)CC(N)C3=NC=CN32

> <MDLNUMBER>
MFCD31421395

> <IUPAC Name>
methyl 7'-amino-6',7'-dihydrospiro[azetidine-3,5'-pyrrolo[1,2-a]imidazole]-1-carboxylate

> <CAS>
2137481-83-3

> <Purity>
95

> <URL>
https://www.enaminestore.com/catalog/EN300-393326

> <ROCS_ShapeQuery>
A71EV2A-x0451_0A_A71EV2A-x0310_0A_A71EV2A-x0416_0A_peptide

> <ROCS_TanimotoCombo>
0.482 

> <ROCS_ShapeTanimoto>
0.317 

> <ROCS_ColorTanimoto>
0.165 

> <ROCS_RefTversky>
0.278 

> <ROCS_RefColorTversky>
0.184 

> <ROCS_RefTverskyCombo>
0.462 

> <ROCS_FitTversky>
1.800 

> <ROCS_FitColorTversky>
0.609 

> <ROCS_FitTverskyCombo>
2.409 

> <ROCS_ColorScore>
-5.630

> <ROCS_Overlap>
1925.108

> <ROCS_Rank>
328                 

$$$$
untitled-dbase-45023_10
  -OEChem-11132313473D

 39 40  0     0  0  0  0  0  0999 V2000
    6.9078   10.1887   25.1218 C   0  0  0  0  0  0  0  0  0  0  0  0
    6.3194   11.1172   25.9801 C   0  0  0  0  0  0  0  0  0  0  0  0
    7.9438   12.8039   25.3232 C   0  0  0  0  0  0  0  0  0  0  0  0
    8.0110   10.5772   24.3707 C   0  0  0  0  0  0  0  0  0  0  0  0
    8.5233   11.8738   24.4717 C   0  0  0  0  0  0  0  0  0  0  0  0
    6.8344   12.4158   26.0796 C   0  0  0  0  0  0  0  0  0  0  0  0
   10.3974   13.1729   23.4548 C   0  0  0  0  0  0  0  0  0  0  0  0
    9.8672   10.7546   22.9077 C   0  0  0  0  0  0  0  0  0  0  0  0
    8.7984    9.7415   23.3888 C   0  0  0  0  0  0  0  0  0  0  0  0
    7.9215    9.2750   22.2218 C   0  0  0  0  0  0  0  0  0  0  0  0
    9.4540    8.5406   24.0793 C   0  0  0  0  0  0  0  0  0  0  0  0
   12.1073   15.2975   22.5818 C   0  0  0  0  0  0  0  0  0  0  0  0
   11.7103   14.4179   20.2628 C   0  0  0  0  0  0  0  0  0  0  0  0
    9.7828   15.2892   21.6168 C   0  0  0  0  0  0  0  0  0  0  0  0
   11.1273   14.5649   21.6666 C   0  0  0  0  0  0  0  0  0  0  0  0
    9.6325   12.0258   23.6199 N   0  0  0  0  0  0  0  0  0  0  0  0
   10.6042   14.0299   24.3092 O   0  0  0  0  0  0  0  0  0  0  0  0
   10.9163   13.2470   22.1864 O   0  0  0  0  0  0  0  0  0  0  0  0
    6.0178   13.6568   27.2519 Br  0  0  0  0  0  0  0  0  0  0  0  0
    6.5053    9.1837   25.0481 H   0  0  0  0  0  0  0  0  0  0  0  0
    5.4560   10.8154   26.5686 H   0  0  0  0  0  0  0  0  0  0  0  0
    8.3294   13.8127   25.4123 H   0  0  0  0  0  0  0  0  0  0  0  0
   10.8911   10.4265   23.1245 H   0  0  0  0  0  0  0  0  0  0  0  0
    9.8082   10.9537   21.8307 H   0  0  0  0  0  0  0  0  0  0  0  0
    8.5166    8.6779   21.5354 H   0  0  0  0  0  0  0  0  0  0  0  0
    7.5247   10.1399   21.6963 H   0  0  0  0  0  0  0  0  0  0  0  0
    7.0987    8.6749   22.6019 H   0  0  0  0  0  0  0  0  0  0  0  0
   10.0117    7.9605   23.3485 H   0  0  0  0  0  0  0  0  0  0  0  0
    8.6863    7.9146   24.5269 H   0  0  0  0  0  0  0  0  0  0  0  0
   10.1309    8.8913   24.8542 H   0  0  0  0  0  0  0  0  0  0  0  0
   11.6924   15.4051   23.5905 H   0  0  0  0  0  0  0  0  0  0  0  0
   13.0637   14.7695   22.6537 H   0  0  0  0  0  0  0  0  0  0  0  0
   12.2990   16.3129   22.2166 H   0  0  0  0  0  0  0  0  0  0  0  0
   11.0105   13.8928   19.6027 H   0  0  0  0  0  0  0  0  0  0  0  0
   12.6267   13.8169   20.2818 H   0  0  0  0  0  0  0  0  0  0  0  0
   11.9429   15.3908   19.8179 H   0  0  0  0  0  0  0  0  0  0  0  0
    9.0796   14.7640   20.9604 H   0  0  0  0  0  0  0  0  0  0  0  0
    9.3318   15.3713   22.6111 H   0  0  0  0  0  0  0  0  0  0  0  0
    9.8984   16.2973   21.2026 H   0  0  0  0  0  0  0  0  0  0  0  0
  1  2  1  0  0  0  0
  1  4  2  0  0  0  0
  2  6  2  0  0  0  0
  3  5  2  0  0  0  0
  3  6  1  0  0  0  0
  4  5  1  0  0  0  0
  4  9  1  0  0  0  0
  5 16  1  0  0  0  0
  6 19  1  0  0  0  0
  7 16  1  0  0  0  0
  7 17  2  0  0  0  0
  7 18  1  0  0  0  0
  8  9  1  0  0  0  0
  8 16  1  0  0  0  0
  9 10  1  0  0  0  0
  9 11  1  0  0  0  0
 12 15  1  0  0  0  0
 13 15  1  0  0  0  0
 14 15  1  0  0  0  0
 15 18  1  0  0  0  0
  1 20  1  0  0  0  0
  2 21  1  0  0  0  0
  3 22  1  0  0  0  0
  8 23  1  0  0  0  0
  8 24  1  0  0  0  0
 10 25  1  0  0  0  0
 10 26  1  0  0  0  0
 10 27  1  0  0  0  0
 11 28  1  0  0  0  0
 11 29  1  0  0  0  0
 11 30  1  0  0  0  0
 12 31  1  0  0  0  0
 12 32  1  0  0  0  0
 12 33  1  0  0  0  0
 13 34  1  0  0  0  0
 13 35  1  0  0  0  0
 13 36  1  0  0  0  0
 14 37  1  0  0  0  0
 14 38  1  0  0  0  0
 14 39  1  0  0  0  0
M  END
> <id>
EN300-12448952

> <smiles>
CC(C)(C)OC(=O)N1CC(C)(C)C=2C=CC(Br)=CC12

> <MDLNUMBER>
MFCD18374764

> <IUPAC Name>
tert-butyl 6-bromo-3,3-dimethyl-2,3-dihydro-1H-indole-1-carboxylate

> <CAS>
1262410-58-1

> <URL>
https://www.enaminestore.com/catalog/EN300-12448952

> <ROCS_ShapeQuery>
A71EV2A-x0451_0A_A71EV2A-x0310_0A_A71EV2A-x0416_0A_peptide

> <ROCS_TanimotoCombo>
0.482 

> <ROCS_ShapeTanimoto>
0.351 

> <ROCS_ColorTanimoto>
0.130 

> <ROCS_RefTversky>
0.303 

> <ROCS_RefColorTversky>
0.143 

> <ROCS_RefTverskyCombo>
0.446 

> <ROCS_FitTversky>
1.816 

> <ROCS_FitColorTversky>
0.596 

> <ROCS_FitTverskyCombo>
2.412 

> <ROCS_ColorScore>
-4.350

> <ROCS_Overlap>
2104.295

> <ROCS_Rank>
329                 

$$$$
untitled-dbase-48717_6
  -OEChem-11132313473D

 40 41  0     0  0  0  0  0  0999 V2000
    8.7424    8.5564   22.9697 C   0  0  0  0  0  0  0  0  0  0  0  0
    8.6395    7.4181   22.6002 C   0  0  0  0  0  0  0  0  0  0  0  0
    6.3270   11.0945   25.9792 C   0  0  0  0  0  0  0  0  0  0  0  0
    6.8192   12.3886   26.0914 C   0  0  0  0  0  0  0  0  0  0  0  0
    6.9324   10.1810   25.1138 C   0  0  0  0  0  0  0  0  0  0  0  0
    7.9258   12.8053   25.3445 C   0  0  0  0  0  0  0  0  0  0  0  0
    8.8652    9.9078   23.4087 C   0  0  0  0  0  0  0  0  0  0  0  0
    8.0499   10.5784   24.3502 C   0  0  0  0  0  0  0  0  0  0  0  0
    8.5382   11.8867   24.4704 C   0  0  0  0  0  0  0  0  0  0  0  0
    9.8181   10.7960   22.9768 C   0  0  0  0  0  0  0  0  0  0  0  0
   10.4218   13.1614   23.4229 C   0  0  0  0  0  0  0  0  0  0  0  0
   10.8894   10.5276   21.9839 C   0  0  0  0  0  0  0  0  0  0  0  0
   12.9328   14.3248   22.7960 C   0  0  0  0  0  0  0  0  0  0  0  0
   12.1992   14.1616   20.3993 C   0  0  0  0  0  0  0  0  0  0  0  0
   10.8994   15.5832   22.0111 C   0  0  0  0  0  0  0  0  0  0  0  0
    8.5120    6.0329   22.1495 C   0  0  0  0  0  0  0  0  0  0  0  0
   11.7358   14.3152   21.8463 C   0  0  0  0  0  0  0  0  0  0  0  0
    9.6364   12.0118   23.6129 N   0  0  0  0  0  0  0  0  0  0  0  0
   10.5890   13.9762   24.3153 O   0  0  0  0  0  0  0  0  0  0  0  0
    9.7689    5.3787   22.2504 O   0  0  0  0  0  0  0  0  0  0  0  0
   10.9160   13.1849   22.1586 O   0  0  0  0  0  0  0  0  0  0  0  0
    5.4664   10.7894   26.5679 H   0  0  0  0  0  0  0  0  0  0  0  0
    6.3379   13.0895   26.7689 H   0  0  0  0  0  0  0  0  0  0  0  0
    6.5370    9.1717   25.0368 H   0  0  0  0  0  0  0  0  0  0  0  0
    8.2803   13.8232   25.4587 H   0  0  0  0  0  0  0  0  0  0  0  0
   10.5435   10.7606   20.9670 H   0  0  0  0  0  0  0  0  0  0  0  0
   11.7885   11.1282   22.1862 H   0  0  0  0  0  0  0  0  0  0  0  0
   11.2062    9.4743   22.0052 H   0  0  0  0  0  0  0  0  0  0  0  0
   12.6044   14.4348   23.8358 H   0  0  0  0  0  0  0  0  0  0  0  0
   13.5213   13.4053   22.7127 H   0  0  0  0  0  0  0  0  0  0  0  0
   13.5904   15.1766   22.5878 H   0  0  0  0  0  0  0  0  0  0  0  0
   11.3436   14.1542   19.7144 H   0  0  0  0  0  0  0  0  0  0  0  0
   12.7184   13.2073   20.2549 H   0  0  0  0  0  0  0  0  0  0  0  0
   12.8735   14.9716   20.1029 H   0  0  0  0  0  0  0  0  0  0  0  0
   10.0408   15.5766   21.3300 H   0  0  0  0  0  0  0  0  0  0  0  0
   10.5274   15.6908   23.0351 H   0  0  0  0  0  0  0  0  0  0  0  0
   11.4872   16.4733   21.7588 H   0  0  0  0  0  0  0  0  0  0  0  0
    7.7882    5.4904   22.7652 H   0  0  0  0  0  0  0  0  0  0  0  0
    8.1834    5.9939   21.1065 H   0  0  0  0  0  0  0  0  0  0  0  0
   10.0289    5.4125   23.1854 H   0  0  0  0  0  0  0  0  0  0  0  0
  1  2  3  0  0  0  0
  1  7  1  0  0  0  0
  2 16  1  0  0  0  0
  3  4  2  0  0  0  0
  3  5  1  0  0  0  0
  4  6  1  0  0  0  0
  5  8  2  0  0  0  0
  6  9  2  0  0  0  0
  7  8  1  0  0  0  0
  7 10  2  0  0  0  0
  8  9  1  0  0  0  0
  9 18  1  0  0  0  0
 10 12  1  0  0  0  0
 10 18  1  0  0  0  0
 11 18  1  0  0  0  0
 11 19  2  0  0  0  0
 11 21  1  0  0  0  0
 13 17  1  0  0  0  0
 14 17  1  0  0  0  0
 15 17  1  0  0  0  0
 16 20  1  0  0  0  0
 17 21  1  0  0  0  0
  3 22  1  0  0  0  0
  4 23  1  0  0  0  0
  5 24  1  0  0  0  0
  6 25  1  0  0  0  0
 12 26  1  0  0  0  0
 12 27  1  0  0  0  0
 12 28  1  0  0  0  0
 13 29  1  0  0  0  0
 13 30  1  0  0  0  0
 13 31  1  0  0  0  0
 14 32  1  0  0  0  0
 14 33  1  0  0  0  0
 14 34  1  0  0  0  0
 15 35  1  0  0  0  0
 15 36  1  0  0  0  0
 15 37  1  0  0  0  0
 16 38  1  0  0  0  0
 16 39  1  0  0  0  0
 20 40  1  0  0  0  0
M  END
> <id>
EN300-697688

> <smiles>
CC1=C(C#CCO)C=2C=CC=CC2N1C(=O)OC(C)(C)C

> <IUPAC Name>
tert-butyl 3-(3-hydroxyprop-1-yn-1-yl)-2-methyl-1H-indole-1-carboxylate

> <CAS>
2137730-25-5

> <URL>
https://www.enaminestore.com/catalog/EN300-697688

> <ROCS_ShapeQuery>
A71EV2A-x0451_0A_A71EV2A-x0310_0A_A71EV2A-x0416_0A_peptide

> <ROCS_TanimotoCombo>
0.482 

> <ROCS_ShapeTanimoto>
0.351 

> <ROCS_ColorTanimoto>
0.131 

> <ROCS_RefTversky>
0.307 

> <ROCS_RefColorTversky>
0.143 

> <ROCS_RefTverskyCombo>
0.450 

> <ROCS_FitTversky>
1.691 

> <ROCS_FitColorTversky>
0.598 

> <ROCS_FitTverskyCombo>
2.289 

> <ROCS_ColorScore>
-4.365

> <ROCS_Overlap>
2129.494

> <ROCS_Rank>
330                 

$$$$
untitled-dbase-34728_15
  -OEChem-11132313473D

 35 36  0     1  0  0  0  0  0999 V2000
    8.8959    9.6609   23.5272 C   0  0  0  0  0  0  0  0  0  0  0  0
   10.6392   13.0732   23.5863 C   0  0  0  0  0  0  0  0  0  0  0  0
   10.0373   10.6550   23.3946 C   0  0  0  0  0  0  0  0  0  0  0  0
    7.8099   10.4209   25.6293 C   0  0  0  0  0  0  0  0  0  0  0  0
    8.2584   11.8859   25.7065 C   0  0  0  0  0  0  0  0  0  0  0  0
    7.2928   11.5157   23.5483 C   0  0  0  0  0  0  0  0  0  0  0  0
    7.5975   10.1499   24.1379 C   0  0  1  0  0  0  0  0  0  0  0  0
    8.3555   12.3529   24.2480 C   0  0  2  0  0  0  0  0  0  0  0  0
   12.8319   14.8207   23.0179 C   0  0  0  0  0  0  0  0  0  0  0  0
   13.1612   13.4347   20.9491 C   0  0  0  0  0  0  0  0  0  0  0  0
   11.0251   14.7165   21.2688 C   0  0  0  0  0  0  0  0  0  0  0  0
   12.1459   13.9482   21.9677 C   0  0  0  0  0  0  0  0  0  0  0  0
    9.6888   12.0490   23.6987 N   0  0  0  0  0  0  0  0  0  0  0  0
    9.0500    8.4784   23.2193 O   0  0  0  0  0  0  0  0  0  0  0  0
   10.6434   14.0959   24.2685 O   0  0  0  0  0  0  0  0  0  0  0  0
   11.5777   12.8085   22.6227 O   0  0  0  0  0  0  0  0  0  0  0  0
   10.8336   10.3563   24.0850 H   0  0  0  0  0  0  0  0  0  0  0  0
   10.4188   10.6158   22.3689 H   0  0  0  0  0  0  0  0  0  0  0  0
    8.5529    9.7534   26.0787 H   0  0  0  0  0  0  0  0  0  0  0  0
    6.8711   10.2953   26.1803 H   0  0  0  0  0  0  0  0  0  0  0  0
    7.4992   12.4728   26.2374 H   0  0  0  0  0  0  0  0  0  0  0  0
    9.1995   12.0038   26.2539 H   0  0  0  0  0  0  0  0  0  0  0  0
    7.3769   11.5544   22.4569 H   0  0  0  0  0  0  0  0  0  0  0  0
    6.2866   11.8480   23.8304 H   0  0  0  0  0  0  0  0  0  0  0  0
    6.8056    9.4205   23.9454 H   0  0  0  0  0  0  0  0  0  0  0  0
    8.1537   13.4251   24.1627 H   0  0  0  0  0  0  0  0  0  0  0  0
   12.1065   15.1913   23.7509 H   0  0  0  0  0  0  0  0  0  0  0  0
   13.6145   14.2705   23.5506 H   0  0  0  0  0  0  0  0  0  0  0  0
   13.2843   15.7057   22.5560 H   0  0  0  0  0  0  0  0  0  0  0  0
   12.6733   12.8082   20.1937 H   0  0  0  0  0  0  0  0  0  0  0  0
   13.9150   12.8035   21.4335 H   0  0  0  0  0  0  0  0  0  0  0  0
   13.6734   14.2570   20.4393 H   0  0  0  0  0  0  0  0  0  0  0  0
   10.5328   14.0909   20.5155 H   0  0  0  0  0  0  0  0  0  0  0  0
   10.2677   15.0611   21.9803 H   0  0  0  0  0  0  0  0  0  0  0  0
   11.4234   15.5871   20.7353 H   0  0  0  0  0  0  0  0  0  0  0  0
  1  3  1  0  0  0  0
  1  7  1  0  0  0  0
  1 14  2  0  0  0  0
  2 13  1  0  0  0  0
  2 15  2  0  0  0  0
  2 16  1  0  0  0  0
  3 13  1  0  0  0  0
  4  5  1  0  0  0  0
  4  7  1  0  0  0  0
  5  8  1  0  0  0  0
  6  7  1  0  0  0  0
  6  8  1  0  0  0  0
  8 13  1  0  0  0  0
  9 12  1  0  0  0  0
 10 12  1  0  0  0  0
 11 12  1  0  0  0  0
 12 16  1  0  0  0  0
  3 17  1  0  0  0  0
  3 18  1  0  0  0  0
  4 19  1  0  0  0  0
  4 20  1  0  0  0  0
  5 21  1  0  0  0  0
  5 22  1  0  0  0  0
  6 23  1  0  0  0  0
  6 24  1  0  0  0  0
  7 25  1  0  0  0  0
  8 26  1  0  0  0  0
  9 27  1  0  0  0  0
  9 28  1  0  0  0  0
  9 29  1  0  0  0  0
 10 30  1  0  0  0  0
 10 31  1  0  0  0  0
 10 32  1  0  0  0  0
 11 33  1  0  0  0  0
 11 34  1  0  0  0  0
 11 35  1  0  0  0  0
M  END
> <id>
EN300-37474047

> <smiles>
CC(C)(C)OC(=O)N1CC(=O)C2CCC1C2

> <IUPAC Name>
tert-butyl 4-oxo-2-azabicyclo[3.2.1]octane-2-carboxylate

> <Purity>
95

> <URL>
https://www.enaminestore.com/catalog/EN300-37474047

> <ROCS_ShapeQuery>
A71EV2A-x0451_0A_A71EV2A-x0310_0A_A71EV2A-x0416_0A_peptide

> <ROCS_TanimotoCombo>
0.481 

> <ROCS_ShapeTanimoto>
0.300 

> <ROCS_ColorTanimoto>
0.181 

> <ROCS_RefTversky>
0.266 

> <ROCS_RefColorTversky>
0.203 

> <ROCS_RefTverskyCombo>
0.469 

> <ROCS_FitTversky>
1.774 

> <ROCS_FitColorTversky>
0.624 

> <ROCS_FitTverskyCombo>
2.399 

> <ROCS_ColorScore>
-6.210

> <ROCS_Overlap>
1840.973

> <ROCS_Rank>
331                 

$$$$
untitled-dbase-34634_131
  -OEChem-11132313473D

 38 39  0     0  0  0  0  0  0999 V2000
    7.0685   12.6399   24.9399 C   0  0  0  0  0  0  0  0  0  0  0  0
    7.3326   10.0388   25.8647 C   0  0  0  0  0  0  0  0  0  0  0  0
    7.9238   11.7523   24.2607 C   0  0  0  0  0  0  0  0  0  0  0  0
    8.0668   10.4288   24.7277 C   0  0  0  0  0  0  0  0  0  0  0  0
    6.3611   12.2330   26.0689 C   0  0  0  0  0  0  0  0  0  0  0  0
    6.4895   10.9295   26.5293 C   0  0  0  0  0  0  0  0  0  0  0  0
   10.8989   13.1043   23.4511 C   0  0  0  0  0  0  0  0  0  0  0  0
    8.5844   12.2283   22.9886 C   0  0  0  0  0  0  0  0  0  0  0  0
   10.3373    9.8129   23.9340 C   0  0  0  0  0  0  0  0  0  0  0  0
   10.5607   10.7496   22.7572 C   0  0  0  0  0  0  0  0  0  0  0  0
   12.5081   15.4237   22.9813 C   0  0  0  0  0  0  0  0  0  0  0  0
   13.8585   13.9513   21.4590 C   0  0  0  0  0  0  0  0  0  0  0  0
   11.4398   14.3950   20.9478 C   0  0  0  0  0  0  0  0  0  0  0  0
   12.4763   14.2089   22.0550 C   0  0  0  0  0  0  0  0  0  0  0  0
    8.9343    9.4974   24.1574 N   0  0  0  0  0  0  0  0  0  0  0  0
   10.0375   12.0841   23.0279 N   0  0  0  0  0  0  0  0  0  0  0  0
   10.6034   13.9602   24.2830 O   0  0  0  0  0  0  0  0  0  0  0  0
   12.1175   13.0569   22.8264 O   0  0  0  0  0  0  0  0  0  0  0  0
    5.5570   13.0950   26.7051 F   0  0  0  0  0  0  0  0  0  0  0  0
    5.8093   10.5292   27.6115 F   0  0  0  0  0  0  0  0  0  0  0  0
    6.9393   13.6593   24.5866 H   0  0  0  0  0  0  0  0  0  0  0  0
    7.4217    9.0269   26.2511 H   0  0  0  0  0  0  0  0  0  0  0  0
    8.2035   11.6527   22.1345 H   0  0  0  0  0  0  0  0  0  0  0  0
    8.3213   13.2734   22.7819 H   0  0  0  0  0  0  0  0  0  0  0  0
   10.8661    8.8703   23.7283 H   0  0  0  0  0  0  0  0  0  0  0  0
   10.7922   10.1986   24.8585 H   0  0  0  0  0  0  0  0  0  0  0  0
   11.6224   10.8539   22.5692 H   0  0  0  0  0  0  0  0  0  0  0  0
   10.0880   10.3463   21.8709 H   0  0  0  0  0  0  0  0  0  0  0  0
   11.5177   15.6119   23.4112 H   0  0  0  0  0  0  0  0  0  0  0  0
   13.2224   15.2882   23.7999 H   0  0  0  0  0  0  0  0  0  0  0  0
   12.7825   16.3296   22.4289 H   0  0  0  0  0  0  0  0  0  0  0  0
   13.8404   13.0805   20.7937 H   0  0  0  0  0  0  0  0  0  0  0  0
   14.5866   13.7233   22.2459 H   0  0  0  0  0  0  0  0  0  0  0  0
   14.2207   14.8142   20.8909 H   0  0  0  0  0  0  0  0  0  0  0  0
   11.4169   13.5238   20.2832 H   0  0  0  0  0  0  0  0  0  0  0  0
   10.4353   14.5444   21.3566 H   0  0  0  0  0  0  0  0  0  0  0  0
   11.6917   15.2568   20.3192 H   0  0  0  0  0  0  0  0  0  0  0  0
    8.6374    8.5651   24.0526 H   0  0  0  0  0  0  0  0  0  0  0  0
  1  3  2  0  0  0  0
  1  5  1  0  0  0  0
  2  4  2  0  0  0  0
  2  6  1  0  0  0  0
  3  4  1  0  0  0  0
  3  8  1  0  0  0  0
  4 15  1  0  0  0  0
  5  6  2  0  0  0  0
  5 19  1  0  0  0  0
  6 20  1  0  0  0  0
  7 16  1  0  0  0  0
  7 17  2  0  0  0  0
  7 18  1  0  0  0  0
  8 16  1  0  0  0  0
  9 10  1  0  0  0  0
  9 15  1  0  0  0  0
 10 16  1  0  0  0  0
 11 14  1  0  0  0  0
 12 14  1  0  0  0  0
 13 14  1  0  0  0  0
 14 18  1  0  0  0  0
  1 21  1  0  0  0  0
  2 22  1  0  0  0  0
  8 23  1  0  0  0  0
  8 24  1  0  0  0  0
  9 25  1  0  0  0  0
  9 26  1  0  0  0  0
 10 27  1  0  0  0  0
 10 28  1  0  0  0  0
 11 29  1  0  0  0  0
 11 30  1  0  0  0  0
 11 31  1  0  0  0  0
 12 32  1  0  0  0  0
 12 33  1  0  0  0  0
 12 34  1  0  0  0  0
 13 35  1  0  0  0  0
 13 36  1  0  0  0  0
 13 37  1  0  0  0  0
 15 38  1  0  0  0  0
M  END
> <id>
EN300-97875

> <smiles>
CC(C)(C)OC(=O)N1CCNC=2C=C(F)C(F)=CC2C1

> <MDLNUMBER>
MFCD21334168

> <IUPAC Name>
tert-butyl 7,8-difluoro-2,3,4,5-tetrahydro-1H-1,4-benzodiazepine-4-carboxylate

> <CAS>
1375472-42-6

> <Purity>
95

> <URL>
https://www.enaminestore.com/catalog/EN300-97875

> <ROCS_ShapeQuery>
A71EV2A-x0451_0A_A71EV2A-x0310_0A_A71EV2A-x0416_0A_peptide

> <ROCS_TanimotoCombo>
0.481 

> <ROCS_ShapeTanimoto>
0.331 

> <ROCS_ColorTanimoto>
0.150 

> <ROCS_RefTversky>
0.292 

> <ROCS_RefColorTversky>
0.158 

> <ROCS_RefTverskyCombo>
0.450 

> <ROCS_FitTversky>
1.671 

> <ROCS_FitColorTversky>
0.757 

> <ROCS_FitTverskyCombo>
2.428 

> <ROCS_ColorScore>
-4.800

> <ROCS_Overlap>
2028.194

> <ROCS_Rank>
332                 

$$$$
untitled-dbase-11575_9
  -OEChem-11132313473D

 38 39  0     0  0  0  0  0  0999 V2000
    8.6165    8.5686   23.1026 C   0  0  0  0  0  0  0  0  0  0  0  0
    8.4911    7.4260   22.7554 C   0  0  0  0  0  0  0  0  0  0  0  0
    6.2693   11.2584   26.0517 C   0  0  0  0  0  0  0  0  0  0  0  0
    6.8457   10.3032   25.2121 C   0  0  0  0  0  0  0  0  0  0  0  0
    6.7993   12.5403   26.1260 C   0  0  0  0  0  0  0  0  0  0  0  0
    9.7432   10.7719   23.0540 C   0  0  0  0  0  0  0  0  0  0  0  0
    8.7658    9.9247   23.5127 C   0  0  0  0  0  0  0  0  0  0  0  0
    7.9725   10.6456   24.4357 C   0  0  0  0  0  0  0  0  0  0  0  0
    7.9159   12.9028   25.3657 C   0  0  0  0  0  0  0  0  0  0  0  0
    8.4991   11.9420   24.5175 C   0  0  0  0  0  0  0  0  0  0  0  0
   10.4168   13.1303   23.4310 C   0  0  0  0  0  0  0  0  0  0  0  0
    8.3690   14.3154   25.5529 C   0  0  0  0  0  0  0  0  0  0  0  0
   12.1865   15.1182   22.4470 C   0  0  0  0  0  0  0  0  0  0  0  0
   11.7112   14.1518   20.1778 C   0  0  0  0  0  0  0  0  0  0  0  0
    9.8456   15.1605   21.5233 C   0  0  0  0  0  0  0  0  0  0  0  0
   11.1611   14.3854   21.5832 C   0  0  0  0  0  0  0  0  0  0  0  0
    9.5985   12.0102   23.6551 N   0  0  0  0  0  0  0  0  0  0  0  0
    8.3417    6.0581   22.3398 N   0  0  0  0  0  0  0  0  0  0  0  0
   10.6099   13.9651   24.2994 O   0  0  0  0  0  0  0  0  0  0  0  0
   10.9082   13.1032   22.1657 O   0  0  0  0  0  0  0  0  0  0  0  0
    5.4016   10.9953   26.6501 H   0  0  0  0  0  0  0  0  0  0  0  0
    6.4209    9.3040   25.1647 H   0  0  0  0  0  0  0  0  0  0  0  0
    6.3289   13.2636   26.7889 H   0  0  0  0  0  0  0  0  0  0  0  0
   10.5331   10.5788   22.3392 H   0  0  0  0  0  0  0  0  0  0  0  0
    9.1018   14.3730   26.3653 H   0  0  0  0  0  0  0  0  0  0  0  0
    8.8281   14.7072   24.6376 H   0  0  0  0  0  0  0  0  0  0  0  0
    7.5246   14.9719   25.7945 H   0  0  0  0  0  0  0  0  0  0  0  0
   11.7954   15.2878   23.4566 H   0  0  0  0  0  0  0  0  0  0  0  0
   13.1225   14.5558   22.5266 H   0  0  0  0  0  0  0  0  0  0  0  0
   12.4114   16.1076   22.0324 H   0  0  0  0  0  0  0  0  0  0  0  0
   10.9788   13.6262   19.5545 H   0  0  0  0  0  0  0  0  0  0  0  0
   12.6033   13.5158   20.2086 H   0  0  0  0  0  0  0  0  0  0  0  0
   11.9737   15.0935   19.6850 H   0  0  0  0  0  0  0  0  0  0  0  0
    9.1100   14.6350   20.9037 H   0  0  0  0  0  0  0  0  0  0  0  0
    9.4172   15.3055   22.5203 H   0  0  0  0  0  0  0  0  0  0  0  0
    9.9932   16.1434   21.0614 H   0  0  0  0  0  0  0  0  0  0  0  0
    7.4178    5.6627   22.2389 H   0  0  0  0  0  0  0  0  0  0  0  0
    9.1615    5.4987   22.1516 H   0  0  0  0  0  0  0  0  0  0  0  0
  1  2  3  0  0  0  0
  1  7  1  0  0  0  0
  2 18  1  0  0  0  0
  3  4  2  0  0  0  0
  3  5  1  0  0  0  0
  4  8  1  0  0  0  0
  5  9  2  0  0  0  0
  6  7  2  0  0  0  0
  6 17  1  0  0  0  0
  7  8  1  0  0  0  0
  8 10  2  0  0  0  0
  9 10  1  0  0  0  0
  9 12  1  0  0  0  0
 10 17  1  0  0  0  0
 11 17  1  0  0  0  0
 11 19  2  0  0  0  0
 11 20  1  0  0  0  0
 13 16  1  0  0  0  0
 14 16  1  0  0  0  0
 15 16  1  0  0  0  0
 16 20  1  0  0  0  0
  3 21  1  0  0  0  0
  4 22  1  0  0  0  0
  5 23  1  0  0  0  0
  6 24  1  0  0  0  0
 12 25  1  0  0  0  0
 12 26  1  0  0  0  0
 12 27  1  0  0  0  0
 13 28  1  0  0  0  0
 13 29  1  0  0  0  0
 13 30  1  0  0  0  0
 14 31  1  0  0  0  0
 14 32  1  0  0  0  0
 14 33  1  0  0  0  0
 15 34  1  0  0  0  0
 15 35  1  0  0  0  0
 15 36  1  0  0  0  0
 18 37  1  0  0  0  0
 18 38  1  0  0  0  0
M  END
> <id>
EN300-624596

> <smiles>
CC=1C=CC=C2C(C#CN)=CN(C(=O)OC(C)(C)C)C12

> <MDLNUMBER>
MFCD30752589

> <IUPAC Name>
tert-butyl 3-(2-aminoethynyl)-7-methyl-1H-indole-1-carboxylate

> <CAS>
2137639-68-8

> <URL>
https://www.enaminestore.com/catalog/EN300-624596

> <ROCS_ShapeQuery>
A71EV2A-x0451_0A_A71EV2A-x0310_0A_A71EV2A-x0416_0A_peptide

> <ROCS_TanimotoCombo>
0.481 

> <ROCS_ShapeTanimoto>
0.348 

> <ROCS_ColorTanimoto>
0.133 

> <ROCS_RefTversky>
0.304 

> <ROCS_RefColorTversky>
0.146 

> <ROCS_RefTverskyCombo>
0.450 

> <ROCS_FitTversky>
1.728 

> <ROCS_FitColorTversky>
0.608 

> <ROCS_FitTverskyCombo>
2.336 

> <ROCS_ColorScore>
-4.440

> <ROCS_Overlap>
2107.010

> <ROCS_Rank>
333                 

$$$$
untitled-dbase-51934_4
  -OEChem-11132313473D

 36 37  0     1  0  0  0  0  0999 V2000
   10.1237   13.2872   23.7237 C   0  0  0  0  0  0  0  0  0  0  0  0
    9.2816   10.2901   23.0624 C   0  0  0  0  0  0  0  0  0  0  0  0
    8.4539   12.8427   25.5427 C   0  0  0  0  0  0  0  0  0  0  0  0
    7.0051   12.3960   25.6477 C   0  0  0  0  0  0  0  0  0  0  0  0
    8.3826   11.5122   23.3795 C   0  0  1  0  0  0  0  0  0  0  0  0
    8.6453    9.5702   24.2621 C   0  0  1  0  0  0  0  0  0  0  0  0
    7.4447   10.5404   24.1569 C   0  0  1  0  0  0  0  0  0  0  0  0
   12.8246   13.3605   22.7874 C   0  0  0  0  0  0  0  0  0  0  0  0
   11.8488   12.9822   20.5040 C   0  0  0  0  0  0  0  0  0  0  0  0
   11.2647   15.0623   21.7847 C   0  0  0  0  0  0  0  0  0  0  0  0
   11.6072   13.5768   21.8897 C   0  0  0  0  0  0  0  0  0  0  0  0
    9.0206   12.5767   24.2145 N   0  0  0  0  0  0  0  0  0  0  0  0
    8.2198    8.2389   23.8519 N   0  0  0  0  0  0  0  0  0  0  0  0
   10.7000   14.1755   24.3491 O   0  0  0  0  0  0  0  0  0  0  0  0
    6.9196   10.9951   25.4220 O   0  0  0  0  0  0  0  0  0  0  0  0
   10.4894   12.8907   22.4646 O   0  0  0  0  0  0  0  0  0  0  0  0
    9.1367    9.8453   22.0758 H   0  0  0  0  0  0  0  0  0  0  0  0
   10.3512   10.4791   23.1984 H   0  0  0  0  0  0  0  0  0  0  0  0
    8.5389   13.9059   25.7750 H   0  0  0  0  0  0  0  0  0  0  0  0
    9.0742   12.2874   26.2516 H   0  0  0  0  0  0  0  0  0  0  0  0
    6.6197   12.6001   26.6546 H   0  0  0  0  0  0  0  0  0  0  0  0
    6.3625   12.9286   24.9324 H   0  0  0  0  0  0  0  0  0  0  0  0
    7.8753   11.9363   22.5070 H   0  0  0  0  0  0  0  0  0  0  0  0
    9.2183    9.6000   25.1898 H   0  0  0  0  0  0  0  0  0  0  0  0
    6.6133   10.1653   23.5398 H   0  0  0  0  0  0  0  0  0  0  0  0
   12.6552   13.7860   23.7830 H   0  0  0  0  0  0  0  0  0  0  0  0
   13.0596   12.2970   22.8991 H   0  0  0  0  0  0  0  0  0  0  0  0
   13.7061   13.8688   22.3800 H   0  0  0  0  0  0  0  0  0  0  0  0
   10.9778   13.1351   19.8565 H   0  0  0  0  0  0  0  0  0  0  0  0
   12.0013   11.8986   20.5654 H   0  0  0  0  0  0  0  0  0  0  0  0
   12.7234   13.4285   20.0197 H   0  0  0  0  0  0  0  0  0  0  0  0
   10.3915   15.2177   21.1408 H   0  0  0  0  0  0  0  0  0  0  0  0
   11.0519   15.4975   22.7665 H   0  0  0  0  0  0  0  0  0  0  0  0
   12.0894   15.6209   21.3275 H   0  0  0  0  0  0  0  0  0  0  0  0
    9.0308    7.6837   23.7219 H   0  0  0  0  0  0  0  0  0  0  0  0
    7.6473    7.8653   24.5699 H   0  0  0  0  0  0  0  0  0  0  0  0
  1 12  1  0  0  0  0
  1 14  2  0  0  0  0
  1 16  1  0  0  0  0
  2  5  1  6  0  0  0
  2  6  1  0  0  0  0
  3  4  1  0  0  0  0
  3 12  1  0  0  0  0
  4 15  1  0  0  0  0
  5  7  1  0  0  0  0
  5 12  1  0  0  0  0
  6  7  1  0  0  0  0
  6 13  1  1  0  0  0
  7 15  1  6  0  0  0
  8 11  1  0  0  0  0
  9 11  1  0  0  0  0
 10 11  1  0  0  0  0
 11 16  1  0  0  0  0
  2 17  1  0  0  0  0
  2 18  1  0  0  0  0
  3 19  1  0  0  0  0
  3 20  1  0  0  0  0
  4 21  1  0  0  0  0
  4 22  1  0  0  0  0
  5 23  1  0  0  0  0
  6 24  1  0  0  0  0
  7 25  1  0  0  0  0
  8 26  1  0  0  0  0
  8 27  1  0  0  0  0
  8 28  1  0  0  0  0
  9 29  1  0  0  0  0
  9 30  1  0  0  0  0
  9 31  1  0  0  0  0
 10 32  1  0  0  0  0
 10 33  1  0  0  0  0
 10 34  1  0  0  0  0
 13 35  1  0  0  0  0
 13 36  1  0  0  0  0
M  END
> <id>
EN300-45158200

> <smiles>
CC(C)(C)OC(=O)N1CCO[C@@H]2[C@@H](N)C[C@@H]21 |&1:11,12,15,r|

> <IUPAC Name>
rac-tert-butyl (1R,6S,8S)-8-amino-2-oxa-5-azabicyclo[4.2.0]octane-5-carboxylate

> <URL>
https://www.enaminestore.com/catalog/EN300-45158200

> <ROCS_ShapeQuery>
A71EV2A-x0451_0A_A71EV2A-x0310_0A_A71EV2A-x0416_0A_peptide

> <ROCS_TanimotoCombo>
0.481 

> <ROCS_ShapeTanimoto>
0.300 

> <ROCS_ColorTanimoto>
0.182 

> <ROCS_RefTversky>
0.265 

> <ROCS_RefColorTversky>
0.196 

> <ROCS_RefTverskyCombo>
0.460 

> <ROCS_FitTversky>
1.784 

> <ROCS_FitColorTversky>
0.717 

> <ROCS_FitTverskyCombo>
2.502 

> <ROCS_ColorScore>
-5.964

> <ROCS_Overlap>
1835.195

> <ROCS_Rank>
334                 

$$$$
untitled-dbase-45972_2
  -OEChem-11132313473D

 34 35  0     0  0  0  0  0  0999 V2000
    8.3032   14.1333   25.6635 C   0  0  0  0  0  0  0  0  0  0  0  0
    6.9600   12.0360   25.7890 C   0  0  0  0  0  0  0  0  0  0  0  0
    8.0248   12.7984   25.2643 C   0  0  0  0  0  0  0  0  0  0  0  0
    8.6437   11.9672   24.3544 C   0  0  0  0  0  0  0  0  0  0  0  0
   10.4191   13.3109   23.4134 C   0  0  0  0  0  0  0  0  0  0  0  0
    9.6629    9.5979   23.1836 C   0  0  0  0  0  0  0  0  0  0  0  0
    8.1985    9.6262   23.5988 C   0  0  0  0  0  0  0  0  0  0  0  0
   10.0988   10.9490   22.6157 C   0  0  0  0  0  0  0  0  0  0  0  0
   12.8101   14.7984   22.8741 C   0  0  0  0  0  0  0  0  0  0  0  0
   12.0180   14.8551   20.4912 C   0  0  0  0  0  0  0  0  0  0  0  0
   10.6474   15.9460   22.2910 C   0  0  0  0  0  0  0  0  0  0  0  0
   11.5892   14.7905   21.9554 C   0  0  0  0  0  0  0  0  0  0  0  0
    8.5306   15.2236   25.9896 N   0  0  0  0  0  0  0  0  0  0  0  0
    6.8935   10.8116   25.2626 N   0  0  0  0  0  0  0  0  0  0  0  0
    7.9269   10.7978   24.4056 N   0  0  0  0  0  0  0  0  0  0  0  0
    9.7375   12.0839   23.4905 N   0  0  0  0  0  0  0  0  0  0  0  0
   10.5952   14.1003   24.3382 O   0  0  0  0  0  0  0  0  0  0  0  0
   10.8842   13.5578   22.1447 O   0  0  0  0  0  0  0  0  0  0  0  0
    6.2272   12.3195   26.5318 H   0  0  0  0  0  0  0  0  0  0  0  0
   10.2872    9.3598   24.0546 H   0  0  0  0  0  0  0  0  0  0  0  0
    9.8282    8.8063   22.4446 H   0  0  0  0  0  0  0  0  0  0  0  0
    7.5383    9.6822   22.7265 H   0  0  0  0  0  0  0  0  0  0  0  0
    7.9449    8.7360   24.1836 H   0  0  0  0  0  0  0  0  0  0  0  0
   11.1820   10.9260   22.4531 H   0  0  0  0  0  0  0  0  0  0  0  0
    9.6203   11.1288   21.6451 H   0  0  0  0  0  0  0  0  0  0  0  0
   12.5065   14.7521   23.9261 H   0  0  0  0  0  0  0  0  0  0  0  0
   13.4762   13.9545   22.6670 H   0  0  0  0  0  0  0  0  0  0  0  0
   13.3811   15.7266   22.7577 H   0  0  0  0  0  0  0  0  0  0  0  0
   11.1452   14.8497   19.8284 H   0  0  0  0  0  0  0  0  0  0  0  0
   12.6164   13.9776   20.2206 H   0  0  0  0  0  0  0  0  0  0  0  0
   12.6067   15.7541   20.2818 H   0  0  0  0  0  0  0  0  0  0  0  0
    9.7716   15.9406   21.6321 H   0  0  0  0  0  0  0  0  0  0  0  0
   10.3001   15.8951   23.3280 H   0  0  0  0  0  0  0  0  0  0  0  0
   11.1441   16.9108   22.1371 H   0  0  0  0  0  0  0  0  0  0  0  0
  1  3  1  0  0  0  0
  1 13  3  0  0  0  0
  2  3  1  0  0  0  0
  2 14  2  0  0  0  0
  3  4  2  0  0  0  0
  4 15  1  0  0  0  0
  4 16  1  0  0  0  0
  5 16  1  0  0  0  0
  5 17  2  0  0  0  0
  5 18  1  0  0  0  0
  6  7  1  0  0  0  0
  6  8  1  0  0  0  0
  7 15  1  0  0  0  0
  8 16  1  0  0  0  0
  9 12  1  0  0  0  0
 10 12  1  0  0  0  0
 11 12  1  0  0  0  0
 12 18  1  0  0  0  0
 14 15  1  0  0  0  0
  2 19  1  0  0  0  0
  6 20  1  0  0  0  0
  6 21  1  0  0  0  0
  7 22  1  0  0  0  0
  7 23  1  0  0  0  0
  8 24  1  0  0  0  0
  8 25  1  0  0  0  0
  9 26  1  0  0  0  0
  9 27  1  0  0  0  0
  9 28  1  0  0  0  0
 10 29  1  0  0  0  0
 10 30  1  0  0  0  0
 10 31  1  0  0  0  0
 11 32  1  0  0  0  0
 11 33  1  0  0  0  0
 11 34  1  0  0  0  0
M  END
> <id>
EN300-28278266

> <smiles>
CC(C)(C)OC(=O)N1CCCN2N=CC(C#N)=C12

> <IUPAC Name>
tert-butyl 3-cyano-4H,5H,6H,7H-pyrazolo[1,5-a]pyrimidine-4-carboxylate

> <CAS>
2680817-42-7

> <URL>
https://www.enaminestore.com/catalog/EN300-28278266

> <ROCS_ShapeQuery>
A71EV2A-x0451_0A_A71EV2A-x0310_0A_A71EV2A-x0416_0A_peptide

> <ROCS_TanimotoCombo>
0.481 

> <ROCS_ShapeTanimoto>
0.327 

> <ROCS_ColorTanimoto>
0.154 

> <ROCS_RefTversky>
0.287 

> <ROCS_RefColorTversky>
0.166 

> <ROCS_RefTverskyCombo>
0.453 

> <ROCS_FitTversky>
1.741 

> <ROCS_FitColorTversky>
0.690 

> <ROCS_FitTverskyCombo>
2.430 

> <ROCS_ColorScore>
-5.039

> <ROCS_Overlap>
1992.179

> <ROCS_Rank>
335                 

$$$$
untitled-dbase-9573_76
  -OEChem-11132313473D

 40 41  0     0  0  0  0  0  0999 V2000
    6.3225   11.2186   26.7173 C   0  0  0  0  0  0  0  0  0  0  0  0
    6.9939   10.2549   25.9683 C   0  0  0  0  0  0  0  0  0  0  0  0
    7.0263   12.9240   25.1542 C   0  0  0  0  0  0  0  0  0  0  0  0
    7.7079   11.9675   24.3890 C   0  0  0  0  0  0  0  0  0  0  0  0
    6.3425   12.5522   26.3137 C   0  0  0  0  0  0  0  0  0  0  0  0
    7.6992   10.6321   24.8229 C   0  0  0  0  0  0  0  0  0  0  0  0
   10.8096   12.9950   23.5103 C   0  0  0  0  0  0  0  0  0  0  0  0
    8.3977   12.3759   23.1130 C   0  0  0  0  0  0  0  0  0  0  0  0
   10.1936   10.6620   22.9292 C   0  0  0  0  0  0  0  0  0  0  0  0
    9.7433    9.7932   24.0982 C   0  0  0  0  0  0  0  0  0  0  0  0
    5.6225   13.5833   27.1157 C   0  0  0  0  0  0  0  0  0  0  0  0
   12.6718   15.0848   22.9138 C   0  0  0  0  0  0  0  0  0  0  0  0
   13.8199   13.3930   21.4546 C   0  0  0  0  0  0  0  0  0  0  0  0
   11.4627   14.0923   20.9421 C   0  0  0  0  0  0  0  0  0  0  0  0
   12.4856   13.8392   22.0486 C   0  0  0  0  0  0  0  0  0  0  0  0
    9.8294   12.0632   23.1460 N   0  0  0  0  0  0  0  0  0  0  0  0
   10.6284   13.9188   24.3014 O   0  0  0  0  0  0  0  0  0  0  0  0
    8.3191    9.6332   24.1149 O   0  0  0  0  0  0  0  0  0  0  0  0
   12.0056   12.7754   22.8786 O   0  0  0  0  0  0  0  0  0  0  0  0
    5.7841   10.9209   27.6131 H   0  0  0  0  0  0  0  0  0  0  0  0
    6.9723    9.2156   26.2846 H   0  0  0  0  0  0  0  0  0  0  0  0
    7.0207   13.9661   24.8413 H   0  0  0  0  0  0  0  0  0  0  0  0
    7.9420   11.8554   22.2617 H   0  0  0  0  0  0  0  0  0  0  0  0
    8.2582   13.4460   22.9263 H   0  0  0  0  0  0  0  0  0  0  0  0
   11.2785   10.5773   22.8113 H   0  0  0  0  0  0  0  0  0  0  0  0
    9.7234   10.3364   21.9946 H   0  0  0  0  0  0  0  0  0  0  0  0
   10.1609    8.7887   23.9653 H   0  0  0  0  0  0  0  0  0  0  0  0
   10.1252   10.1625   25.0599 H   0  0  0  0  0  0  0  0  0  0  0  0
    6.2863   14.0038   27.8809 H   0  0  0  0  0  0  0  0  0  0  0  0
    5.2616   14.4020   26.4799 H   0  0  0  0  0  0  0  0  0  0  0  0
    4.7425   13.1568   27.6145 H   0  0  0  0  0  0  0  0  0  0  0  0
   11.7163   15.4082   23.3420 H   0  0  0  0  0  0  0  0  0  0  0  0
   13.3768   14.9058   23.7322 H   0  0  0  0  0  0  0  0  0  0  0  0
   13.0424   15.9248   22.3152 H   0  0  0  0  0  0  0  0  0  0  0  0
   13.6910   12.4995   20.8331 H   0  0  0  0  0  0  0  0  0  0  0  0
   14.5272   13.1192   22.2458 H   0  0  0  0  0  0  0  0  0  0  0  0
   14.2724   14.1793   20.8418 H   0  0  0  0  0  0  0  0  0  0  0  0
   11.3289   13.1990   20.3214 H   0  0  0  0  0  0  0  0  0  0  0  0
   10.4882   14.3778   21.3513 H   0  0  0  0  0  0  0  0  0  0  0  0
   11.8046   14.8876   20.2699 H   0  0  0  0  0  0  0  0  0  0  0  0
  1  2  1  0  0  0  0
  1  5  2  0  0  0  0
  2  6  2  0  0  0  0
  3  4  2  0  0  0  0
  3  5  1  0  0  0  0
  4  6  1  0  0  0  0
  4  8  1  0  0  0  0
  5 11  1  0  0  0  0
  6 18  1  0  0  0  0
  7 16  1  0  0  0  0
  7 17  2  0  0  0  0
  7 19  1  0  0  0  0
  8 16  1  0  0  0  0
  9 10  1  0  0  0  0
  9 16  1  0  0  0  0
 10 18  1  0  0  0  0
 12 15  1  0  0  0  0
 13 15  1  0  0  0  0
 14 15  1  0  0  0  0
 15 19  1  0  0  0  0
  1 20  1  0  0  0  0
  2 21  1  0  0  0  0
  3 22  1  0  0  0  0
  8 23  1  0  0  0  0
  8 24  1  0  0  0  0
  9 25  1  0  0  0  0
  9 26  1  0  0  0  0
 10 27  1  0  0  0  0
 10 28  1  0  0  0  0
 11 29  1  0  0  0  0
 11 30  1  0  0  0  0
 11 31  1  0  0  0  0
 12 32  1  0  0  0  0
 12 33  1  0  0  0  0
 12 34  1  0  0  0  0
 13 35  1  0  0  0  0
 13 36  1  0  0  0  0
 13 37  1  0  0  0  0
 14 38  1  0  0  0  0
 14 39  1  0  0  0  0
 14 40  1  0  0  0  0
M  END
> <id>
EN300-336168

> <smiles>
CC=1C=CC=2OCCN(CC2C1)C(=O)OC(C)(C)C

> <MDLNUMBER>
MFCD30498191

> <IUPAC Name>
tert-butyl 7-methyl-2,3,4,5-tetrahydro-1,4-benzoxazepine-4-carboxylate

> <CAS>
2060030-23-9

> <URL>
https://www.enaminestore.com/catalog/EN300-336168

> <ROCS_ShapeQuery>
A71EV2A-x0451_0A_A71EV2A-x0310_0A_A71EV2A-x0416_0A_peptide

> <ROCS_TanimotoCombo>
0.481 

> <ROCS_ShapeTanimoto>
0.325 

> <ROCS_ColorTanimoto>
0.156 

> <ROCS_RefTversky>
0.287 

> <ROCS_RefColorTversky>
0.163 

> <ROCS_RefTverskyCombo>
0.450 

> <ROCS_FitTversky>
1.706 

> <ROCS_FitColorTversky>
0.781 

> <ROCS_FitTverskyCombo>
2.486 

> <ROCS_ColorScore>
-4.947

> <ROCS_Overlap>
1990.322

> <ROCS_Rank>
336                 

$$$$
untitled-dbase-45765_17
  -OEChem-11132313473D

 38 39  0     0  0  0  0  0  0999 V2000
    7.9836   13.3299   25.1508 C   0  0  0  0  0  0  0  0  0  0  0  0
    7.0167   13.2018   26.1514 C   0  0  0  0  0  0  0  0  0  0  0  0
    6.9728   10.8222   25.8048 C   0  0  0  0  0  0  0  0  0  0  0  0
    7.9523   10.9411   24.8048 C   0  0  0  0  0  0  0  0  0  0  0  0
    8.4696   12.2088   24.4522 C   0  0  0  0  0  0  0  0  0  0  0  0
    6.5087   11.9503   26.4749 C   0  0  0  0  0  0  0  0  0  0  0  0
    8.4564    9.6606   24.2340 C   0  0  0  0  0  0  0  0  0  0  0  0
   10.4011   13.3943   23.4204 C   0  0  0  0  0  0  0  0  0  0  0  0
    9.9056    9.6001   23.8153 C   0  0  0  0  0  0  0  0  0  0  0  0
   10.0954   10.1940   22.4302 C   0  0  0  0  0  0  0  0  0  0  0  0
    9.3002   11.4791   22.2255 C   0  0  0  0  0  0  0  0  0  0  0  0
   11.8055   15.6879   22.4288 C   0  0  0  0  0  0  0  0  0  0  0  0
   12.2782   14.2901   20.3961 C   0  0  0  0  0  0  0  0  0  0  0  0
    9.9073   14.8588   20.9991 C   0  0  0  0  0  0  0  0  0  0  0  0
   11.3021   14.5504   21.5414 C   0  0  0  0  0  0  0  0  0  0  0  0
    9.4070   12.3960   23.3716 N   0  0  0  0  0  0  0  0  0  0  0  0
    7.7088    8.6937   24.1209 O   0  0  0  0  0  0  0  0  0  0  0  0
   10.5608   14.1990   24.3360 O   0  0  0  0  0  0  0  0  0  0  0  0
   11.2316   13.3555   22.3282 O   0  0  0  0  0  0  0  0  0  0  0  0
    5.3042   11.7969   27.6937 Cl  0  0  0  0  0  0  0  0  0  0  0  0
    8.3855   14.3244   24.9757 H   0  0  0  0  0  0  0  0  0  0  0  0
    6.6837   14.0920   26.6798 H   0  0  0  0  0  0  0  0  0  0  0  0
    6.5497    9.8485   26.0453 H   0  0  0  0  0  0  0  0  0  0  0  0
   10.5111   10.1410   24.5516 H   0  0  0  0  0  0  0  0  0  0  0  0
   10.2477    8.5588   23.8524 H   0  0  0  0  0  0  0  0  0  0  0  0
   11.1574   10.4139   22.2661 H   0  0  0  0  0  0  0  0  0  0  0  0
    9.8090    9.4491   21.6784 H   0  0  0  0  0  0  0  0  0  0  0  0
    9.6303   12.0062   21.3207 H   0  0  0  0  0  0  0  0  0  0  0  0
    8.2508   11.2250   22.0402 H   0  0  0  0  0  0  0  0  0  0  0  0
   11.1076   15.8778   23.2522 H   0  0  0  0  0  0  0  0  0  0  0  0
   12.7900   15.4638   22.8522 H   0  0  0  0  0  0  0  0  0  0  0  0
   11.8771   16.6234   21.8623 H   0  0  0  0  0  0  0  0  0  0  0  0
   11.9210   13.4747   19.7568 H   0  0  0  0  0  0  0  0  0  0  0  0
   13.2555   13.9759   20.7799 H   0  0  0  0  0  0  0  0  0  0  0  0
   12.4195   15.1808   19.7754 H   0  0  0  0  0  0  0  0  0  0  0  0
    9.5460   14.0431   20.3625 H   0  0  0  0  0  0  0  0  0  0  0  0
    9.1851   15.0121   21.8075 H   0  0  0  0  0  0  0  0  0  0  0  0
    9.9232   15.7571   20.3713 H   0  0  0  0  0  0  0  0  0  0  0  0
  1  2  1  0  0  0  0
  1  5  2  0  0  0  0
  2  6  2  0  0  0  0
  3  4  2  0  0  0  0
  3  6  1  0  0  0  0
  4  5  1  0  0  0  0
  4  7  1  0  0  0  0
  5 16  1  0  0  0  0
  6 20  1  0  0  0  0
  7  9  1  0  0  0  0
  7 17  2  0  0  0  0
  8 16  1  0  0  0  0
  8 18  2  0  0  0  0
  8 19  1  0  0  0  0
  9 10  1  0  0  0  0
 10 11  1  0  0  0  0
 11 16  1  0  0  0  0
 12 15  1  0  0  0  0
 13 15  1  0  0  0  0
 14 15  1  0  0  0  0
 15 19  1  0  0  0  0
  1 21  1  0  0  0  0
  2 22  1  0  0  0  0
  3 23  1  0  0  0  0
  9 24  1  0  0  0  0
  9 25  1  0  0  0  0
 10 26  1  0  0  0  0
 10 27  1  0  0  0  0
 11 28  1  0  0  0  0
 11 29  1  0  0  0  0
 12 30  1  0  0  0  0
 12 31  1  0  0  0  0
 12 32  1  0  0  0  0
 13 33  1  0  0  0  0
 13 34  1  0  0  0  0
 13 35  1  0  0  0  0
 14 36  1  0  0  0  0
 14 37  1  0  0  0  0
 14 38  1  0  0  0  0
M  END
> <id>
EN300-26271227

> <smiles>
CC(C)(C)OC(=O)N1CCCC(=O)C=2C=C(Cl)C=CC12

> <MDLNUMBER>
MFCD31543602

> <IUPAC Name>
tert-butyl 7-chloro-5-oxo-2,3,4,5-tetrahydro-1H-1-benzazepine-1-carboxylate

> <CAS>
2383664-97-7

> <URL>
https://www.enaminestore.com/catalog/EN300-26271227

> <ROCS_ShapeQuery>
A71EV2A-x0451_0A_A71EV2A-x0310_0A_A71EV2A-x0416_0A_peptide

> <ROCS_TanimotoCombo>
0.481 

> <ROCS_ShapeTanimoto>
0.356 

> <ROCS_ColorTanimoto>
0.125 

> <ROCS_RefTversky>
0.308 

> <ROCS_RefColorTversky>
0.135 

> <ROCS_RefTverskyCombo>
0.443 

> <ROCS_FitTversky>
1.775 

> <ROCS_FitColorTversky>
0.645 

> <ROCS_FitTverskyCombo>
2.421 

> <ROCS_ColorScore>
-4.088

> <ROCS_Overlap>
2137.726

> <ROCS_Rank>
337                 

$$$$
untitled-dbase-34316_54
  -OEChem-11132313473D

 38 39  0     0  0  0  0  0  0999 V2000
    9.4003    8.7206   22.9902 C   0  0  0  0  0  0  0  0  0  0  0  0
    8.0147   12.1597   24.8795 C   0  0  0  0  0  0  0  0  0  0  0  0
    8.9526    9.9255   23.6280 C   0  0  0  0  0  0  0  0  0  0  0  0
    9.2174   12.2595   24.1857 C   0  0  0  0  0  0  0  0  0  0  0  0
    9.6998   11.1034   23.5591 C   0  0  0  0  0  0  0  0  0  0  0  0
    7.7655    9.9418   24.3420 C   0  0  0  0  0  0  0  0  0  0  0  0
   11.6678   14.6876   22.6639 C   0  0  0  0  0  0  0  0  0  0  0  0
   10.9825   11.1400   22.7727 C   0  0  0  0  0  0  0  0  0  0  0  0
    9.9625   13.5643   24.1400 C   0  0  0  0  0  0  0  0  0  0  0  0
   11.8899   12.2812   23.2200 C   0  0  0  0  0  0  0  0  0  0  0  0
   12.9281   16.6885   21.0520 C   0  0  0  0  0  0  0  0  0  0  0  0
   12.9872   14.9378   19.2517 C   0  0  0  0  0  0  0  0  0  0  0  0
   10.7809   15.7375   20.1466 C   0  0  0  0  0  0  0  0  0  0  0  0
   12.2425   15.4466   20.4841 C   0  0  0  0  0  0  0  0  0  0  0  0
    9.7624    7.7461   22.4745 N   0  0  0  0  0  0  0  0  0  0  0  0
    7.2777   11.0304   24.9741 N   0  0  0  0  0  0  0  0  0  0  0  0
   11.1521   13.5413   23.2792 N   0  0  0  0  0  0  0  0  0  0  0  0
    7.0027    8.7492   24.4277 N   0  0  0  0  0  0  0  0  0  0  0  0
   11.5798   15.8235   23.1263 O   0  0  0  0  0  0  0  0  0  0  0  0
   12.2849   14.4106   21.4721 O   0  0  0  0  0  0  0  0  0  0  0  0
    7.5971   13.0166   25.3998 H   0  0  0  0  0  0  0  0  0  0  0  0
   11.5022   10.1824   22.9007 H   0  0  0  0  0  0  0  0  0  0  0  0
   10.7844   11.2780   21.7036 H   0  0  0  0  0  0  0  0  0  0  0  0
    9.3033   14.3446   23.7411 H   0  0  0  0  0  0  0  0  0  0  0  0
   10.2537   13.8483   25.1569 H   0  0  0  0  0  0  0  0  0  0  0  0
   12.3387   12.0437   24.1899 H   0  0  0  0  0  0  0  0  0  0  0  0
   12.7113   12.4254   22.5068 H   0  0  0  0  0  0  0  0  0  0  0  0
   12.3966   17.0568   21.9367 H   0  0  0  0  0  0  0  0  0  0  0  0
   13.9670   16.4838   21.3306 H   0  0  0  0  0  0  0  0  0  0  0  0
   12.9201   17.5072   20.3234 H   0  0  0  0  0  0  0  0  0  0  0  0
   12.4988   14.0468   18.8410 H   0  0  0  0  0  0  0  0  0  0  0  0
   14.0095   14.6381   19.5095 H   0  0  0  0  0  0  0  0  0  0  0  0
   13.0367   15.6991   18.4666 H   0  0  0  0  0  0  0  0  0  0  0  0
   10.2889   14.8469   19.7392 H   0  0  0  0  0  0  0  0  0  0  0  0
   10.2217   16.0686   21.0277 H   0  0  0  0  0  0  0  0  0  0  0  0
   10.7059   16.5123   19.3750 H   0  0  0  0  0  0  0  0  0  0  0  0
    7.3154    7.9428   23.9334 H   0  0  0  0  0  0  0  0  0  0  0  0
    6.1265    8.7730   24.9010 H   0  0  0  0  0  0  0  0  0  0  0  0
  1  3  1  0  0  0  0
  1 15  3  0  0  0  0
  2  4  2  0  0  0  0
  2 16  1  0  0  0  0
  3  5  2  0  0  0  0
  3  6  1  0  0  0  0
  4  5  1  0  0  0  0
  4  9  1  0  0  0  0
  5  8  1  0  0  0  0
  6 16  2  0  0  0  0
  6 18  1  0  0  0  0
  7 17  1  0  0  0  0
  7 19  2  0  0  0  0
  7 20  1  0  0  0  0
  8 10  1  0  0  0  0
  9 17  1  0  0  0  0
 10 17  1  0  0  0  0
 11 14  1  0  0  0  0
 12 14  1  0  0  0  0
 13 14  1  0  0  0  0
 14 20  1  0  0  0  0
  2 21  1  0  0  0  0
  8 22  1  0  0  0  0
  8 23  1  0  0  0  0
  9 24  1  0  0  0  0
  9 25  1  0  0  0  0
 10 26  1  0  0  0  0
 10 27  1  0  0  0  0
 11 28  1  0  0  0  0
 11 29  1  0  0  0  0
 11 30  1  0  0  0  0
 12 31  1  0  0  0  0
 12 32  1  0  0  0  0
 12 33  1  0  0  0  0
 13 34  1  0  0  0  0
 13 35  1  0  0  0  0
 13 36  1  0  0  0  0
 18 37  1  0  0  0  0
 18 38  1  0  0  0  0
M  END
> <id>
EN300-726419

> <smiles>
CC(C)(C)OC(=O)N1CCC=2C(C#N)=C(N)N=CC2C1

> <MDLNUMBER>
MFCD31443776

> <IUPAC Name>
tert-butyl 6-amino-5-cyano-1,2,3,4-tetrahydro-2,7-naphthyridine-2-carboxylate

> <CAS>
2138423-88-6

> <Purity>
95

> <URL>
https://www.enaminestore.com/catalog/EN300-726419

> <ROCS_ShapeQuery>
A71EV2A-x0451_0A_A71EV2A-x0310_0A_A71EV2A-x0416_0A_peptide

> <ROCS_TanimotoCombo>
0.481 

> <ROCS_ShapeTanimoto>
0.350 

> <ROCS_ColorTanimoto>
0.132 

> <ROCS_RefTversky>
0.304 

> <ROCS_RefColorTversky>
0.151 

> <ROCS_RefTverskyCombo>
0.456 

> <ROCS_FitTversky>
1.739 

> <ROCS_FitColorTversky>
0.502 

> <ROCS_FitTverskyCombo>
2.241 

> <ROCS_ColorScore>
-4.618

> <ROCS_Overlap>
2112.255

> <ROCS_Rank>
338                 

$$$$
untitled-dbase-30258_9
  -OEChem-11132313473D

 34 35  0     0  0  0  0  0  0999 V2000
    6.3876   11.3999   25.8965 C   0  0  0  0  0  0  0  0  0  0  0  0
    6.9979   10.2994   25.3125 C   0  0  0  0  0  0  0  0  0  0  0  0
    6.9869   12.6279   25.7180 C   0  0  0  0  0  0  0  0  0  0  0  0
    8.1823   10.4437   24.5777 C   0  0  0  0  0  0  0  0  0  0  0  0
    8.7024   11.7369   24.4211 C   0  0  0  0  0  0  0  0  0  0  0  0
   10.4371   13.2015   23.4227 C   0  0  0  0  0  0  0  0  0  0  0  0
   10.1528    9.4420   23.5809 C   0  0  0  0  0  0  0  0  0  0  0  0
   10.3673   10.7576   22.8540 C   0  0  0  0  0  0  0  0  0  0  0  0
   12.6988   14.8596   22.8309 C   0  0  0  0  0  0  0  0  0  0  0  0
   12.0075   14.6278   20.4272 C   0  0  0  0  0  0  0  0  0  0  0  0
   10.4651   15.7357   22.0710 C   0  0  0  0  0  0  0  0  0  0  0  0
   11.5244   14.6519   21.8758 C   0  0  0  0  0  0  0  0  0  0  0  0
    8.1158   12.8168   25.0011 N   0  0  0  0  0  0  0  0  0  0  0  0
    8.7836    9.3280   24.0175 N   0  0  0  0  0  0  0  0  0  0  0  0
    9.8708   11.9247   23.5992 N   0  0  0  0  0  0  0  0  0  0  0  0
   10.4978   14.0820   24.2784 O   0  0  0  0  0  0  0  0  0  0  0  0
   10.9304   13.3783   22.1538 O   0  0  0  0  0  0  0  0  0  0  0  0
    5.4717   11.2967   26.4663 H   0  0  0  0  0  0  0  0  0  0  0  0
    6.5355    9.3206   25.4210 H   0  0  0  0  0  0  0  0  0  0  0  0
    6.5680   13.5235   26.1640 H   0  0  0  0  0  0  0  0  0  0  0  0
   10.3983    8.6019   22.9198 H   0  0  0  0  0  0  0  0  0  0  0  0
   10.8202    9.3781   24.4469 H   0  0  0  0  0  0  0  0  0  0  0  0
   11.4355   10.9287   22.6681 H   0  0  0  0  0  0  0  0  0  0  0  0
    9.8778   10.7018   21.8756 H   0  0  0  0  0  0  0  0  0  0  0  0
   12.3562   14.8774   23.8717 H   0  0  0  0  0  0  0  0  0  0  0  0
   13.4492   14.0693   22.7254 H   0  0  0  0  0  0  0  0  0  0  0  0
   13.1849   15.8249   22.6489 H   0  0  0  0  0  0  0  0  0  0  0  0
   11.1681   14.4790   19.7384 H   0  0  0  0  0  0  0  0  0  0  0  0
   12.6964   13.7921   20.2594 H   0  0  0  0  0  0  0  0  0  0  0  0
   12.5179   15.5577   20.1561 H   0  0  0  0  0  0  0  0  0  0  0  0
    9.6226   15.5869   21.3859 H   0  0  0  0  0  0  0  0  0  0  0  0
   10.0800   15.7433   23.0958 H   0  0  0  0  0  0  0  0  0  0  0  0
   10.8755   16.7267   21.8457 H   0  0  0  0  0  0  0  0  0  0  0  0
    8.2046    8.5830   23.6501 H   0  0  0  0  0  0  0  0  0  0  0  0
  1  2  1  0  0  0  0
  1  3  2  0  0  0  0
  2  4  2  0  0  0  0
  3 13  1  0  0  0  0
  4  5  1  0  0  0  0
  4 14  1  0  0  0  0
  5 13  2  0  0  0  0
  5 15  1  0  0  0  0
  6 15  1  0  0  0  0
  6 16  2  0  0  0  0
  6 17  1  0  0  0  0
  7  8  1  0  0  0  0
  7 14  1  0  0  0  0
  8 15  1  0  0  0  0
  9 12  1  0  0  0  0
 10 12  1  0  0  0  0
 11 12  1  0  0  0  0
 12 17  1  0  0  0  0
  1 18  1  0  0  0  0
  2 19  1  0  0  0  0
  3 20  1  0  0  0  0
  7 21  1  0  0  0  0
  7 22  1  0  0  0  0
  8 23  1  0  0  0  0
  8 24  1  0  0  0  0
  9 25  1  0  0  0  0
  9 26  1  0  0  0  0
  9 27  1  0  0  0  0
 10 28  1  0  0  0  0
 10 29  1  0  0  0  0
 10 30  1  0  0  0  0
 11 31  1  0  0  0  0
 11 32  1  0  0  0  0
 11 33  1  0  0  0  0
 14 34  1  0  0  0  0
M  END
> <id>
EN300-6766538

> <smiles>
CC(C)(C)OC(=O)N1CCNC=2C=CC=NC12

> <MDLNUMBER>
MFCD29760858

> <IUPAC Name>
tert-butyl 1H,2H,3H,4H-pyrido[2,3-b]pyrazine-4-carboxylate

> <CAS>
1936595-13-9

> <Purity>
95

> <URL>
https://www.enaminestore.com/catalog/EN300-6766538

> <ROCS_ShapeQuery>
A71EV2A-x0451_0A_A71EV2A-x0310_0A_A71EV2A-x0416_0A_peptide

> <ROCS_TanimotoCombo>
0.481 

> <ROCS_ShapeTanimoto>
0.338 

> <ROCS_ColorTanimoto>
0.143 

> <ROCS_RefTversky>
0.293 

> <ROCS_RefColorTversky>
0.155 

> <ROCS_RefTverskyCombo>
0.447 

> <ROCS_FitTversky>
1.854 

> <ROCS_FitColorTversky>
0.645 

> <ROCS_FitTverskyCombo>
2.500 

> <ROCS_ColorScore>
-4.707

> <ROCS_Overlap>
2030.145

> <ROCS_Rank>
339                 

$$$$
untitled-dbase-12223_12
  -OEChem-11132313473D

 39 40  0     1  0  0  0  0  0999 V2000
   10.4995   13.2127   23.4141 C   0  0  0  0  0  0  0  0  0  0  0  0
    6.8100   10.3932   25.2099 C   0  0  0  0  0  0  0  0  0  0  0  0
    8.5308   10.0439   23.3572 C   0  0  0  0  0  0  0  0  0  0  0  0
    6.3653   11.5524   26.0974 C   0  0  0  0  0  0  0  0  0  0  0  0
    9.7461   10.8320   22.8978 C   0  0  0  0  0  0  0  0  0  0  0  0
    7.4477   12.9530   24.3809 C   0  0  0  0  0  0  0  0  0  0  0  0
    8.2595   10.5876   24.7622 C   0  0  1  0  0  0  0  0  0  0  0  0
    8.6641   12.0671   24.6691 C   0  0  1  0  0  0  0  0  0  0  0  0
   12.3520   14.2127   20.2994 C   0  0  0  0  0  0  0  0  0  0  0  0
   11.1491   15.7452   21.8783 C   0  0  0  0  0  0  0  0  0  0  0  0
   13.1201   14.4154   22.6751 C   0  0  0  0  0  0  0  0  0  0  0  0
   11.8979   14.4146   21.7497 C   0  0  0  0  0  0  0  0  0  0  0  0
    6.4079   12.8455   25.4091 N   0  0  0  0  0  0  0  0  0  0  0  0
    9.6651   12.1089   23.6027 N   0  0  0  0  0  0  0  0  0  0  0  0
   11.0133   13.3365   22.1276 N   0  0  0  0  0  0  0  0  0  0  0  0
   10.7641   14.0131   24.3154 O   0  0  0  0  0  0  0  0  0  0  0  0
    6.7487    9.4736   25.7839 H   0  0  0  0  0  0  0  0  0  0  0  0
    6.1563   10.3043   24.3517 H   0  0  0  0  0  0  0  0  0  0  0  0
    7.6820   10.2283   22.6834 H   0  0  0  0  0  0  0  0  0  0  0  0
    8.7197    8.9622   23.3650 H   0  0  0  0  0  0  0  0  0  0  0  0
    5.3534   11.3686   26.5005 H   0  0  0  0  0  0  0  0  0  0  0  0
    7.0302   11.6021   26.9764 H   0  0  0  0  0  0  0  0  0  0  0  0
   10.6801   10.3407   23.1959 H   0  0  0  0  0  0  0  0  0  0  0  0
    9.7559   10.9902   21.8141 H   0  0  0  0  0  0  0  0  0  0  0  0
    7.7676   14.0051   24.3224 H   0  0  0  0  0  0  0  0  0  0  0  0
    7.0068   12.7194   23.3967 H   0  0  0  0  0  0  0  0  0  0  0  0
    8.9097   10.0673   25.4629 H   0  0  0  0  0  0  0  0  0  0  0  0
    9.1221   12.3874   25.6241 H   0  0  0  0  0  0  0  0  0  0  0  0
   12.8913   13.2656   20.1813 H   0  0  0  0  0  0  0  0  0  0  0  0
   11.4988   14.2019   19.6122 H   0  0  0  0  0  0  0  0  0  0  0  0
   13.0305   15.0134   19.9829 H   0  0  0  0  0  0  0  0  0  0  0  0
   10.8138   15.9122   22.9086 H   0  0  0  0  0  0  0  0  0  0  0  0
   10.2571   15.7601   21.2412 H   0  0  0  0  0  0  0  0  0  0  0  0
   11.7841   16.5900   21.5893 H   0  0  0  0  0  0  0  0  0  0  0  0
   12.8238   14.5583   23.7207 H   0  0  0  0  0  0  0  0  0  0  0  0
   13.6728   13.4718   22.6068 H   0  0  0  0  0  0  0  0  0  0  0  0
   13.8096   15.2285   22.4198 H   0  0  0  0  0  0  0  0  0  0  0  0
    5.4875   13.0156   24.9669 H   0  0  0  0  0  0  0  0  0  0  0  0
   10.8166   12.6275   21.4316 H   0  0  0  0  0  0  0  0  0  0  0  0
  1 14  1  0  0  0  0
  1 15  1  0  0  0  0
  1 16  2  0  0  0  0
  2  4  1  0  0  0  0
  2  7  1  0  0  0  0
  3  5  1  0  0  0  0
  3  7  1  6  0  0  0
  4 13  1  0  0  0  0
  5 14  1  0  0  0  0
  6  8  1  6  0  0  0
  6 13  1  0  0  0  0
  7  8  1  0  0  0  0
  8 14  1  0  0  0  0
  9 12  1  0  0  0  0
 10 12  1  0  0  0  0
 11 12  1  0  0  0  0
 12 15  1  0  0  0  0
  2 17  1  0  0  0  0
  2 18  1  0  0  0  0
  3 19  1  0  0  0  0
  3 20  1  0  0  0  0
  4 21  1  0  0  0  0
  4 22  1  0  0  0  0
  5 23  1  0  0  0  0
  5 24  1  0  0  0  0
  6 25  1  0  0  0  0
  6 26  1  0  0  0  0
  7 27  1  0  0  0  0
  8 28  1  0  0  0  0
  9 29  1  0  0  0  0
  9 30  1  0  0  0  0
  9 31  1  0  0  0  0
 10 32  1  0  0  0  0
 10 33  1  0  0  0  0
 10 34  1  0  0  0  0
 11 35  1  0  0  0  0
 11 36  1  0  0  0  0
 11 37  1  0  0  0  0
 13 38  1  0  0  0  0
 15 39  1  0  0  0  0
M  END
> <id>
EN300-714578

> <smiles>
CC(C)(C)NC(=O)N1CC[C@@H]2CCNC[C@@H]21 |&1:10,15,r|

> <IUPAC Name>
rac-(3aR,7aS)-N-tert-butyl-octahydro-1H-pyrrolo[2,3-c]pyridine-1-carboxamide

> <CAS>
2138150-74-8

> <URL>
https://www.enaminestore.com/catalog/EN300-714578

> <ROCS_ShapeQuery>
A71EV2A-x0451_0A_A71EV2A-x0310_0A_A71EV2A-x0416_0A_peptide

> <ROCS_TanimotoCombo>
0.481 

> <ROCS_ShapeTanimoto>
0.299 

> <ROCS_ColorTanimoto>
0.182 

> <ROCS_RefTversky>
0.264 

> <ROCS_RefColorTversky>
0.196 

> <ROCS_RefTverskyCombo>
0.460 

> <ROCS_FitTversky>
1.792 

> <ROCS_FitColorTversky>
0.721 

> <ROCS_FitTverskyCombo>
2.513 

> <ROCS_ColorScore>
-5.958

> <ROCS_Overlap>
1831.341

> <ROCS_Rank>
340                 

$$$$
untitled-dbase-43704_464
  -OEChem-11132313473D

 48 49  0     1  0  0  0  0  0999 V2000
   10.4620   13.1123   23.6172 C   0  0  0  0  0  0  0  0  0  0  0  0
    6.3268   11.6345   25.6969 C   0  0  0  0  0  0  0  0  0  0  0  0
    6.8544   13.4483   24.0715 C   0  0  0  0  0  0  0  0  0  0  0  0
    7.2265   11.0745   23.3734 C   0  0  0  0  0  0  0  0  0  0  0  0
   10.3454   10.6656   23.9599 C   0  0  0  0  0  0  0  0  0  0  0  0
    8.7569   12.1281   25.2017 C   0  0  0  0  0  0  0  0  0  0  0  0
    6.1234   12.7281   26.7428 C   0  0  0  0  0  0  0  0  0  0  0  0
    6.5922   14.4515   25.1906 C   0  0  0  0  0  0  0  0  0  0  0  0
    7.9976    9.7493   23.4123 C   0  0  1  0  0  0  0  0  0  0  0  0
    9.4610    9.9047   22.9790 C   0  0  2  0  0  0  0  0  0  0  0  0
    7.3293   12.0564   24.5822 C   0  0  0  0  0  0  0  0  0  0  0  0
   12.7577   14.3924   22.4827 C   0  0  0  0  0  0  0  0  0  0  0  0
   12.0519   13.3268   20.3204 C   0  0  0  0  0  0  0  0  0  0  0  0
   10.5422   14.9877   21.4475 C   0  0  0  0  0  0  0  0  0  0  0  0
   11.5751   13.8820   21.6607 C   0  0  0  0  0  0  0  0  0  0  0  0
    9.8613   12.0138   24.2437 N   0  0  0  0  0  0  0  0  0  0  0  0
   10.5388   14.2353   24.1126 O   0  0  0  0  0  0  0  0  0  0  0  0
    5.6591   13.9290   26.1321 O   0  0  0  0  0  0  0  0  0  0  0  0
    7.9031    9.1396   24.6922 O   0  0  0  0  0  0  0  0  0  0  0  0
   10.0051    8.5910   22.8178 O   0  0  0  0  0  0  0  0  0  0  0  0
   10.9528   12.8086   22.3756 O   0  0  0  0  0  0  0  0  0  0  0  0
    6.7209   10.7508   26.2124 H   0  0  0  0  0  0  0  0  0  0  0  0
    5.3592   11.3578   25.2691 H   0  0  0  0  0  0  0  0  0  0  0  0
    5.9593   13.3523   23.4470 H   0  0  0  0  0  0  0  0  0  0  0  0
    7.6433   13.8675   23.4320 H   0  0  0  0  0  0  0  0  0  0  0  0
    7.5137   11.6105   22.4428 H   0  0  0  0  0  0  0  0  0  0  0  0
    6.1524   10.8530   23.1821 H   0  0  0  0  0  0  0  0  0  0  0  0
   10.4195   10.0979   24.8932 H   0  0  0  0  0  0  0  0  0  0  0  0
   11.3635   10.7491   23.5627 H   0  0  0  0  0  0  0  0  0  0  0  0
    8.8908   13.0729   25.7449 H   0  0  0  0  0  0  0  0  0  0  0  0
    8.8758   11.3395   25.9562 H   0  0  0  0  0  0  0  0  0  0  0  0
    5.4269   12.4199   27.5306 H   0  0  0  0  0  0  0  0  0  0  0  0
    7.0796   12.9530   27.2271 H   0  0  0  0  0  0  0  0  0  0  0  0
    7.5251   14.6499   25.7277 H   0  0  0  0  0  0  0  0  0  0  0  0
    6.2322   15.4128   24.8115 H   0  0  0  0  0  0  0  0  0  0  0  0
    7.4967    9.0259   22.6933 H   0  0  0  0  0  0  0  0  0  0  0  0
    9.5088   10.3745   22.0107 H   0  0  0  0  0  0  0  0  0  0  0  0
   12.4196   14.7918   23.4456 H   0  0  0  0  0  0  0  0  0  0  0  0
   13.4890   13.6000   22.6724 H   0  0  0  0  0  0  0  0  0  0  0  0
   13.2656   15.2159   21.9676 H   0  0  0  0  0  0  0  0  0  0  0  0
   11.2066   12.9594   19.7273 H   0  0  0  0  0  0  0  0  0  0  0  0
   12.7204   12.4709   20.4681 H   0  0  0  0  0  0  0  0  0  0  0  0
   12.5829   14.0844   19.7351 H   0  0  0  0  0  0  0  0  0  0  0  0
    9.6938   14.6219   20.8579 H   0  0  0  0  0  0  0  0  0  0  0  0
   10.1614   15.3729   22.3989 H   0  0  0  0  0  0  0  0  0  0  0  0
   10.9748   15.8213   20.8825 H   0  0  0  0  0  0  0  0  0  0  0  0
    8.4102    8.3178   24.6350 H   0  0  0  0  0  0  0  0  0  0  0  0
   10.9028    8.7082   22.4728 H   0  0  0  0  0  0  0  0  0  0  0  0
  1 16  1  0  0  0  0
  1 17  2  0  0  0  0
  1 21  1  0  0  0  0
  2  7  1  0  0  0  0
  2 11  1  0  0  0  0
  3  8  1  0  0  0  0
  3 11  1  0  0  0  0
  4  9  1  0  0  0  0
  4 11  1  0  0  0  0
  5 10  1  0  0  0  0
  5 16  1  0  0  0  0
  6 11  1  0  0  0  0
  6 16  1  0  0  0  0
  7 18  1  0  0  0  0
  8 18  1  0  0  0  0
  9 10  1  0  0  0  0
  9 19  1  1  0  0  0
 10 20  1  1  0  0  0
 12 15  1  0  0  0  0
 13 15  1  0  0  0  0
 14 15  1  0  0  0  0
 15 21  1  0  0  0  0
  2 22  1  0  0  0  0
  2 23  1  0  0  0  0
  3 24  1  0  0  0  0
  3 25  1  0  0  0  0
  4 26  1  0  0  0  0
  4 27  1  0  0  0  0
  5 28  1  0  0  0  0
  5 29  1  0  0  0  0
  6 30  1  0  0  0  0
  6 31  1  0  0  0  0
  7 32  1  0  0  0  0
  7 33  1  0  0  0  0
  8 34  1  0  0  0  0
  8 35  1  0  0  0  0
  9 36  1  0  0  0  0
 10 37  1  0  0  0  0
 12 38  1  0  0  0  0
 12 39  1  0  0  0  0
 12 40  1  0  0  0  0
 13 41  1  0  0  0  0
 13 42  1  0  0  0  0
 13 43  1  0  0  0  0
 14 44  1  0  0  0  0
 14 45  1  0  0  0  0
 14 46  1  0  0  0  0
 19 47  1  0  0  0  0
 20 48  1  0  0  0  0
M  END
> <id>
EN300-28229262

> <smiles>
CC(C)(C)OC(=O)N1C[C@@H](O)[C@@H](O)CC2(CCOCC2)C1 |&1:9,11,r|

> <IUPAC Name>
rac-tert-butyl (10R,11S)-10,11-dihydroxy-3-oxa-8-azaspiro[5.6]dodecane-8-carboxylate

> <CAS>
2639374-58-4

> <URL>
https://www.enaminestore.com/catalog/EN300-28229262

> <ROCS_ShapeQuery>
A71EV2A-x0451_0A_A71EV2A-x0310_0A_A71EV2A-x0416_0A_peptide

> <ROCS_TanimotoCombo>
0.481 

> <ROCS_ShapeTanimoto>
0.339 

> <ROCS_ColorTanimoto>
0.142 

> <ROCS_RefTversky>
0.298 

> <ROCS_RefColorTversky>
0.165 

> <ROCS_RefTverskyCombo>
0.463 

> <ROCS_FitTversky>
1.684 

> <ROCS_FitColorTversky>
0.499 

> <ROCS_FitTverskyCombo>
2.182 

> <ROCS_ColorScore>
-5.056

> <ROCS_Overlap>
2068.585

> <ROCS_Rank>
341                 

$$$$
untitled-dbase-30525_153
  -OEChem-11132313473D

 41 42  0     1  0  0  0  0  0999 V2000
   10.5063   13.3279   23.4498 C   0  0  0  0  0  0  0  0  0  0  0  0
    9.7259    9.7937   22.9967 C   0  0  0  0  0  0  0  0  0  0  0  0
    8.4955    9.5461   23.8512 C   0  0  0  0  0  0  0  0  0  0  0  0
    6.2035   11.8709   23.7997 C   0  0  0  0  0  0  0  0  0  0  0  0
    9.7123   11.2113   22.4499 C   0  0  0  0  0  0  0  0  0  0  0  0
    5.9655   10.8139   24.8775 C   0  0  0  0  0  0  0  0  0  0  0  0
    8.6230   12.0590   24.5577 C   0  0  2  0  0  0  0  0  0  0  0  0
    8.3680   10.5908   24.9653 C   0  0  1  0  0  0  0  0  0  0  0  0
    7.3352   12.8164   24.1700 C   0  0  2  0  0  0  0  0  0  0  0  0
   13.1323   14.4651   23.3700 C   0  0  0  0  0  0  0  0  0  0  0  0
   12.9518   14.2429   20.8745 C   0  0  0  0  0  0  0  0  0  0  0  0
   11.3494   15.7247   22.1173 C   0  0  0  0  0  0  0  0  0  0  0  0
   12.1787   14.4427   22.1763 C   0  0  0  0  0  0  0  0  0  0  0  0
    9.6694   12.2024   23.5237 N   0  0  0  0  0  0  0  0  0  0  0  0
   10.5491   14.2188   24.2963 O   0  0  0  0  0  0  0  0  0  0  0  0
    7.1187   10.4776   25.6470 O   0  0  0  0  0  0  0  0  0  0  0  0
    6.9245   13.6040   25.2921 O   0  0  0  0  0  0  0  0  0  0  0  0
   11.2890   13.3305   22.3247 O   0  0  0  0  0  0  0  0  0  0  0  0
   10.6297    9.6371   23.5924 H   0  0  0  0  0  0  0  0  0  0  0  0
    9.7521    9.0792   22.1704 H   0  0  0  0  0  0  0  0  0  0  0  0
    7.6017    9.5437   23.2096 H   0  0  0  0  0  0  0  0  0  0  0  0
    8.5345    8.5386   24.2939 H   0  0  0  0  0  0  0  0  0  0  0  0
    6.4066   11.3880   22.8316 H   0  0  0  0  0  0  0  0  0  0  0  0
    5.2788   12.4531   23.6529 H   0  0  0  0  0  0  0  0  0  0  0  0
   10.5893   11.3677   21.8166 H   0  0  0  0  0  0  0  0  0  0  0  0
    8.8297   11.3708   21.8232 H   0  0  0  0  0  0  0  0  0  0  0  0
    5.1991   11.1853   25.5858 H   0  0  0  0  0  0  0  0  0  0  0  0
    5.5281    9.8943   24.4381 H   0  0  0  0  0  0  0  0  0  0  0  0
    9.0003   12.5748   25.4792 H   0  0  0  0  0  0  0  0  0  0  0  0
    9.1196   10.3352   25.7381 H   0  0  0  0  0  0  0  0  0  0  0  0
    7.5228   13.5096   23.3399 H   0  0  0  0  0  0  0  0  0  0  0  0
   12.5812   14.6083   24.3063 H   0  0  0  0  0  0  0  0  0  0  0  0
   13.7080   13.5367   23.4438 H   0  0  0  0  0  0  0  0  0  0  0  0
   13.8349   15.3028   23.2935 H   0  0  0  0  0  0  0  0  0  0  0  0
   12.2715   14.2262   20.0154 H   0  0  0  0  0  0  0  0  0  0  0  0
   13.4731   13.2788   20.8742 H   0  0  0  0  0  0  0  0  0  0  0  0
   13.6898   15.0361   20.7170 H   0  0  0  0  0  0  0  0  0  0  0  0
   10.6653   15.7089   21.2611 H   0  0  0  0  0  0  0  0  0  0  0  0
   10.7592   15.8655   23.0286 H   0  0  0  0  0  0  0  0  0  0  0  0
   11.9945   16.6002   21.9814 H   0  0  0  0  0  0  0  0  0  0  0  0
    7.6649   14.1945   25.5031 H   0  0  0  0  0  0  0  0  0  0  0  0
  1 14  1  0  0  0  0
  1 15  2  0  0  0  0
  1 18  1  0  0  0  0
  2  3  1  0  0  0  0
  2  5  1  0  0  0  0
  3  8  1  0  0  0  0
  4  6  1  0  0  0  0
  4  9  1  0  0  0  0
  5 14  1  0  0  0  0
  6 16  1  0  0  0  0
  7  8  1  0  0  0  0
  7  9  1  0  0  0  0
  7 14  1  0  0  0  0
  8 16  1  0  0  0  0
  9 17  1  0  0  0  0
 10 13  1  0  0  0  0
 11 13  1  0  0  0  0
 12 13  1  0  0  0  0
 13 18  1  0  0  0  0
  2 19  1  0  0  0  0
  2 20  1  0  0  0  0
  3 21  1  0  0  0  0
  3 22  1  0  0  0  0
  4 23  1  0  0  0  0
  4 24  1  0  0  0  0
  5 25  1  0  0  0  0
  5 26  1  0  0  0  0
  6 27  1  0  0  0  0
  6 28  1  0  0  0  0
  7 29  1  0  0  0  0
  8 30  1  0  0  0  0
  9 31  1  0  0  0  0
 10 32  1  0  0  0  0
 10 33  1  0  0  0  0
 10 34  1  0  0  0  0
 11 35  1  0  0  0  0
 11 36  1  0  0  0  0
 11 37  1  0  0  0  0
 12 38  1  0  0  0  0
 12 39  1  0  0  0  0
 12 40  1  0  0  0  0
 17 41  1  0  0  0  0
M  END
> <id>
EN300-26666144

> <smiles>
CC(C)(C)OC(=O)N1CCCC2OCCC(O)C21

> <IUPAC Name>
tert-butyl 4-hydroxy-octahydro-2H-pyrano[3,2-b]pyridine-5-carboxylate

> <CAS>
2413868-23-0

> <URL>
https://www.enaminestore.com/catalog/EN300-26666144

> <ROCS_ShapeQuery>
A71EV2A-x0451_0A_A71EV2A-x0310_0A_A71EV2A-x0416_0A_peptide

> <ROCS_TanimotoCombo>
0.481 

> <ROCS_ShapeTanimoto>
0.316 

> <ROCS_ColorTanimoto>
0.165 

> <ROCS_RefTversky>
0.279 

> <ROCS_RefColorTversky>
0.180 

> <ROCS_RefTverskyCombo>
0.458 

> <ROCS_FitTversky>
1.739 

> <ROCS_FitColorTversky>
0.664 

> <ROCS_FitTverskyCombo>
2.403 

> <ROCS_ColorScore>
-5.480

> <ROCS_Overlap>
1931.815

> <ROCS_Rank>
342                 

$$$$
untitled-dbase-11066_3
  -OEChem-11132313473D

 25 26  0     0  0  0  0  0  0999 V2000
    6.9432   12.1702   25.9676 C   0  0  0  0  0  0  0  0  0  0  0  0
    8.0249   12.6847   25.2456 C   0  0  0  0  0  0  0  0  0  0  0  0
    6.5224   10.8459   25.7836 C   0  0  0  0  0  0  0  0  0  0  0  0
    8.2502   10.5347   24.1628 C   0  0  0  0  0  0  0  0  0  0  0  0
    8.6720   11.8535   24.3429 C   0  0  0  0  0  0  0  0  0  0  0  0
    7.1785   10.0168   24.8744 C   0  0  0  0  0  0  0  0  0  0  0  0
   10.4498   13.3359   23.4188 C   0  0  0  0  0  0  0  0  0  0  0  0
    9.0837    9.8219   23.1489 C   0  0  0  0  0  0  0  0  0  0  0  0
   10.0839   10.9057   22.7324 C   0  0  0  0  0  0  0  0  0  0  0  0
   11.0565   13.6281   22.0666 C   0  0  0  0  0  0  0  0  0  0  0  0
    9.7730   12.1269   23.5048 N   0  0  0  0  0  0  0  0  0  0  0  0
    6.7531    8.6880   24.6931 N   0  0  0  0  0  0  0  0  0  0  0  0
   10.5855   14.1534   24.3293 O   0  0  0  0  0  0  0  0  0  0  0  0
   10.8025   12.6233   21.2109 F   0  0  0  0  0  0  0  0  0  0  0  0
   10.5442   14.7604   21.5549 F   0  0  0  0  0  0  0  0  0  0  0  0
   12.3890   13.7733   22.1665 F   0  0  0  0  0  0  0  0  0  0  0  0
    6.4218   12.8040   26.6802 H   0  0  0  0  0  0  0  0  0  0  0  0
    8.3227   13.7122   25.4133 H   0  0  0  0  0  0  0  0  0  0  0  0
    5.6777   10.4745   26.3590 H   0  0  0  0  0  0  0  0  0  0  0  0
    9.5966    8.9639   23.5939 H   0  0  0  0  0  0  0  0  0  0  0  0
    8.4767    9.4995   22.2973 H   0  0  0  0  0  0  0  0  0  0  0  0
   11.1148   10.6012   22.9443 H   0  0  0  0  0  0  0  0  0  0  0  0
   10.0079   11.1302   21.6627 H   0  0  0  0  0  0  0  0  0  0  0  0
    7.2028    8.1179   24.0032 H   0  0  0  0  0  0  0  0  0  0  0  0
    5.9468    8.3588   25.1878 H   0  0  0  0  0  0  0  0  0  0  0  0
  1  2  2  0  0  0  0
  1  3  1  0  0  0  0
  2  5  1  0  0  0  0
  3  6  2  0  0  0  0
  4  5  2  0  0  0  0
  4  6  1  0  0  0  0
  4  8  1  0  0  0  0
  5 11  1  0  0  0  0
  6 12  1  0  0  0  0
  7 10  1  0  0  0  0
  7 11  1  0  0  0  0
  7 13  2  0  0  0  0
  8  9  1  0  0  0  0
  9 11  1  0  0  0  0
 10 14  1  0  0  0  0
 10 15  1  0  0  0  0
 10 16  1  0  0  0  0
  1 17  1  0  0  0  0
  2 18  1  0  0  0  0
  3 19  1  0  0  0  0
  8 20  1  0  0  0  0
  8 21  1  0  0  0  0
  9 22  1  0  0  0  0
  9 23  1  0  0  0  0
 12 24  1  0  0  0  0
 12 25  1  0  0  0  0
M  END
> <id>
EN300-396134

> <smiles>
NC=1C=CC=C2N(CCC21)C(=O)C(F)(F)F

> <MDLNUMBER>
MFCD21908431

> <IUPAC Name>
1-(4-amino-2,3-dihydro-1H-indol-1-yl)-2,2,2-trifluoroethan-1-one

> <CAS>
1368864-43-0

> <Purity>
95

> <URL>
https://www.enaminestore.com/catalog/EN300-396134

> <ROCS_ShapeQuery>
A71EV2A-x0451_0A_A71EV2A-x0310_0A_A71EV2A-x0416_0A_peptide

> <ROCS_TanimotoCombo>
0.481 

> <ROCS_ShapeTanimoto>
0.313 

> <ROCS_ColorTanimoto>
0.168 

> <ROCS_RefTversky>
0.275 

> <ROCS_RefColorTversky>
0.174 

> <ROCS_RefTverskyCombo>
0.449 

> <ROCS_FitTversky>
1.783 

> <ROCS_FitColorTversky>
0.833 

> <ROCS_FitTverskyCombo>
2.616 

> <ROCS_ColorScore>
-5.288

> <ROCS_Overlap>
1905.447

> <ROCS_Rank>
343                 

$$$$
untitled-dbase-44725_1
  -OEChem-11132313473D

 38 39  0     0  0  0  0  0  0999 V2000
    6.3938   11.6338   26.3361 C   0  0  0  0  0  0  0  0  0  0  0  0
    6.9189   10.5690   25.6115 C   0  0  0  0  0  0  0  0  0  0  0  0
    6.8751   12.9185   26.1173 C   0  0  0  0  0  0  0  0  0  0  0  0
    7.9322   10.7922   24.6672 C   0  0  0  0  0  0  0  0  0  0  0  0
    7.8836   13.1436   25.1743 C   0  0  0  0  0  0  0  0  0  0  0  0
    8.4378   12.0867   24.4333 C   0  0  0  0  0  0  0  0  0  0  0  0
    8.4992    9.6176   23.9618 C   0  0  0  0  0  0  0  0  0  0  0  0
   10.2411   13.4659   23.3749 C   0  0  0  0  0  0  0  0  0  0  0  0
    9.6707    9.8631   23.0543 C   0  0  0  0  0  0  0  0  0  0  0  0
    9.5815   11.2378   22.4254 C   0  0  0  0  0  0  0  0  0  0  0  0
    8.1711   14.5894   24.9072 C   0  0  0  0  0  0  0  0  0  0  0  0
   12.9597   13.5358   22.4635 C   0  0  0  0  0  0  0  0  0  0  0  0
   12.0550   14.7047   20.4327 C   0  0  0  0  0  0  0  0  0  0  0  0
   11.8217   15.7686   22.6958 C   0  0  0  0  0  0  0  0  0  0  0  0
   11.8594   14.4494   21.9256 C   0  0  0  0  0  0  0  0  0  0  0  0
    9.4509   12.3010   23.4330 N   0  0  0  0  0  0  0  0  0  0  0  0
    8.0651    8.4872   24.1592 O   0  0  0  0  0  0  0  0  0  0  0  0
   10.6085   14.1352   24.3377 O   0  0  0  0  0  0  0  0  0  0  0  0
   10.5983   13.7894   22.0891 O   0  0  0  0  0  0  0  0  0  0  0  0
    5.6072   11.4624   27.0647 H   0  0  0  0  0  0  0  0  0  0  0  0
    6.5324    9.5711   25.8013 H   0  0  0  0  0  0  0  0  0  0  0  0
    6.4371   13.7479   26.6676 H   0  0  0  0  0  0  0  0  0  0  0  0
   10.5935    9.7491   23.6333 H   0  0  0  0  0  0  0  0  0  0  0  0
    9.6622    9.1048   22.2637 H   0  0  0  0  0  0  0  0  0  0  0  0
   10.4607   11.3881   21.7923 H   0  0  0  0  0  0  0  0  0  0  0  0
    8.6998   11.3090   21.7754 H   0  0  0  0  0  0  0  0  0  0  0  0
    8.9455   14.9506   25.5912 H   0  0  0  0  0  0  0  0  0  0  0  0
    8.5127   14.7370   23.8770 H   0  0  0  0  0  0  0  0  0  0  0  0
    7.2705   15.1988   25.0394 H   0  0  0  0  0  0  0  0  0  0  0  0
   12.8230   13.3501   23.5349 H   0  0  0  0  0  0  0  0  0  0  0  0
   12.9748   12.5727   21.9429 H   0  0  0  0  0  0  0  0  0  0  0  0
   13.9448   14.0037   22.3542 H   0  0  0  0  0  0  0  0  0  0  0  0
   11.2677   15.3598   20.0425 H   0  0  0  0  0  0  0  0  0  0  0  0
   11.9880   13.7696   19.8648 H   0  0  0  0  0  0  0  0  0  0  0  0
   13.0253   15.1674   20.2256 H   0  0  0  0  0  0  0  0  0  0  0  0
   11.0325   16.4241   22.3102 H   0  0  0  0  0  0  0  0  0  0  0  0
   11.6452   15.6069   23.7642 H   0  0  0  0  0  0  0  0  0  0  0  0
   12.7637   16.3160   22.5774 H   0  0  0  0  0  0  0  0  0  0  0  0
  1  2  2  0  0  0  0
  1  3  1  0  0  0  0
  2  4  1  0  0  0  0
  3  5  2  0  0  0  0
  4  6  2  0  0  0  0
  4  7  1  0  0  0  0
  5  6  1  0  0  0  0
  5 11  1  0  0  0  0
  6 16  1  0  0  0  0
  7  9  1  0  0  0  0
  7 17  2  0  0  0  0
  8 16  1  0  0  0  0
  8 18  2  0  0  0  0
  8 19  1  0  0  0  0
  9 10  1  0  0  0  0
 10 16  1  0  0  0  0
 12 15  1  0  0  0  0
 13 15  1  0  0  0  0
 14 15  1  0  0  0  0
 15 19  1  0  0  0  0
  1 20  1  0  0  0  0
  2 21  1  0  0  0  0
  3 22  1  0  0  0  0
  9 23  1  0  0  0  0
  9 24  1  0  0  0  0
 10 25  1  0  0  0  0
 10 26  1  0  0  0  0
 11 27  1  0  0  0  0
 11 28  1  0  0  0  0
 11 29  1  0  0  0  0
 12 30  1  0  0  0  0
 12 31  1  0  0  0  0
 12 32  1  0  0  0  0
 13 33  1  0  0  0  0
 13 34  1  0  0  0  0
 13 35  1  0  0  0  0
 14 36  1  0  0  0  0
 14 37  1  0  0  0  0
 14 38  1  0  0  0  0
M  END
> <id>
EN300-28281011

> <smiles>
CC=1C=CC=C2C(=O)CCN(C(=O)OC(C)(C)C)C12

> <IUPAC Name>
tert-butyl 8-methyl-4-oxo-1,2,3,4-tetrahydroquinoline-1-carboxylate

> <CAS>
2680728-30-5

> <URL>
https://www.enaminestore.com/catalog/EN300-28281011

> <ROCS_ShapeQuery>
A71EV2A-x0451_0A_A71EV2A-x0310_0A_A71EV2A-x0416_0A_peptide

> <ROCS_TanimotoCombo>
0.481 

> <ROCS_ShapeTanimoto>
0.346 

> <ROCS_ColorTanimoto>
0.134 

> <ROCS_RefTversky>
0.301 

> <ROCS_RefColorTversky>
0.143 

> <ROCS_RefTverskyCombo>
0.444 

> <ROCS_FitTversky>
1.775 

> <ROCS_FitColorTversky>
0.686 

> <ROCS_FitTverskyCombo>
2.461 

> <ROCS_ColorScore>
-4.348

> <ROCS_Overlap>
2087.928

> <ROCS_Rank>
344                 

$$$$
untitled-dbase-18825_1426
  -OEChem-11132313473D

 44 44  0     0  0  0  0  0  0999 V2000
    9.0653    8.0167   24.1722 C   0  0  0  0  0  0  0  0  0  0  0  0
    7.8662    8.5004   23.6154 C   0  0  0  0  0  0  0  0  0  0  0  0
    9.8541    9.1325   24.3110 C   0  0  0  0  0  0  0  0  0  0  0  0
    9.5012   11.6007   23.7724 C   0  0  0  0  0  0  0  0  0  0  0  0
   10.7606   13.4265   23.1153 C   0  0  0  0  0  0  0  0  0  0  0  0
    7.5788   12.0531   25.2964 C   0  0  0  0  0  0  0  0  0  0  0  0
   12.7019   15.5119   22.9695 C   0  0  0  0  0  0  0  0  0  0  0  0
   12.4027   15.3649   20.4799 C   0  0  0  0  0  0  0  0  0  0  0  0
   10.4623   16.0140   21.9365 C   0  0  0  0  0  0  0  0  0  0  0  0
    5.3290   11.9159   27.0481 C   0  0  0  0  0  0  0  0  0  0  0  0
    5.2256   14.4143   26.8103 C   0  0  0  0  0  0  0  0  0  0  0  0
    4.9099   12.9518   24.7929 C   0  0  0  0  0  0  0  0  0  0  0  0
   11.7328   15.1707   21.8384 C   0  0  0  0  0  0  0  0  0  0  0  0
    5.6252   13.1044   26.1346 C   0  0  0  0  0  0  0  0  0  0  0  0
    7.8868    9.8207   23.4145 N   0  0  0  0  0  0  0  0  0  0  0  0
   10.5045   12.0782   23.1005 N   0  0  0  0  0  0  0  0  0  0  0  0
    9.1084   10.1762   23.8474 N   0  0  0  0  0  0  0  0  0  0  0  0
    8.6794   12.4352   24.5349 N   0  0  0  0  0  0  0  0  0  0  0  0
   10.5124   14.1928   24.0401 O   0  0  0  0  0  0  0  0  0  0  0  0
    7.1486   10.9115   25.4222 O   0  0  0  0  0  0  0  0  0  0  0  0
   11.3726   13.7895   21.9482 O   0  0  0  0  0  0  0  0  0  0  0  0
    7.0362   13.1550   25.8958 O   0  0  0  0  0  0  0  0  0  0  0  0
    9.3226    7.0010   24.4338 H   0  0  0  0  0  0  0  0  0  0  0  0
    6.9789    7.9456   23.3467 H   0  0  0  0  0  0  0  0  0  0  0  0
   10.8579    9.2662   24.6903 H   0  0  0  0  0  0  0  0  0  0  0  0
   12.2248   15.3738   23.9463 H   0  0  0  0  0  0  0  0  0  0  0  0
   13.6019   14.8896   22.9310 H   0  0  0  0  0  0  0  0  0  0  0  0
   13.0060   16.5637   22.9199 H   0  0  0  0  0  0  0  0  0  0  0  0
   11.7109   15.1212   19.6654 H   0  0  0  0  0  0  0  0  0  0  0  0
   13.2605   14.6920   20.3680 H   0  0  0  0  0  0  0  0  0  0  0  0
   12.7495   16.3943   20.3439 H   0  0  0  0  0  0  0  0  0  0  0  0
    9.7670   15.7695   21.1254 H   0  0  0  0  0  0  0  0  0  0  0  0
    9.9483   15.8594   22.8907 H   0  0  0  0  0  0  0  0  0  0  0  0
   10.6937   17.0805   21.8345 H   0  0  0  0  0  0  0  0  0  0  0  0
    5.6144   10.9737   26.5667 H   0  0  0  0  0  0  0  0  0  0  0  0
    5.8637   11.9959   28.0002 H   0  0  0  0  0  0  0  0  0  0  0  0
    4.2559   11.8427   27.2590 H   0  0  0  0  0  0  0  0  0  0  0  0
    5.4363   15.2697   26.1583 H   0  0  0  0  0  0  0  0  0  0  0  0
    5.8060   14.5739   27.7262 H   0  0  0  0  0  0  0  0  0  0  0  0
    4.1615   14.4282   27.0673 H   0  0  0  0  0  0  0  0  0  0  0  0
    5.1222   13.8042   24.1374 H   0  0  0  0  0  0  0  0  0  0  0  0
    5.2124   12.0350   24.2766 H   0  0  0  0  0  0  0  0  0  0  0  0
    3.8228   12.9312   24.9311 H   0  0  0  0  0  0  0  0  0  0  0  0
    8.9099   13.4260   24.5332 H   0  0  0  0  0  0  0  0  0  0  0  0
  1  2  1  0  0  0  0
  1  3  2  0  0  0  0
  2 15  2  0  0  0  0
  3 17  1  0  0  0  0
  4 16  2  3  0  0  0
  4 17  1  0  0  0  0
  4 18  1  0  0  0  0
  5 16  1  0  0  0  0
  5 19  2  0  0  0  0
  5 21  1  0  0  0  0
  6 18  1  0  0  0  0
  6 20  2  0  0  0  0
  6 22  1  0  0  0  0
  7 13  1  0  0  0  0
  8 13  1  0  0  0  0
  9 13  1  0  0  0  0
 10 14  1  0  0  0  0
 11 14  1  0  0  0  0
 12 14  1  0  0  0  0
 13 21  1  0  0  0  0
 14 22  1  0  0  0  0
 15 17  1  0  0  0  0
  1 23  1  0  0  0  0
  2 24  1  0  0  0  0
  3 25  1  0  0  0  0
  7 26  1  0  0  0  0
  7 27  1  0  0  0  0
  7 28  1  0  0  0  0
  8 29  1  0  0  0  0
  8 30  1  0  0  0  0
  8 31  1  0  0  0  0
  9 32  1  0  0  0  0
  9 33  1  0  0  0  0
  9 34  1  0  0  0  0
 10 35  1  0  0  0  0
 10 36  1  0  0  0  0
 10 37  1  0  0  0  0
 11 38  1  0  0  0  0
 11 39  1  0  0  0  0
 11 40  1  0  0  0  0
 12 41  1  0  0  0  0
 12 42  1  0  0  0  0
 12 43  1  0  0  0  0
 18 44  1  0  0  0  0
M  END
> <id>
EN300-313474

> <smiles>
CC(C)(C)OC(=O)NC(=NC(=O)OC(C)(C)C)N1C=CC=N1

> <IUPAC Name>
tert-butyl N-({[(tert-butoxy)carbonyl]imino}(1H-pyrazol-1-yl)methyl)carbamate

> <CAS>
152120-54-2

> <Purity>
95

> <URL>
https://www.enaminestore.com/catalog/EN300-313474

> <MP>
86-90

> <ROCS_ShapeQuery>
A71EV2A-x0451_0A_A71EV2A-x0310_0A_A71EV2A-x0416_0A_peptide

> <ROCS_TanimotoCombo>
0.481 

> <ROCS_ShapeTanimoto>
0.372 

> <ROCS_ColorTanimoto>
0.109 

> <ROCS_RefTversky>
0.322 

> <ROCS_RefColorTversky>
0.128 

> <ROCS_RefTverskyCombo>
0.450 

> <ROCS_FitTversky>
1.717 

> <ROCS_FitColorTversky>
0.424 

> <ROCS_FitTverskyCombo>
2.141 

> <ROCS_ColorScore>
-3.903

> <ROCS_Overlap>
2235.128

> <ROCS_Rank>
345                 

$$$$
untitled-dbase-50005_77
  -OEChem-11132313473D

 32 33  0     1  0  0  0  0  0999 V2000
   10.5011   13.0699   23.5012 C   0  0  0  0  0  0  0  0  0  0  0  0
    7.1344   10.9225   25.5605 C   0  0  0  0  0  0  0  0  0  0  0  0
    8.1968   12.0321   25.6647 C   0  0  0  0  0  0  0  0  0  0  0  0
    7.6637   10.6070   24.1333 C   0  0  1  0  0  0  0  0  0  0  0  0
    8.2555   12.0466   24.1221 C   0  0  2  0  0  0  0  0  0  0  0  0
    8.7830    9.6083   23.8108 C   0  0  1  0  0  0  0  0  0  0  0  0
   12.5844   14.9581   22.9726 C   0  0  0  0  0  0  0  0  0  0  0  0
   12.6840   13.9295   20.6832 C   0  0  0  0  0  0  0  0  0  0  0  0
   10.5831   15.0721   21.4506 C   0  0  0  0  0  0  0  0  0  0  0  0
   11.7904   14.2407   21.8819 C   0  0  0  0  0  0  0  0  0  0  0  0
    9.6050   12.0066   23.5341 N   0  0  0  0  0  0  0  0  0  0  0  0
   10.5714   13.9702   24.3345 O   0  0  0  0  0  0  0  0  0  0  0  0
   11.4283   10.1176   23.2355 O   0  0  0  0  0  0  0  0  0  0  0  0
   11.3213   12.9932   22.4056 O   0  0  0  0  0  0  0  0  0  0  0  0
   10.0404   10.5332   22.8541 S   0  0  1  0  0  0  0  0  0  0  0  0
    9.4737    8.8265   25.2463 Cl  0  0  0  0  0  0  0  0  0  0  0  0
    7.2668   10.1232   26.2976 H   0  0  0  0  0  0  0  0  0  0  0  0
    6.0984   11.2697   25.6071 H   0  0  0  0  0  0  0  0  0  0  0  0
    7.8137   12.9628   26.0876 H   0  0  0  0  0  0  0  0  0  0  0  0
    9.1141   11.7540   26.1809 H   0  0  0  0  0  0  0  0  0  0  0  0
    6.8070   10.5156   23.4032 H   0  0  0  0  0  0  0  0  0  0  0  0
    7.6139   12.7917   23.6428 H   0  0  0  0  0  0  0  0  0  0  0  0
    8.3994    8.8217   23.1441 H   0  0  0  0  0  0  0  0  0  0  0  0
   11.9465   15.1832   23.8348 H   0  0  0  0  0  0  0  0  0  0  0  0
   13.4329   14.3571   23.3153 H   0  0  0  0  0  0  0  0  0  0  0  0
   12.9653   15.9199   22.6105 H   0  0  0  0  0  0  0  0  0  0  0  0
   12.1184   13.4148   19.8981 H   0  0  0  0  0  0  0  0  0  0  0  0
   13.4994   13.2552   20.9688 H   0  0  0  0  0  0  0  0  0  0  0  0
   13.1195   14.8391   20.2570 H   0  0  0  0  0  0  0  0  0  0  0  0
   10.0134   14.5577   20.6683 H   0  0  0  0  0  0  0  0  0  0  0  0
    9.9113   15.2738   22.2912 H   0  0  0  0  0  0  0  0  0  0  0  0
   10.9020   16.0292   21.0223 H   0  0  0  0  0  0  0  0  0  0  0  0
  1 11  1  0  0  0  0
  1 12  2  0  0  0  0
  1 14  1  0  0  0  0
  2  3  1  0  0  0  0
  2  4  1  6  0  0  0
  3  5  1  6  0  0  0
  4  5  1  0  0  0  0
  4  6  1  0  0  0  0
  5 11  1  0  0  0  0
  6 15  1  0  0  0  0
  6 16  1  6  0  0  0
  7 10  1  0  0  0  0
  8 10  1  0  0  0  0
  9 10  1  0  0  0  0
 10 14  1  0  0  0  0
 11 15  1  0  0  0  0
 13 15  2  0  0  0  0
  2 17  1  0  0  0  0
  2 18  1  0  0  0  0
  3 19  1  0  0  0  0
  3 20  1  0  0  0  0
  4 21  1  0  0  0  0
  5 22  1  0  0  0  0
  6 23  1  0  0  0  0
  7 24  1  0  0  0  0
  7 25  1  0  0  0  0
  7 26  1  0  0  0  0
  8 27  1  0  0  0  0
  8 28  1  0  0  0  0
  8 29  1  0  0  0  0
  9 30  1  0  0  0  0
  9 31  1  0  0  0  0
  9 32  1  0  0  0  0
M  END
> <id>
EN300-37361044

> <smiles>
CC(C)(C)OC(=O)N1[C@@H]2CC[C@@H]2[C@H](Cl)S1=O |&1:8,11,12,r|

> <IUPAC Name>
rac-tert-butyl (1R,4S,5S)-4-chloro-3-oxo-3lambda4-thia-2-azabicyclo[3.2.0]heptane-2-carboxylate

> <Purity>
95

> <URL>
https://www.enaminestore.com/catalog/EN300-37361044

> <ROCS_ShapeQuery>
A71EV2A-x0451_0A_A71EV2A-x0310_0A_A71EV2A-x0416_0A_peptide

> <ROCS_TanimotoCombo>
0.481 

> <ROCS_ShapeTanimoto>
0.295 

> <ROCS_ColorTanimoto>
0.186 

> <ROCS_RefTversky>
0.261 

> <ROCS_RefColorTversky>
0.201 

> <ROCS_RefTverskyCombo>
0.461 

> <ROCS_FitTversky>
1.799 

> <ROCS_FitColorTversky>
0.716 

> <ROCS_FitTverskyCombo>
2.515 

> <ROCS_ColorScore>
-6.125

> <ROCS_Overlap>
1805.548

> <ROCS_Rank>
346                 

$$$$
untitled-dbase-393_8
  -OEChem-11132313473D

 35 36  0     1  0  0  0  0  0999 V2000
   10.1357   13.3232   23.5351 C   0  0  0  0  0  0  0  0  0  0  0  0
    7.2515   11.2724   24.2542 C   0  0  0  0  0  0  0  0  0  0  0  0
    8.7756   10.3305   22.6899 C   0  0  0  0  0  0  0  0  0  0  0  0
    9.3661   11.6280   25.2616 C   0  0  0  0  0  0  0  0  0  0  0  0
    8.3195   10.5154   25.0588 C   0  0  2  0  0  0  0  0  0  0  0  0
    8.2459   11.6939   23.1714 C   0  0  2  0  0  0  0  0  0  0  0  0
    8.8628    9.5132   24.0063 C   0  0  1  0  0  0  0  0  0  0  0  0
   12.5325   14.1689   22.2295 C   0  0  0  0  0  0  0  0  0  0  0  0
   11.1807   14.1126   20.1132 C   0  0  0  0  0  0  0  0  0  0  0  0
   10.5400   15.6837   21.9651 C   0  0  0  0  0  0  0  0  0  0  0  0
   11.1369   14.3186   21.6258 C   0  0  0  0  0  0  0  0  0  0  0  0
    9.3083   12.3098   23.9709 N   0  0  0  0  0  0  0  0  0  0  0  0
    8.0312    8.3173   23.9245 N   0  0  0  0  0  0  0  0  0  0  0  0
   10.6705   14.1461   24.2742 O   0  0  0  0  0  0  0  0  0  0  0  0
   10.2913   13.3020   22.1752 O   0  0  0  0  0  0  0  0  0  0  0  0
    6.4404   10.6398   23.8811 H   0  0  0  0  0  0  0  0  0  0  0  0
    6.8267   12.1234   24.7980 H   0  0  0  0  0  0  0  0  0  0  0  0
    8.0749    9.8841   21.9738 H   0  0  0  0  0  0  0  0  0  0  0  0
    9.7497   10.4093   22.1947 H   0  0  0  0  0  0  0  0  0  0  0  0
    9.0736   12.3390   26.0413 H   0  0  0  0  0  0  0  0  0  0  0  0
   10.3771   11.2590   25.4581 H   0  0  0  0  0  0  0  0  0  0  0  0
    7.9752   10.0639   25.9918 H   0  0  0  0  0  0  0  0  0  0  0  0
    7.8707   12.3450   22.3799 H   0  0  0  0  0  0  0  0  0  0  0  0
    9.8847    9.2182   24.2225 H   0  0  0  0  0  0  0  0  0  0  0  0
   12.5053   14.3160   23.3151 H   0  0  0  0  0  0  0  0  0  0  0  0
   12.9576   13.1812   22.0230 H   0  0  0  0  0  0  0  0  0  0  0  0
   13.2143   14.9292   21.8315 H   0  0  0  0  0  0  0  0  0  0  0  0
   10.1814   14.2191   19.6758 H   0  0  0  0  0  0  0  0  0  0  0  0
   11.5191   13.0997   19.8669 H   0  0  0  0  0  0  0  0  0  0  0  0
   11.8502   14.8296   19.6270 H   0  0  0  0  0  0  0  0  0  0  0  0
    9.5389   15.7913   21.5321 H   0  0  0  0  0  0  0  0  0  0  0  0
   10.4666   15.8341   23.0470 H   0  0  0  0  0  0  0  0  0  0  0  0
   11.1484   16.4911   21.5417 H   0  0  0  0  0  0  0  0  0  0  0  0
    8.3849    7.7409   23.1976 H   0  0  0  0  0  0  0  0  0  0  0  0
    8.0763    7.8468   24.7976 H   0  0  0  0  0  0  0  0  0  0  0  0
  1 12  1  0  0  0  0
  1 14  2  0  0  0  0
  1 15  1  0  0  0  0
  2  5  1  0  0  0  0
  2  6  1  0  0  0  0
  3  6  1  0  0  0  0
  3  7  1  0  0  0  0
  4  5  1  0  0  0  0
  4 12  1  0  0  0  0
  5  7  1  0  0  0  0
  6 12  1  0  0  0  0
  7 13  1  0  0  0  0
  8 11  1  0  0  0  0
  9 11  1  0  0  0  0
 10 11  1  0  0  0  0
 11 15  1  0  0  0  0
  2 16  1  0  0  0  0
  2 17  1  0  0  0  0
  3 18  1  0  0  0  0
  3 19  1  0  0  0  0
  4 20  1  0  0  0  0
  4 21  1  0  0  0  0
  5 22  1  0  0  0  0
  6 23  1  0  0  0  0
  7 24  1  0  0  0  0
  8 25  1  0  0  0  0
  8 26  1  0  0  0  0
  8 27  1  0  0  0  0
  9 28  1  0  0  0  0
  9 29  1  0  0  0  0
  9 30  1  0  0  0  0
 10 31  1  0  0  0  0
 10 32  1  0  0  0  0
 10 33  1  0  0  0  0
 13 34  1  0  0  0  0
 13 35  1  0  0  0  0
M  END
> <id>
EN300-27794

> <smiles>
CC(C)(C)OC(=O)N1CC2CC1CC2N

> <IUPAC Name>
tert-butyl 5-amino-2-azabicyclo[2.2.1]heptane-2-carboxylate

> <CAS>
207405-62-7

> <Purity>
95

> <URL>
https://www.enaminestore.com/catalog/EN300-27794

> <ROCS_ShapeQuery>
A71EV2A-x0451_0A_A71EV2A-x0310_0A_A71EV2A-x0416_0A_peptide

> <ROCS_TanimotoCombo>
0.481 

> <ROCS_ShapeTanimoto>
0.266 

> <ROCS_ColorTanimoto>
0.214 

> <ROCS_RefTversky>
0.241 

> <ROCS_RefColorTversky>
0.242 

> <ROCS_RefTverskyCombo>
0.483 

> <ROCS_FitTversky>
1.673 

> <ROCS_FitColorTversky>
0.649 

> <ROCS_FitTverskyCombo>
2.322 

> <ROCS_ColorScore>
-7.422

> <ROCS_Overlap>
1667.456

> <ROCS_Rank>
347                 

$$$$
untitled-dbase-30447_11
  -OEChem-11132313473D

 37 38  0     0  0  0  0  0  0999 V2000
    7.2339   12.1913   25.8630 C   0  0  0  0  0  0  0  0  0  0  0  0
    8.3186   12.5978   25.0774 C   0  0  0  0  0  0  0  0  0  0  0  0
    6.7150   10.9119   25.7330 C   0  0  0  0  0  0  0  0  0  0  0  0
    8.3784   10.4306   24.0249 C   0  0  0  0  0  0  0  0  0  0  0  0
    8.9218   11.7313   24.1485 C   0  0  0  0  0  0  0  0  0  0  0  0
    7.2794   10.0384   24.8120 C   0  0  0  0  0  0  0  0  0  0  0  0
   10.7314   13.3542   23.4802 C   0  0  0  0  0  0  0  0  0  0  0  0
    8.9062    9.4307   23.0300 C   0  0  0  0  0  0  0  0  0  0  0  0
   10.3265    9.7604   22.6219 C   0  0  0  0  0  0  0  0  0  0  0  0
   10.4170   11.2215   22.2226 C   0  0  0  0  0  0  0  0  0  0  0  0
   11.6470   15.9156   22.5637 C   0  0  0  0  0  0  0  0  0  0  0  0
   12.8221   14.6403   20.7466 C   0  0  0  0  0  0  0  0  0  0  0  0
   10.3166   14.5682   20.9056 C   0  0  0  0  0  0  0  0  0  0  0  0
   11.6232   14.6606   21.6923 C   0  0  0  0  0  0  0  0  0  0  0  0
   10.0366   12.1348   23.3163 N   0  0  0  0  0  0  0  0  0  0  0  0
   10.5214   14.2031   24.3421 O   0  0  0  0  0  0  0  0  0  0  0  0
    6.7308    8.7941   24.6867 O   0  0  0  0  0  0  0  0  0  0  0  0
   11.7253   13.5125   22.5436 O   0  0  0  0  0  0  0  0  0  0  0  0
    6.7894   12.8872   26.5692 H   0  0  0  0  0  0  0  0  0  0  0  0
    8.6349   13.6252   25.2107 H   0  0  0  0  0  0  0  0  0  0  0  0
    5.8677   10.6066   26.3401 H   0  0  0  0  0  0  0  0  0  0  0  0
    8.8984    8.4179   23.4496 H   0  0  0  0  0  0  0  0  0  0  0  0
    8.2517    9.4354   22.1496 H   0  0  0  0  0  0  0  0  0  0  0  0
   11.0204    9.5598   23.4484 H   0  0  0  0  0  0  0  0  0  0  0  0
   10.6310    9.1205   21.7860 H   0  0  0  0  0  0  0  0  0  0  0  0
   11.4437   11.4191   21.8981 H   0  0  0  0  0  0  0  0  0  0  0  0
    9.7599   11.4416   21.3721 H   0  0  0  0  0  0  0  0  0  0  0  0
   10.7880   15.9340   23.2439 H   0  0  0  0  0  0  0  0  0  0  0  0
   12.5637   15.9758   23.1594 H   0  0  0  0  0  0  0  0  0  0  0  0
   11.5738   16.8200   21.9488 H   0  0  0  0  0  0  0  0  0  0  0  0
   12.8091   13.7415   20.1195 H   0  0  0  0  0  0  0  0  0  0  0  0
   13.7624   14.6106   21.3090 H   0  0  0  0  0  0  0  0  0  0  0  0
   12.8364   15.5187   20.0933 H   0  0  0  0  0  0  0  0  0  0  0  0
   10.2993   13.6681   20.2805 H   0  0  0  0  0  0  0  0  0  0  0  0
    9.4467   14.5444   21.5698 H   0  0  0  0  0  0  0  0  0  0  0  0
   10.2111   15.4201   20.2240 H   0  0  0  0  0  0  0  0  0  0  0  0
    5.9833    8.6982   25.2957 H   0  0  0  0  0  0  0  0  0  0  0  0
  1  2  1  0  0  0  0
  1  3  2  0  0  0  0
  2  5  2  0  0  0  0
  3  6  1  0  0  0  0
  4  5  1  0  0  0  0
  4  6  2  0  0  0  0
  4  8  1  0  0  0  0
  5 15  1  0  0  0  0
  6 17  1  0  0  0  0
  7 15  1  0  0  0  0
  7 16  2  0  0  0  0
  7 18  1  0  0  0  0
  8  9  1  0  0  0  0
  9 10  1  0  0  0  0
 10 15  1  0  0  0  0
 11 14  1  0  0  0  0
 12 14  1  0  0  0  0
 13 14  1  0  0  0  0
 14 18  1  0  0  0  0
  1 19  1  0  0  0  0
  2 20  1  0  0  0  0
  3 21  1  0  0  0  0
  8 22  1  0  0  0  0
  8 23  1  0  0  0  0
  9 24  1  0  0  0  0
  9 25  1  0  0  0  0
 10 26  1  0  0  0  0
 10 27  1  0  0  0  0
 11 28  1  0  0  0  0
 11 29  1  0  0  0  0
 11 30  1  0  0  0  0
 12 31  1  0  0  0  0
 12 32  1  0  0  0  0
 12 33  1  0  0  0  0
 13 34  1  0  0  0  0
 13 35  1  0  0  0  0
 13 36  1  0  0  0  0
 17 37  1  0  0  0  0
M  END
> <id>
EN300-3204453

> <smiles>
CC(C)(C)OC(=O)N1CCCC=2C(O)=CC=CC12

> <MDLNUMBER>
MFCD08275032

> <IUPAC Name>
tert-butyl 5-hydroxy-1,2,3,4-tetrahydroquinoline-1-carboxylate

> <CAS>
497068-73-2

> <URL>
https://www.enaminestore.com/catalog/EN300-3204453

> <ROCS_ShapeQuery>
A71EV2A-x0451_0A_A71EV2A-x0310_0A_A71EV2A-x0416_0A_peptide

> <ROCS_TanimotoCombo>
0.481 

> <ROCS_ShapeTanimoto>
0.339 

> <ROCS_ColorTanimoto>
0.141 

> <ROCS_RefTversky>
0.294 

> <ROCS_RefColorTversky>
0.154 

> <ROCS_RefTverskyCombo>
0.448 

> <ROCS_FitTversky>
1.812 

> <ROCS_FitColorTversky>
0.641 

> <ROCS_FitTverskyCombo>
2.453 

> <ROCS_ColorScore>
-4.673

> <ROCS_Overlap>
2042.117

> <ROCS_Rank>
348                 

$$$$
untitled-dbase-45454_104
  -OEChem-11132313473D

 36 37  0     0  0  0  0  0  0999 V2000
    9.7609   10.7199   23.6428 C   0  0  0  0  0  0  0  0  0  0  0  0
    8.9509    9.7173   24.0008 C   0  0  0  0  0  0  0  0  0  0  0  0
    7.6836    9.9374   24.7530 C   0  0  0  0  0  0  0  0  0  0  0  0
   10.4426   13.0608   23.6034 C   0  0  0  0  0  0  0  0  0  0  0  0
    9.2396    8.2747   23.6873 C   0  0  0  0  0  0  0  0  0  0  0  0
    7.0269    8.6865   25.2994 C   0  0  0  0  0  0  0  0  0  0  0  0
    6.9851    7.5523   24.2698 C   0  0  0  0  0  0  0  0  0  0  0  0
   13.1743   13.8231   23.2217 C   0  0  0  0  0  0  0  0  0  0  0  0
   12.8656   13.0523   20.8511 C   0  0  0  0  0  0  0  0  0  0  0  0
   11.4952   14.9633   21.7333 C   0  0  0  0  0  0  0  0  0  0  0  0
   12.1753   13.6396   22.0801 C   0  0  0  0  0  0  0  0  0  0  0  0
    7.1286   11.0767   24.9929 N   0  0  0  0  0  0  0  0  0  0  0  0
    8.0300    7.5864   23.2446 N   0  0  0  0  0  0  0  0  0  0  0  0
    9.4482   12.0768   23.9611 N   0  0  0  0  0  0  0  0  0  0  0  0
   10.6190   14.1092   24.2172 O   0  0  0  0  0  0  0  0  0  0  0  0
    7.8856   13.3866   25.5015 O   0  0  0  0  0  0  0  0  0  0  0  0
    7.1262   12.7987   23.1916 O   0  0  0  0  0  0  0  0  0  0  0  0
   11.1719   12.7074   22.4982 O   0  0  0  0  0  0  0  0  0  0  0  0
    7.8273   12.4261   24.4106 S   0  0  0  0  0  0  0  0  0  0  0  0
   10.6779   10.5334   23.0947 H   0  0  0  0  0  0  0  0  0  0  0  0
    9.9996    8.2233   22.9147 H   0  0  0  0  0  0  0  0  0  0  0  0
    9.6121    7.7638   24.5677 H   0  0  0  0  0  0  0  0  0  0  0  0
    7.5941    8.3733   26.1777 H   0  0  0  0  0  0  0  0  0  0  0  0
    6.0102    8.9206   25.6160 H   0  0  0  0  0  0  0  0  0  0  0  0
    7.0533    6.5801   24.8153 H   0  0  0  0  0  0  0  0  0  0  0  0
    5.9773    7.5188   23.7825 H   0  0  0  0  0  0  0  0  0  0  0  0
   12.6827   14.2445   24.1058 H   0  0  0  0  0  0  0  0  0  0  0  0
   13.6434   12.8748   23.5035 H   0  0  0  0  0  0  0  0  0  0  0  0
   13.9637   14.5296   22.9407 H   0  0  0  0  0  0  0  0  0  0  0  0
   12.1525   12.9189   20.0295 H   0  0  0  0  0  0  0  0  0  0  0  0
   13.2735   12.0588   21.0700 H   0  0  0  0  0  0  0  0  0  0  0  0
   13.6816   13.6928   20.5013 H   0  0  0  0  0  0  0  0  0  0  0  0
   10.7785   14.8319   20.9145 H   0  0  0  0  0  0  0  0  0  0  0  0
   10.9635   15.3812   22.5942 H   0  0  0  0  0  0  0  0  0  0  0  0
   12.2294   15.6994   21.3865 H   0  0  0  0  0  0  0  0  0  0  0  0
    7.6610    8.0672   22.4096 H   0  0  0  0  0  0  0  0  0  0  0  0
  1  2  2  0  0  0  0
  1 14  1  0  0  0  0
  2  3  1  0  0  0  0
  2  5  1  0  0  0  0
  3  6  1  0  0  0  0
  3 12  2  0  0  0  0
  4 14  1  0  0  0  0
  4 15  2  0  0  0  0
  4 18  1  0  0  0  0
  5 13  1  0  0  0  0
  6  7  1  0  0  0  0
  7 13  1  0  0  0  0
  8 11  1  0  0  0  0
  9 11  1  0  0  0  0
 10 11  1  0  0  0  0
 11 18  1  0  0  0  0
 12 19  1  0  0  0  0
 14 19  1  0  0  0  0
 16 19  2  0  0  0  0
 17 19  2  0  0  0  0
  1 20  1  0  0  0  0
  5 21  1  0  0  0  0
  5 22  1  0  0  0  0
  6 23  1  0  0  0  0
  6 24  1  0  0  0  0
  7 25  1  0  0  0  0
  7 26  1  0  0  0  0
  8 27  1  0  0  0  0
  8 28  1  0  0  0  0
  8 29  1  0  0  0  0
  9 30  1  0  0  0  0
  9 31  1  0  0  0  0
  9 32  1  0  0  0  0
 10 33  1  0  0  0  0
 10 34  1  0  0  0  0
 10 35  1  0  0  0  0
 13 36  1  0  0  0  0
M  END
> <id>
EN300-28287549

> <smiles>
CC(C)(C)OC(=O)N1C=C2CNCCC2=NS1(=O)=O

> <IUPAC Name>
tert-butyl 2,2-dioxo-3H,5H,6H,7H,8H-2lambda6-pyrido[4,3-c][1,2,6]thiadiazine-3-carboxylate

> <CAS>
2680768-47-0

> <URL>
https://www.enaminestore.com/catalog/EN300-28287549

> <ROCS_ShapeQuery>
A71EV2A-x0451_0A_A71EV2A-x0310_0A_A71EV2A-x0416_0A_peptide

> <ROCS_TanimotoCombo>
0.481 

> <ROCS_ShapeTanimoto>
0.317 

> <ROCS_ColorTanimoto>
0.163 

> <ROCS_RefTversky>
0.281 

> <ROCS_RefColorTversky>
0.183 

> <ROCS_RefTverskyCombo>
0.463 

> <ROCS_FitTversky>
1.694 

> <ROCS_FitColorTversky>
0.606 

> <ROCS_FitTverskyCombo>
2.300 

> <ROCS_ColorScore>
-5.571

> <ROCS_Overlap>
1948.532

> <ROCS_Rank>
349                 

$$$$
untitled-dbase-12097_28
  -OEChem-11132313473D

 51 53  0     1  0  0  0  0  0999 V2000
   10.4135   13.5892   23.1259 C   0  0  0  0  0  0  0  0  0  0  0  0
   11.8868    9.9428   21.9848 C   0  0  0  0  0  0  0  0  0  0  0  0
   11.3413   10.9173   20.9292 C   0  0  0  0  0  0  0  0  0  0  0  0
   10.8711    9.0101   22.6598 C   0  0  0  0  0  0  0  0  0  0  0  0
    7.4027   11.6864   24.0106 C   0  0  0  0  0  0  0  0  0  0  0  0
    8.4772   11.5429   25.8881 C   0  0  0  0  0  0  0  0  0  0  0  0
   10.2199   11.8984   21.3276 C   0  0  0  0  0  0  0  0  0  0  0  0
    9.6361    9.7749   23.0932 C   0  0  2  0  0  0  0  0  0  0  0  0
    6.9894   11.8050   25.5079 C   0  0  0  0  0  0  0  0  0  0  0  0
    9.9671   11.1674   23.7533 C   0  0  2  0  0  0  0  0  0  0  0  0
    8.8461    9.4646   24.3981 C   0  0  1  0  0  0  0  0  0  0  0  0
    8.6542   10.9823   24.4932 C   0  0  0  0  0  0  0  0  0  0  0  0
    6.4110   13.1367   25.9420 C   0  0  0  0  0  0  0  0  0  0  0  0
   12.9504   14.1638   22.7760 C   0  0  0  0  0  0  0  0  0  0  0  0
   12.3583   15.2152   20.5730 C   0  0  0  0  0  0  0  0  0  0  0  0
   11.8012   16.4022   22.7151 C   0  0  0  0  0  0  0  0  0  0  0  0
   11.9451   15.0425   22.0330 C   0  0  0  0  0  0  0  0  0  0  0  0
   10.1676   12.2602   22.7509 N   0  0  0  0  0  0  0  0  0  0  0  0
    7.6170    8.7661   24.0521 N   0  0  0  0  0  0  0  0  0  0  0  0
   10.3967   14.0056   24.2822 O   0  0  0  0  0  0  0  0  0  0  0  0
   10.6712   14.3887   22.0464 O   0  0  0  0  0  0  0  0  0  0  0  0
   12.6838    9.3334   21.5240 H   0  0  0  0  0  0  0  0  0  0  0  0
   12.3855   10.5297   22.7746 H   0  0  0  0  0  0  0  0  0  0  0  0
   12.1851   11.4758   20.4562 H   0  0  0  0  0  0  0  0  0  0  0  0
   10.9442   10.2927   20.0952 H   0  0  0  0  0  0  0  0  0  0  0  0
   10.5897    8.2257   21.9425 H   0  0  0  0  0  0  0  0  0  0  0  0
   11.3410    8.4973   23.5116 H   0  0  0  0  0  0  0  0  0  0  0  0
    6.7028   11.1359   23.3785 H   0  0  0  0  0  0  0  0  0  0  0  0
    7.5742   12.6575   23.5335 H   0  0  0  0  0  0  0  0  0  0  0  0
    9.0528   12.4437   26.1146 H   0  0  0  0  0  0  0  0  0  0  0  0
    8.6142   10.8428   26.7182 H   0  0  0  0  0  0  0  0  0  0  0  0
   10.3615   12.8172   20.7308 H   0  0  0  0  0  0  0  0  0  0  0  0
    9.2253   11.5198   21.0300 H   0  0  0  0  0  0  0  0  0  0  0  0
    8.9354    9.8771   22.2238 H   0  0  0  0  0  0  0  0  0  0  0  0
    6.3376   10.9793   25.8191 H   0  0  0  0  0  0  0  0  0  0  0  0
   10.8365   11.1314   24.4244 H   0  0  0  0  0  0  0  0  0  0  0  0
    9.4280    9.0103   25.1923 H   0  0  0  0  0  0  0  0  0  0  0  0
    7.0638   13.9556   25.6297 H   0  0  0  0  0  0  0  0  0  0  0  0
    6.3075   13.1707   27.0294 H   0  0  0  0  0  0  0  0  0  0  0  0
    5.4256   13.2881   25.4944 H   0  0  0  0  0  0  0  0  0  0  0  0
   12.6574   14.0374   23.8244 H   0  0  0  0  0  0  0  0  0  0  0  0
   13.0369   13.1734   22.3173 H   0  0  0  0  0  0  0  0  0  0  0  0
   13.9431   14.6283   22.7863 H   0  0  0  0  0  0  0  0  0  0  0  0
   11.6397   15.8450   20.0360 H   0  0  0  0  0  0  0  0  0  0  0  0
   12.3707   14.2498   20.0541 H   0  0  0  0  0  0  0  0  0  0  0  0
   13.3507   15.6690   20.4849 H   0  0  0  0  0  0  0  0  0  0  0  0
   11.0802   17.0326   22.1824 H   0  0  0  0  0  0  0  0  0  0  0  0
   11.4695   16.2994   23.7534 H   0  0  0  0  0  0  0  0  0  0  0  0
   12.7531   16.9454   22.7058 H   0  0  0  0  0  0  0  0  0  0  0  0
    7.8507    7.8471   23.7549 H   0  0  0  0  0  0  0  0  0  0  0  0
    7.0367    8.7342   24.8580 H   0  0  0  0  0  0  0  0  0  0  0  0
  1 18  1  0  0  0  0
  1 20  2  0  0  0  0
  1 21  1  0  0  0  0
  2  3  1  0  0  0  0
  2  4  1  0  0  0  0
  3  7  1  0  0  0  0
  4  8  1  0  0  0  0
  5  9  1  0  0  0  0
  5 12  1  0  0  0  0
  6  9  1  0  0  0  0
  6 12  1  0  0  0  0
  7 18  1  0  0  0  0
  8 10  1  0  0  0  0
  8 11  1  0  0  0  0
  9 13  1  0  0  0  0
 10 12  1  0  0  0  0
 10 18  1  0  0  0  0
 11 12  1  0  0  0  0
 11 19  1  0  0  0  0
 14 17  1  0  0  0  0
 15 17  1  0  0  0  0
 16 17  1  0  0  0  0
 17 21  1  0  0  0  0
  2 22  1  0  0  0  0
  2 23  1  0  0  0  0
  3 24  1  0  0  0  0
  3 25  1  0  0  0  0
  4 26  1  0  0  0  0
  4 27  1  0  0  0  0
  5 28  1  0  0  0  0
  5 29  1  0  0  0  0
  6 30  1  0  0  0  0
  6 31  1  0  0  0  0
  7 32  1  0  0  0  0
  7 33  1  0  0  0  0
  8 34  1  0  0  0  0
  9 35  1  0  0  0  0
 10 36  1  0  0  0  0
 11 37  1  0  0  0  0
 13 38  1  0  0  0  0
 13 39  1  0  0  0  0
 13 40  1  0  0  0  0
 14 41  1  0  0  0  0
 14 42  1  0  0  0  0
 14 43  1  0  0  0  0
 15 44  1  0  0  0  0
 15 45  1  0  0  0  0
 15 46  1  0  0  0  0
 16 47  1  0  0  0  0
 16 48  1  0  0  0  0
 16 49  1  0  0  0  0
 19 50  1  0  0  0  0
 19 51  1  0  0  0  0
M  END
> <id>
EN300-701145

> <smiles>
CC1CC2(C1)C(N)C3CCCCN(C32)C(=O)OC(C)(C)C

> <IUPAC Name>
tert-butyl 9-amino-3'-methyl-6-azaspiro[bicyclo[5.2.0]nonane-8,1'-cyclobutane]-6-carboxylate

> <CAS>
2137553-00-3

> <URL>
https://www.enaminestore.com/catalog/EN300-701145

> <ROCS_ShapeQuery>
A71EV2A-x0451_0A_A71EV2A-x0310_0A_A71EV2A-x0416_0A_peptide

> <ROCS_TanimotoCombo>
0.481 

> <ROCS_ShapeTanimoto>
0.334 

> <ROCS_ColorTanimoto>
0.146 

> <ROCS_RefTversky>
0.295 

> <ROCS_RefColorTversky>
0.162 

> <ROCS_RefTverskyCombo>
0.457 

> <ROCS_FitTversky>
1.657 

> <ROCS_FitColorTversky>
0.597 

> <ROCS_FitTverskyCombo>
2.254 

> <ROCS_ColorScore>
-4.942

> <ROCS_Overlap>
2049.533

> <ROCS_Rank>
350                 

$$$$
untitled-dbase-9574_83
  -OEChem-11132313473D

 37 38  0     0  0  0  0  0  0999 V2000
    6.3741   11.1924   26.7607 C   0  0  0  0  0  0  0  0  0  0  0  0
    7.0371   10.2381   25.9923 C   0  0  0  0  0  0  0  0  0  0  0  0
    6.3819   12.5294   26.3685 C   0  0  0  0  0  0  0  0  0  0  0  0
    7.7177   11.9674   24.4165 C   0  0  0  0  0  0  0  0  0  0  0  0
    7.7219   10.6283   24.8389 C   0  0  0  0  0  0  0  0  0  0  0  0
    7.0448   12.9143   25.2012 C   0  0  0  0  0  0  0  0  0  0  0  0
   10.8002   13.0160   23.4959 C   0  0  0  0  0  0  0  0  0  0  0  0
    8.3847   12.3898   23.1329 C   0  0  0  0  0  0  0  0  0  0  0  0
   10.1846   10.6854   22.9047 C   0  0  0  0  0  0  0  0  0  0  0  0
    9.7573    9.8046   24.0734 C   0  0  0  0  0  0  0  0  0  0  0  0
   12.6435   15.1189   22.8871 C   0  0  0  0  0  0  0  0  0  0  0  0
   13.7745   13.4448   21.3946 C   0  0  0  0  0  0  0  0  0  0  0  0
   11.4062   14.1383   20.9270 C   0  0  0  0  0  0  0  0  0  0  0  0
   12.4483   13.8800   22.0143 C   0  0  0  0  0  0  0  0  0  0  0  0
    9.8181   12.0830   23.1397 N   0  0  0  0  0  0  0  0  0  0  0  0
   10.6282   13.9320   24.2980 O   0  0  0  0  0  0  0  0  0  0  0  0
    8.3342    9.6382   24.1121 O   0  0  0  0  0  0  0  0  0  0  0  0
   11.9865   12.8070   22.8428 O   0  0  0  0  0  0  0  0  0  0  0  0
    7.0218   14.2048   24.8385 F   0  0  0  0  0  0  0  0  0  0  0  0
    5.8496   10.8942   27.6636 H   0  0  0  0  0  0  0  0  0  0  0  0
    7.0248    9.1961   26.3005 H   0  0  0  0  0  0  0  0  0  0  0  0
    5.8637   13.2733   26.9666 H   0  0  0  0  0  0  0  0  0  0  0  0
    7.9175   11.8723   22.2861 H   0  0  0  0  0  0  0  0  0  0  0  0
    8.2394   13.4596   22.9519 H   0  0  0  0  0  0  0  0  0  0  0  0
   11.2677   10.6064   22.7681 H   0  0  0  0  0  0  0  0  0  0  0  0
    9.7005   10.3661   21.9751 H   0  0  0  0  0  0  0  0  0  0  0  0
   10.1769    8.8032   23.9248 H   0  0  0  0  0  0  0  0  0  0  0  0
   10.1534   10.1675   25.0318 H   0  0  0  0  0  0  0  0  0  0  0  0
   11.6938   15.4345   23.3338 H   0  0  0  0  0  0  0  0  0  0  0  0
   13.3626   14.9359   23.6922 H   0  0  0  0  0  0  0  0  0  0  0  0
   13.0007   15.9657   22.2899 H   0  0  0  0  0  0  0  0  0  0  0  0
   13.6391   12.5562   20.7675 H   0  0  0  0  0  0  0  0  0  0  0  0
   14.4959   13.1673   22.1716 H   0  0  0  0  0  0  0  0  0  0  0  0
   14.2135   14.2384   20.7813 H   0  0  0  0  0  0  0  0  0  0  0  0
   11.2660   13.2498   20.3008 H   0  0  0  0  0  0  0  0  0  0  0  0
   10.4374   14.4160   21.3547 H   0  0  0  0  0  0  0  0  0  0  0  0
   11.7337   14.9408   20.2562 H   0  0  0  0  0  0  0  0  0  0  0  0
  1  2  1  0  0  0  0
  1  3  2  0  0  0  0
  2  5  2  0  0  0  0
  3  6  1  0  0  0  0
  4  5  1  0  0  0  0
  4  6  2  0  0  0  0
  4  8  1  0  0  0  0
  5 17  1  0  0  0  0
  6 19  1  0  0  0  0
  7 15  1  0  0  0  0
  7 16  2  0  0  0  0
  7 18  1  0  0  0  0
  8 15  1  0  0  0  0
  9 10  1  0  0  0  0
  9 15  1  0  0  0  0
 10 17  1  0  0  0  0
 11 14  1  0  0  0  0
 12 14  1  0  0  0  0
 13 14  1  0  0  0  0
 14 18  1  0  0  0  0
  1 20  1  0  0  0  0
  2 21  1  0  0  0  0
  3 22  1  0  0  0  0
  8 23  1  0  0  0  0
  8 24  1  0  0  0  0
  9 25  1  0  0  0  0
  9 26  1  0  0  0  0
 10 27  1  0  0  0  0
 10 28  1  0  0  0  0
 11 29  1  0  0  0  0
 11 30  1  0  0  0  0
 11 31  1  0  0  0  0
 12 32  1  0  0  0  0
 12 33  1  0  0  0  0
 12 34  1  0  0  0  0
 13 35  1  0  0  0  0
 13 36  1  0  0  0  0
 13 37  1  0  0  0  0
M  END
> <id>
EN300-336171

> <smiles>
CC(C)(C)OC(=O)N1CCOC=2C=CC=C(F)C2C1

> <MDLNUMBER>
MFCD30498194

> <IUPAC Name>
tert-butyl 6-fluoro-2,3,4,5-tetrahydro-1,4-benzoxazepine-4-carboxylate

> <CAS>
2060025-38-7

> <URL>
https://www.enaminestore.com/catalog/EN300-336171

> <ROCS_ShapeQuery>
A71EV2A-x0451_0A_A71EV2A-x0310_0A_A71EV2A-x0416_0A_peptide

> <ROCS_TanimotoCombo>
0.480 

> <ROCS_ShapeTanimoto>
0.325 

> <ROCS_ColorTanimoto>
0.156 

> <ROCS_RefTversky>
0.287 

> <ROCS_RefColorTversky>
0.163 

> <ROCS_RefTverskyCombo>
0.449 

> <ROCS_FitTversky>
1.695 

> <ROCS_FitColorTversky>
0.780 

> <ROCS_FitTverskyCombo>
2.475 

> <ROCS_ColorScore>
-4.945

> <ROCS_Overlap>
1988.992

> <ROCS_Rank>
351                 

$$$$
untitled-dbase-9950_75
  -OEChem-11132313473D

 37 38  0     0  0  0  0  0  0999 V2000
    6.9960   10.2507   25.9699 C   0  0  0  0  0  0  0  0  0  0  0  0
    6.3257   11.2132   26.7217 C   0  0  0  0  0  0  0  0  0  0  0  0
    7.0270   12.9213   25.1605 C   0  0  0  0  0  0  0  0  0  0  0  0
    7.7074   11.9661   24.3925 C   0  0  0  0  0  0  0  0  0  0  0  0
    7.6994   10.6300   24.8241 C   0  0  0  0  0  0  0  0  0  0  0  0
    6.3451   12.5474   26.3204 C   0  0  0  0  0  0  0  0  0  0  0  0
   10.8077   12.9952   23.5106 C   0  0  0  0  0  0  0  0  0  0  0  0
    8.3951   12.3768   23.1161 C   0  0  0  0  0  0  0  0  0  0  0  0
   10.1908   10.6632   22.9265 C   0  0  0  0  0  0  0  0  0  0  0  0
    9.7424    9.7924   24.0947 C   0  0  0  0  0  0  0  0  0  0  0  0
   12.6689   15.0861   22.9148 C   0  0  0  0  0  0  0  0  0  0  0  0
   13.8147   13.3969   21.4509 C   0  0  0  0  0  0  0  0  0  0  0  0
   11.4566   14.0970   20.9433 C   0  0  0  0  0  0  0  0  0  0  0  0
   12.4813   13.8420   22.0477 C   0  0  0  0  0  0  0  0  0  0  0  0
    9.8269   12.0640   23.1463 N   0  0  0  0  0  0  0  0  0  0  0  0
   10.6278   13.9176   24.3037 O   0  0  0  0  0  0  0  0  0  0  0  0
    8.3182    9.6323   24.1134 O   0  0  0  0  0  0  0  0  0  0  0  0
   12.0026   12.7767   22.8767 O   0  0  0  0  0  0  0  0  0  0  0  0
    5.5139   13.7352   27.2481 Cl  0  0  0  0  0  0  0  0  0  0  0  0
    6.9747    9.2110   26.2850 H   0  0  0  0  0  0  0  0  0  0  0  0
    5.7901   10.9080   27.6172 H   0  0  0  0  0  0  0  0  0  0  0  0
    7.0246   13.9627   24.8442 H   0  0  0  0  0  0  0  0  0  0  0  0
    7.9378   11.8580   22.2647 H   0  0  0  0  0  0  0  0  0  0  0  0
    8.2556   13.4473   22.9322 H   0  0  0  0  0  0  0  0  0  0  0  0
   11.2755   10.5785   22.8062 H   0  0  0  0  0  0  0  0  0  0  0  0
    9.7188   10.3396   21.9921 H   0  0  0  0  0  0  0  0  0  0  0  0
   10.1599    8.7882   23.9593 H   0  0  0  0  0  0  0  0  0  0  0  0
   10.1258   10.1603   25.0564 H   0  0  0  0  0  0  0  0  0  0  0  0
   11.7141   15.4088   23.3451 H   0  0  0  0  0  0  0  0  0  0  0  0
   13.3752   14.9057   23.7317 H   0  0  0  0  0  0  0  0  0  0  0  0
   13.0385   15.9271   22.3171 H   0  0  0  0  0  0  0  0  0  0  0  0
   13.6848   12.5045   20.8280 H   0  0  0  0  0  0  0  0  0  0  0  0
   14.5233   13.1217   22.2404 H   0  0  0  0  0  0  0  0  0  0  0  0
   14.2662   14.1842   20.8387 H   0  0  0  0  0  0  0  0  0  0  0  0
   11.3219   13.2048   20.3212 H   0  0  0  0  0  0  0  0  0  0  0  0
   10.4828   14.3818   21.3546 H   0  0  0  0  0  0  0  0  0  0  0  0
   11.7975   14.8934   20.2719 H   0  0  0  0  0  0  0  0  0  0  0  0
  1  2  1  0  0  0  0
  1  5  2  0  0  0  0
  2  6  2  0  0  0  0
  3  4  2  0  0  0  0
  3  6  1  0  0  0  0
  4  5  1  0  0  0  0
  4  8  1  0  0  0  0
  5 17  1  0  0  0  0
  6 19  1  0  0  0  0
  7 15  1  0  0  0  0
  7 16  2  0  0  0  0
  7 18  1  0  0  0  0
  8 15  1  0  0  0  0
  9 10  1  0  0  0  0
  9 15  1  0  0  0  0
 10 17  1  0  0  0  0
 11 14  1  0  0  0  0
 12 14  1  0  0  0  0
 13 14  1  0  0  0  0
 14 18  1  0  0  0  0
  1 20  1  0  0  0  0
  2 21  1  0  0  0  0
  3 22  1  0  0  0  0
  8 23  1  0  0  0  0
  8 24  1  0  0  0  0
  9 25  1  0  0  0  0
  9 26  1  0  0  0  0
 10 27  1  0  0  0  0
 10 28  1  0  0  0  0
 11 29  1  0  0  0  0
 11 30  1  0  0  0  0
 11 31  1  0  0  0  0
 12 32  1  0  0  0  0
 12 33  1  0  0  0  0
 12 34  1  0  0  0  0
 13 35  1  0  0  0  0
 13 36  1  0  0  0  0
 13 37  1  0  0  0  0
M  END
> <id>
EN300-336163

> <smiles>
CC(C)(C)OC(=O)N1CCOC=2C=CC(Cl)=CC2C1

> <MDLNUMBER>
MFCD30498186

> <IUPAC Name>
tert-butyl 7-chloro-2,3,4,5-tetrahydro-1,4-benzoxazepine-4-carboxylate

> <CAS>
2060061-12-1

> <URL>
https://www.enaminestore.com/catalog/EN300-336163

> <ROCS_ShapeQuery>
A71EV2A-x0451_0A_A71EV2A-x0310_0A_A71EV2A-x0416_0A_peptide

> <ROCS_TanimotoCombo>
0.480 

> <ROCS_ShapeTanimoto>
0.325 

> <ROCS_ColorTanimoto>
0.156 

> <ROCS_RefTversky>
0.286 

> <ROCS_RefColorTversky>
0.163 

> <ROCS_RefTverskyCombo>
0.449 

> <ROCS_FitTversky>
1.710 

> <ROCS_FitColorTversky>
0.781 

> <ROCS_FitTverskyCombo>
2.491 

> <ROCS_ColorScore>
-4.947

> <ROCS_Overlap>
1985.256

> <ROCS_Rank>
352                 

$$$$
untitled-dbase-45472_20
  -OEChem-11132313473D

 43 44  0     0  0  0  0  0  0999 V2000
    6.9927   10.4374   25.6083 C   0  0  0  0  0  0  0  0  0  0  0  0
    6.4220   11.5188   26.2747 C   0  0  0  0  0  0  0  0  0  0  0  0
    7.8797   12.9991   25.0624 C   0  0  0  0  0  0  0  0  0  0  0  0
    8.0201   10.6179   24.6597 C   0  0  0  0  0  0  0  0  0  0  0  0
    8.5064   11.9180   24.4087 C   0  0  0  0  0  0  0  0  0  0  0  0
    6.8568   12.8022   25.9911 C   0  0  0  0  0  0  0  0  0  0  0  0
    9.3862    9.7064   22.8971 C   0  0  0  0  0  0  0  0  0  0  0  0
    8.5688    9.4646   23.9292 C   0  0  0  0  0  0  0  0  0  0  0  0
   10.2842   13.3593   23.3873 C   0  0  0  0  0  0  0  0  0  0  0  0
    9.8603   11.0696   22.4412 C   0  0  0  0  0  0  0  0  0  0  0  0
    8.1821    8.0616   24.2989 C   0  0  0  0  0  0  0  0  0  0  0  0
   11.3815   10.9102   22.1991 C   0  0  0  0  0  0  0  0  0  0  0  0
    9.1570   11.4068   21.1149 C   0  0  0  0  0  0  0  0  0  0  0  0
   12.9231   13.8823   22.3987 C   0  0  0  0  0  0  0  0  0  0  0  0
   11.7767   14.9148   20.4165 C   0  0  0  0  0  0  0  0  0  0  0  0
   11.4450   15.8963   22.7045 C   0  0  0  0  0  0  0  0  0  0  0  0
   11.6725   14.6113   21.9096 C   0  0  0  0  0  0  0  0  0  0  0  0
    9.5825   12.1316   23.4622 N   0  0  0  0  0  0  0  0  0  0  0  0
   10.5667   14.0632   24.3552 O   0  0  0  0  0  0  0  0  0  0  0  0
   10.5414   13.7524   22.0975 O   0  0  0  0  0  0  0  0  0  0  0  0
    6.0564   14.2839   26.8491 Br  0  0  0  0  0  0  0  0  0  0  0  0
    6.6032    9.4489   25.8393 H   0  0  0  0  0  0  0  0  0  0  0  0
    5.6277   11.3396   26.9943 H   0  0  0  0  0  0  0  0  0  0  0  0
    8.1486   14.0252   24.8263 H   0  0  0  0  0  0  0  0  0  0  0  0
    9.7498    8.8545   22.3228 H   0  0  0  0  0  0  0  0  0  0  0  0
    7.3038    7.7670   23.7300 H   0  0  0  0  0  0  0  0  0  0  0  0
    7.9614    8.0154   25.3627 H   0  0  0  0  0  0  0  0  0  0  0  0
    9.0061    7.3885   24.0746 H   0  0  0  0  0  0  0  0  0  0  0  0
   11.7825   11.8589   21.8685 H   0  0  0  0  0  0  0  0  0  0  0  0
   11.5357   10.1552   21.4398 H   0  0  0  0  0  0  0  0  0  0  0  0
   11.8516   10.6090   23.1257 H   0  0  0  0  0  0  0  0  0  0  0  0
    9.4861   12.3827   20.7734 H   0  0  0  0  0  0  0  0  0  0  0  0
    8.0835   11.4176   21.2719 H   0  0  0  0  0  0  0  0  0  0  0  0
    9.4107   10.6556   20.3743 H   0  0  0  0  0  0  0  0  0  0  0  0
   12.8522   13.6627   23.4700 H   0  0  0  0  0  0  0  0  0  0  0  0
   13.0781   12.9416   21.8603 H   0  0  0  0  0  0  0  0  0  0  0  0
   13.8150   14.5061   22.2694 H   0  0  0  0  0  0  0  0  0  0  0  0
   10.8815   15.4379   20.0613 H   0  0  0  0  0  0  0  0  0  0  0  0
   11.8448   13.9890   19.8339 H   0  0  0  0  0  0  0  0  0  0  0  0
   12.6518   15.5323   20.1899 H   0  0  0  0  0  0  0  0  0  0  0  0
   10.5480   16.4194   22.3539 H   0  0  0  0  0  0  0  0  0  0  0  0
   11.3310   15.6939   23.7744 H   0  0  0  0  0  0  0  0  0  0  0  0
   12.2813   16.5916   22.5689 H   0  0  0  0  0  0  0  0  0  0  0  0
  1  2  1  0  0  0  0
  1  4  2  0  0  0  0
  2  6  2  0  0  0  0
  3  5  2  0  0  0  0
  3  6  1  0  0  0  0
  4  5  1  0  0  0  0
  4  8  1  0  0  0  0
  5 18  1  0  0  0  0
  6 21  1  0  0  0  0
  7  8  2  0  0  0  0
  7 10  1  0  0  0  0
  8 11  1  0  0  0  0
  9 18  1  0  0  0  0
  9 19  2  0  0  0  0
  9 20  1  0  0  0  0
 10 12  1  0  0  0  0
 10 13  1  0  0  0  0
 10 18  1  0  0  0  0
 14 17  1  0  0  0  0
 15 17  1  0  0  0  0
 16 17  1  0  0  0  0
 17 20  1  0  0  0  0
  1 22  1  0  0  0  0
  2 23  1  0  0  0  0
  3 24  1  0  0  0  0
  7 25  1  0  0  0  0
 11 26  1  0  0  0  0
 11 27  1  0  0  0  0
 11 28  1  0  0  0  0
 12 29  1  0  0  0  0
 12 30  1  0  0  0  0
 12 31  1  0  0  0  0
 13 32  1  0  0  0  0
 13 33  1  0  0  0  0
 13 34  1  0  0  0  0
 14 35  1  0  0  0  0
 14 36  1  0  0  0  0
 14 37  1  0  0  0  0
 15 38  1  0  0  0  0
 15 39  1  0  0  0  0
 15 40  1  0  0  0  0
 16 41  1  0  0  0  0
 16 42  1  0  0  0  0
 16 43  1  0  0  0  0
M  END
> <id>
EN300-28298776

> <smiles>
CC1=CC(C)(C)N(C(=O)OC(C)(C)C)C=2C=C(Br)C=CC12

> <IUPAC Name>
tert-butyl 7-bromo-2,2,4-trimethyl-1,2-dihydroquinoline-1-carboxylate

> <CAS>
2680826-97-3

> <URL>
https://www.enaminestore.com/catalog/EN300-28298776

> <ROCS_ShapeQuery>
A71EV2A-x0451_0A_A71EV2A-x0310_0A_A71EV2A-x0416_0A_peptide

> <ROCS_TanimotoCombo>
0.480 

> <ROCS_ShapeTanimoto>
0.361 

> <ROCS_ColorTanimoto>
0.120 

> <ROCS_RefTversky>
0.313 

> <ROCS_RefColorTversky>
0.132 

> <ROCS_RefTverskyCombo>
0.445 

> <ROCS_FitTversky>
1.749 

> <ROCS_FitColorTversky>
0.553 

> <ROCS_FitTverskyCombo>
2.301 

> <ROCS_ColorScore>
-4.029

> <ROCS_Overlap>
2169.537

> <ROCS_Rank>
353                 

$$$$
untitled-dbase-30524_8
  -OEChem-11132313473D

 36 37  0     1  0  0  0  0  0999 V2000
    6.5234   11.8472   26.3737 C   0  0  0  0  0  0  0  0  0  0  0  0
    6.7696   10.7935   25.5077 C   0  0  0  0  0  0  0  0  0  0  0  0
    7.3018   12.9757   26.2356 C   0  0  0  0  0  0  0  0  0  0  0  0
    7.7723   10.8932   24.5320 C   0  0  0  0  0  0  0  0  0  0  0  0
    8.5267   12.0739   24.4669 C   0  0  0  0  0  0  0  0  0  0  0  0
   10.3868   13.3629   23.4510 C   0  0  0  0  0  0  0  0  0  0  0  0
    8.6566   10.1942   22.3220 C   0  0  0  0  0  0  0  0  0  0  0  0
    9.8719   11.0614   22.6133 C   0  0  0  0  0  0  0  0  0  0  0  0
    8.0162    9.7271   23.6183 C   0  0  1  0  0  0  0  0  0  0  0  0
   12.9428   14.5913   23.0307 C   0  0  0  0  0  0  0  0  0  0  0  0
   12.2601   14.7592   20.6193 C   0  0  0  0  0  0  0  0  0  0  0  0
   10.9407   15.9707   22.3799 C   0  0  0  0  0  0  0  0  0  0  0  0
   11.7669   14.7246   22.0642 C   0  0  0  0  0  0  0  0  0  0  0  0
    8.2830   13.1073   25.3157 N   0  0  0  0  0  0  0  0  0  0  0  0
    9.5847   12.2031   23.4943 N   0  0  0  0  0  0  0  0  0  0  0  0
   10.6075   14.1184   24.3953 O   0  0  0  0  0  0  0  0  0  0  0  0
    8.8693    8.8051   24.2895 O   0  0  0  0  0  0  0  0  0  0  0  0
   10.9273   13.5727   22.2062 O   0  0  0  0  0  0  0  0  0  0  0  0
    5.7487   11.7850   27.1285 H   0  0  0  0  0  0  0  0  0  0  0  0
    6.1747    9.8873   25.5917 H   0  0  0  0  0  0  0  0  0  0  0  0
    7.1577   13.8352   26.8817 H   0  0  0  0  0  0  0  0  0  0  0  0
    7.9349   10.7692   21.7279 H   0  0  0  0  0  0  0  0  0  0  0  0
    8.9679    9.3332   21.7190 H   0  0  0  0  0  0  0  0  0  0  0  0
   10.6682   10.4783   23.0924 H   0  0  0  0  0  0  0  0  0  0  0  0
   10.2721   11.4243   21.6602 H   0  0  0  0  0  0  0  0  0  0  0  0
    7.0736    9.2156   23.3908 H   0  0  0  0  0  0  0  0  0  0  0  0
   12.5930   14.5661   24.0689 H   0  0  0  0  0  0  0  0  0  0  0  0
   13.5231   13.6832   22.8372 H   0  0  0  0  0  0  0  0  0  0  0  0
   13.6139   15.4542   22.9515 H   0  0  0  0  0  0  0  0  0  0  0  0
   11.4197   14.8548   19.9223 H   0  0  0  0  0  0  0  0  0  0  0  0
   12.7721   13.8257   20.3592 H   0  0  0  0  0  0  0  0  0  0  0  0
   12.9494   15.5922   20.4475 H   0  0  0  0  0  0  0  0  0  0  0  0
   10.0972   16.0665   21.6868 H   0  0  0  0  0  0  0  0  0  0  0  0
   10.5475   15.9457   23.4014 H   0  0  0  0  0  0  0  0  0  0  0  0
   11.5434   16.8783   22.2608 H   0  0  0  0  0  0  0  0  0  0  0  0
    9.0107    8.0639   23.6799 H   0  0  0  0  0  0  0  0  0  0  0  0
  1  2  1  0  0  0  0
  1  3  2  0  0  0  0
  2  4  2  0  0  0  0
  3 14  1  0  0  0  0
  4  5  1  0  0  0  0
  4  9  1  0  0  0  0
  5 14  2  0  0  0  0
  5 15  1  0  0  0  0
  6 15  1  0  0  0  0
  6 16  2  0  0  0  0
  6 18  1  0  0  0  0
  7  8  1  0  0  0  0
  7  9  1  0  0  0  0
  8 15  1  0  0  0  0
  9 17  1  0  0  0  0
 10 13  1  0  0  0  0
 11 13  1  0  0  0  0
 12 13  1  0  0  0  0
 13 18  1  0  0  0  0
  1 19  1  0  0  0  0
  2 20  1  0  0  0  0
  3 21  1  0  0  0  0
  7 22  1  0  0  0  0
  7 23  1  0  0  0  0
  8 24  1  0  0  0  0
  8 25  1  0  0  0  0
  9 26  1  0  0  0  0
 10 27  1  0  0  0  0
 10 28  1  0  0  0  0
 10 29  1  0  0  0  0
 11 30  1  0  0  0  0
 11 31  1  0  0  0  0
 11 32  1  0  0  0  0
 12 33  1  0  0  0  0
 12 34  1  0  0  0  0
 12 35  1  0  0  0  0
 17 36  1  0  0  0  0
M  END
> <id>
EN300-26666142

> <smiles>
CC(C)(C)OC(=O)N1CCC(O)C=2C=CC=NC12

> <IUPAC Name>
tert-butyl 4-hydroxy-1,2,3,4-tetrahydro-1,8-naphthyridine-1-carboxylate

> <CAS>
2413903-63-4

> <URL>
https://www.enaminestore.com/catalog/EN300-26666142

> <ROCS_ShapeQuery>
A71EV2A-x0451_0A_A71EV2A-x0310_0A_A71EV2A-x0416_0A_peptide

> <ROCS_TanimotoCombo>
0.480 

> <ROCS_ShapeTanimoto>
0.329 

> <ROCS_ColorTanimoto>
0.151 

> <ROCS_RefTversky>
0.288 

> <ROCS_RefColorTversky>
0.166 

> <ROCS_RefTverskyCombo>
0.455 

> <ROCS_FitTversky>
1.766 

> <ROCS_FitColorTversky>
0.615 

> <ROCS_FitTverskyCombo>
2.381 

> <ROCS_ColorScore>
-5.073

> <ROCS_Overlap>
1999.420

> <ROCS_Rank>
354                 

$$$$
untitled-dbase-36993_27
  -OEChem-11132313473D

 41 42  0     0  0  0  0  0  0999 V2000
    6.3781   11.6804   26.3051 C   0  0  0  0  0  0  0  0  0  0  0  0
    6.8849   12.9513   26.0767 C   0  0  0  0  0  0  0  0  0  0  0  0
    6.8983   10.6000   25.6021 C   0  0  0  0  0  0  0  0  0  0  0  0
    7.9219   13.1396   25.1569 C   0  0  0  0  0  0  0  0  0  0  0  0
    7.9407   10.7904   24.6794 C   0  0  0  0  0  0  0  0  0  0  0  0
    8.4957   12.0612   24.4552 C   0  0  0  0  0  0  0  0  0  0  0  0
    8.4407    9.6078   23.9552 C   0  0  0  0  0  0  0  0  0  0  0  0
   10.2402   13.4882   23.3760 C   0  0  0  0  0  0  0  0  0  0  0  0
    9.6301    9.8012   23.0655 C   0  0  0  0  0  0  0  0  0  0  0  0
    9.7131   11.2027   22.4323 C   0  0  0  0  0  0  0  0  0  0  0  0
    8.6381   11.3785   21.3406 C   0  0  0  0  0  0  0  0  0  0  0  0
   11.1025   11.2416   21.7426 C   0  0  0  0  0  0  0  0  0  0  0  0
   12.7921   14.0141   22.1833 C   0  0  0  0  0  0  0  0  0  0  0  0
   11.4944   15.0867   20.3192 C   0  0  0  0  0  0  0  0  0  0  0  0
   11.3572   16.0301   22.6428 C   0  0  0  0  0  0  0  0  0  0  0  0
   11.5105   14.7579   21.8104 C   0  0  0  0  0  0  0  0  0  0  0  0
    9.5476   12.2628   23.4785 N   0  0  0  0  0  0  0  0  0  0  0  0
    7.9374    8.5010   24.1204 O   0  0  0  0  0  0  0  0  0  0  0  0
   10.6049   14.1720   24.3299 O   0  0  0  0  0  0  0  0  0  0  0  0
   10.3929   13.9019   22.0757 O   0  0  0  0  0  0  0  0  0  0  0  0
    5.5710   11.5327   27.0160 H   0  0  0  0  0  0  0  0  0  0  0  0
    6.4661   13.8057   26.6010 H   0  0  0  0  0  0  0  0  0  0  0  0
    6.4774    9.6144   25.7840 H   0  0  0  0  0  0  0  0  0  0  0  0
    8.2251   14.1675   24.9814 H   0  0  0  0  0  0  0  0  0  0  0  0
   10.5201    9.5936   23.6737 H   0  0  0  0  0  0  0  0  0  0  0  0
    9.5829    9.0382   22.2779 H   0  0  0  0  0  0  0  0  0  0  0  0
    8.7234   12.3722   20.9164 H   0  0  0  0  0  0  0  0  0  0  0  0
    7.6579   11.2508   21.7850 H   0  0  0  0  0  0  0  0  0  0  0  0
    8.7924   10.6338   20.5684 H   0  0  0  0  0  0  0  0  0  0  0  0
   11.2276   12.2072   21.2735 H   0  0  0  0  0  0  0  0  0  0  0  0
   11.1414   10.4563   21.0012 H   0  0  0  0  0  0  0  0  0  0  0  0
   11.8646   11.0874   22.4934 H   0  0  0  0  0  0  0  0  0  0  0  0
   12.8074   13.7762   23.2529 H   0  0  0  0  0  0  0  0  0  0  0  0
   12.8964   13.0820   21.6183 H   0  0  0  0  0  0  0  0  0  0  0  0
   13.6745   14.6353   21.9920 H   0  0  0  0  0  0  0  0  0  0  0  0
   10.5767   15.6205   20.0472 H   0  0  0  0  0  0  0  0  0  0  0  0
   11.5086   14.1708   19.7174 H   0  0  0  0  0  0  0  0  0  0  0  0
   12.3522   15.7034   20.0321 H   0  0  0  0  0  0  0  0  0  0  0  0
   10.4380   16.5639   22.3755 H   0  0  0  0  0  0  0  0  0  0  0  0
   11.3296   15.8098   23.7148 H   0  0  0  0  0  0  0  0  0  0  0  0
   12.1842   16.7233   22.4509 H   0  0  0  0  0  0  0  0  0  0  0  0
  1  2  2  0  0  0  0
  1  3  1  0  0  0  0
  2  4  1  0  0  0  0
  3  5  2  0  0  0  0
  4  6  2  0  0  0  0
  5  6  1  0  0  0  0
  5  7  1  0  0  0  0
  6 17  1  0  0  0  0
  7  9  1  0  0  0  0
  7 18  2  0  0  0  0
  8 17  1  0  0  0  0
  8 19  2  0  0  0  0
  8 20  1  0  0  0  0
  9 10  1  0  0  0  0
 10 11  1  0  0  0  0
 10 12  1  0  0  0  0
 10 17  1  0  0  0  0
 13 16  1  0  0  0  0
 14 16  1  0  0  0  0
 15 16  1  0  0  0  0
 16 20  1  0  0  0  0
  1 21  1  0  0  0  0
  2 22  1  0  0  0  0
  3 23  1  0  0  0  0
  4 24  1  0  0  0  0
  9 25  1  0  0  0  0
  9 26  1  0  0  0  0
 11 27  1  0  0  0  0
 11 28  1  0  0  0  0
 11 29  1  0  0  0  0
 12 30  1  0  0  0  0
 12 31  1  0  0  0  0
 12 32  1  0  0  0  0
 13 33  1  0  0  0  0
 13 34  1  0  0  0  0
 13 35  1  0  0  0  0
 14 36  1  0  0  0  0
 14 37  1  0  0  0  0
 14 38  1  0  0  0  0
 15 39  1  0  0  0  0
 15 40  1  0  0  0  0
 15 41  1  0  0  0  0
M  END
> <id>
EN300-345183

> <smiles>
CC(C)(C)OC(=O)N1C=2C=CC=CC2C(=O)CC1(C)C

> <MDLNUMBER>
MFCD09264186

> <IUPAC Name>
tert-butyl 2,2-dimethyl-4-oxo-1,2,3,4-tetrahydroquinoline-1-carboxylate

> <CAS>
179898-87-4

> <Purity>
95

> <URL>
https://www.enaminestore.com/catalog/EN300-345183

> <ROCS_ShapeQuery>
A71EV2A-x0451_0A_A71EV2A-x0310_0A_A71EV2A-x0416_0A_peptide

> <ROCS_TanimotoCombo>
0.480 

> <ROCS_ShapeTanimoto>
0.351 

> <ROCS_ColorTanimoto>
0.129 

> <ROCS_RefTversky>
0.305 

> <ROCS_RefColorTversky>
0.142 

> <ROCS_RefTverskyCombo>
0.447 

> <ROCS_FitTversky>
1.743 

> <ROCS_FitColorTversky>
0.593 

> <ROCS_FitTverskyCombo>
2.336 

> <ROCS_ColorScore>
-4.323

> <ROCS_Overlap>
2117.562

> <ROCS_Rank>
355                 

$$$$
untitled-dbase-28741_78
  -OEChem-11132313473D

 41 43  0     1  0  0  0  0  0999 V2000
    6.4422   11.2626   25.5251 C   0  0  0  0  0  0  0  0  0  0  0  0
    8.1123   10.4599   24.5386 C   0  0  0  0  0  0  0  0  0  0  0  0
   11.8397   14.9501   22.4852 C   0  0  0  0  0  0  0  0  0  0  0  0
   10.2044   13.1268   25.1623 C   0  0  0  0  0  0  0  0  0  0  0  0
   11.5338   13.6752   24.6438 C   0  0  0  0  0  0  0  0  0  0  0  0
   10.2956   10.3954   23.4364 C   0  0  0  0  0  0  0  0  0  0  0  0
   11.2950   12.5274   22.4737 C   0  0  0  0  0  0  0  0  0  0  0  0
   10.0090   11.8319   22.9533 C   0  0  2  0  0  0  0  0  0  0  0  0
    9.2678   12.6348   24.0476 C   0  0  1  0  0  0  0  0  0  0  0  0
   13.4923   16.4172   20.6663 C   0  0  0  0  0  0  0  0  0  0  0  0
   11.9834   15.5259   18.8669 C   0  0  0  0  0  0  0  0  0  0  0  0
   11.0476   17.0156   20.6594 C   0  0  0  0  0  0  0  0  0  0  0  0
   12.0801   15.9372   20.3344 C   0  0  0  0  0  0  0  0  0  0  0  0
    6.9989   10.0777   25.1275 N   0  0  0  0  0  0  0  0  0  0  0  0
    7.1336   12.3631   25.2189 N   0  0  0  0  0  0  0  0  0  0  0  0
    8.1913   11.8246   24.5946 N   0  0  0  0  0  0  0  0  0  0  0  0
    9.0843    9.7517   23.9246 N   0  0  0  0  0  0  0  0  0  0  0  0
   11.5527   13.7757   23.1863 N   0  0  0  0  0  0  0  0  0  0  0  0
   12.1075   16.0264   23.0162 O   0  0  0  0  0  0  0  0  0  0  0  0
   11.7945   14.7788   21.1269 O   0  0  0  0  0  0  0  0  0  0  0  0
    5.5023   11.3241   26.0529 H   0  0  0  0  0  0  0  0  0  0  0  0
   10.4095   12.3114   25.8799 H   0  0  0  0  0  0  0  0  0  0  0  0
    9.6982   13.9096   25.7544 H   0  0  0  0  0  0  0  0  0  0  0  0
   11.7121   14.6849   25.0447 H   0  0  0  0  0  0  0  0  0  0  0  0
   12.3586   13.0418   25.0011 H   0  0  0  0  0  0  0  0  0  0  0  0
   10.7057    9.7996   22.6118 H   0  0  0  0  0  0  0  0  0  0  0  0
   11.0453   10.3893   24.2373 H   0  0  0  0  0  0  0  0  0  0  0  0
   12.1444   11.8358   22.5458 H   0  0  0  0  0  0  0  0  0  0  0  0
   11.1957   12.7860   21.4089 H   0  0  0  0  0  0  0  0  0  0  0  0
    9.3414   11.7445   22.0772 H   0  0  0  0  0  0  0  0  0  0  0  0
    8.7895   13.5087   23.5727 H   0  0  0  0  0  0  0  0  0  0  0  0
   13.5659   16.7134   21.7189 H   0  0  0  0  0  0  0  0  0  0  0  0
   14.2388   15.6406   20.4706 H   0  0  0  0  0  0  0  0  0  0  0  0
   13.7525   17.3038   20.0768 H   0  0  0  0  0  0  0  0  0  0  0  0
   10.9718   15.1808   18.6243 H   0  0  0  0  0  0  0  0  0  0  0  0
   12.6556   14.6875   18.6514 H   0  0  0  0  0  0  0  0  0  0  0  0
   12.2369   16.3544   18.1976 H   0  0  0  0  0  0  0  0  0  0  0  0
   10.0346   16.6715   20.4214 H   0  0  0  0  0  0  0  0  0  0  0  0
   11.0774   17.2969   21.7171 H   0  0  0  0  0  0  0  0  0  0  0  0
   11.2189   17.9138   20.0552 H   0  0  0  0  0  0  0  0  0  0  0  0
    9.0416    8.7383   23.8726 H   0  0  0  0  0  0  0  0  0  0  0  0
  1 14  1  0  0  0  0
  1 15  2  0  0  0  0
  2 14  2  0  0  0  0
  2 16  1  0  0  0  0
  2 17  1  0  0  0  0
  3 18  1  0  0  0  0
  3 19  2  0  0  0  0
  3 20  1  0  0  0  0
  4  5  1  0  0  0  0
  4  9  1  0  0  0  0
  5 18  1  0  0  0  0
  6  8  1  0  0  0  0
  6 17  1  0  0  0  0
  7  8  1  0  0  0  0
  7 18  1  0  0  0  0
  8  9  1  0  0  0  0
  9 16  1  0  0  0  0
 10 13  1  0  0  0  0
 11 13  1  0  0  0  0
 12 13  1  0  0  0  0
 13 20  1  0  0  0  0
 15 16  1  0  0  0  0
  1 21  1  0  0  0  0
  4 22  1  0  0  0  0
  4 23  1  0  0  0  0
  5 24  1  0  0  0  0
  5 25  1  0  0  0  0
  6 26  1  0  0  0  0
  6 27  1  0  0  0  0
  7 28  1  0  0  0  0
  7 29  1  0  0  0  0
  8 30  1  0  0  0  0
  9 31  1  0  0  0  0
 10 32  1  0  0  0  0
 10 33  1  0  0  0  0
 10 34  1  0  0  0  0
 11 35  1  0  0  0  0
 11 36  1  0  0  0  0
 11 37  1  0  0  0  0
 12 38  1  0  0  0  0
 12 39  1  0  0  0  0
 12 40  1  0  0  0  0
 17 41  1  0  0  0  0
M  END
> <id>
EN300-1118514

> <smiles>
CC(C)(C)OC(=O)N1CCC2C(CNC3=NC=NN23)C1

> <IUPAC Name>
tert-butyl 2,3,5,7,11-pentaazatricyclo[7.4.0.0,2,6]trideca-3,5-diene-11-carboxylate

> <CAS>
1702559-22-5

> <URL>
https://www.enaminestore.com/catalog/EN300-1118514

> <ROCS_ShapeQuery>
A71EV2A-x0451_0A_A71EV2A-x0310_0A_A71EV2A-x0416_0A_peptide

> <ROCS_TanimotoCombo>
0.480 

> <ROCS_ShapeTanimoto>
0.342 

> <ROCS_ColorTanimoto>
0.138 

> <ROCS_RefTversky>
0.300 

> <ROCS_RefColorTversky>
0.158 

> <ROCS_RefTverskyCombo>
0.458 

> <ROCS_FitTversky>
1.687 

> <ROCS_FitColorTversky>
0.522 

> <ROCS_FitTverskyCombo>
2.209 

> <ROCS_ColorScore>
-4.815

> <ROCS_Overlap>
2085.586

> <ROCS_Rank>
356                 

$$$$
untitled-dbase-34893_71
  -OEChem-11132313473D

 42 44  0     1  0  0  0  0  0999 V2000
   10.0880   13.2594   23.4770 C   0  0  0  0  0  0  0  0  0  0  0  0
    5.6569   11.9088   25.9187 C   0  0  0  0  0  0  0  0  0  0  0  0
    6.2535   12.2050   24.5461 C   0  0  0  0  0  0  0  0  0  0  0  0
    8.9344   10.2876   22.5175 C   0  0  0  0  0  0  0  0  0  0  0  0
    9.9116    9.9536   23.6748 C   0  0  0  0  0  0  0  0  0  0  0  0
    6.7276   11.7109   26.9990 C   0  0  0  0  0  0  0  0  0  0  0  0
    7.2808   11.1305   24.1844 C   0  0  1  0  0  0  0  0  0  0  0  0
    8.2209   11.5537   23.0324 C   0  0  1  0  0  0  0  0  0  0  0  0
    9.6471   11.0893   24.6839 C   0  0  2  0  0  0  0  0  0  0  0  0
    8.2775   10.8392   25.3571 C   0  0  1  0  0  0  0  0  0  0  0  0
   12.5403   14.3011   22.4950 C   0  0  0  0  0  0  0  0  0  0  0  0
   11.3352   14.5956   20.3109 C   0  0  0  0  0  0  0  0  0  0  0  0
   10.5478   15.8320   22.3504 C   0  0  0  0  0  0  0  0  0  0  0  0
   11.1865   14.5451   21.8299 C   0  0  0  0  0  0  0  0  0  0  0  0
    8.0939   11.7516   26.4847 N   0  0  0  0  0  0  0  0  0  0  0  0
    9.3145   12.1604   23.7675 N   0  0  0  0  0  0  0  0  0  0  0  0
   10.5981   13.9937   24.3197 O   0  0  0  0  0  0  0  0  0  0  0  0
   10.3203   13.4470   22.1426 O   0  0  0  0  0  0  0  0  0  0  0  0
    4.9875   12.7269   26.2035 H   0  0  0  0  0  0  0  0  0  0  0  0
    5.0441   11.0028   25.8556 H   0  0  0  0  0  0  0  0  0  0  0  0
    5.4618   12.2356   23.7913 H   0  0  0  0  0  0  0  0  0  0  0  0
    6.7127   13.1994   24.5564 H   0  0  0  0  0  0  0  0  0  0  0  0
    9.4992   10.5018   21.6039 H   0  0  0  0  0  0  0  0  0  0  0  0
    8.2453    9.4628   22.3155 H   0  0  0  0  0  0  0  0  0  0  0  0
    9.7234    8.9605   24.0931 H   0  0  0  0  0  0  0  0  0  0  0  0
   10.9440    9.9874   23.3099 H   0  0  0  0  0  0  0  0  0  0  0  0
    6.6180   12.4881   27.7659 H   0  0  0  0  0  0  0  0  0  0  0  0
    6.5574   10.7584   27.5187 H   0  0  0  0  0  0  0  0  0  0  0  0
    6.7378   10.2043   23.9324 H   0  0  0  0  0  0  0  0  0  0  0  0
    7.7723   12.1719   22.2534 H   0  0  0  0  0  0  0  0  0  0  0  0
   10.4833   11.3004   25.3579 H   0  0  0  0  0  0  0  0  0  0  0  0
    8.1916    9.8037   25.6994 H   0  0  0  0  0  0  0  0  0  0  0  0
   12.4378   14.2641   23.5854 H   0  0  0  0  0  0  0  0  0  0  0  0
   12.9929   13.3634   22.1563 H   0  0  0  0  0  0  0  0  0  0  0  0
   13.2360   15.1196   22.2775 H   0  0  0  0  0  0  0  0  0  0  0  0
   10.3662   14.7705   19.8296 H   0  0  0  0  0  0  0  0  0  0  0  0
   11.7045   13.6394   19.9228 H   0  0  0  0  0  0  0  0  0  0  0  0
   12.0252   15.3862   19.9986 H   0  0  0  0  0  0  0  0  0  0  0  0
    9.5767   16.0072   21.8735 H   0  0  0  0  0  0  0  0  0  0  0  0
   10.3994   15.7987   23.4346 H   0  0  0  0  0  0  0  0  0  0  0  0
   11.1713   16.7009   22.1107 H   0  0  0  0  0  0  0  0  0  0  0  0
    8.3155   12.7064   26.1942 H   0  0  0  0  0  0  0  0  0  0  0  0
  1 16  1  0  0  0  0
  1 17  2  0  0  0  0
  1 18  1  0  0  0  0
  2  3  1  0  0  0  0
  2  6  1  0  0  0  0
  3  7  1  0  0  0  0
  4  5  1  0  0  0  0
  4  8  1  0  0  0  0
  5  9  1  0  0  0  0
  6 15  1  0  0  0  0
  7  8  1  0  0  0  0
  7 10  1  0  0  0  0
  8 16  1  0  0  0  0
  9 10  1  0  0  0  0
  9 16  1  0  0  0  0
 10 15  1  0  0  0  0
 11 14  1  0  0  0  0
 12 14  1  0  0  0  0
 13 14  1  0  0  0  0
 14 18  1  0  0  0  0
  2 19  1  0  0  0  0
  2 20  1  0  0  0  0
  3 21  1  0  0  0  0
  3 22  1  0  0  0  0
  4 23  1  0  0  0  0
  4 24  1  0  0  0  0
  5 25  1  0  0  0  0
  5 26  1  0  0  0  0
  6 27  1  0  0  0  0
  6 28  1  0  0  0  0
  7 29  1  0  0  0  0
  8 30  1  0  0  0  0
  9 31  1  0  0  0  0
 10 32  1  0  0  0  0
 11 33  1  0  0  0  0
 11 34  1  0  0  0  0
 11 35  1  0  0  0  0
 12 36  1  0  0  0  0
 12 37  1  0  0  0  0
 12 38  1  0  0  0  0
 13 39  1  0  0  0  0
 13 40  1  0  0  0  0
 13 41  1  0  0  0  0
 15 42  1  0  0  0  0
M  END
> <id>
EN300-115019

> <smiles>
CC(C)(C)OC(=O)N1C2CCC1C3NCCCC23

> <MDLNUMBER>
MFCD32668389

> <IUPAC Name>
tert-butyl 3,11-diazatricyclo[6.2.1.0,2,7]undecane-11-carboxylate

> <CAS>
1934881-39-6

> <URL>
https://www.enaminestore.com/catalog/EN300-115019

> <ROCS_ShapeQuery>
A71EV2A-x0451_0A_A71EV2A-x0310_0A_A71EV2A-x0416_0A_peptide

> <ROCS_TanimotoCombo>
0.480 

> <ROCS_ShapeTanimoto>
0.295 

> <ROCS_ColorTanimoto>
0.185 

> <ROCS_RefTversky>
0.265 

> <ROCS_RefColorTversky>
0.219 

> <ROCS_RefTverskyCombo>
0.484 

> <ROCS_FitTversky>
1.622 

> <ROCS_FitColorTversky>
0.541 

> <ROCS_FitTverskyCombo>
2.163 

> <ROCS_ColorScore>
-6.720

> <ROCS_Overlap>
1840.719

> <ROCS_Rank>
357                 

$$$$
untitled-dbase-34918_71
  -OEChem-11132313473D

 42 44  0     1  0  0  0  0  0999 V2000
   10.0880   13.2594   23.4770 C   0  0  0  0  0  0  0  0  0  0  0  0
    5.6569   11.9088   25.9187 C   0  0  0  0  0  0  0  0  0  0  0  0
    6.2535   12.2050   24.5461 C   0  0  0  0  0  0  0  0  0  0  0  0
    8.9344   10.2876   22.5175 C   0  0  0  0  0  0  0  0  0  0  0  0
    9.9116    9.9536   23.6748 C   0  0  0  0  0  0  0  0  0  0  0  0
    6.7276   11.7109   26.9990 C   0  0  0  0  0  0  0  0  0  0  0  0
    7.2808   11.1305   24.1844 C   0  0  1  0  0  0  0  0  0  0  0  0
    8.2209   11.5537   23.0324 C   0  0  1  0  0  0  0  0  0  0  0  0
    9.6471   11.0893   24.6839 C   0  0  2  0  0  0  0  0  0  0  0  0
    8.2775   10.8392   25.3571 C   0  0  1  0  0  0  0  0  0  0  0  0
   12.5403   14.3011   22.4950 C   0  0  0  0  0  0  0  0  0  0  0  0
   11.3352   14.5956   20.3109 C   0  0  0  0  0  0  0  0  0  0  0  0
   10.5478   15.8320   22.3504 C   0  0  0  0  0  0  0  0  0  0  0  0
   11.1865   14.5451   21.8299 C   0  0  0  0  0  0  0  0  0  0  0  0
    8.0939   11.7516   26.4847 N   0  0  0  0  0  0  0  0  0  0  0  0
    9.3145   12.1604   23.7675 N   0  0  0  0  0  0  0  0  0  0  0  0
   10.5981   13.9937   24.3197 O   0  0  0  0  0  0  0  0  0  0  0  0
   10.3203   13.4470   22.1426 O   0  0  0  0  0  0  0  0  0  0  0  0
    4.9875   12.7269   26.2035 H   0  0  0  0  0  0  0  0  0  0  0  0
    5.0441   11.0028   25.8556 H   0  0  0  0  0  0  0  0  0  0  0  0
    5.4618   12.2356   23.7913 H   0  0  0  0  0  0  0  0  0  0  0  0
    6.7127   13.1994   24.5564 H   0  0  0  0  0  0  0  0  0  0  0  0
    9.4992   10.5018   21.6039 H   0  0  0  0  0  0  0  0  0  0  0  0
    8.2453    9.4628   22.3155 H   0  0  0  0  0  0  0  0  0  0  0  0
    9.7234    8.9605   24.0931 H   0  0  0  0  0  0  0  0  0  0  0  0
   10.9440    9.9874   23.3099 H   0  0  0  0  0  0  0  0  0  0  0  0
    6.6180   12.4881   27.7659 H   0  0  0  0  0  0  0  0  0  0  0  0
    6.5574   10.7584   27.5187 H   0  0  0  0  0  0  0  0  0  0  0  0
    6.7378   10.2043   23.9324 H   0  0  0  0  0  0  0  0  0  0  0  0
    7.7723   12.1719   22.2534 H   0  0  0  0  0  0  0  0  0  0  0  0
   10.4833   11.3004   25.3579 H   0  0  0  0  0  0  0  0  0  0  0  0
    8.1916    9.8037   25.6994 H   0  0  0  0  0  0  0  0  0  0  0  0
   12.4378   14.2641   23.5854 H   0  0  0  0  0  0  0  0  0  0  0  0
   12.9929   13.3634   22.1563 H   0  0  0  0  0  0  0  0  0  0  0  0
   13.2360   15.1196   22.2775 H   0  0  0  0  0  0  0  0  0  0  0  0
   10.3662   14.7705   19.8296 H   0  0  0  0  0  0  0  0  0  0  0  0
   11.7045   13.6394   19.9228 H   0  0  0  0  0  0  0  0  0  0  0  0
   12.0252   15.3862   19.9986 H   0  0  0  0  0  0  0  0  0  0  0  0
    9.5767   16.0072   21.8735 H   0  0  0  0  0  0  0  0  0  0  0  0
   10.3994   15.7987   23.4346 H   0  0  0  0  0  0  0  0  0  0  0  0
   11.1713   16.7009   22.1107 H   0  0  0  0  0  0  0  0  0  0  0  0
    8.3155   12.7064   26.1942 H   0  0  0  0  0  0  0  0  0  0  0  0
  1 16  1  0  0  0  0
  1 17  2  0  0  0  0
  1 18  1  0  0  0  0
  2  3  1  0  0  0  0
  2  6  1  0  0  0  0
  3  7  1  0  0  0  0
  4  5  1  0  0  0  0
  4  8  1  0  0  0  0
  5  9  1  0  0  0  0
  6 15  1  0  0  0  0
  7  8  1  0  0  0  0
  7 10  1  0  0  0  0
  8 16  1  0  0  0  0
  9 10  1  0  0  0  0
  9 16  1  0  0  0  0
 10 15  1  0  0  0  0
 11 14  1  0  0  0  0
 12 14  1  0  0  0  0
 13 14  1  0  0  0  0
 14 18  1  0  0  0  0
  2 19  1  0  0  0  0
  2 20  1  0  0  0  0
  3 21  1  0  0  0  0
  3 22  1  0  0  0  0
  4 23  1  0  0  0  0
  4 24  1  0  0  0  0
  5 25  1  0  0  0  0
  5 26  1  0  0  0  0
  6 27  1  0  0  0  0
  6 28  1  0  0  0  0
  7 29  1  0  0  0  0
  8 30  1  0  0  0  0
  9 31  1  0  0  0  0
 10 32  1  0  0  0  0
 11 33  1  0  0  0  0
 11 34  1  0  0  0  0
 11 35  1  0  0  0  0
 12 36  1  0  0  0  0
 12 37  1  0  0  0  0
 12 38  1  0  0  0  0
 13 39  1  0  0  0  0
 13 40  1  0  0  0  0
 13 41  1  0  0  0  0
 15 42  1  0  0  0  0
M  END
> <id>
EN300-26573204

> <smiles>
Cl.CC(C)(C)OC(=O)N1C2CCC1C3NCCCC23

> <MDLNUMBER>
MFCD32667229

> <IUPAC Name>
tert-butyl 3,11-diazatricyclo[6.2.1.0,2,7]undecane-11-carboxylate hydrochloride

> <CAS>
2416243-29-1

> <Purity>
95

> <URL>
https://www.enaminestore.com/catalog/EN300-26573204

> <Saltdate>
Cl

> <ROCS_ShapeQuery>
A71EV2A-x0451_0A_A71EV2A-x0310_0A_A71EV2A-x0416_0A_peptide

> <ROCS_TanimotoCombo>
0.480 

> <ROCS_ShapeTanimoto>
0.295 

> <ROCS_ColorTanimoto>
0.185 

> <ROCS_RefTversky>
0.265 

> <ROCS_RefColorTversky>
0.219 

> <ROCS_RefTverskyCombo>
0.484 

> <ROCS_FitTversky>
1.622 

> <ROCS_FitColorTversky>
0.541 

> <ROCS_FitTverskyCombo>
2.163 

> <ROCS_ColorScore>
-6.720

> <ROCS_Overlap>
1840.719

> <ROCS_Rank>
358                 

$$$$
untitled-dbase-34755_34
  -OEChem-11132313473D

 41 42  0     1  0  0  0  0  0999 V2000
    6.9808   12.6206   24.8837 C   0  0  0  0  0  0  0  0  0  0  0  0
    7.4843   10.1347   25.9938 C   0  0  0  0  0  0  0  0  0  0  0  0
    7.9140   11.7671   24.2626 C   0  0  0  0  0  0  0  0  0  0  0  0
    8.1610   10.4886   24.8085 C   0  0  0  0  0  0  0  0  0  0  0  0
    6.3169   12.2386   26.0468 C   0  0  0  0  0  0  0  0  0  0  0  0
    6.5737   10.9958   26.6068 C   0  0  0  0  0  0  0  0  0  0  0  0
   10.9235   13.0393   23.5149 C   0  0  0  0  0  0  0  0  0  0  0  0
    8.6174   12.2787   23.0263 C   0  0  0  0  0  0  0  0  0  0  0  0
    9.5087    9.5769   22.8915 C   0  0  0  0  0  0  0  0  0  0  0  0
   10.5376   10.6918   22.6612 C   0  0  1  0  0  0  0  0  0  0  0  0
   10.9601   10.7199   21.1894 C   0  0  0  0  0  0  0  0  0  0  0  0
   12.5929   15.3247   23.0918 C   0  0  0  0  0  0  0  0  0  0  0  0
   13.9670   13.8188   21.6244 C   0  0  0  0  0  0  0  0  0  0  0  0
   11.5768   14.3064   21.0266 C   0  0  0  0  0  0  0  0  0  0  0  0
   12.5700   14.1061   22.1703 C   0  0  0  0  0  0  0  0  0  0  0  0
    9.0224    9.5498   24.2569 N   0  0  0  0  0  0  0  0  0  0  0  0
   10.0587   12.0254   23.0745 N   0  0  0  0  0  0  0  0  0  0  0  0
   10.6163   13.9055   24.3321 O   0  0  0  0  0  0  0  0  0  0  0  0
   12.1622   12.9652   22.9337 O   0  0  0  0  0  0  0  0  0  0  0  0
    5.4400   13.0699   26.6242 F   0  0  0  0  0  0  0  0  0  0  0  0
    5.9452   10.6194   27.7280 F   0  0  0  0  0  0  0  0  0  0  0  0
    6.7728   13.6029   24.4653 H   0  0  0  0  0  0  0  0  0  0  0  0
    7.6582    9.1605   26.4483 H   0  0  0  0  0  0  0  0  0  0  0  0
    8.1891   11.8308   22.1229 H   0  0  0  0  0  0  0  0  0  0  0  0
    8.4641   13.3604   22.9322 H   0  0  0  0  0  0  0  0  0  0  0  0
    8.6687    9.6349   22.1885 H   0  0  0  0  0  0  0  0  0  0  0  0
    9.9923    8.6129   22.6895 H   0  0  0  0  0  0  0  0  0  0  0  0
   11.4285   10.4543   23.2560 H   0  0  0  0  0  0  0  0  0  0  0  0
   10.0995   10.9531   20.5671 H   0  0  0  0  0  0  0  0  0  0  0  0
   11.3570    9.7483   20.9052 H   0  0  0  0  0  0  0  0  0  0  0  0
   11.7257   11.4782   21.0440 H   0  0  0  0  0  0  0  0  0  0  0  0
   11.5920   15.5342   23.4858 H   0  0  0  0  0  0  0  0  0  0  0  0
   13.2754   15.1797   23.9356 H   0  0  0  0  0  0  0  0  0  0  0  0
   12.9041   16.2224   22.5453 H   0  0  0  0  0  0  0  0  0  0  0  0
   13.9553   12.9452   20.9627 H   0  0  0  0  0  0  0  0  0  0  0  0
   14.6625   13.5809   22.4374 H   0  0  0  0  0  0  0  0  0  0  0  0
   14.3656   14.6717   21.0655 H   0  0  0  0  0  0  0  0  0  0  0  0
   11.5602   13.4324   20.3654 H   0  0  0  0  0  0  0  0  0  0  0  0
   10.5616   14.4772   21.3992 H   0  0  0  0  0  0  0  0  0  0  0  0
   11.8672   15.1600   20.4034 H   0  0  0  0  0  0  0  0  0  0  0  0
    9.1788    8.6965   24.7834 H   0  0  0  0  0  0  0  0  0  0  0  0
  1  3  2  0  0  0  0
  1  5  1  0  0  0  0
  2  4  2  0  0  0  0
  2  6  1  0  0  0  0
  3  4  1  0  0  0  0
  3  8  1  0  0  0  0
  4 16  1  0  0  0  0
  5  6  2  0  0  0  0
  5 20  1  0  0  0  0
  6 21  1  0  0  0  0
  7 17  1  0  0  0  0
  7 18  2  0  0  0  0
  7 19  1  0  0  0  0
  8 17  1  0  0  0  0
  9 10  1  0  0  0  0
  9 16  1  0  0  0  0
 10 11  1  0  0  0  0
 10 17  1  0  0  0  0
 12 15  1  0  0  0  0
 13 15  1  0  0  0  0
 14 15  1  0  0  0  0
 15 19  1  0  0  0  0
  1 22  1  0  0  0  0
  2 23  1  0  0  0  0
  8 24  1  0  0  0  0
  8 25  1  0  0  0  0
  9 26  1  0  0  0  0
  9 27  1  0  0  0  0
 10 28  1  0  0  0  0
 11 29  1  0  0  0  0
 11 30  1  0  0  0  0
 11 31  1  0  0  0  0
 12 32  1  0  0  0  0
 12 33  1  0  0  0  0
 12 34  1  0  0  0  0
 13 35  1  0  0  0  0
 13 36  1  0  0  0  0
 13 37  1  0  0  0  0
 14 38  1  0  0  0  0
 14 39  1  0  0  0  0
 14 40  1  0  0  0  0
 16 41  1  0  0  0  0
M  END
> <id>
EN300-97874

> <smiles>
CC1CNC=2C=C(F)C(F)=CC2CN1C(=O)OC(C)(C)C

> <MDLNUMBER>
MFCD21334167

> <IUPAC Name>
tert-butyl 7,8-difluoro-3-methyl-2,3,4,5-tetrahydro-1H-1,4-benzodiazepine-4-carboxylate

> <CAS>
1375474-15-9

> <URL>
https://www.enaminestore.com/catalog/EN300-97874

> <ROCS_ShapeQuery>
A71EV2A-x0451_0A_A71EV2A-x0310_0A_A71EV2A-x0416_0A_peptide

> <ROCS_TanimotoCombo>
0.480 

> <ROCS_ShapeTanimoto>
0.332 

> <ROCS_ColorTanimoto>
0.148 

> <ROCS_RefTversky>
0.294 

> <ROCS_RefColorTversky>
0.156 

> <ROCS_RefTverskyCombo>
0.450 

> <ROCS_FitTversky>
1.628 

> <ROCS_FitColorTversky>
0.749 

> <ROCS_FitTverskyCombo>
2.376 

> <ROCS_ColorScore>
-4.745

> <ROCS_Overlap>
2041.371

> <ROCS_Rank>
359                 

$$$$
untitled-dbase-34428_89
  -OEChem-11132313473D

 38 39  0     0  0  0  0  0  0999 V2000
    6.1810   12.1852   26.2383 C   0  0  0  0  0  0  0  0  0  0  0  0
    6.5574   13.3064   25.5119 C   0  0  0  0  0  0  0  0  0  0  0  0
    6.9054   11.0043   26.1061 C   0  0  0  0  0  0  0  0  0  0  0  0
    7.6567   13.2468   24.6524 C   0  0  0  0  0  0  0  0  0  0  0  0
    8.0192   10.9310   25.2491 C   0  0  0  0  0  0  0  0  0  0  0  0
    8.4079   12.0654   24.5021 C   0  0  0  0  0  0  0  0  0  0  0  0
   10.3561   13.1673   23.4343 C   0  0  0  0  0  0  0  0  0  0  0  0
    8.7900    9.6376   25.1862 C   0  0  0  0  0  0  0  0  0  0  0  0
    8.7566    9.7276   22.7417 C   0  0  0  0  0  0  0  0  0  0  0  0
    9.8444   10.7985   22.8408 C   0  0  0  0  0  0  0  0  0  0  0  0
   12.2632   15.1734   22.6870 C   0  0  0  0  0  0  0  0  0  0  0  0
   11.9992   14.2923   20.3496 C   0  0  0  0  0  0  0  0  0  0  0  0
   10.0281   15.2994   21.5365 C   0  0  0  0  0  0  0  0  0  0  0  0
   11.3155   14.4927   21.7004 C   0  0  0  0  0  0  0  0  0  0  0  0
    8.6019    8.9074   23.9394 N   0  0  0  0  0  0  0  0  0  0  0  0
    9.5195   12.0342   23.5828 N   0  0  0  0  0  0  0  0  0  0  0  0
   10.5566   14.0268   24.2903 O   0  0  0  0  0  0  0  0  0  0  0  0
   10.9799   13.1970   22.2107 O   0  0  0  0  0  0  0  0  0  0  0  0
    5.3250   12.2289   26.9049 H   0  0  0  0  0  0  0  0  0  0  0  0
    5.9855   14.2262   25.5969 H   0  0  0  0  0  0  0  0  0  0  0  0
    6.6018   10.1412   26.6894 H   0  0  0  0  0  0  0  0  0  0  0  0
    7.8712   14.1342   24.0638 H   0  0  0  0  0  0  0  0  0  0  0  0
    9.8609    9.8655   25.2359 H   0  0  0  0  0  0  0  0  0  0  0  0
    8.5699    9.0183   26.0626 H   0  0  0  0  0  0  0  0  0  0  0  0
    7.7984   10.2141   22.5102 H   0  0  0  0  0  0  0  0  0  0  0  0
    8.9685    9.0635   21.8919 H   0  0  0  0  0  0  0  0  0  0  0  0
   10.7572   10.3294   23.2822 H   0  0  0  0  0  0  0  0  0  0  0  0
   10.2027   11.0980   21.8226 H   0  0  0  0  0  0  0  0  0  0  0  0
   11.7761   15.3191   23.6578 H   0  0  0  0  0  0  0  0  0  0  0  0
   13.1752   14.5873   22.8400 H   0  0  0  0  0  0  0  0  0  0  0  0
   12.5479   16.1702   22.3313 H   0  0  0  0  0  0  0  0  0  0  0  0
   11.3228   13.8042   19.6386 H   0  0  0  0  0  0  0  0  0  0  0  0
   12.8710   13.6352   20.4471 H   0  0  0  0  0  0  0  0  0  0  0  0
   12.3282   15.2432   19.9183 H   0  0  0  0  0  0  0  0  0  0  0  0
    9.3482   14.8114   20.8289 H   0  0  0  0  0  0  0  0  0  0  0  0
    9.5047   15.4218   22.4903 H   0  0  0  0  0  0  0  0  0  0  0  0
   10.2406   16.2932   21.1259 H   0  0  0  0  0  0  0  0  0  0  0  0
    9.2468    8.1092   23.9043 H   0  0  0  0  0  0  0  0  0  0  0  0
  1  2  2  0  0  0  0
  1  3  1  0  0  0  0
  2  4  1  0  0  0  0
  3  5  2  0  0  0  0
  4  6  2  0  0  0  0
  5  6  1  0  0  0  0
  5  8  1  0  0  0  0
  6 16  1  0  0  0  0
  7 16  1  0  0  0  0
  7 17  2  0  0  0  0
  7 18  1  0  0  0  0
  8 15  1  0  0  0  0
  9 10  1  0  0  0  0
  9 15  1  0  0  0  0
 10 16  1  0  0  0  0
 11 14  1  0  0  0  0
 12 14  1  0  0  0  0
 13 14  1  0  0  0  0
 14 18  1  0  0  0  0
  1 19  1  0  0  0  0
  2 20  1  0  0  0  0
  3 21  1  0  0  0  0
  4 22  1  0  0  0  0
  8 23  1  0  0  0  0
  8 24  1  0  0  0  0
  9 25  1  0  0  0  0
  9 26  1  0  0  0  0
 10 27  1  0  0  0  0
 10 28  1  0  0  0  0
 11 29  1  0  0  0  0
 11 30  1  0  0  0  0
 11 31  1  0  0  0  0
 12 32  1  0  0  0  0
 12 33  1  0  0  0  0
 12 34  1  0  0  0  0
 13 35  1  0  0  0  0
 13 36  1  0  0  0  0
 13 37  1  0  0  0  0
 15 38  1  0  0  0  0
M  END
> <id>
EN300-88620

> <smiles>
CC(C)(C)OC(=O)N1CCNCC=2C=CC=CC12

> <MDLNUMBER>
MFCD11505642

> <IUPAC Name>
tert-butyl 2,3,4,5-tetrahydro-1H-1,4-benzodiazepine-1-carboxylate

> <CAS>
1087800-69-8

> <URL>
https://www.enaminestore.com/catalog/EN300-88620

> <ROCS_ShapeQuery>
A71EV2A-x0451_0A_A71EV2A-x0310_0A_A71EV2A-x0416_0A_peptide

> <ROCS_TanimotoCombo>
0.480 

> <ROCS_ShapeTanimoto>
0.331 

> <ROCS_ColorTanimoto>
0.149 

> <ROCS_RefTversky>
0.289 

> <ROCS_RefColorTversky>
0.161 

> <ROCS_RefTverskyCombo>
0.450 

> <ROCS_FitTversky>
1.784 

> <ROCS_FitColorTversky>
0.672 

> <ROCS_FitTverskyCombo>
2.456 

> <ROCS_ColorScore>
-4.897

> <ROCS_Overlap>
2003.268

> <ROCS_Rank>
360                 

$$$$
untitled-dbase-45531_11
  -OEChem-11132313473D

 35 36  0     0  0  0  0  0  0999 V2000
    6.8899   10.6128   25.6157 C   0  0  0  0  0  0  0  0  0  0  0  0
    6.8880   12.9666   26.0694 C   0  0  0  0  0  0  0  0  0  0  0  0
    7.9219   10.8030   24.6839 C   0  0  0  0  0  0  0  0  0  0  0  0
    8.5067   12.0671   24.4639 C   0  0  0  0  0  0  0  0  0  0  0  0
    6.3830   11.6980   26.3182 C   0  0  0  0  0  0  0  0  0  0  0  0
    7.9269   13.1489   25.1469 C   0  0  0  0  0  0  0  0  0  0  0  0
    8.3298    9.6422   23.8697 C   0  0  0  0  0  0  0  0  0  0  0  0
   10.4779   13.3344   23.4411 C   0  0  0  0  0  0  0  0  0  0  0  0
    8.9925    9.9764   22.5705 C   0  0  0  0  0  0  0  0  0  0  0  0
   10.0544   11.0258   22.8033 C   0  0  0  0  0  0  0  0  0  0  0  0
   12.2084   15.5238   22.7797 C   0  0  0  0  0  0  0  0  0  0  0  0
   11.9978   14.7250   20.4076 C   0  0  0  0  0  0  0  0  0  0  0  0
    9.9616   15.5184   21.6455 C   0  0  0  0  0  0  0  0  0  0  0  0
   11.3108   14.8118   21.7687 C   0  0  0  0  0  0  0  0  0  0  0  0
    9.6254   12.2077   23.5601 N   0  0  0  0  0  0  0  0  0  0  0  0
    8.0683    8.4933   24.2041 O   0  0  0  0  0  0  0  0  0  0  0  0
   10.6176   14.1717   24.3348 O   0  0  0  0  0  0  0  0  0  0  0  0
   11.0842   13.4721   22.2242 O   0  0  0  0  0  0  0  0  0  0  0  0
    5.0099   11.4517   27.5907 Br  0  0  0  0  0  0  0  0  0  0  0  0
    8.1832   14.9893   24.6594 Br  0  0  0  0  0  0  0  0  0  0  0  0
    6.4880    9.6199   25.7981 H   0  0  0  0  0  0  0  0  0  0  0  0
    6.4421   13.8255   26.5695 H   0  0  0  0  0  0  0  0  0  0  0  0
    9.4175    9.0662   22.1449 H   0  0  0  0  0  0  0  0  0  0  0  0
    8.2400   10.3719   21.8860 H   0  0  0  0  0  0  0  0  0  0  0  0
   10.9278   10.5374   23.2852 H   0  0  0  0  0  0  0  0  0  0  0  0
   10.4400   11.4034   21.8297 H   0  0  0  0  0  0  0  0  0  0  0  0
   11.7189   15.5882   23.7580 H   0  0  0  0  0  0  0  0  0  0  0  0
   13.1658   15.0071   22.9032 H   0  0  0  0  0  0  0  0  0  0  0  0
   12.4094   16.5546   22.4662 H   0  0  0  0  0  0  0  0  0  0  0  0
   11.3572   14.2148   19.6791 H   0  0  0  0  0  0  0  0  0  0  0  0
   12.9202   14.1367   20.4728 H   0  0  0  0  0  0  0  0  0  0  0  0
   12.2460   15.7169   20.0163 H   0  0  0  0  0  0  0  0  0  0  0  0
    9.3175   15.0079   20.9204 H   0  0  0  0  0  0  0  0  0  0  0  0
    9.4375   15.5574   22.6060 H   0  0  0  0  0  0  0  0  0  0  0  0
   10.0903   16.5427   21.2773 H   0  0  0  0  0  0  0  0  0  0  0  0
  1  3  2  0  0  0  0
  1  5  1  0  0  0  0
  2  5  2  0  0  0  0
  2  6  1  0  0  0  0
  3  4  1  0  0  0  0
  3  7  1  0  0  0  0
  4  6  2  0  0  0  0
  4 15  1  0  0  0  0
  5 19  1  0  0  0  0
  6 20  1  0  0  0  0
  7  9  1  0  0  0  0
  7 16  2  0  0  0  0
  8 15  1  0  0  0  0
  8 17  2  0  0  0  0
  8 18  1  0  0  0  0
  9 10  1  0  0  0  0
 10 15  1  0  0  0  0
 11 14  1  0  0  0  0
 12 14  1  0  0  0  0
 13 14  1  0  0  0  0
 14 18  1  0  0  0  0
  1 21  1  0  0  0  0
  2 22  1  0  0  0  0
  9 23  1  0  0  0  0
  9 24  1  0  0  0  0
 10 25  1  0  0  0  0
 10 26  1  0  0  0  0
 11 27  1  0  0  0  0
 11 28  1  0  0  0  0
 11 29  1  0  0  0  0
 12 30  1  0  0  0  0
 12 31  1  0  0  0  0
 12 32  1  0  0  0  0
 13 33  1  0  0  0  0
 13 34  1  0  0  0  0
 13 35  1  0  0  0  0
M  END
> <id>
EN300-28303404

> <smiles>
CC(C)(C)OC(=O)N1CCC(=O)C=2C=C(Br)C=C(Br)C12

> <IUPAC Name>
tert-butyl 6,8-dibromo-4-oxo-1,2,3,4-tetrahydroquinoline-1-carboxylate

> <CAS>
2680900-41-6

> <URL>
https://www.enaminestore.com/catalog/EN300-28303404

> <ROCS_ShapeQuery>
A71EV2A-x0451_0A_A71EV2A-x0310_0A_A71EV2A-x0416_0A_peptide

> <ROCS_TanimotoCombo>
0.480 

> <ROCS_ShapeTanimoto>
0.354 

> <ROCS_ColorTanimoto>
0.126 

> <ROCS_RefTversky>
0.307 

> <ROCS_RefColorTversky>
0.142 

> <ROCS_RefTverskyCombo>
0.449 

> <ROCS_FitTversky>
1.781 

> <ROCS_FitColorTversky>
0.524 

> <ROCS_FitTverskyCombo>
2.306 

> <ROCS_ColorScore>
-4.321

> <ROCS_Overlap>
2128.569

> <ROCS_Rank>
361                 

$$$$
untitled-dbase-5149_14
  -OEChem-11132313473D

 31 32  0     0  0  0  0  0  0999 V2000
    6.7691    8.7150   24.6280 C   0  0  0  0  0  0  0  0  0  0  0  0
    8.0060   12.7155   25.1119 C   0  0  0  0  0  0  0  0  0  0  0  0
    9.2583    9.9409   23.1920 C   0  0  0  0  0  0  0  0  0  0  0  0
    6.9064   12.1451   25.7351 C   0  0  0  0  0  0  0  0  0  0  0  0
   10.1756   10.8998   22.8408 C   0  0  0  0  0  0  0  0  0  0  0  0
    7.2136   10.0570   24.7679 C   0  0  0  0  0  0  0  0  0  0  0  0
    8.3412   10.5343   24.0899 C   0  0  0  0  0  0  0  0  0  0  0  0
    8.7319   11.8677   24.2670 C   0  0  0  0  0  0  0  0  0  0  0  0
   10.5874   13.2891   23.3729 C   0  0  0  0  0  0  0  0  0  0  0  0
   12.2089   15.4882   22.6080 C   0  0  0  0  0  0  0  0  0  0  0  0
   11.9784   14.6036   20.2685 C   0  0  0  0  0  0  0  0  0  0  0  0
    9.9394   15.3540   21.5284 C   0  0  0  0  0  0  0  0  0  0  0  0
   11.3191   14.7073   21.6421 C   0  0  0  0  0  0  0  0  0  0  0  0
    6.4059    7.6188   24.5136 N   0  0  0  0  0  0  0  0  0  0  0  0
    6.5039   10.8662   25.5854 N   0  0  0  0  0  0  0  0  0  0  0  0
    9.8719   12.0855   23.4871 N   0  0  0  0  0  0  0  0  0  0  0  0
   10.6400   14.0904   24.2914 O   0  0  0  0  0  0  0  0  0  0  0  0
   11.1588   13.3774   22.1447 O   0  0  0  0  0  0  0  0  0  0  0  0
    8.2670   13.7514   25.2820 H   0  0  0  0  0  0  0  0  0  0  0  0
    9.2574    8.9205   22.8330 H   0  0  0  0  0  0  0  0  0  0  0  0
    6.2918   12.7389   26.4053 H   0  0  0  0  0  0  0  0  0  0  0  0
   11.0255   10.8242   22.1757 H   0  0  0  0  0  0  0  0  0  0  0  0
   11.7392   15.5649   23.5952 H   0  0  0  0  0  0  0  0  0  0  0  0
   13.1894   15.0153   22.7252 H   0  0  0  0  0  0  0  0  0  0  0  0
   12.3600   16.5155   22.2570 H   0  0  0  0  0  0  0  0  0  0  0  0
   11.3434   14.0440   19.5721 H   0  0  0  0  0  0  0  0  0  0  0  0
   12.9257   14.0559   20.3305 H   0  0  0  0  0  0  0  0  0  0  0  0
   12.1764   15.5913   19.8398 H   0  0  0  0  0  0  0  0  0  0  0  0
    9.3009   14.7940   20.8356 H   0  0  0  0  0  0  0  0  0  0  0  0
    9.4358   15.4032   22.4993 H   0  0  0  0  0  0  0  0  0  0  0  0
   10.0173   16.3699   21.1246 H   0  0  0  0  0  0  0  0  0  0  0  0
  1  6  1  0  0  0  0
  1 14  3  0  0  0  0
  2  4  1  0  0  0  0
  2  8  2  0  0  0  0
  3  5  2  0  0  0  0
  3  7  1  0  0  0  0
  4 15  2  0  0  0  0
  5 16  1  0  0  0  0
  6  7  2  0  0  0  0
  6 15  1  0  0  0  0
  7  8  1  0  0  0  0
  8 16  1  0  0  0  0
  9 16  1  0  0  0  0
  9 17  2  0  0  0  0
  9 18  1  0  0  0  0
 10 13  1  0  0  0  0
 11 13  1  0  0  0  0
 12 13  1  0  0  0  0
 13 18  1  0  0  0  0
  2 19  1  0  0  0  0
  3 20  1  0  0  0  0
  4 21  1  0  0  0  0
  5 22  1  0  0  0  0
 10 23  1  0  0  0  0
 10 24  1  0  0  0  0
 10 25  1  0  0  0  0
 11 26  1  0  0  0  0
 11 27  1  0  0  0  0
 11 28  1  0  0  0  0
 12 29  1  0  0  0  0
 12 30  1  0  0  0  0
 12 31  1  0  0  0  0
M  END
> <id>
EN300-203331

> <smiles>
CC(C)(C)OC(=O)N1C=CC=2C(C#N)=NC=CC12

> <MDLNUMBER>
MFCD28397385

> <IUPAC Name>
tert-butyl 4-cyano-1H-pyrrolo[3,2-c]pyridine-1-carboxylate

> <CAS>
1803586-12-0

> <Purity>
95

> <URL>
https://www.enaminestore.com/catalog/EN300-203331

> <ROCS_ShapeQuery>
A71EV2A-x0451_0A_A71EV2A-x0310_0A_A71EV2A-x0416_0A_peptide

> <ROCS_TanimotoCombo>
0.480 

> <ROCS_ShapeTanimoto>
0.337 

> <ROCS_ColorTanimoto>
0.143 

> <ROCS_RefTversky>
0.294 

> <ROCS_RefColorTversky>
0.155 

> <ROCS_RefTverskyCombo>
0.449 

> <ROCS_FitTversky>
1.777 

> <ROCS_FitColorTversky>
0.645 

> <ROCS_FitTverskyCombo>
2.421 

> <ROCS_ColorScore>
-4.707

> <ROCS_Overlap>
2039.894

> <ROCS_Rank>
362                 

$$$$
untitled-dbase-31271_4
  -OEChem-11132313473D

 39 40  0     0  0  0  0  0  0999 V2000
    9.4978   11.5354   23.7043 C   0  0  0  0  0  0  0  0  0  0  0  0
    8.4131   12.0168   24.4284 C   0  0  0  0  0  0  0  0  0  0  0  0
    9.4895   10.1736   23.4490 C   0  0  0  0  0  0  0  0  0  0  0  0
    7.5094    9.9218   24.5303 C   0  0  0  0  0  0  0  0  0  0  0  0
   11.0643   14.8562   22.8266 C   0  0  0  0  0  0  0  0  0  0  0  0
   10.6212   12.4128   23.2417 C   0  0  0  0  0  0  0  0  0  0  0  0
    8.3084   13.4839   24.7406 C   0  0  0  0  0  0  0  0  0  0  0  0
    9.6769   14.1555   24.7596 C   0  0  0  0  0  0  0  0  0  0  0  0
   13.3170   15.8088   21.3408 C   0  0  0  0  0  0  0  0  0  0  0  0
   12.1367   14.8959   19.3202 C   0  0  0  0  0  0  0  0  0  0  0  0
   11.0783   16.7368   20.6614 C   0  0  0  0  0  0  0  0  0  0  0  0
   10.6070    9.5312   22.6933 C   0  0  0  0  0  0  0  0  0  0  0  0
   11.9596   15.4897   20.7160 C   0  0  0  0  0  0  0  0  0  0  0  0
    7.3982   11.2258   24.8461 N   0  0  0  0  0  0  0  0  0  0  0  0
    8.5097    9.3373   23.8477 N   0  0  0  0  0  0  0  0  0  0  0  0
   10.4305   13.8374   23.5469 N   0  0  0  0  0  0  0  0  0  0  0  0
    6.4616    9.0784   24.9596 N   0  0  0  0  0  0  0  0  0  0  0  0
   11.3802   15.9472   23.2974 O   0  0  0  0  0  0  0  0  0  0  0  0
   11.3060   14.5045   21.5243 O   0  0  0  0  0  0  0  0  0  0  0  0
   11.5800   10.4081   22.3096 F   0  0  0  0  0  0  0  0  0  0  0  0
   11.2567    8.5625   23.4020 F   0  0  0  0  0  0  0  0  0  0  0  0
   10.1826    8.9269   21.5467 F   0  0  0  0  0  0  0  0  0  0  0  0
   11.5513   12.1134   23.7395 H   0  0  0  0  0  0  0  0  0  0  0  0
   10.7545   12.2975   22.1606 H   0  0  0  0  0  0  0  0  0  0  0  0
    7.6721   13.9551   23.9818 H   0  0  0  0  0  0  0  0  0  0  0  0
    7.8230   13.6200   25.7137 H   0  0  0  0  0  0  0  0  0  0  0  0
    9.5600   15.2378   24.8751 H   0  0  0  0  0  0  0  0  0  0  0  0
   10.2726   13.7981   25.6088 H   0  0  0  0  0  0  0  0  0  0  0  0
   13.1941   16.2353   22.3428 H   0  0  0  0  0  0  0  0  0  0  0  0
   13.9456   14.9156   21.4178 H   0  0  0  0  0  0  0  0  0  0  0  0
   13.8532   16.5594   20.7490 H   0  0  0  0  0  0  0  0  0  0  0  0
   11.1653   14.6654   18.8681 H   0  0  0  0  0  0  0  0  0  0  0  0
   12.6882   13.9498   19.3657 H   0  0  0  0  0  0  0  0  0  0  0  0
   12.6750   15.5794   18.6557 H   0  0  0  0  0  0  0  0  0  0  0  0
   10.1045   16.5082   20.2133 H   0  0  0  0  0  0  0  0  0  0  0  0
   10.9098   17.1555   21.6589 H   0  0  0  0  0  0  0  0  0  0  0  0
   11.5347   17.5092   20.0320 H   0  0  0  0  0  0  0  0  0  0  0  0
    6.4802    8.1121   24.7062 H   0  0  0  0  0  0  0  0  0  0  0  0
    5.6750    9.4799   25.4272 H   0  0  0  0  0  0  0  0  0  0  0  0
  1  2  1  0  0  0  0
  1  3  2  0  0  0  0
  1  6  1  0  0  0  0
  2  7  1  0  0  0  0
  2 14  2  0  0  0  0
  3 12  1  0  0  0  0
  3 15  1  0  0  0  0
  4 14  1  0  0  0  0
  4 15  2  0  0  0  0
  4 17  1  0  0  0  0
  5 16  1  0  0  0  0
  5 18  2  0  0  0  0
  5 19  1  0  0  0  0
  6 16  1  0  0  0  0
  7  8  1  0  0  0  0
  8 16  1  0  0  0  0
  9 13  1  0  0  0  0
 10 13  1  0  0  0  0
 11 13  1  0  0  0  0
 12 20  1  0  0  0  0
 12 21  1  0  0  0  0
 12 22  1  0  0  0  0
 13 19  1  0  0  0  0
  6 23  1  0  0  0  0
  6 24  1  0  0  0  0
  7 25  1  0  0  0  0
  7 26  1  0  0  0  0
  8 27  1  0  0  0  0
  8 28  1  0  0  0  0
  9 29  1  0  0  0  0
  9 30  1  0  0  0  0
  9 31  1  0  0  0  0
 10 32  1  0  0  0  0
 10 33  1  0  0  0  0
 10 34  1  0  0  0  0
 11 35  1  0  0  0  0
 11 36  1  0  0  0  0
 11 37  1  0  0  0  0
 17 38  1  0  0  0  0
 17 39  1  0  0  0  0
M  END
> <id>
EN300-26623917

> <smiles>
CC(C)(C)OC(=O)N1CCC=2N=C(N)N=C(C2C1)C(F)(F)F

> <MDLNUMBER>
MFCD32667951

> <IUPAC Name>
tert-butyl 2-amino-4-(trifluoromethyl)-5H,6H,7H,8H-pyrido[4,3-d]pyrimidine-6-carboxylate

> <CAS>
2416242-96-9

> <Purity>
95

> <URL>
https://www.enaminestore.com/catalog/EN300-26623917

> <ROCS_ShapeQuery>
A71EV2A-x0451_0A_A71EV2A-x0310_0A_A71EV2A-x0416_0A_peptide

> <ROCS_TanimotoCombo>
0.480 

> <ROCS_ShapeTanimoto>
0.349 

> <ROCS_ColorTanimoto>
0.131 

> <ROCS_RefTversky>
0.308 

> <ROCS_RefColorTversky>
0.151 

> <ROCS_RefTverskyCombo>
0.459 

> <ROCS_FitTversky>
1.620 

> <ROCS_FitColorTversky>
0.500 

> <ROCS_FitTverskyCombo>
2.120 

> <ROCS_ColorScore>
-4.606

> <ROCS_Overlap>
2137.746

> <ROCS_Rank>
363                 

$$$$
untitled-dbase-45832_26
  -OEChem-11132313473D

 40 42  0     0  0  0  0  0  0999 V2000
    7.0033   11.1757   26.3687 C   0  0  0  0  0  0  0  0  0  0  0  0
    6.3984   12.3305   26.8644 C   0  0  0  0  0  0  0  0  0  0  0  0
    7.5441   13.6240   25.1935 C   0  0  0  0  0  0  0  0  0  0  0  0
    7.8989   11.2005   25.2764 C   0  0  0  0  0  0  0  0  0  0  0  0
    8.1585   12.4636   24.6839 C   0  0  0  0  0  0  0  0  0  0  0  0
    6.6712   13.5564   26.2766 C   0  0  0  0  0  0  0  0  0  0  0  0
    9.9748   13.6075   23.3991 C   0  0  0  0  0  0  0  0  0  0  0  0
    8.1614    9.3198   23.4046 C   0  0  0  0  0  0  0  0  0  0  0  0
   10.0274    9.9569   24.1783 C   0  0  0  0  0  0  0  0  0  0  0  0
    8.8540   11.6120   22.4416 C   0  0  0  0  0  0  0  0  0  0  0  0
    8.5997    9.8504   24.7969 C   0  0  0  0  0  0  0  0  0  0  0  0
    9.3031   10.2009   22.8224 C   0  0  0  0  0  0  0  0  0  0  0  0
   12.4370   13.5696   21.9353 C   0  0  0  0  0  0  0  0  0  0  0  0
   11.2620   15.0482   20.2793 C   0  0  0  0  0  0  0  0  0  0  0  0
   11.6098   15.8407   22.6370 C   0  0  0  0  0  0  0  0  0  0  0  0
   11.3512   14.6276   21.7447 C   0  0  0  0  0  0  0  0  0  0  0  0
    9.0334   12.5675   23.5465 N   0  0  0  0  0  0  0  0  0  0  0  0
   10.5960   14.1142   24.3324 O   0  0  0  0  0  0  0  0  0  0  0  0
   10.0890   14.0558   22.1071 O   0  0  0  0  0  0  0  0  0  0  0  0
    5.8511   15.1267   26.9331 Br  0  0  0  0  0  0  0  0  0  0  0  0
    6.7814   10.2250   26.8505 H   0  0  0  0  0  0  0  0  0  0  0  0
    5.7197   12.2509   27.7093 H   0  0  0  0  0  0  0  0  0  0  0  0
    7.7162   14.5862   24.7150 H   0  0  0  0  0  0  0  0  0  0  0  0
    8.3184    8.2420   23.2721 H   0  0  0  0  0  0  0  0  0  0  0  0
    7.1416    9.5581   23.0892 H   0  0  0  0  0  0  0  0  0  0  0  0
   10.6785   10.7505   24.5534 H   0  0  0  0  0  0  0  0  0  0  0  0
   10.5925    9.0164   24.2133 H   0  0  0  0  0  0  0  0  0  0  0  0
    9.4412   11.9432   21.5783 H   0  0  0  0  0  0  0  0  0  0  0  0
    7.8044   11.6365   22.1243 H   0  0  0  0  0  0  0  0  0  0  0  0
    8.5489    9.0788   25.5769 H   0  0  0  0  0  0  0  0  0  0  0  0
    9.8019    9.7249   21.9687 H   0  0  0  0  0  0  0  0  0  0  0  0
   12.5042   13.2651   22.9859 H   0  0  0  0  0  0  0  0  0  0  0  0
   12.2444   12.6798   21.3270 H   0  0  0  0  0  0  0  0  0  0  0  0
   13.4220   13.9671   21.6651 H   0  0  0  0  0  0  0  0  0  0  0  0
   10.4841   15.8072   20.1379 H   0  0  0  0  0  0  0  0  0  0  0  0
   10.9829   14.1985   19.6457 H   0  0  0  0  0  0  0  0  0  0  0  0
   12.2121   15.4537   19.9168 H   0  0  0  0  0  0  0  0  0  0  0  0
   10.8311   16.5998   22.5005 H   0  0  0  0  0  0  0  0  0  0  0  0
   11.6403   15.5635   23.6957 H   0  0  0  0  0  0  0  0  0  0  0  0
   12.5595   16.3214   22.3755 H   0  0  0  0  0  0  0  0  0  0  0  0
  1  2  1  0  0  0  0
  1  4  2  0  0  0  0
  2  6  2  0  0  0  0
  3  5  2  0  0  0  0
  3  6  1  0  0  0  0
  4  5  1  0  0  0  0
  4 11  1  0  0  0  0
  5 17  1  0  0  0  0
  6 20  1  0  0  0  0
  7 17  1  0  0  0  0
  7 18  2  0  0  0  0
  7 19  1  0  0  0  0
  8 11  1  0  0  0  0
  8 12  1  0  0  0  0
  9 11  1  0  0  0  0
  9 12  1  0  0  0  0
 10 12  1  0  0  0  0
 10 17  1  0  0  0  0
 13 16  1  0  0  0  0
 14 16  1  0  0  0  0
 15 16  1  0  0  0  0
 16 19  1  0  0  0  0
  1 21  1  0  0  0  0
  2 22  1  0  0  0  0
  3 23  1  0  0  0  0
  8 24  1  0  0  0  0
  8 25  1  0  0  0  0
  9 26  1  0  0  0  0
  9 27  1  0  0  0  0
 10 28  1  0  0  0  0
 10 29  1  0  0  0  0
 11 30  1  0  0  0  0
 12 31  1  0  0  0  0
 13 32  1  0  0  0  0
 13 33  1  0  0  0  0
 13 34  1  0  0  0  0
 14 35  1  0  0  0  0
 14 36  1  0  0  0  0
 14 37  1  0  0  0  0
 15 38  1  0  0  0  0
 15 39  1  0  0  0  0
 15 40  1  0  0  0  0
M  END
> <id>
EN300-28296720

> <smiles>
CC(C)(C)OC(=O)N1CC2CC(C2)C=3C=CC(Br)=CC13

> <IUPAC Name>
tert-butyl 5-bromo-8-azatricyclo[8.1.1.0,2,7]dodeca-2,4,6-triene-8-carboxylate

> <CAS>
2680706-52-7

> <URL>
https://www.enaminestore.com/catalog/EN300-28296720

> <ROCS_ShapeQuery>
A71EV2A-x0451_0A_A71EV2A-x0310_0A_A71EV2A-x0416_0A_peptide

> <ROCS_TanimotoCombo>
0.480 

> <ROCS_ShapeTanimoto>
0.324 

> <ROCS_ColorTanimoto>
0.156 

> <ROCS_RefTversky>
0.287 

> <ROCS_RefColorTversky>
0.182 

> <ROCS_RefTverskyCombo>
0.469 

> <ROCS_FitTversky>
1.654 

> <ROCS_FitColorTversky>
0.520 

> <ROCS_FitTverskyCombo>
2.174 

> <ROCS_ColorScore>
-5.557

> <ROCS_Overlap>
1995.128

> <ROCS_Rank>
364                 

$$$$
untitled-dbase-30754_171
  -OEChem-11132313473D

 45 47  0     1  0  0  0  0  0999 V2000
    6.3817   12.8575   26.2465 C   0  0  0  0  0  0  0  0  0  0  0  0
    7.1297   13.2646   25.1532 C   0  0  0  0  0  0  0  0  0  0  0  0
    6.2428   11.5025   26.4502 C   0  0  0  0  0  0  0  0  0  0  0  0
    7.7332   12.3200   24.3089 C   0  0  0  0  0  0  0  0  0  0  0  0
    7.5749   10.9531   24.6084 C   0  0  0  0  0  0  0  0  0  0  0  0
   10.8959   13.1125   23.4130 C   0  0  0  0  0  0  0  0  0  0  0  0
    8.4227   12.8056   23.0549 C   0  0  0  0  0  0  0  0  0  0  0  0
    9.9501    8.5360   23.1991 C   0  0  0  0  0  0  0  0  0  0  0  0
   10.0173   10.9816   22.4978 C   0  0  0  0  0  0  0  0  0  0  0  0
    7.6299    8.6382   23.7413 C   0  0  0  0  0  0  0  0  0  0  0  0
    9.6312    9.9900   23.5896 C   0  0  1  0  0  0  0  0  0  0  0  0
    8.6036    7.9398   22.8013 C   0  0  2  0  0  0  0  0  0  0  0  0
   13.5237   13.2848   24.5335 C   0  0  0  0  0  0  0  0  0  0  0  0
   14.3392   13.2362   22.1583 C   0  0  0  0  0  0  0  0  0  0  0  0
   12.8829   15.1264   22.9422 C   0  0  0  0  0  0  0  0  0  0  0  0
   13.1926   13.6369   23.0840 C   0  0  0  0  0  0  0  0  0  0  0  0
    6.8055   10.5601   25.6623 N   0  0  0  0  0  0  0  0  0  0  0  0
    8.1820    9.9814   23.8292 N   0  0  2  0  0  0  0  0  0  0  0  0
    9.8100   12.3552   22.9546 N   0  0  0  0  0  0  0  0  0  0  0  0
   10.8426   13.9005   24.3555 O   0  0  0  0  0  0  0  0  0  0  0  0
    8.5796    6.5397   22.9942 O   0  0  0  0  0  0  0  0  0  0  0  0
   12.0365   12.8910   22.6866 O   0  0  0  0  0  0  0  0  0  0  0  0
    5.9244   13.5784   26.9155 H   0  0  0  0  0  0  0  0  0  0  0  0
    7.2373   14.3277   24.9624 H   0  0  0  0  0  0  0  0  0  0  0  0
    5.6569   11.1207   27.2798 H   0  0  0  0  0  0  0  0  0  0  0  0
    7.8741   12.4550   22.1671 H   0  0  0  0  0  0  0  0  0  0  0  0
    8.3820   13.9029   22.9889 H   0  0  0  0  0  0  0  0  0  0  0  0
   10.6367    8.4989   22.3396 H   0  0  0  0  0  0  0  0  0  0  0  0
   10.4147    7.9955   24.0357 H   0  0  0  0  0  0  0  0  0  0  0  0
   11.0615   10.8771   22.2581 H   0  0  0  0  0  0  0  0  0  0  0  0
    9.4273   10.8285   21.6111 H   0  0  0  0  0  0  0  0  0  0  0  0
    6.6330    8.6813   23.2989 H   0  0  0  0  0  0  0  0  0  0  0  0
    7.5951    8.1378   24.7104 H   0  0  0  0  0  0  0  0  0  0  0  0
   10.1479   10.2172   24.5345 H   0  0  0  0  0  0  0  0  0  0  0  0
    8.3703    8.1479   21.7384 H   0  0  0  0  0  0  0  0  0  0  0  0
   12.7031   13.5709   25.2012 H   0  0  0  0  0  0  0  0  0  0  0  0
   13.7135   12.2134   24.6552 H   0  0  0  0  0  0  0  0  0  0  0  0
   14.4076   13.8341   24.8772 H   0  0  0  0  0  0  0  0  0  0  0  0
   14.1059   13.4869   21.1172 H   0  0  0  0  0  0  0  0  0  0  0  0
   14.5025   12.1527   22.1857 H   0  0  0  0  0  0  0  0  0  0  0  0
   15.2740   13.7348   22.4339 H   0  0  0  0  0  0  0  0  0  0  0  0
   12.6454   15.3792   21.9025 H   0  0  0  0  0  0  0  0  0  0  0  0
   12.0384   15.4246   23.5719 H   0  0  0  0  0  0  0  0  0  0  0  0
   13.7534   15.7332   23.2168 H   0  0  0  0  0  0  0  0  0  0  0  0
    7.6991    6.2357   22.7216 H   0  0  0  0  0  0  0  0  0  0  0  0
  1  2  1  0  0  0  0
  1  3  2  0  0  0  0
  2  4  2  0  0  0  0
  3 17  1  0  0  0  0
  4  5  1  0  0  0  0
  4  7  1  0  0  0  0
  5 17  2  0  0  0  0
  5 18  1  0  0  0  0
  6 19  1  0  0  0  0
  6 20  2  0  0  0  0
  6 22  1  0  0  0  0
  7 19  1  0  0  0  0
  8 11  1  0  0  0  0
  8 12  1  0  0  0  0
  9 11  1  6  0  0  0
  9 19  1  0  0  0  0
 10 12  1  0  0  0  0
 10 18  1  0  0  0  0
 11 18  1  0  0  0  0
 12 21  1  1  0  0  0
 13 16  1  0  0  0  0
 14 16  1  0  0  0  0
 15 16  1  0  0  0  0
 16 22  1  0  0  0  0
  1 23  1  0  0  0  0
  2 24  1  0  0  0  0
  3 25  1  0  0  0  0
  7 26  1  0  0  0  0
  7 27  1  0  0  0  0
  8 28  1  0  0  0  0
  8 29  1  0  0  0  0
  9 30  1  0  0  0  0
  9 31  1  0  0  0  0
 10 32  1  0  0  0  0
 10 33  1  0  0  0  0
 11 34  1  0  0  0  0
 12 35  1  0  0  0  0
 13 36  1  0  0  0  0
 13 37  1  0  0  0  0
 13 38  1  0  0  0  0
 14 39  1  0  0  0  0
 14 40  1  0  0  0  0
 14 41  1  0  0  0  0
 15 42  1  0  0  0  0
 15 43  1  0  0  0  0
 15 44  1  0  0  0  0
 21 45  1  0  0  0  0
M  END
> <id>
EN300-26666269

> <smiles>
CC(C)(C)OC(=O)N1C[C@@H]2C[C@@H](O)CN2C=3N=CC=CC3C1

> <IUPAC Name>
tert-butyl (4R,6S)-4-hydroxy-2,8,14-triazatricyclo[8.4.0.0,2,6]tetradeca-1(14),10,12-triene-8-carboxylate

> <CAS>
2413847-74-0

> <URL>
https://www.enaminestore.com/catalog/EN300-26666269

> <ROCS_ShapeQuery>
A71EV2A-x0451_0A_A71EV2A-x0310_0A_A71EV2A-x0416_0A_peptide

> <ROCS_TanimotoCombo>
0.480 

> <ROCS_ShapeTanimoto>
0.353 

> <ROCS_ColorTanimoto>
0.127 

> <ROCS_RefTversky>
0.310 

> <ROCS_RefColorTversky>
0.146 

> <ROCS_RefTverskyCombo>
0.457 

> <ROCS_FitTversky>
1.642 

> <ROCS_FitColorTversky>
0.486 

> <ROCS_FitTverskyCombo>
2.127 

> <ROCS_ColorScore>
-4.465

> <ROCS_Overlap>
2155.299

> <ROCS_Rank>
365                 

$$$$
untitled-dbase-52829_8
  -OEChem-11132313473D

 36 37  0     1  0  0  0  0  0999 V2000
   10.5470   13.1144   23.4777 C   0  0  0  0  0  0  0  0  0  0  0  0
    9.5710   10.9684   22.7389 C   0  0  0  0  0  0  0  0  0  0  0  0
    7.3588   12.8071   24.3398 C   0  0  0  0  0  0  0  0  0  0  0  0
    6.7249   11.0268   25.7520 C   0  0  0  0  0  0  0  0  0  0  0  0
    9.2147    9.6604   23.4178 C   0  0  0  0  0  0  0  0  0  0  0  0
    8.6394   12.0995   24.7610 C   0  0  1  0  0  0  0  0  0  0  0  0
    8.1260   10.7321   25.2123 C   0  0  2  0  0  0  0  0  0  0  0  0
   12.5598   14.9582   22.6190 C   0  0  0  0  0  0  0  0  0  0  0  0
   12.4605   13.7553   20.4162 C   0  0  0  0  0  0  0  0  0  0  0  0
   10.4287   14.9527   21.2799 C   0  0  0  0  0  0  0  0  0  0  0  0
   11.6762   14.1580   21.6631 C   0  0  0  0  0  0  0  0  0  0  0  0
    6.4337   12.4241   25.4062 N   0  0  0  0  0  0  0  0  0  0  0  0
    9.6502   12.0620   23.7033 N   0  0  0  0  0  0  0  0  0  0  0  0
   10.6872   14.0781   24.2285 O   0  0  0  0  0  0  0  0  0  0  0  0
    7.9888    9.8172   24.1234 O   0  0  0  0  0  0  0  0  0  0  0  0
   11.2656   12.9545   22.3218 O   0  0  0  0  0  0  0  0  0  0  0  0
   10.5125   10.8734   22.1889 H   0  0  0  0  0  0  0  0  0  0  0  0
    8.7901   11.2469   22.0216 H   0  0  0  0  0  0  0  0  0  0  0  0
    7.4763   13.8936   24.2856 H   0  0  0  0  0  0  0  0  0  0  0  0
    6.9809   12.4491   23.3754 H   0  0  0  0  0  0  0  0  0  0  0  0
    5.9647   10.3663   25.3218 H   0  0  0  0  0  0  0  0  0  0  0  0
    6.6962   10.9147   26.8412 H   0  0  0  0  0  0  0  0  0  0  0  0
    9.0687    8.8788   22.6656 H   0  0  0  0  0  0  0  0  0  0  0  0
   10.0046    9.3243   24.0998 H   0  0  0  0  0  0  0  0  0  0  0  0
    9.0583   12.6205   25.6328 H   0  0  0  0  0  0  0  0  0  0  0  0
    8.7692   10.2838   25.9784 H   0  0  0  0  0  0  0  0  0  0  0  0
   12.0005   15.2492   23.5153 H   0  0  0  0  0  0  0  0  0  0  0  0
   13.4403   14.3860   22.9290 H   0  0  0  0  0  0  0  0  0  0  0  0
   12.8993   15.8892   22.1507 H   0  0  0  0  0  0  0  0  0  0  0  0
   11.8304   13.1809   19.7275 H   0  0  0  0  0  0  0  0  0  0  0  0
   13.3034   13.1056   20.6781 H   0  0  0  0  0  0  0  0  0  0  0  0
   12.8490   14.6293   19.8835 H   0  0  0  0  0  0  0  0  0  0  0  0
    9.7948   14.3789   20.5943 H   0  0  0  0  0  0  0  0  0  0  0  0
    9.8339   15.2187   22.1597 H   0  0  0  0  0  0  0  0  0  0  0  0
   10.7005   15.8739   20.7519 H   0  0  0  0  0  0  0  0  0  0  0  0
    6.6263   13.0040   26.2241 H   0  0  0  0  0  0  0  0  0  0  0  0
  1 13  1  0  0  0  0
  1 14  2  0  0  0  0
  1 16  1  0  0  0  0
  2  5  1  0  0  0  0
  2 13  1  0  0  0  0
  3  6  1  0  0  0  0
  3 12  1  0  0  0  0
  4  7  1  0  0  0  0
  4 12  1  0  0  0  0
  5 15  1  0  0  0  0
  6  7  1  0  0  0  0
  6 13  1  0  0  0  0
  7 15  1  0  0  0  0
  8 11  1  0  0  0  0
  9 11  1  0  0  0  0
 10 11  1  0  0  0  0
 11 16  1  0  0  0  0
  2 17  1  0  0  0  0
  2 18  1  0  0  0  0
  3 19  1  0  0  0  0
  3 20  1  0  0  0  0
  4 21  1  0  0  0  0
  4 22  1  0  0  0  0
  5 23  1  0  0  0  0
  5 24  1  0  0  0  0
  6 25  1  0  0  0  0
  7 26  1  0  0  0  0
  8 27  1  0  0  0  0
  8 28  1  0  0  0  0
  8 29  1  0  0  0  0
  9 30  1  0  0  0  0
  9 31  1  0  0  0  0
  9 32  1  0  0  0  0
 10 33  1  0  0  0  0
 10 34  1  0  0  0  0
 10 35  1  0  0  0  0
 12 36  1  0  0  0  0
M  END
> <id>
EN300-322147

> <smiles>
CC(C)(C)OC(=O)N1CCOC2CNCC21

> <MDLNUMBER>
MFCD22035564

> <IUPAC Name>
tert-butyl octahydropyrrolo[3,4-b]morpholine-4-carboxylate

> <CAS>
1367907-47-8

> <URL>
https://www.enaminestore.com/catalog/EN300-322147

> <ROCS_ShapeQuery>
A71EV2A-x0451_0A_A71EV2A-x0310_0A_A71EV2A-x0416_0A_peptide

> <ROCS_TanimotoCombo>
0.480 

> <ROCS_ShapeTanimoto>
0.311 

> <ROCS_ColorTanimoto>
0.169 

> <ROCS_RefTversky>
0.273 

> <ROCS_RefColorTversky>
0.184 

> <ROCS_RefTverskyCombo>
0.456 

> <ROCS_FitTversky>
1.822 

> <ROCS_FitColorTversky>
0.677 

> <ROCS_FitTverskyCombo>
2.499 

> <ROCS_ColorScore>
-5.600

> <ROCS_Overlap>
1889.052

> <ROCS_Rank>
366                 

$$$$
untitled-dbase-29672_2
  -OEChem-11132313473D

 36 37  0     0  0  0  0  0  0999 V2000
    7.9286   13.1771   24.9442 C   0  0  0  0  0  0  0  0  0  0  0  0
    6.7816   13.0545   25.7270 C   0  0  0  0  0  0  0  0  0  0  0  0
    8.5345   12.0536   24.3672 C   0  0  0  0  0  0  0  0  0  0  0  0
    7.8966   10.8252   24.6072 C   0  0  0  0  0  0  0  0  0  0  0  0
    6.2546   11.7954   25.9147 C   0  0  0  0  0  0  0  0  0  0  0  0
   10.5464   13.2696   23.4669 C   0  0  0  0  0  0  0  0  0  0  0  0
    8.4382    9.5461   24.0399 C   0  0  0  0  0  0  0  0  0  0  0  0
    9.0988    9.8244   22.7078 C   0  0  0  0  0  0  0  0  0  0  0  0
   10.1743   10.8820   22.8849 C   0  0  0  0  0  0  0  0  0  0  0  0
   13.1715   14.4162   23.2716 C   0  0  0  0  0  0  0  0  0  0  0  0
   12.8747   14.2148   20.7855 C   0  0  0  0  0  0  0  0  0  0  0  0
   11.3315   15.6848   22.1142 C   0  0  0  0  0  0  0  0  0  0  0  0
   12.1632   14.4030   22.1236 C   0  0  0  0  0  0  0  0  0  0  0  0
    6.7832   10.6819   25.3747 N   0  0  0  0  0  0  0  0  0  0  0  0
    9.7294   12.1175   23.5573 N   0  0  0  0  0  0  0  0  0  0  0  0
   10.6472   14.1650   24.3005 O   0  0  0  0  0  0  0  0  0  0  0  0
    5.1299   11.6452   26.6808 O   0  0  0  0  0  0  0  0  0  0  0  0
   11.2813   13.2883   22.3041 O   0  0  0  0  0  0  0  0  0  0  0  0
    8.2958   14.1848   24.7954 H   0  0  0  0  0  0  0  0  0  0  0  0
    6.3206   13.9319   26.1679 H   0  0  0  0  0  0  0  0  0  0  0  0
    9.1570    9.1189   24.7489 H   0  0  0  0  0  0  0  0  0  0  0  0
    7.6302    8.8179   23.9049 H   0  0  0  0  0  0  0  0  0  0  0  0
    9.5421    8.9049   22.3093 H   0  0  0  0  0  0  0  0  0  0  0  0
    8.3580   10.1684   21.9746 H   0  0  0  0  0  0  0  0  0  0  0  0
   11.0091   10.4832   23.4756 H   0  0  0  0  0  0  0  0  0  0  0  0
   10.5738   11.1340   21.8956 H   0  0  0  0  0  0  0  0  0  0  0  0
   12.6647   14.5512   24.2338 H   0  0  0  0  0  0  0  0  0  0  0  0
   13.7504   13.4878   23.3107 H   0  0  0  0  0  0  0  0  0  0  0  0
   13.8694   15.2552   23.1694 H   0  0  0  0  0  0  0  0  0  0  0  0
   12.1551   14.2047   19.9590 H   0  0  0  0  0  0  0  0  0  0  0  0
   13.3959   13.2511   20.7528 H   0  0  0  0  0  0  0  0  0  0  0  0
   13.6042   15.0099   20.6004 H   0  0  0  0  0  0  0  0  0  0  0  0
   10.6081   15.6756   21.2908 H   0  0  0  0  0  0  0  0  0  0  0  0
   10.7845   15.8175   23.0532 H   0  0  0  0  0  0  0  0  0  0  0  0
   11.9692   16.5620   21.9557 H   0  0  0  0  0  0  0  0  0  0  0  0
    4.8818   10.7106   26.7200 H   0  0  0  0  0  0  0  0  0  0  0  0
  1  2  1  0  0  0  0
  1  3  2  0  0  0  0
  2  5  2  0  0  0  0
  3  4  1  0  0  0  0
  3 15  1  0  0  0  0
  4  7  1  0  0  0  0
  4 14  2  0  0  0  0
  5 14  1  0  0  0  0
  5 17  1  0  0  0  0
  6 15  1  0  0  0  0
  6 16  2  0  0  0  0
  6 18  1  0  0  0  0
  7  8  1  0  0  0  0
  8  9  1  0  0  0  0
  9 15  1  0  0  0  0
 10 13  1  0  0  0  0
 11 13  1  0  0  0  0
 12 13  1  0  0  0  0
 13 18  1  0  0  0  0
  1 19  1  0  0  0  0
  2 20  1  0  0  0  0
  7 21  1  0  0  0  0
  7 22  1  0  0  0  0
  8 23  1  0  0  0  0
  8 24  1  0  0  0  0
  9 25  1  0  0  0  0
  9 26  1  0  0  0  0
 10 27  1  0  0  0  0
 10 28  1  0  0  0  0
 10 29  1  0  0  0  0
 11 30  1  0  0  0  0
 11 31  1  0  0  0  0
 11 32  1  0  0  0  0
 12 33  1  0  0  0  0
 12 34  1  0  0  0  0
 12 35  1  0  0  0  0
 17 36  1  0  0  0  0
M  END
> <id>
EN300-37100426

> <smiles>
CC(C)(C)OC(=O)N1CCCC=2N=C(O)C=CC12

> <IUPAC Name>
tert-butyl 6-hydroxy-1,2,3,4-tetrahydro-1,5-naphthyridine-1-carboxylate

> <CAS>
2757956-41-3

> <URL>
https://www.enaminestore.com/catalog/EN300-37100426

> <ROCS_ShapeQuery>
A71EV2A-x0451_0A_A71EV2A-x0310_0A_A71EV2A-x0416_0A_peptide

> <ROCS_TanimotoCombo>
0.480 

> <ROCS_ShapeTanimoto>
0.337 

> <ROCS_ColorTanimoto>
0.143 

> <ROCS_RefTversky>
0.293 

> <ROCS_RefColorTversky>
0.159 

> <ROCS_RefTverskyCombo>
0.452 

> <ROCS_FitTversky>
1.796 

> <ROCS_FitColorTversky>
0.587 

> <ROCS_FitTverskyCombo>
2.383 

> <ROCS_ColorScore>
-4.840

> <ROCS_Overlap>
2032.442

> <ROCS_Rank>
367                 

$$$$
untitled-dbase-44889_35
  -OEChem-11132313473D

 42 43  0     0  0  0  0  0  0999 V2000
    7.0034   10.4569   25.6362 C   0  0  0  0  0  0  0  0  0  0  0  0
    6.4412   11.5550   26.2797 C   0  0  0  0  0  0  0  0  0  0  0  0
    7.9134   13.0019   25.0394 C   0  0  0  0  0  0  0  0  0  0  0  0
    8.0233   10.6087   24.6724 C   0  0  0  0  0  0  0  0  0  0  0  0
    8.5249   11.9083   24.3959 C   0  0  0  0  0  0  0  0  0  0  0  0
    6.8867   12.8283   25.9700 C   0  0  0  0  0  0  0  0  0  0  0  0
   10.4033   13.2807   23.4345 C   0  0  0  0  0  0  0  0  0  0  0  0
    9.0562    9.8151   22.5733 C   0  0  0  0  0  0  0  0  0  0  0  0
   10.0319   10.9729   22.6272 C   0  0  0  0  0  0  0  0  0  0  0  0
    8.5977    9.3774   23.9715 C   0  0  0  0  0  0  0  0  0  0  0  0
    7.5698    8.2409   23.7636 C   0  0  0  0  0  0  0  0  0  0  0  0
    9.7681    8.8219   24.8057 C   0  0  0  0  0  0  0  0  0  0  0  0
   12.2054   15.4397   22.8593 C   0  0  0  0  0  0  0  0  0  0  0  0
   11.9855   14.7408   20.4568 C   0  0  0  0  0  0  0  0  0  0  0  0
    9.9662   15.5451   21.7151 C   0  0  0  0  0  0  0  0  0  0  0  0
   11.2932   14.7946   21.8169 C   0  0  0  0  0  0  0  0  0  0  0  0
    9.6229   12.0985   23.4742 N   0  0  0  0  0  0  0  0  0  0  0  0
   10.5669   14.0806   24.3518 O   0  0  0  0  0  0  0  0  0  0  0  0
   11.0248   13.4457   22.2183 O   0  0  0  0  0  0  0  0  0  0  0  0
    6.0838   14.3333   26.7866 Br  0  0  0  0  0  0  0  0  0  0  0  0
    6.6218    9.4730   25.8934 H   0  0  0  0  0  0  0  0  0  0  0  0
    5.6498   11.3955   27.0075 H   0  0  0  0  0  0  0  0  0  0  0  0
    8.1861   14.0233   24.7979 H   0  0  0  0  0  0  0  0  0  0  0  0
    8.1914   10.0938   21.9540 H   0  0  0  0  0  0  0  0  0  0  0  0
    9.5433    8.9777   22.0493 H   0  0  0  0  0  0  0  0  0  0  0  0
   11.0073   10.5669   22.9720 H   0  0  0  0  0  0  0  0  0  0  0  0
   10.2437   11.3838   21.6149 H   0  0  0  0  0  0  0  0  0  0  0  0
    8.0566    7.4123   23.2637 H   0  0  0  0  0  0  0  0  0  0  0  0
    6.7532    8.6109   23.1556 H   0  0  0  0  0  0  0  0  0  0  0  0
    7.1966    7.9221   24.7294 H   0  0  0  0  0  0  0  0  0  0  0  0
   10.1716    7.9505   24.3061 H   0  0  0  0  0  0  0  0  0  0  0  0
    9.4006    8.5503   25.7870 H   0  0  0  0  0  0  0  0  0  0  0  0
   10.5297    9.5862   24.8927 H   0  0  0  0  0  0  0  0  0  0  0  0
   11.7121   15.4802   23.8371 H   0  0  0  0  0  0  0  0  0  0  0  0
   13.1464   14.8905   22.9671 H   0  0  0  0  0  0  0  0  0  0  0  0
   12.4385   16.4756   22.5875 H   0  0  0  0  0  0  0  0  0  0  0  0
   11.3346   14.2787   19.7058 H   0  0  0  0  0  0  0  0  0  0  0  0
   12.8899   14.1234   20.5033 H   0  0  0  0  0  0  0  0  0  0  0  0
   12.2650   15.7395   20.1059 H   0  0  0  0  0  0  0  0  0  0  0  0
    9.3117   15.0826   20.9675 H   0  0  0  0  0  0  0  0  0  0  0  0
    9.4377   15.5620   22.6738 H   0  0  0  0  0  0  0  0  0  0  0  0
   10.1271   16.5788   21.3880 H   0  0  0  0  0  0  0  0  0  0  0  0
  1  2  1  0  0  0  0
  1  4  2  0  0  0  0
  2  6  2  0  0  0  0
  3  5  2  0  0  0  0
  3  6  1  0  0  0  0
  4  5  1  0  0  0  0
  4 10  1  0  0  0  0
  5 17  1  0  0  0  0
  6 20  1  0  0  0  0
  7 17  1  0  0  0  0
  7 18  2  0  0  0  0
  7 19  1  0  0  0  0
  8  9  1  0  0  0  0
  8 10  1  0  0  0  0
  9 17  1  0  0  0  0
 10 11  1  0  0  0  0
 10 12  1  0  0  0  0
 13 16  1  0  0  0  0
 14 16  1  0  0  0  0
 15 16  1  0  0  0  0
 16 19  1  0  0  0  0
  1 21  1  0  0  0  0
  2 22  1  0  0  0  0
  3 23  1  0  0  0  0
  8 24  1  0  0  0  0
  8 25  1  0  0  0  0
  9 26  1  0  0  0  0
  9 27  1  0  0  0  0
 11 28  1  0  0  0  0
 11 29  1  0  0  0  0
 11 30  1  0  0  0  0
 12 31  1  0  0  0  0
 12 32  1  0  0  0  0
 12 33  1  0  0  0  0
 13 34  1  0  0  0  0
 13 35  1  0  0  0  0
 13 36  1  0  0  0  0
 14 37  1  0  0  0  0
 14 38  1  0  0  0  0
 14 39  1  0  0  0  0
 15 40  1  0  0  0  0
 15 41  1  0  0  0  0
 15 42  1  0  0  0  0
M  END
> <id>
EN300-24589340

> <smiles>
CC(C)(C)OC(=O)N1CCC(C)(C)C=2C=CC(Br)=CC12

> <MDLNUMBER>
MFCD12913852

> <IUPAC Name>
tert-butyl 7-bromo-4,4-dimethyl-1,2,3,4-tetrahydroquinoline-1-carboxylate

> <CAS>
1187932-35-9

> <URL>
https://www.enaminestore.com/catalog/EN300-24589340

> <ROCS_ShapeQuery>
A71EV2A-x0451_0A_A71EV2A-x0310_0A_A71EV2A-x0416_0A_peptide

> <ROCS_TanimotoCombo>
0.480 

> <ROCS_ShapeTanimoto>
0.361 

> <ROCS_ColorTanimoto>
0.119 

> <ROCS_RefTversky>
0.311 

> <ROCS_RefColorTversky>
0.132 

> <ROCS_RefTverskyCombo>
0.442 

> <ROCS_FitTversky>
1.807 

> <ROCS_FitColorTversky>
0.549 

> <ROCS_FitTverskyCombo>
2.357 

> <ROCS_ColorScore>
-4.004

> <ROCS_Overlap>
2156.255

> <ROCS_Rank>
368                 

$$$$
untitled-dbase-34733_17
  -OEChem-11132313473D

 38 39  0     0  0  0  0  0  0999 V2000
    6.5147   11.3540   26.1540 C   0  0  0  0  0  0  0  0  0  0  0  0
    6.9151   12.6522   25.8764 C   0  0  0  0  0  0  0  0  0  0  0  0
    7.1575   10.2860   25.5313 C   0  0  0  0  0  0  0  0  0  0  0  0
    7.9444   12.8825   24.9637 C   0  0  0  0  0  0  0  0  0  0  0  0
    8.2149   10.4863   24.6194 C   0  0  0  0  0  0  0  0  0  0  0  0
    8.5996   11.8168   24.3152 C   0  0  0  0  0  0  0  0  0  0  0  0
   10.4667   13.1924   23.4113 C   0  0  0  0  0  0  0  0  0  0  0  0
   10.4530    9.9671   22.3747 C   0  0  0  0  0  0  0  0  0  0  0  0
   10.2659    9.3662   23.7599 C   0  0  0  0  0  0  0  0  0  0  0  0
    9.6001   11.2055   22.1338 C   0  0  0  0  0  0  0  0  0  0  0  0
   11.6900   15.6304   22.5327 C   0  0  0  0  0  0  0  0  0  0  0  0
   12.3858   14.3321   20.4981 C   0  0  0  0  0  0  0  0  0  0  0  0
    9.9465   14.6603   20.9984 C   0  0  0  0  0  0  0  0  0  0  0  0
   11.3382   14.4719   21.6004 C   0  0  0  0  0  0  0  0  0  0  0  0
    8.8723    9.3490   24.1543 N   0  0  0  0  0  0  0  0  0  0  0  0
    9.5763   12.1082   23.2957 N   0  0  0  0  0  0  0  0  0  0  0  0
   10.5056   13.9861   24.3496 O   0  0  0  0  0  0  0  0  0  0  0  0
   11.3460   13.2573   22.3598 O   0  0  0  0  0  0  0  0  0  0  0  0
    5.6997   11.1697   26.8473 H   0  0  0  0  0  0  0  0  0  0  0  0
    6.4426   13.4882   26.3838 H   0  0  0  0  0  0  0  0  0  0  0  0
    6.8053    9.2774   25.7419 H   0  0  0  0  0  0  0  0  0  0  0  0
    8.2613   13.9123   24.8205 H   0  0  0  0  0  0  0  0  0  0  0  0
   11.5068   10.2332   22.2266 H   0  0  0  0  0  0  0  0  0  0  0  0
   10.2163    9.2029   21.6245 H   0  0  0  0  0  0  0  0  0  0  0  0
   10.6858    8.3533   23.8051 H   0  0  0  0  0  0  0  0  0  0  0  0
   10.8348    9.9609   24.4839 H   0  0  0  0  0  0  0  0  0  0  0  0
    9.9662   11.7660   21.2634 H   0  0  0  0  0  0  0  0  0  0  0  0
    8.5828   10.8969   21.8697 H   0  0  0  0  0  0  0  0  0  0  0  0
   10.9404   15.7341   23.3254 H   0  0  0  0  0  0  0  0  0  0  0  0
   12.6711   15.4901   22.9980 H   0  0  0  0  0  0  0  0  0  0  0  0
   11.6979   16.5817   21.9884 H   0  0  0  0  0  0  0  0  0  0  0  0
   12.1374   13.5020   19.8268 H   0  0  0  0  0  0  0  0  0  0  0  0
   13.3701   14.1023   20.9219 H   0  0  0  0  0  0  0  0  0  0  0  0
   12.4698   15.2466   19.9022 H   0  0  0  0  0  0  0  0  0  0  0  0
    9.6940   13.8295   20.3297 H   0  0  0  0  0  0  0  0  0  0  0  0
    9.1769   14.7256   21.7743 H   0  0  0  0  0  0  0  0  0  0  0  0
    9.9053   15.5708   20.3896 H   0  0  0  0  0  0  0  0  0  0  0  0
    8.3087    8.5551   23.8716 H   0  0  0  0  0  0  0  0  0  0  0  0
  1  2  2  0  0  0  0
  1  3  1  0  0  0  0
  2  4  1  0  0  0  0
  3  5  2  0  0  0  0
  4  6  2  0  0  0  0
  5  6  1  0  0  0  0
  5 15  1  0  0  0  0
  6 16  1  0  0  0  0
  7 16  1  0  0  0  0
  7 17  2  0  0  0  0
  7 18  1  0  0  0  0
  8  9  1  0  0  0  0
  8 10  1  0  0  0  0
  9 15  1  0  0  0  0
 10 16  1  0  0  0  0
 11 14  1  0  0  0  0
 12 14  1  0  0  0  0
 13 14  1  0  0  0  0
 14 18  1  0  0  0  0
  1 19  1  0  0  0  0
  2 20  1  0  0  0  0
  3 21  1  0  0  0  0
  4 22  1  0  0  0  0
  8 23  1  0  0  0  0
  8 24  1  0  0  0  0
  9 25  1  0  0  0  0
  9 26  1  0  0  0  0
 10 27  1  0  0  0  0
 10 28  1  0  0  0  0
 11 29  1  0  0  0  0
 11 30  1  0  0  0  0
 11 31  1  0  0  0  0
 12 32  1  0  0  0  0
 12 33  1  0  0  0  0
 12 34  1  0  0  0  0
 13 35  1  0  0  0  0
 13 36  1  0  0  0  0
 13 37  1  0  0  0  0
 15 38  1  0  0  0  0
M  END
> <id>
EN300-82890

> <smiles>
CC(C)(C)OC(=O)N1CCCNC=2C=CC=CC12

> <MDLNUMBER>
MFCD09832499

> <IUPAC Name>
tert-butyl 2,3,4,5-tetrahydro-1H-1,5-benzodiazepine-1-carboxylate

> <CAS>
946386-48-7

> <Purity>
95

> <URL>
https://www.enaminestore.com/catalog/EN300-82890

> <ROCS_ShapeQuery>
A71EV2A-x0451_0A_A71EV2A-x0310_0A_A71EV2A-x0416_0A_peptide

> <ROCS_TanimotoCombo>
0.480 

> <ROCS_ShapeTanimoto>
0.337 

> <ROCS_ColorTanimoto>
0.143 

> <ROCS_RefTversky>
0.293 

> <ROCS_RefColorTversky>
0.151 

> <ROCS_RefTverskyCombo>
0.444 

> <ROCS_FitTversky>
1.803 

> <ROCS_FitColorTversky>
0.725 

> <ROCS_FitTverskyCombo>
2.528 

> <ROCS_ColorScore>
-4.592

> <ROCS_Overlap>
2030.131

> <ROCS_Rank>
369                 

$$$$
untitled-dbase-44813_14
  -OEChem-11132313473D

 32 33  0     0  0  0  0  0  0999 V2000
    7.9690   12.9560   25.2710 C   0  0  0  0  0  0  0  0  0  0  0  0
    6.8421   12.5769   25.9988 C   0  0  0  0  0  0  0  0  0  0  0  0
    8.5591   12.0098   24.4550 C   0  0  0  0  0  0  0  0  0  0  0  0
    8.0127   10.7364   24.3940 C   0  0  0  0  0  0  0  0  0  0  0  0
    6.3680   11.2727   25.8695 C   0  0  0  0  0  0  0  0  0  0  0  0
   10.4788   13.2193   23.4274 C   0  0  0  0  0  0  0  0  0  0  0  0
    8.7838    9.8504   23.4591 C   0  0  0  0  0  0  0  0  0  0  0  0
    9.8880   10.7929   22.9655 C   0  0  0  0  0  0  0  0  0  0  0  0
   12.2571   15.2671   22.5118 C   0  0  0  0  0  0  0  0  0  0  0  0
   11.8814   14.3128   20.2189 C   0  0  0  0  0  0  0  0  0  0  0  0
    9.9515   15.2801   21.5027 C   0  0  0  0  0  0  0  0  0  0  0  0
   11.2762   14.5255   21.6048 C   0  0  0  0  0  0  0  0  0  0  0  0
    6.9288   10.3293   25.0772 N   0  0  0  0  0  0  0  0  0  0  0  0
    9.6831   12.1001   23.6192 N   0  0  0  0  0  0  0  0  0  0  0  0
   10.6894   14.1007   24.2557 O   0  0  0  0  0  0  0  0  0  0  0  0
   11.0227   13.2332   22.1679 O   0  0  0  0  0  0  0  0  0  0  0  0
    5.2824   10.9172   26.5743 F   0  0  0  0  0  0  0  0  0  0  0  0
    8.3458   13.9671   25.3634 H   0  0  0  0  0  0  0  0  0  0  0  0
    6.3433   13.2842   26.6527 H   0  0  0  0  0  0  0  0  0  0  0  0
    9.1985    8.9923   23.9958 H   0  0  0  0  0  0  0  0  0  0  0  0
    8.1475    9.5114   22.6365 H   0  0  0  0  0  0  0  0  0  0  0  0
   10.8857   10.4199   23.2239 H   0  0  0  0  0  0  0  0  0  0  0  0
    9.8503   10.9294   21.8786 H   0  0  0  0  0  0  0  0  0  0  0  0
   11.8265   15.4217   23.5076 H   0  0  0  0  0  0  0  0  0  0  0  0
   13.1986   14.7189   22.6214 H   0  0  0  0  0  0  0  0  0  0  0  0
   12.4811   16.2634   22.1137 H   0  0  0  0  0  0  0  0  0  0  0  0
   11.1810   13.7810   19.5648 H   0  0  0  0  0  0  0  0  0  0  0  0
   12.7819   13.6908   20.2775 H   0  0  0  0  0  0  0  0  0  0  0  0
   12.1465   15.2627   19.7437 H   0  0  0  0  0  0  0  0  0  0  0  0
    9.2477   14.7483   20.8522 H   0  0  0  0  0  0  0  0  0  0  0  0
    9.4844   15.4096   22.4843 H   0  0  0  0  0  0  0  0  0  0  0  0
   10.1000   16.2692   21.0544 H   0  0  0  0  0  0  0  0  0  0  0  0
  1  2  1  0  0  0  0
  1  3  2  0  0  0  0
  2  5  2  0  0  0  0
  3  4  1  0  0  0  0
  3 14  1  0  0  0  0
  4  7  1  0  0  0  0
  4 13  2  0  0  0  0
  5 13  1  0  0  0  0
  5 17  1  0  0  0  0
  6 14  1  0  0  0  0
  6 15  2  0  0  0  0
  6 16  1  0  0  0  0
  7  8  1  0  0  0  0
  8 14  1  0  0  0  0
  9 12  1  0  0  0  0
 10 12  1  0  0  0  0
 11 12  1  0  0  0  0
 12 16  1  0  0  0  0
  1 18  1  0  0  0  0
  2 19  1  0  0  0  0
  7 20  1  0  0  0  0
  7 21  1  0  0  0  0
  8 22  1  0  0  0  0
  8 23  1  0  0  0  0
  9 24  1  0  0  0  0
  9 25  1  0  0  0  0
  9 26  1  0  0  0  0
 10 27  1  0  0  0  0
 10 28  1  0  0  0  0
 10 29  1  0  0  0  0
 11 30  1  0  0  0  0
 11 31  1  0  0  0  0
 11 32  1  0  0  0  0
M  END
> <id>
EN300-28276538

> <smiles>
CC(C)(C)OC(=O)N1CCC=2N=C(F)C=CC12

> <IUPAC Name>
tert-butyl 5-fluoro-1H,2H,3H-pyrrolo[3,2-b]pyridine-1-carboxylate

> <CAS>
2383759-01-9

> <URL>
https://www.enaminestore.com/catalog/EN300-28276538

> <ROCS_ShapeQuery>
A71EV2A-x0451_0A_A71EV2A-x0310_0A_A71EV2A-x0416_0A_peptide

> <ROCS_TanimotoCombo>
0.480 

> <ROCS_ShapeTanimoto>
0.322 

> <ROCS_ColorTanimoto>
0.157 

> <ROCS_RefTversky>
0.282 

> <ROCS_RefColorTversky>
0.164 

> <ROCS_RefTverskyCombo>
0.447 

> <ROCS_FitTversky>
1.784 

> <ROCS_FitColorTversky>
0.786 

> <ROCS_FitTverskyCombo>
2.570 

> <ROCS_ColorScore>
-4.995

> <ROCS_Overlap>
1956.792

> <ROCS_Rank>
370                 

$$$$
untitled-dbase-2414_47
  -OEChem-11132313473D

 37 38  0     1  0  0  0  0  0999 V2000
   10.7095   13.0970   23.6767 C   0  0  0  0  0  0  0  0  0  0  0  0
    7.7969   11.1216   22.8587 C   0  0  0  0  0  0  0  0  0  0  0  0
    8.2047   11.3911   25.1918 C   0  0  0  0  0  0  0  0  0  0  0  0
   10.1156   10.7139   23.0306 C   0  0  0  0  0  0  0  0  0  0  0  0
    8.7730   10.0063   23.2802 C   0  0  1  0  0  0  0  0  0  0  0  0
    8.3882   12.1253   23.8475 C   0  0  1  0  0  0  0  0  0  0  0  0
    8.4578    9.9107   24.8010 C   0  0  1  0  0  0  0  0  0  0  0  0
   12.1325   15.3910   22.7398 C   0  0  0  0  0  0  0  0  0  0  0  0
   13.1072   13.8514   21.0110 C   0  0  0  0  0  0  0  0  0  0  0  0
   10.6305   14.2650   21.0633 C   0  0  0  0  0  0  0  0  0  0  0  0
    9.5266    9.2407   25.6543 C   0  0  0  0  0  0  0  0  0  0  0  0
   11.9003   14.1338   21.9030 C   0  0  0  0  0  0  0  0  0  0  0  0
    9.8145   12.0613   23.5101 N   0  0  0  0  0  0  0  0  0  0  0  0
   10.5917   13.9844   24.5181 O   0  0  0  0  0  0  0  0  0  0  0  0
    7.2414    9.1793   24.9755 O   0  0  0  0  0  0  0  0  0  0  0  0
   11.7480   13.0188   22.7885 O   0  0  0  0  0  0  0  0  0  0  0  0
    9.1636    9.2535   26.9474 F   0  0  0  0  0  0  0  0  0  0  0  0
    9.6980    7.9661   25.2672 F   0  0  0  0  0  0  0  0  0  0  0  0
   10.6954    9.8904   25.5284 F   0  0  0  0  0  0  0  0  0  0  0  0
    7.9165   11.4267   21.8132 H   0  0  0  0  0  0  0  0  0  0  0  0
    6.7450   10.8859   23.0500 H   0  0  0  0  0  0  0  0  0  0  0  0
    8.9085   11.7648   25.9437 H   0  0  0  0  0  0  0  0  0  0  0  0
    7.1862   11.5370   25.5698 H   0  0  0  0  0  0  0  0  0  0  0  0
   10.9706   10.2882   23.5605 H   0  0  0  0  0  0  0  0  0  0  0  0
   10.3537   10.7786   21.9632 H   0  0  0  0  0  0  0  0  0  0  0  0
    8.6398    9.0733   22.7282 H   0  0  0  0  0  0  0  0  0  0  0  0
    7.9882   13.1406   23.8250 H   0  0  0  0  0  0  0  0  0  0  0  0
   11.2683   15.5971   23.3815 H   0  0  0  0  0  0  0  0  0  0  0  0
   13.0208   15.2959   23.3727 H   0  0  0  0  0  0  0  0  0  0  0  0
   12.2575   16.2705   22.0978 H   0  0  0  0  0  0  0  0  0  0  0  0
   12.9450   12.9502   20.4088 H   0  0  0  0  0  0  0  0  0  0  0  0
   14.0027   13.6626   21.6141 H   0  0  0  0  0  0  0  0  0  0  0  0
   13.3144   14.6873   20.3351 H   0  0  0  0  0  0  0  0  0  0  0  0
   10.4637   13.3633   20.4630 H   0  0  0  0  0  0  0  0  0  0  0  0
    9.7481   14.4312   21.6897 H   0  0  0  0  0  0  0  0  0  0  0  0
   10.7162   15.0967   20.3547 H   0  0  0  0  0  0  0  0  0  0  0  0
    7.4361    8.2648   24.7236 H   0  0  0  0  0  0  0  0  0  0  0  0
  1 13  1  0  0  0  0
  1 14  2  0  0  0  0
  1 16  1  0  0  0  0
  2  5  1  0  0  0  0
  2  6  1  0  0  0  0
  3  6  1  0  0  0  0
  3  7  1  0  0  0  0
  4  5  1  0  0  0  0
  4 13  1  0  0  0  0
  5  7  1  0  0  0  0
  6 13  1  0  0  0  0
  7 11  1  0  0  0  0
  7 15  1  0  0  0  0
  8 12  1  0  0  0  0
  9 12  1  0  0  0  0
 10 12  1  0  0  0  0
 11 17  1  0  0  0  0
 11 18  1  0  0  0  0
 11 19  1  0  0  0  0
 12 16  1  0  0  0  0
  2 20  1  0  0  0  0
  2 21  1  0  0  0  0
  3 22  1  0  0  0  0
  3 23  1  0  0  0  0
  4 24  1  0  0  0  0
  4 25  1  0  0  0  0
  5 26  1  0  0  0  0
  6 27  1  0  0  0  0
  8 28  1  0  0  0  0
  8 29  1  0  0  0  0
  8 30  1  0  0  0  0
  9 31  1  0  0  0  0
  9 32  1  0  0  0  0
  9 33  1  0  0  0  0
 10 34  1  0  0  0  0
 10 35  1  0  0  0  0
 10 36  1  0  0  0  0
 15 37  1  0  0  0  0
M  END
> <id>
EN300-89639

> <smiles>
CC(C)(C)OC(=O)N1CC2CC1CC2(O)C(F)(F)F

> <MDLNUMBER>
MFCD18791490

> <IUPAC Name>
tert-butyl 5-hydroxy-5-(trifluoromethyl)-2-azabicyclo[2.2.1]heptane-2-carboxylate

> <CAS>
1251923-83-7

> <URL>
https://www.enaminestore.com/catalog/EN300-89639

> <ROCS_ShapeQuery>
A71EV2A-x0451_0A_A71EV2A-x0310_0A_A71EV2A-x0416_0A_peptide

> <ROCS_TanimotoCombo>
0.479 

> <ROCS_ShapeTanimoto>
0.287 

> <ROCS_ColorTanimoto>
0.192 

> <ROCS_RefTversky>
0.262 

> <ROCS_RefColorTversky>
0.221 

> <ROCS_RefTverskyCombo>
0.483 

> <ROCS_FitTversky>
1.524 

> <ROCS_FitColorTversky>
0.594 

> <ROCS_FitTverskyCombo>
2.117 

> <ROCS_ColorScore>
-6.775

> <ROCS_Overlap>
1814.708

> <ROCS_Rank>
371                 

$$$$
untitled-dbase-25529_218
  -OEChem-11132313473D

 42 43  0     0  0  0  0  0  0999 V2000
    5.6759   13.0063   25.8635 C   0  0  0  0  0  0  0  0  0  0  0  0
   10.3374   13.1842   23.5330 C   0  0  0  0  0  0  0  0  0  0  0  0
    5.3861   12.5535   24.4552 C   0  0  0  0  0  0  0  0  0  0  0  0
    6.2615   11.9826   26.8082 C   0  0  0  0  0  0  0  0  0  0  0  0
    6.5995   11.8975   23.7975 C   0  0  0  0  0  0  0  0  0  0  0  0
    6.7733   10.7607   26.0535 C   0  0  0  0  0  0  0  0  0  0  0  0
   10.0528   10.7256   23.3741 C   0  0  0  0  0  0  0  0  0  0  0  0
    8.8060   11.9362   25.1156 C   0  0  0  0  0  0  0  0  0  0  0  0
    8.7758    9.9783   23.0344 C   0  0  0  0  0  0  0  0  0  0  0  0
    7.5365   11.1237   24.7631 C   0  0  0  0  0  0  0  0  0  0  0  0
   12.6027   14.5462   22.4359 C   0  0  0  0  0  0  0  0  0  0  0  0
   11.5955   14.0276   20.1940 C   0  0  0  0  0  0  0  0  0  0  0  0
   10.3498   15.4831   21.8182 C   0  0  0  0  0  0  0  0  0  0  0  0
   11.3047   14.2997   21.6684 C   0  0  0  0  0  0  0  0  0  0  0  0
    9.7284   12.0099   23.9799 N   0  0  0  0  0  0  0  0  0  0  0  0
    5.3852   14.1381   26.2494 O   0  0  0  0  0  0  0  0  0  0  0  0
   10.5567   14.1640   24.2429 O   0  0  0  0  0  0  0  0  0  0  0  0
    7.9304    9.8638   24.1798 O   0  0  0  0  0  0  0  0  0  0  0  0
   10.6721   13.1325   22.2058 O   0  0  0  0  0  0  0  0  0  0  0  0
    4.5321   11.8587   24.4883 H   0  0  0  0  0  0  0  0  0  0  0  0
    5.0722   13.4235   23.8572 H   0  0  0  0  0  0  0  0  0  0  0  0
    7.0890   12.4453   27.3635 H   0  0  0  0  0  0  0  0  0  0  0  0
    5.4876   11.7057   27.5374 H   0  0  0  0  0  0  0  0  0  0  0  0
    6.2277   11.2120   23.0112 H   0  0  0  0  0  0  0  0  0  0  0  0
    7.1848   12.6760   23.2687 H   0  0  0  0  0  0  0  0  0  0  0  0
    7.4386   10.1860   26.7176 H   0  0  0  0  0  0  0  0  0  0  0  0
    5.9175   10.1044   25.8426 H   0  0  0  0  0  0  0  0  0  0  0  0
   10.6893   10.1254   24.0294 H   0  0  0  0  0  0  0  0  0  0  0  0
   10.6153   10.9454   22.4601 H   0  0  0  0  0  0  0  0  0  0  0  0
    8.5365   12.9765   25.3472 H   0  0  0  0  0  0  0  0  0  0  0  0
    9.2938   11.5244   26.0070 H   0  0  0  0  0  0  0  0  0  0  0  0
    8.2187   10.5327   22.2738 H   0  0  0  0  0  0  0  0  0  0  0  0
    8.9845    8.9885   22.6191 H   0  0  0  0  0  0  0  0  0  0  0  0
   12.3982   14.7419   23.4946 H   0  0  0  0  0  0  0  0  0  0  0  0
   13.2819   13.6904   22.3653 H   0  0  0  0  0  0  0  0  0  0  0  0
   13.1214   15.4323   22.0524 H   0  0  0  0  0  0  0  0  0  0  0  0
   10.6670   13.8501   19.6395 H   0  0  0  0  0  0  0  0  0  0  0  0
   12.2030   13.1230   20.0765 H   0  0  0  0  0  0  0  0  0  0  0  0
   12.1246   14.8638   19.7256 H   0  0  0  0  0  0  0  0  0  0  0  0
    9.4187   15.3065   21.2678 H   0  0  0  0  0  0  0  0  0  0  0  0
   10.1007   15.6699   22.8678 H   0  0  0  0  0  0  0  0  0  0  0  0
   10.7897   16.3945   21.3973 H   0  0  0  0  0  0  0  0  0  0  0  0
  1  3  1  0  0  0  0
  1  4  1  0  0  0  0
  1 16  2  0  0  0  0
  2 15  1  0  0  0  0
  2 17  2  0  0  0  0
  2 19  1  0  0  0  0
  3  5  1  0  0  0  0
  4  6  1  0  0  0  0
  5 10  1  0  0  0  0
  6 10  1  0  0  0  0
  7  9  1  0  0  0  0
  7 15  1  0  0  0  0
  8 10  1  0  0  0  0
  8 15  1  0  0  0  0
  9 18  1  0  0  0  0
 10 18  1  0  0  0  0
 11 14  1  0  0  0  0
 12 14  1  0  0  0  0
 13 14  1  0  0  0  0
 14 19  1  0  0  0  0
  3 20  1  0  0  0  0
  3 21  1  0  0  0  0
  4 22  1  0  0  0  0
  4 23  1  0  0  0  0
  5 24  1  0  0  0  0
  5 25  1  0  0  0  0
  6 26  1  0  0  0  0
  6 27  1  0  0  0  0
  7 28  1  0  0  0  0
  7 29  1  0  0  0  0
  8 30  1  0  0  0  0
  8 31  1  0  0  0  0
  9 32  1  0  0  0  0
  9 33  1  0  0  0  0
 11 34  1  0  0  0  0
 11 35  1  0  0  0  0
 11 36  1  0  0  0  0
 12 37  1  0  0  0  0
 12 38  1  0  0  0  0
 12 39  1  0  0  0  0
 13 40  1  0  0  0  0
 13 41  1  0  0  0  0
 13 42  1  0  0  0  0
M  END
> <id>
EN300-3289518

> <smiles>
CC(C)(C)OC(=O)N1CCOC2(CCC(=O)CC2)C1

> <MDLNUMBER>
MFCD17016268

> <IUPAC Name>
tert-butyl 9-oxo-1-oxa-4-azaspiro[5.5]undecane-4-carboxylate

> <CAS>
1251012-92-6

> <Purity>
95

> <URL>
https://www.enaminestore.com/catalog/EN300-3289518

> <ROCS_ShapeQuery>
A71EV2A-x0451_0A_A71EV2A-x0310_0A_A71EV2A-x0416_0A_peptide

> <ROCS_TanimotoCombo>
0.479 

> <ROCS_ShapeTanimoto>
0.316 

> <ROCS_ColorTanimoto>
0.163 

> <ROCS_RefTversky>
0.280 

> <ROCS_RefColorTversky>
0.174 

> <ROCS_RefTverskyCombo>
0.454 

> <ROCS_FitTversky>
1.681 

> <ROCS_FitColorTversky>
0.727 

> <ROCS_FitTverskyCombo>
2.408 

> <ROCS_ColorScore>
-5.296

> <ROCS_Overlap>
1942.840

> <ROCS_Rank>
372                 

$$$$
untitled-dbase-24893_27
  -OEChem-11132313473D

 35 36  0     1  0  0  0  0  0999 V2000
   10.4208   13.1178   23.7601 C   0  0  0  0  0  0  0  0  0  0  0  0
    7.4338   11.5242   25.2592 C   0  0  0  0  0  0  0  0  0  0  0  0
    9.4316    9.9675   23.0290 C   0  0  0  0  0  0  0  0  0  0  0  0
    8.7416   12.2938   25.4163 C   0  0  0  0  0  0  0  0  0  0  0  0
    7.6367   10.5917   24.0639 C   0  0  1  0  0  0  0  0  0  0  0  0
    8.7003   11.3141   23.1974 C   0  0  1  0  0  0  0  0  0  0  0  0
    8.6380    9.4189   24.2308 C   0  0  1  0  0  0  0  0  0  0  0  0
   12.7999   14.3524   22.7702 C   0  0  0  0  0  0  0  0  0  0  0  0
   12.7172   12.6254   20.9481 C   0  0  0  0  0  0  0  0  0  0  0  0
   10.8488   14.2874   21.1816 C   0  0  0  0  0  0  0  0  0  0  0  0
   11.8923   13.4572   21.9277 C   0  0  0  0  0  0  0  0  0  0  0  0
    9.3501   12.3029   24.0898 N   0  0  0  0  0  0  0  0  0  0  0  0
    7.9794    8.1799   23.8364 N   0  0  0  0  0  0  0  0  0  0  0  0
   10.6367   14.2166   24.2654 O   0  0  0  0  0  0  0  0  0  0  0  0
   11.2125   12.5478   22.8000 O   0  0  0  0  0  0  0  0  0  0  0  0
    7.1697   10.9749   26.1679 H   0  0  0  0  0  0  0  0  0  0  0  0
    6.6214   12.2269   25.0387 H   0  0  0  0  0  0  0  0  0  0  0  0
    9.2284    9.4967   22.0591 H   0  0  0  0  0  0  0  0  0  0  0  0
   10.5171    9.9968   23.1686 H   0  0  0  0  0  0  0  0  0  0  0  0
    8.5939   13.3139   25.7833 H   0  0  0  0  0  0  0  0  0  0  0  0
    9.4339   11.7786   26.0910 H   0  0  0  0  0  0  0  0  0  0  0  0
    6.7089   10.3558   23.5287 H   0  0  0  0  0  0  0  0  0  0  0  0
    8.3197   11.7686   22.2776 H   0  0  0  0  0  0  0  0  0  0  0  0
    9.1873    9.3771   25.1705 H   0  0  0  0  0  0  0  0  0  0  0  0
   12.2115   14.9511   23.4746 H   0  0  0  0  0  0  0  0  0  0  0  0
   13.5304   13.7664   23.3374 H   0  0  0  0  0  0  0  0  0  0  0  0
   13.3430   15.0641   22.1380 H   0  0  0  0  0  0  0  0  0  0  0  0
   12.0700   11.9816   20.3416 H   0  0  0  0  0  0  0  0  0  0  0  0
   13.4023   11.9579   21.4833 H   0  0  0  0  0  0  0  0  0  0  0  0
   13.3049   13.2585   20.2755 H   0  0  0  0  0  0  0  0  0  0  0  0
   10.1976   13.6456   20.5772 H   0  0  0  0  0  0  0  0  0  0  0  0
   10.2229   14.8630   21.8713 H   0  0  0  0  0  0  0  0  0  0  0  0
   11.3300   14.9833   20.4848 H   0  0  0  0  0  0  0  0  0  0  0  0
    8.6724    7.4754   23.7390 H   0  0  0  0  0  0  0  0  0  0  0  0
    7.3281    7.9342   24.5445 H   0  0  0  0  0  0  0  0  0  0  0  0
  1 12  1  0  0  0  0
  1 14  2  0  0  0  0
  1 15  1  0  0  0  0
  2  4  1  0  0  0  0
  2  5  1  0  0  0  0
  3  6  1  0  0  0  0
  3  7  1  0  0  0  0
  4 12  1  0  0  0  0
  5  6  1  0  0  0  0
  5  7  1  0  0  0  0
  6 12  1  0  0  0  0
  7 13  1  0  0  0  0
  8 11  1  0  0  0  0
  9 11  1  0  0  0  0
 10 11  1  0  0  0  0
 11 15  1  0  0  0  0
  2 16  1  0  0  0  0
  2 17  1  0  0  0  0
  3 18  1  0  0  0  0
  3 19  1  0  0  0  0
  4 20  1  0  0  0  0
  4 21  1  0  0  0  0
  5 22  1  0  0  0  0
  6 23  1  0  0  0  0
  7 24  1  0  0  0  0
  8 25  1  0  0  0  0
  8 26  1  0  0  0  0
  8 27  1  0  0  0  0
  9 28  1  0  0  0  0
  9 29  1  0  0  0  0
  9 30  1  0  0  0  0
 10 31  1  0  0  0  0
 10 32  1  0  0  0  0
 10 33  1  0  0  0  0
 13 34  1  0  0  0  0
 13 35  1  0  0  0  0
M  END
> <id>
EN300-6489200

> <smiles>
CC(C)(C)OC(=O)N1CCC2C(N)CC21

> <MDLNUMBER>
MFCD32717793

> <IUPAC Name>
tert-butyl 6-amino-2-azabicyclo[3.2.0]heptane-2-carboxylate

> <CAS>
1785176-82-0

> <URL>
https://www.enaminestore.com/catalog/EN300-6489200

> <ROCS_ShapeQuery>
A71EV2A-x0451_0A_A71EV2A-x0310_0A_A71EV2A-x0416_0A_peptide

> <ROCS_TanimotoCombo>
0.479 

> <ROCS_ShapeTanimoto>
0.280 

> <ROCS_ColorTanimoto>
0.199 

> <ROCS_RefTversky>
0.250 

> <ROCS_RefColorTversky>
0.223 

> <ROCS_RefTverskyCombo>
0.473 

> <ROCS_FitTversky>
1.754 

> <ROCS_FitColorTversky>
0.648 

> <ROCS_FitTverskyCombo>
2.402 

> <ROCS_ColorScore>
-6.826

> <ROCS_Overlap>
1733.186

> <ROCS_Rank>
373                 

$$$$
untitled-dbase-31656_203
  -OEChem-11132313473D

 45 47  0     1  0  0  0  0  0999 V2000
    6.2795   12.6303   25.9100 C   0  0  0  0  0  0  0  0  0  0  0  0
    7.1041   12.9980   24.8610 C   0  0  0  0  0  0  0  0  0  0  0  0
    6.2453   11.2974   26.2405 C   0  0  0  0  0  0  0  0  0  0  0  0
    7.8709   12.0401   24.1722 C   0  0  0  0  0  0  0  0  0  0  0  0
    7.7816   10.6917   24.5638 C   0  0  0  0  0  0  0  0  0  0  0  0
   11.0548   13.1935   23.6212 C   0  0  0  0  0  0  0  0  0  0  0  0
    8.7396   12.5231   23.0394 C   0  0  0  0  0  0  0  0  0  0  0  0
   10.0285    8.3719   22.7322 C   0  0  0  0  0  0  0  0  0  0  0  0
   10.5677   10.7972   23.1037 C   0  0  0  0  0  0  0  0  0  0  0  0
    8.2448    8.2841   24.3117 C   0  0  0  0  0  0  0  0  0  0  0  0
    9.4492    9.7913   22.8452 C   0  0  2  0  0  0  0  0  0  0  0  0
    8.8760    7.4861   23.1749 C   0  0  2  0  0  0  0  0  0  0  0  0
   12.9439   15.2566   23.0197 C   0  0  0  0  0  0  0  0  0  0  0  0
   14.2859   13.4491   21.9057 C   0  0  0  0  0  0  0  0  0  0  0  0
   11.9975   14.0201   21.0424 C   0  0  0  0  0  0  0  0  0  0  0  0
   12.8829   13.9190   22.2836 C   0  0  0  0  0  0  0  0  0  0  0  0
    6.9628   10.3474   25.6023 N   0  0  0  0  0  0  0  0  0  0  0  0
    8.4920    9.6803   23.9484 N   0  0  3  0  0  0  0  0  0  0  0  0
   10.1452   12.1909   23.2539 N   0  0  0  0  0  0  0  0  0  0  0  0
   10.7638   14.1924   24.2761 O   0  0  0  0  0  0  0  0  0  0  0  0
    9.3533    6.2306   23.6158 O   0  0  0  0  0  0  0  0  0  0  0  0
   12.3225   12.9391   23.1649 O   0  0  0  0  0  0  0  0  0  0  0  0
    5.6940   13.3635   26.4505 H   0  0  0  0  0  0  0  0  0  0  0  0
    7.1600   14.0484   24.5830 H   0  0  0  0  0  0  0  0  0  0  0  0
    5.6204   10.9371   27.0502 H   0  0  0  0  0  0  0  0  0  0  0  0
    8.4016   12.0987   22.0873 H   0  0  0  0  0  0  0  0  0  0  0  0
    8.6487   13.6098   22.9323 H   0  0  0  0  0  0  0  0  0  0  0  0
   10.2634    8.1643   21.6848 H   0  0  0  0  0  0  0  0  0  0  0  0
   10.9260    8.2361   23.3364 H   0  0  0  0  0  0  0  0  0  0  0  0
   11.1617   10.5105   23.9915 H   0  0  0  0  0  0  0  0  0  0  0  0
   11.2817   10.7772   22.2586 H   0  0  0  0  0  0  0  0  0  0  0  0
    7.1639    8.0999   24.3480 H   0  0  0  0  0  0  0  0  0  0  0  0
    8.6942    8.0376   25.2807 H   0  0  0  0  0  0  0  0  0  0  0  0
    8.9444   10.0106   21.8994 H   0  0  0  0  0  0  0  0  0  0  0  0
    8.1651    7.3135   22.3483 H   0  0  0  0  0  0  0  0  0  0  0  0
   11.9387   15.5974   23.2927 H   0  0  0  0  0  0  0  0  0  0  0  0
   13.5474   15.1886   23.9307 H   0  0  0  0  0  0  0  0  0  0  0  0
   13.3712   16.0364   22.3790 H   0  0  0  0  0  0  0  0  0  0  0  0
   14.2469   12.4897   21.3773 H   0  0  0  0  0  0  0  0  0  0  0  0
   14.8965   13.2839   22.8008 H   0  0  0  0  0  0  0  0  0  0  0  0
   14.7971   14.1763   21.2666 H   0  0  0  0  0  0  0  0  0  0  0  0
   11.9536   13.0607   20.5142 H   0  0  0  0  0  0  0  0  0  0  0  0
   10.9764   14.3205   21.2987 H   0  0  0  0  0  0  0  0  0  0  0  0
   12.4060   14.7465   20.3305 H   0  0  0  0  0  0  0  0  0  0  0  0
    8.5762    5.7137   23.8833 H   0  0  0  0  0  0  0  0  0  0  0  0
  1  2  1  0  0  0  0
  1  3  2  0  0  0  0
  2  4  2  0  0  0  0
  3 17  1  0  0  0  0
  4  5  1  0  0  0  0
  4  7  1  0  0  0  0
  5 17  2  0  0  0  0
  5 18  1  0  0  0  0
  6 19  1  0  0  0  0
  6 20  2  0  0  0  0
  6 22  1  0  0  0  0
  7 19  1  0  0  0  0
  8 11  1  0  0  0  0
  8 12  1  0  0  0  0
  9 11  1  1  0  0  0
  9 19  1  0  0  0  0
 10 12  1  0  0  0  0
 10 18  1  0  0  0  0
 11 18  1  0  0  0  0
 12 21  1  1  0  0  0
 13 16  1  0  0  0  0
 14 16  1  0  0  0  0
 15 16  1  0  0  0  0
 16 22  1  0  0  0  0
  1 23  1  0  0  0  0
  2 24  1  0  0  0  0
  3 25  1  0  0  0  0
  7 26  1  0  0  0  0
  7 27  1  0  0  0  0
  8 28  1  0  0  0  0
  8 29  1  0  0  0  0
  9 30  1  0  0  0  0
  9 31  1  0  0  0  0
 10 32  1  0  0  0  0
 10 33  1  0  0  0  0
 11 34  1  0  0  0  0
 12 35  1  0  0  0  0
 13 36  1  0  0  0  0
 13 37  1  0  0  0  0
 13 38  1  0  0  0  0
 14 39  1  0  0  0  0
 14 40  1  0  0  0  0
 14 41  1  0  0  0  0
 15 42  1  0  0  0  0
 15 43  1  0  0  0  0
 15 44  1  0  0  0  0
 21 45  1  0  0  0  0
M  END
> <id>
EN300-26666268

> <smiles>
CC(C)(C)OC(=O)N1C[C@H]2C[C@@H](O)CN2C=3N=CC=CC3C1

> <IUPAC Name>
tert-butyl (4R,6R)-4-hydroxy-2,8,14-triazatricyclo[8.4.0.0,2,6]tetradeca-1(14),10,12-triene-8-carboxylate

> <CAS>
2413846-72-5

> <URL>
https://www.enaminestore.com/catalog/EN300-26666268

> <ROCS_ShapeQuery>
A71EV2A-x0451_0A_A71EV2A-x0310_0A_A71EV2A-x0416_0A_peptide

> <ROCS_TanimotoCombo>
0.479 

> <ROCS_ShapeTanimoto>
0.355 

> <ROCS_ColorTanimoto>
0.124 

> <ROCS_RefTversky>
0.312 

> <ROCS_RefColorTversky>
0.143 

> <ROCS_RefTverskyCombo>
0.455 

> <ROCS_FitTversky>
1.649 

> <ROCS_FitColorTversky>
0.476 

> <ROCS_FitTverskyCombo>
2.125 

> <ROCS_ColorScore>
-4.378

> <ROCS_Overlap>
2165.684

> <ROCS_Rank>
374                 

$$$$
untitled-dbase-47121_14
  -OEChem-11132313473D

 30 31  0     0  0  0  0  0  0999 V2000
    8.0039   12.7156   25.1200 C   0  0  0  0  0  0  0  0  0  0  0  0
    9.2439    9.9375   23.1972 C   0  0  0  0  0  0  0  0  0  0  0  0
    6.9052   12.1477   25.7472 C   0  0  0  0  0  0  0  0  0  0  0  0
   10.1620   10.8944   22.8424 C   0  0  0  0  0  0  0  0  0  0  0  0
    8.3311   10.5332   24.0978 C   0  0  0  0  0  0  0  0  0  0  0  0
    8.7251   11.8659   24.2730 C   0  0  0  0  0  0  0  0  0  0  0  0
    7.2049   10.0586   24.7799 C   0  0  0  0  0  0  0  0  0  0  0  0
   10.5805   13.2831   23.3720 C   0  0  0  0  0  0  0  0  0  0  0  0
   12.2040   15.4785   22.6006 C   0  0  0  0  0  0  0  0  0  0  0  0
   11.9637   14.5933   20.2622 C   0  0  0  0  0  0  0  0  0  0  0  0
    9.9305   15.3485   21.5287 C   0  0  0  0  0  0  0  0  0  0  0  0
   11.3093   14.6990   21.6380 C   0  0  0  0  0  0  0  0  0  0  0  0
    6.4996   10.8697   25.5994 N   0  0  0  0  0  0  0  0  0  0  0  0
    9.8629   12.0810   23.4891 N   0  0  0  0  0  0  0  0  0  0  0  0
   10.6379   14.0847   24.2899 O   0  0  0  0  0  0  0  0  0  0  0  0
   11.1480   13.3697   22.1418 O   0  0  0  0  0  0  0  0  0  0  0  0
    6.7063    8.4503   24.5896 Cl  0  0  0  0  0  0  0  0  0  0  0  0
    8.2679   13.7509   25.2892 H   0  0  0  0  0  0  0  0  0  0  0  0
    9.2415    8.9177   22.8372 H   0  0  0  0  0  0  0  0  0  0  0  0
    6.2947   12.7428   26.4200 H   0  0  0  0  0  0  0  0  0  0  0  0
   11.0096   10.8168   22.1746 H   0  0  0  0  0  0  0  0  0  0  0  0
   11.7378   15.5566   23.5893 H   0  0  0  0  0  0  0  0  0  0  0  0
   13.1839   15.0036   22.7147 H   0  0  0  0  0  0  0  0  0  0  0  0
   12.3559   16.5053   22.2486 H   0  0  0  0  0  0  0  0  0  0  0  0
   11.3251   14.0348   19.5683 H   0  0  0  0  0  0  0  0  0  0  0  0
   12.9100   14.0437   20.3214 H   0  0  0  0  0  0  0  0  0  0  0  0
   12.1623   15.5804   19.8324 H   0  0  0  0  0  0  0  0  0  0  0  0
    9.2885   14.7895   20.8383 H   0  0  0  0  0  0  0  0  0  0  0  0
    9.4303   15.3992   22.5013 H   0  0  0  0  0  0  0  0  0  0  0  0
   10.0091   16.3641   21.1242 H   0  0  0  0  0  0  0  0  0  0  0  0
  1  3  1  0  0  0  0
  1  6  2  0  0  0  0
  2  4  2  0  0  0  0
  2  5  1  0  0  0  0
  3 13  2  0  0  0  0
  4 14  1  0  0  0  0
  5  6  1  0  0  0  0
  5  7  2  0  0  0  0
  6 14  1  0  0  0  0
  7 13  1  0  0  0  0
  7 17  1  0  0  0  0
  8 14  1  0  0  0  0
  8 15  2  0  0  0  0
  8 16  1  0  0  0  0
  9 12  1  0  0  0  0
 10 12  1  0  0  0  0
 11 12  1  0  0  0  0
 12 16  1  0  0  0  0
  1 18  1  0  0  0  0
  2 19  1  0  0  0  0
  3 20  1  0  0  0  0
  4 21  1  0  0  0  0
  9 22  1  0  0  0  0
  9 23  1  0  0  0  0
  9 24  1  0  0  0  0
 10 25  1  0  0  0  0
 10 26  1  0  0  0  0
 10 27  1  0  0  0  0
 11 28  1  0  0  0  0
 11 29  1  0  0  0  0
 11 30  1  0  0  0  0
M  END
> <id>
EN300-217432

> <smiles>
CC(C)(C)OC(=O)N1C=CC=2C(Cl)=NC=CC12

> <MDLNUMBER>
MFCD28954125

> <IUPAC Name>
tert-butyl 4-chloro-1H-pyrrolo[3,2-c]pyridine-1-carboxylate

> <CAS>
1609259-26-8

> <Purity>
95

> <URL>
https://www.enaminestore.com/catalog/EN300-217432

> <ROCS_ShapeQuery>
A71EV2A-x0451_0A_A71EV2A-x0310_0A_A71EV2A-x0416_0A_peptide

> <ROCS_TanimotoCombo>
0.479 

> <ROCS_ShapeTanimoto>
0.332 

> <ROCS_ColorTanimoto>
0.147 

> <ROCS_RefTversky>
0.289 

> <ROCS_RefColorTversky>
0.155 

> <ROCS_RefTverskyCombo>
0.444 

> <ROCS_FitTversky>
1.827 

> <ROCS_FitColorTversky>
0.741 

> <ROCS_FitTverskyCombo>
2.567 

> <ROCS_ColorScore>
-4.706

> <ROCS_Overlap>
2002.964

> <ROCS_Rank>
375                 

$$$$
untitled-dbase-43570_15
  -OEChem-11132313473D

 36 37  0     1  0  0  0  0  0999 V2000
    9.2537    8.3566   23.2820 C   0  0  0  0  0  0  0  0  0  0  0  0
   10.6759   13.1269   23.6017 C   0  0  0  0  0  0  0  0  0  0  0  0
    8.3689   11.5677   25.7064 C   0  0  0  0  0  0  0  0  0  0  0  0
    7.8935   10.1592   25.3386 C   0  0  0  0  0  0  0  0  0  0  0  0
   10.1499   10.6643   23.4842 C   0  0  0  0  0  0  0  0  0  0  0  0
    7.3899   11.5634   23.5590 C   0  0  0  0  0  0  0  0  0  0  0  0
    8.9323    9.7879   23.1302 C   0  0  2  0  0  0  0  0  0  0  0  0
    8.4586   12.2877   24.3613 C   0  0  2  0  0  0  0  0  0  0  0  0
   12.7826   14.9630   22.9863 C   0  0  0  0  0  0  0  0  0  0  0  0
   13.1739   13.5448   20.9504 C   0  0  0  0  0  0  0  0  0  0  0  0
   10.9802   14.7319   21.2449 C   0  0  0  0  0  0  0  0  0  0  0  0
   12.1369   14.0342   21.9590 C   0  0  0  0  0  0  0  0  0  0  0  0
    9.5066    7.2306   23.4014 N   0  0  0  0  0  0  0  0  0  0  0  0
    9.7785   12.0644   23.7456 N   0  0  0  0  0  0  0  0  0  0  0  0
    7.6955   10.1501   23.8680 N   0  0  1  0  0  0  0  0  0  0  0  0
   10.6336   14.1649   24.2592 O   0  0  0  0  0  0  0  0  0  0  0  0
   11.6240   12.8849   22.6426 O   0  0  0  0  0  0  0  0  0  0  0  0
    7.6227   12.0568   26.3442 H   0  0  0  0  0  0  0  0  0  0  0  0
    9.3201   11.5641   26.2489 H   0  0  0  0  0  0  0  0  0  0  0  0
    8.5841    9.3862   25.6925 H   0  0  0  0  0  0  0  0  0  0  0  0
    6.9304    9.9614   25.8245 H   0  0  0  0  0  0  0  0  0  0  0  0
   10.6526   10.3033   24.3910 H   0  0  0  0  0  0  0  0  0  0  0  0
   10.8899   10.6183   22.6770 H   0  0  0  0  0  0  0  0  0  0  0  0
    6.3839   11.8143   23.9187 H   0  0  0  0  0  0  0  0  0  0  0  0
    7.4165   11.7916   22.4871 H   0  0  0  0  0  0  0  0  0  0  0  0
    8.7205    9.9345   22.0612 H   0  0  0  0  0  0  0  0  0  0  0  0
    8.2538   13.3575   24.4604 H   0  0  0  0  0  0  0  0  0  0  0  0
   12.0415   15.3164   23.7121 H   0  0  0  0  0  0  0  0  0  0  0  0
   13.5909   14.4633   23.5300 H   0  0  0  0  0  0  0  0  0  0  0  0
   13.1920   15.8570   22.5023 H   0  0  0  0  0  0  0  0  0  0  0  0
   12.7150   12.8781   20.2114 H   0  0  0  0  0  0  0  0  0  0  0  0
   13.9573   12.9617   21.4478 H   0  0  0  0  0  0  0  0  0  0  0  0
   13.6459   14.3780   20.4197 H   0  0  0  0  0  0  0  0  0  0  0  0
   10.5169   14.0659   20.5079 H   0  0  0  0  0  0  0  0  0  0  0  0
   10.2084   15.0573   21.9499 H   0  0  0  0  0  0  0  0  0  0  0  0
   11.3362   15.6073   20.6897 H   0  0  0  0  0  0  0  0  0  0  0  0
  1  7  1  0  0  0  0
  1 13  3  0  0  0  0
  2 14  1  0  0  0  0
  2 16  2  0  0  0  0
  2 17  1  0  0  0  0
  3  4  1  0  0  0  0
  3  8  1  0  0  0  0
  4 15  1  0  0  0  0
  5  7  1  0  0  0  0
  5 14  1  0  0  0  0
  6  8  1  0  0  0  0
  6 15  1  0  0  0  0
  7 15  1  0  0  0  0
  8 14  1  0  0  0  0
  9 12  1  0  0  0  0
 10 12  1  0  0  0  0
 11 12  1  0  0  0  0
 12 17  1  0  0  0  0
  3 18  1  0  0  0  0
  3 19  1  0  0  0  0
  4 20  1  0  0  0  0
  4 21  1  0  0  0  0
  5 22  1  0  0  0  0
  5 23  1  0  0  0  0
  6 24  1  0  0  0  0
  6 25  1  0  0  0  0
  7 26  1  0  0  0  0
  8 27  1  0  0  0  0
  9 28  1  0  0  0  0
  9 29  1  0  0  0  0
  9 30  1  0  0  0  0
 10 31  1  0  0  0  0
 10 32  1  0  0  0  0
 10 33  1  0  0  0  0
 11 34  1  0  0  0  0
 11 35  1  0  0  0  0
 11 36  1  0  0  0  0
M  END
> <id>
EN300-27707722

> <smiles>
CC(C)(C)OC(=O)N1CC(C#N)N2CCC1C2

> <MDLNUMBER>
MFCD34168366

> <IUPAC Name>
tert-butyl 2-cyano-1,4-diazabicyclo[3.2.1]octane-4-carboxylate

> <CAS>
2648948-39-2

> <Purity>
95

> <URL>
https://www.enaminestore.com/catalog/EN300-27707722

> <ROCS_ShapeQuery>
A71EV2A-x0451_0A_A71EV2A-x0310_0A_A71EV2A-x0416_0A_peptide

> <ROCS_TanimotoCombo>
0.479 

> <ROCS_ShapeTanimoto>
0.303 

> <ROCS_ColorTanimoto>
0.176 

> <ROCS_RefTversky>
0.269 

> <ROCS_RefColorTversky>
0.203 

> <ROCS_RefTverskyCombo>
0.472 

> <ROCS_FitTversky>
1.727 

> <ROCS_FitColorTversky>
0.566 

> <ROCS_FitTverskyCombo>
2.293 

> <ROCS_ColorScore>
-6.219

> <ROCS_Overlap>
1865.740

> <ROCS_Rank>
376                 

$$$$
untitled-dbase-45024_13
  -OEChem-11132313473D

 33 34  0     0  0  0  0  0  0999 V2000
    6.3092   11.0142   25.9375 C   0  0  0  0  0  0  0  0  0  0  0  0
    6.9496   10.1251   25.0691 C   0  0  0  0  0  0  0  0  0  0  0  0
    6.7660   12.3222   26.0796 C   0  0  0  0  0  0  0  0  0  0  0  0
    8.0646   10.5736   24.3396 C   0  0  0  0  0  0  0  0  0  0  0  0
    8.5112   11.8854   24.4907 C   0  0  0  0  0  0  0  0  0  0  0  0
    7.8741   12.7835   25.3605 C   0  0  0  0  0  0  0  0  0  0  0  0
    8.9448   10.0047   23.4029 C   0  0  0  0  0  0  0  0  0  0  0  0
   10.4149   13.1291   23.4316 C   0  0  0  0  0  0  0  0  0  0  0  0
    8.9332    8.6289   22.8750 C   0  0  0  0  0  0  0  0  0  0  0  0
   12.1714   15.1334   22.4619 C   0  0  0  0  0  0  0  0  0  0  0  0
   11.7056   14.1781   20.1860 C   0  0  0  0  0  0  0  0  0  0  0  0
    9.8313   15.1646   21.5358 C   0  0  0  0  0  0  0  0  0  0  0  0
   11.1523   14.3987   21.5921 C   0  0  0  0  0  0  0  0  0  0  0  0
    9.8757   10.8575   22.9816 N   0  0  0  0  0  0  0  0  0  0  0  0
    9.6084   12.0088   23.6485 N   0  0  0  0  0  0  0  0  0  0  0  0
   10.5970   13.9569   24.3091 O   0  0  0  0  0  0  0  0  0  0  0  0
   10.9081   13.1112   22.1661 O   0  0  0  0  0  0  0  0  0  0  0  0
    8.2818   14.0465   25.5271 F   0  0  0  0  0  0  0  0  0  0  0  0
    5.4464   10.6797   26.5073 H   0  0  0  0  0  0  0  0  0  0  0  0
    6.5852    9.1072   24.9667 H   0  0  0  0  0  0  0  0  0  0  0  0
    6.2545   12.9975   26.7608 H   0  0  0  0  0  0  0  0  0  0  0  0
    8.3099    8.5541   21.9679 H   0  0  0  0  0  0  0  0  0  0  0  0
    9.9460    8.2749   22.6134 H   0  0  0  0  0  0  0  0  0  0  0  0
    8.5401    7.9044   23.6101 H   0  0  0  0  0  0  0  0  0  0  0  0
   11.7780   15.2937   23.4721 H   0  0  0  0  0  0  0  0  0  0  0  0
   13.1113   14.5773   22.5389 H   0  0  0  0  0  0  0  0  0  0  0  0
   12.3895   16.1270   22.0539 H   0  0  0  0  0  0  0  0  0  0  0  0
   10.9777   13.6513   19.5585 H   0  0  0  0  0  0  0  0  0  0  0  0
   12.6022   13.5484   20.2137 H   0  0  0  0  0  0  0  0  0  0  0  0
   11.9617   15.1248   19.6995 H   0  0  0  0  0  0  0  0  0  0  0  0
    9.1001   14.6378   20.9120 H   0  0  0  0  0  0  0  0  0  0  0  0
    9.4007   15.3001   22.5332 H   0  0  0  0  0  0  0  0  0  0  0  0
    9.9723   16.1516   21.0803 H   0  0  0  0  0  0  0  0  0  0  0  0
  1  2  1  0  0  0  0
  1  3  2  0  0  0  0
  2  4  2  0  0  0  0
  3  6  1  0  0  0  0
  4  5  1  0  0  0  0
  4  7  1  0  0  0  0
  5  6  2  0  0  0  0
  5 15  1  0  0  0  0
  6 18  1  0  0  0  0
  7  9  1  0  0  0  0
  7 14  2  0  0  0  0
  8 15  1  0  0  0  0
  8 16  2  0  0  0  0
  8 17  1  0  0  0  0
 10 13  1  0  0  0  0
 11 13  1  0  0  0  0
 12 13  1  0  0  0  0
 13 17  1  0  0  0  0
 14 15  1  0  0  0  0
  1 19  1  0  0  0  0
  2 20  1  0  0  0  0
  3 21  1  0  0  0  0
  9 22  1  0  0  0  0
  9 23  1  0  0  0  0
  9 24  1  0  0  0  0
 10 25  1  0  0  0  0
 10 26  1  0  0  0  0
 10 27  1  0  0  0  0
 11 28  1  0  0  0  0
 11 29  1  0  0  0  0
 11 30  1  0  0  0  0
 12 31  1  0  0  0  0
 12 32  1  0  0  0  0
 12 33  1  0  0  0  0
M  END
> <id>
EN300-12452795

> <smiles>
CC1=NN(C(=O)OC(C)(C)C)C=2C(F)=CC=CC12

> <MDLNUMBER>
MFCD24473749

> <IUPAC Name>
tert-butyl 7-fluoro-3-methyl-1H-indazole-1-carboxylate

> <CAS>
1017682-74-4

> <URL>
https://www.enaminestore.com/catalog/EN300-12452795

> <ROCS_ShapeQuery>
A71EV2A-x0451_0A_A71EV2A-x0310_0A_A71EV2A-x0416_0A_peptide

> <ROCS_TanimotoCombo>
0.479 

> <ROCS_ShapeTanimoto>
0.344 

> <ROCS_ColorTanimoto>
0.135 

> <ROCS_RefTversky>
0.299 

> <ROCS_RefColorTversky>
0.144 

> <ROCS_RefTverskyCombo>
0.442 

> <ROCS_FitTversky>
1.798 

> <ROCS_FitColorTversky>
0.688 

> <ROCS_FitTverskyCombo>
2.485 

> <ROCS_ColorScore>
-4.368

> <ROCS_Overlap>
2071.675

> <ROCS_Rank>
377                 

$$$$
untitled-dbase-5628_12
  -OEChem-11132313473D

 37 38  0     1  0  0  0  0  0999 V2000
    6.2956   12.1482   26.5022 C   0  0  0  0  0  0  0  0  0  0  0  0
    6.8931   13.3344   26.1076 C   0  0  0  0  0  0  0  0  0  0  0  0
    6.7226   10.9503   25.9422 C   0  0  0  0  0  0  0  0  0  0  0  0
    7.9341   13.3226   25.1733 C   0  0  0  0  0  0  0  0  0  0  0  0
    7.7518   10.9249   24.9804 C   0  0  0  0  0  0  0  0  0  0  0  0
    8.4096   12.1244   24.6099 C   0  0  0  0  0  0  0  0  0  0  0  0
   10.3888   13.1948   23.4695 C   0  0  0  0  0  0  0  0  0  0  0  0
    9.8345   10.8211   22.9984 C   0  0  0  0  0  0  0  0  0  0  0  0
    8.1754    9.5986   24.3913 C   0  0  2  0  0  0  0  0  0  0  0  0
    8.7304    9.7825   22.9905 C   0  0  1  0  0  0  0  0  0  0  0  0
   13.0515   14.1668   23.0094 C   0  0  0  0  0  0  0  0  0  0  0  0
   12.5244   13.9151   20.5665 C   0  0  0  0  0  0  0  0  0  0  0  0
   11.1970   15.5168   21.9737 C   0  0  0  0  0  0  0  0  0  0  0  0
   11.9468   14.1856   21.9540 C   0  0  0  0  0  0  0  0  0  0  0  0
    9.5159   12.0960   23.6719 N   0  0  0  0  0  0  0  0  0  0  0  0
   10.6184   14.1059   24.2595 O   0  0  0  0  0  0  0  0  0  0  0  0
    7.1194    8.6420   24.3743 O   0  0  0  0  0  0  0  0  0  0  0  0
   11.0181   13.1346   22.2474 O   0  0  0  0  0  0  0  0  0  0  0  0
    7.3332   10.3173   21.7122 Br  0  0  0  0  0  0  0  0  0  0  0  0
    5.5078   12.1523   27.2491 H   0  0  0  0  0  0  0  0  0  0  0  0
    6.5574   14.2777   26.5285 H   0  0  0  0  0  0  0  0  0  0  0  0
    6.2509   10.0218   26.2618 H   0  0  0  0  0  0  0  0  0  0  0  0
    8.3705   14.2880   24.9393 H   0  0  0  0  0  0  0  0  0  0  0  0
   10.7265   10.3874   23.4840 H   0  0  0  0  0  0  0  0  0  0  0  0
   10.1557   11.0806   21.9730 H   0  0  0  0  0  0  0  0  0  0  0  0
    8.9981    9.1403   25.0289 H   0  0  0  0  0  0  0  0  0  0  0  0
    9.1205    8.8309   22.5956 H   0  0  0  0  0  0  0  0  0  0  0  0
   12.6409   14.3606   24.0068 H   0  0  0  0  0  0  0  0  0  0  0  0
   13.5741   13.2049   23.0294 H   0  0  0  0  0  0  0  0  0  0  0  0
   13.7874   14.9565   22.8193 H   0  0  0  0  0  0  0  0  0  0  0  0
   11.7352   13.9276   19.8061 H   0  0  0  0  0  0  0  0  0  0  0  0
   12.9810   12.9197   20.5210 H   0  0  0  0  0  0  0  0  0  0  0  0
   13.2817   14.6567   20.2925 H   0  0  0  0  0  0  0  0  0  0  0  0
   10.4045   15.5305   21.2168 H   0  0  0  0  0  0  0  0  0  0  0  0
   10.7442   15.7103   22.9516 H   0  0  0  0  0  0  0  0  0  0  0  0
   11.8704   16.3469   21.7314 H   0  0  0  0  0  0  0  0  0  0  0  0
    7.4847    7.8331   23.9830 H   0  0  0  0  0  0  0  0  0  0  0  0
  1  2  2  0  0  0  0
  1  3  1  0  0  0  0
  2  4  1  0  0  0  0
  3  5  2  0  0  0  0
  4  6  2  0  0  0  0
  5  6  1  0  0  0  0
  5  9  1  0  0  0  0
  6 15  1  0  0  0  0
  7 15  1  0  0  0  0
  7 16  2  0  0  0  0
  7 18  1  0  0  0  0
  8 10  1  0  0  0  0
  8 15  1  0  0  0  0
  9 10  1  0  0  0  0
  9 17  1  0  0  0  0
 10 19  1  0  0  0  0
 11 14  1  0  0  0  0
 12 14  1  0  0  0  0
 13 14  1  0  0  0  0
 14 18  1  0  0  0  0
  1 20  1  0  0  0  0
  2 21  1  0  0  0  0
  3 22  1  0  0  0  0
  4 23  1  0  0  0  0
  8 24  1  0  0  0  0
  8 25  1  0  0  0  0
  9 26  1  0  0  0  0
 10 27  1  0  0  0  0
 11 28  1  0  0  0  0
 11 29  1  0  0  0  0
 11 30  1  0  0  0  0
 12 31  1  0  0  0  0
 12 32  1  0  0  0  0
 12 33  1  0  0  0  0
 13 34  1  0  0  0  0
 13 35  1  0  0  0  0
 13 36  1  0  0  0  0
 17 37  1  0  0  0  0
M  END
> <id>
EN300-216621

> <smiles>
CC(C)(C)OC(=O)N1CC(Br)C(O)C=2C=CC=CC12

> <MDLNUMBER>
MFCD28954101

> <IUPAC Name>
tert-butyl 3-bromo-4-hydroxy-1,2,3,4-tetrahydroquinoline-1-carboxylate

> <CAS>
1803597-43-4

> <URL>
https://www.enaminestore.com/catalog/EN300-216621

> <MP>
115-117

> <ROCS_ShapeQuery>
A71EV2A-x0451_0A_A71EV2A-x0310_0A_A71EV2A-x0416_0A_peptide

> <ROCS_TanimotoCombo>
0.479 

> <ROCS_ShapeTanimoto>
0.334 

> <ROCS_ColorTanimoto>
0.146 

> <ROCS_RefTversky>
0.292 

> <ROCS_RefColorTversky>
0.161 

> <ROCS_RefTverskyCombo>
0.453 

> <ROCS_FitTversky>
1.751 

> <ROCS_FitColorTversky>
0.597 

> <ROCS_FitTverskyCombo>
2.348 

> <ROCS_ColorScore>
-4.921

> <ROCS_Overlap>
2024.542

> <ROCS_Rank>
378                 

$$$$
untitled-dbase-43432_358
  -OEChem-11132313473D

 41 42  0     1  0  0  0  0  0999 V2000
   10.2361   12.9949   23.5209 C   0  0  0  0  0  0  0  0  0  0  0  0
    7.3751   11.9060   26.6396 C   0  0  0  0  0  0  0  0  0  0  0  0
    6.4197   12.5632   25.6467 C   0  0  0  0  0  0  0  0  0  0  0  0
    8.6396   11.5371   25.8596 C   0  0  0  0  0  0  0  0  0  0  0  0
    7.2233   12.7671   24.3685 C   0  0  0  0  0  0  0  0  0  0  0  0
    9.6369   10.7516   22.5644 C   0  0  0  0  0  0  0  0  0  0  0  0
    8.8414    9.6039   23.1557 C   0  0  2  0  0  0  0  0  0  0  0  0
    7.6494   10.3163   23.7948 C   0  0  2  0  0  0  0  0  0  0  0  0
    8.2560   11.6278   24.3730 C   0  0  0  0  0  0  0  0  0  0  0  0
   12.0378   15.1699   23.0588 C   0  0  0  0  0  0  0  0  0  0  0  0
   11.6483   14.7326   20.6162 C   0  0  0  0  0  0  0  0  0  0  0  0
    9.7315   15.4252   22.0839 C   0  0  0  0  0  0  0  0  0  0  0  0
   11.0471   14.6509   22.0176 C   0  0  0  0  0  0  0  0  0  0  0  0
    9.4172   11.8684   23.4872 N   0  0  0  0  0  0  0  0  0  0  0  0
   10.4579   13.6764   24.5187 O   0  0  0  0  0  0  0  0  0  0  0  0
    9.6439    8.9452   24.1286 O   0  0  0  0  0  0  0  0  0  0  0  0
    7.0223    9.4664   24.7341 O   0  0  0  0  0  0  0  0  0  0  0  0
   10.7785   13.2711   22.2922 O   0  0  0  0  0  0  0  0  0  0  0  0
    7.6004   12.5727   27.4943 H   0  0  0  0  0  0  0  0  0  0  0  0
    6.9102   10.9962   27.0686 H   0  0  0  0  0  0  0  0  0  0  0  0
    5.5207   11.9501   25.4770 H   0  0  0  0  0  0  0  0  0  0  0  0
    6.0752   13.5321   26.0439 H   0  0  0  0  0  0  0  0  0  0  0  0
    9.4228   12.2651   26.1167 H   0  0  0  0  0  0  0  0  0  0  0  0
    9.0174   10.5549   26.1693 H   0  0  0  0  0  0  0  0  0  0  0  0
    6.5472   12.6864   23.5141 H   0  0  0  0  0  0  0  0  0  0  0  0
    7.6667   13.7619   24.3342 H   0  0  0  0  0  0  0  0  0  0  0  0
   10.7062   10.5386   22.4761 H   0  0  0  0  0  0  0  0  0  0  0  0
    9.2401   11.0584   21.5909 H   0  0  0  0  0  0  0  0  0  0  0  0
    8.5394    8.8650   22.4077 H   0  0  0  0  0  0  0  0  0  0  0  0
    6.9304   10.5433   23.0006 H   0  0  0  0  0  0  0  0  0  0  0  0
   11.6101   15.1130   24.0661 H   0  0  0  0  0  0  0  0  0  0  0  0
   12.9727   14.6002   23.0452 H   0  0  0  0  0  0  0  0  0  0  0  0
   12.2734   16.2257   22.8822 H   0  0  0  0  0  0  0  0  0  0  0  0
   10.9409   14.3612   19.8660 H   0  0  0  0  0  0  0  0  0  0  0  0
   12.5413   14.1020   20.5372 H   0  0  0  0  0  0  0  0  0  0  0  0
   11.9244   15.7591   20.3541 H   0  0  0  0  0  0  0  0  0  0  0  0
    9.0207   15.0531   21.3372 H   0  0  0  0  0  0  0  0  0  0  0  0
    9.2670   15.3471   23.0723 H   0  0  0  0  0  0  0  0  0  0  0  0
    9.8915   16.4855   21.8571 H   0  0  0  0  0  0  0  0  0  0  0  0
    9.8615    9.6061   24.8055 H   0  0  0  0  0  0  0  0  0  0  0  0
    7.6858    9.2453   25.4109 H   0  0  0  0  0  0  0  0  0  0  0  0
  1 14  1  0  0  0  0
  1 15  2  0  0  0  0
  1 18  1  0  0  0  0
  2  3  1  0  0  0  0
  2  4  1  0  0  0  0
  3  5  1  0  0  0  0
  4  9  1  0  0  0  0
  5  9  1  0  0  0  0
  6  7  1  0  0  0  0
  6 14  1  0  0  0  0
  7  8  1  0  0  0  0
  7 16  1  1  0  0  0
  8  9  1  0  0  0  0
  8 17  1  1  0  0  0
  9 14  1  0  0  0  0
 10 13  1  0  0  0  0
 11 13  1  0  0  0  0
 12 13  1  0  0  0  0
 13 18  1  0  0  0  0
  2 19  1  0  0  0  0
  2 20  1  0  0  0  0
  3 21  1  0  0  0  0
  3 22  1  0  0  0  0
  4 23  1  0  0  0  0
  4 24  1  0  0  0  0
  5 25  1  0  0  0  0
  5 26  1  0  0  0  0
  6 27  1  0  0  0  0
  6 28  1  0  0  0  0
  7 29  1  0  0  0  0
  8 30  1  0  0  0  0
 10 31  1  0  0  0  0
 10 32  1  0  0  0  0
 10 33  1  0  0  0  0
 11 34  1  0  0  0  0
 11 35  1  0  0  0  0
 11 36  1  0  0  0  0
 12 37  1  0  0  0  0
 12 38  1  0  0  0  0
 12 39  1  0  0  0  0
 16 40  1  0  0  0  0
 17 41  1  0  0  0  0
M  END
> <id>
EN300-28228782

> <smiles>
CC(C)(C)OC(=O)N1C[C@@H](O)[C@@H](O)C21CCCC2 |&1:9,11,r|

> <IUPAC Name>
rac-tert-butyl (3R,4S)-3,4-dihydroxy-1-azaspiro[4.4]nonane-1-carboxylate

> <CAS>
2639391-76-5

> <URL>
https://www.enaminestore.com/catalog/EN300-28228782

> <ROCS_ShapeQuery>
A71EV2A-x0451_0A_A71EV2A-x0310_0A_A71EV2A-x0416_0A_peptide

> <ROCS_TanimotoCombo>
0.479 

> <ROCS_ShapeTanimoto>
0.333 

> <ROCS_ColorTanimoto>
0.147 

> <ROCS_RefTversky>
0.290 

> <ROCS_RefColorTversky>
0.166 

> <ROCS_RefTverskyCombo>
0.456 

> <ROCS_FitTversky>
1.798 

> <ROCS_FitColorTversky>
0.552 

> <ROCS_FitTverskyCombo>
2.350 

> <ROCS_ColorScore>
-5.075

> <ROCS_Overlap>
2010.191

> <ROCS_Rank>
379                 

$$$$
untitled-dbase-45530_21
  -OEChem-11132313473D

 41 42  0     0  0  0  0  0  0999 V2000
    6.7891   10.5586   25.4166 C   0  0  0  0  0  0  0  0  0  0  0  0
    7.1660   12.7808   26.1194 C   0  0  0  0  0  0  0  0  0  0  0  0
    7.8546   10.6823   24.5138 C   0  0  0  0  0  0  0  0  0  0  0  0
    6.4362   11.6181   26.2374 C   0  0  0  0  0  0  0  0  0  0  0  0
    8.5328   11.9061   24.4441 C   0  0  0  0  0  0  0  0  0  0  0  0
   10.3026   13.3057   23.4181 C   0  0  0  0  0  0  0  0  0  0  0  0
    8.1977    9.5121   23.6354 C   0  0  0  0  0  0  0  0  0  0  0  0
    9.8994   10.9827   22.5633 C   0  0  0  0  0  0  0  0  0  0  0  0
    9.6432    9.5747   23.1228 C   0  0  0  0  0  0  0  0  0  0  0  0
    9.8236    8.5415   21.9956 C   0  0  0  0  0  0  0  0  0  0  0  0
   10.6481    9.2409   24.2437 C   0  0  0  0  0  0  0  0  0  0  0  0
   13.0341   13.6234   22.6070 C   0  0  0  0  0  0  0  0  0  0  0  0
   12.0991   14.5879   20.4846 C   0  0  0  0  0  0  0  0  0  0  0  0
   11.6572   15.7290   22.6780 C   0  0  0  0  0  0  0  0  0  0  0  0
   11.8675   14.3858   21.9805 C   0  0  0  0  0  0  0  0  0  0  0  0
    8.1900   12.9433   25.2528 N   0  0  0  0  0  0  0  0  0  0  0  0
    9.6125   12.0781   23.5041 N   0  0  0  0  0  0  0  0  0  0  0  0
   10.5536   14.0542   24.3605 O   0  0  0  0  0  0  0  0  0  0  0  0
   10.6777   13.6025   22.1311 O   0  0  0  0  0  0  0  0  0  0  0  0
    5.0167   11.4745   27.4640 Br  0  0  0  0  0  0  0  0  0  0  0  0
    6.2359    9.6228   25.4657 H   0  0  0  0  0  0  0  0  0  0  0  0
    6.9559   13.6517   26.7327 H   0  0  0  0  0  0  0  0  0  0  0  0
    8.0445    8.6002   24.2278 H   0  0  0  0  0  0  0  0  0  0  0  0
    7.5065    9.4647   22.7839 H   0  0  0  0  0  0  0  0  0  0  0  0
   10.9522   11.0998   22.2726 H   0  0  0  0  0  0  0  0  0  0  0  0
    9.3087   11.1170   21.6495 H   0  0  0  0  0  0  0  0  0  0  0  0
   10.8444    8.5861   21.6341 H   0  0  0  0  0  0  0  0  0  0  0  0
    9.1371    8.7732   21.1895 H   0  0  0  0  0  0  0  0  0  0  0  0
    9.6138    7.5520   22.3850 H   0  0  0  0  0  0  0  0  0  0  0  0
   11.6560    9.2946   23.8467 H   0  0  0  0  0  0  0  0  0  0  0  0
   10.4522    8.2396   24.6117 H   0  0  0  0  0  0  0  0  0  0  0  0
   10.5333    9.9568   25.0504 H   0  0  0  0  0  0  0  0  0  0  0  0
   12.8717   13.4763   23.6808 H   0  0  0  0  0  0  0  0  0  0  0  0
   13.1734   12.6435   22.1390 H   0  0  0  0  0  0  0  0  0  0  0  0
   13.9679   14.1890   22.5103 H   0  0  0  0  0  0  0  0  0  0  0  0
   11.2645   15.1346   20.0310 H   0  0  0  0  0  0  0  0  0  0  0  0
   12.1560   13.6247   19.9648 H   0  0  0  0  0  0  0  0  0  0  0  0
   13.0230   15.1420   20.2900 H   0  0  0  0  0  0  0  0  0  0  0  0
   10.8205   16.2761   22.2288 H   0  0  0  0  0  0  0  0  0  0  0  0
   11.4530   15.6013   23.7460 H   0  0  0  0  0  0  0  0  0  0  0  0
   12.5403   16.3685   22.5663 H   0  0  0  0  0  0  0  0  0  0  0  0
  1  3  2  0  0  0  0
  1  4  1  0  0  0  0
  2  4  2  0  0  0  0
  2 16  1  0  0  0  0
  3  5  1  0  0  0  0
  3  7  1  0  0  0  0
  4 20  1  0  0  0  0
  5 16  2  0  0  0  0
  5 17  1  0  0  0  0
  6 17  1  0  0  0  0
  6 18  2  0  0  0  0
  6 19  1  0  0  0  0
  7  9  1  0  0  0  0
  8  9  1  0  0  0  0
  8 17  1  0  0  0  0
  9 10  1  0  0  0  0
  9 11  1  0  0  0  0
 12 15  1  0  0  0  0
 13 15  1  0  0  0  0
 14 15  1  0  0  0  0
 15 19  1  0  0  0  0
  1 21  1  0  0  0  0
  2 22  1  0  0  0  0
  7 23  1  0  0  0  0
  7 24  1  0  0  0  0
  8 25  1  0  0  0  0
  8 26  1  0  0  0  0
 10 27  1  0  0  0  0
 10 28  1  0  0  0  0
 10 29  1  0  0  0  0
 11 30  1  0  0  0  0
 11 31  1  0  0  0  0
 11 32  1  0  0  0  0
 12 33  1  0  0  0  0
 12 34  1  0  0  0  0
 12 35  1  0  0  0  0
 13 36  1  0  0  0  0
 13 37  1  0  0  0  0
 13 38  1  0  0  0  0
 14 39  1  0  0  0  0
 14 40  1  0  0  0  0
 14 41  1  0  0  0  0
M  END
> <id>
EN300-28297190

> <smiles>
CC(C)(C)OC(=O)N1CC(C)(C)CC=2C=C(Br)C=NC12

> <IUPAC Name>
tert-butyl 6-bromo-3,3-dimethyl-1,2,3,4-tetrahydro-1,8-naphthyridine-1-carboxylate

> <CAS>
2680626-26-8

> <URL>
https://www.enaminestore.com/catalog/EN300-28297190

> <ROCS_ShapeQuery>
A71EV2A-x0451_0A_A71EV2A-x0310_0A_A71EV2A-x0416_0A_peptide

> <ROCS_TanimotoCombo>
0.479 

> <ROCS_ShapeTanimoto>
0.363 

> <ROCS_ColorTanimoto>
0.116 

> <ROCS_RefTversky>
0.313 

> <ROCS_RefColorTversky>
0.132 

> <ROCS_RefTverskyCombo>
0.444 

> <ROCS_FitTversky>
1.808 

> <ROCS_FitColorTversky>
0.487 

> <ROCS_FitTverskyCombo>
2.295 

> <ROCS_ColorScore>
-4.015

> <ROCS_Overlap>
2169.697

> <ROCS_Rank>
380                 

$$$$
untitled-dbase-15107_33
  -OEChem-11132313473D

 41 41  0     1  0  0  0  0  0999 V2000
   10.5504   13.2012   23.4021 C   0  0  0  0  0  0  0  0  0  0  0  0
    8.7921   11.2358   25.5896 C   0  0  0  0  0  0  0  0  0  0  0  0
    8.7270    9.8380   22.7976 C   0  0  0  0  0  0  0  0  0  0  0  0
   10.1266   11.2338   24.8412 C   0  0  0  0  0  0  0  0  0  0  0  0
    9.4242   11.1466   22.4196 C   0  0  0  0  0  0  0  0  0  0  0  0
    7.5330   11.1716   24.7061 C   0  0  1  0  0  0  0  0  0  0  0  0
    7.4908    9.9869   23.7073 C   0  0  2  0  0  0  0  0  0  0  0  0
   12.0689   14.8381   20.3751 C   0  0  0  0  0  0  0  0  0  0  0  0
   10.5241   15.8807   22.0528 C   0  0  0  0  0  0  0  0  0  0  0  0
   12.7974   15.0918   22.7583 C   0  0  0  0  0  0  0  0  0  0  0  0
    6.2793   11.2284   25.5923 C   0  0  0  0  0  0  0  0  0  0  0  0
   11.6044   14.8160   21.8359 C   0  0  0  0  0  0  0  0  0  0  0  0
   10.0522   11.8865   23.5314 N   0  0  0  0  0  0  0  0  0  0  0  0
    7.2633    8.6887   24.3515 N   0  0  0  0  0  0  0  0  0  0  0  0
   11.0540   13.5152   22.1426 N   0  0  0  0  0  0  0  0  0  0  0  0
   10.5460   14.0176   24.3285 O   0  0  0  0  0  0  0  0  0  0  0  0
    5.1858   11.2873   24.8226 F   0  0  0  0  0  0  0  0  0  0  0  0
    6.2205   10.1339   26.3605 F   0  0  0  0  0  0  0  0  0  0  0  0
    6.3286   12.3143   26.3734 F   0  0  0  0  0  0  0  0  0  0  0  0
    8.7773   10.4224   26.3346 H   0  0  0  0  0  0  0  0  0  0  0  0
    8.7479   12.1657   26.1820 H   0  0  0  0  0  0  0  0  0  0  0  0
    8.4465    9.3006   21.8925 H   0  0  0  0  0  0  0  0  0  0  0  0
    9.4613    9.2139   23.3094 H   0  0  0  0  0  0  0  0  0  0  0  0
   10.9198   11.7149   25.4386 H   0  0  0  0  0  0  0  0  0  0  0  0
   10.4685   10.1951   24.7081 H   0  0  0  0  0  0  0  0  0  0  0  0
   10.1830   10.9381   21.6584 H   0  0  0  0  0  0  0  0  0  0  0  0
    8.7018   11.8284   21.9573 H   0  0  0  0  0  0  0  0  0  0  0  0
    7.5227   12.0968   24.1013 H   0  0  0  0  0  0  0  0  0  0  0  0
    6.6425   10.1448   23.0368 H   0  0  0  0  0  0  0  0  0  0  0  0
   12.8434   14.0836   20.1942 H   0  0  0  0  0  0  0  0  0  0  0  0
   11.2381   14.6383   19.6893 H   0  0  0  0  0  0  0  0  0  0  0  0
   12.4976   15.8120   20.1116 H   0  0  0  0  0  0  0  0  0  0  0  0
   10.1754   15.8842   23.0921 H   0  0  0  0  0  0  0  0  0  0  0  0
    9.6499   15.6919   21.4189 H   0  0  0  0  0  0  0  0  0  0  0  0
   10.8994   16.8833   21.8197 H   0  0  0  0  0  0  0  0  0  0  0  0
   12.4931   15.0818   23.8114 H   0  0  0  0  0  0  0  0  0  0  0  0
   13.5848   14.3413   22.6273 H   0  0  0  0  0  0  0  0  0  0  0  0
   13.2345   16.0767   22.5568 H   0  0  0  0  0  0  0  0  0  0  0  0
    6.4061    8.7371   24.8478 H   0  0  0  0  0  0  0  0  0  0  0  0
    7.2218    7.9967   23.6424 H   0  0  0  0  0  0  0  0  0  0  0  0
   11.0338   12.8084   21.4175 H   0  0  0  0  0  0  0  0  0  0  0  0
  1 13  1  0  0  0  0
  1 15  1  0  0  0  0
  1 16  2  0  0  0  0
  2  4  1  0  0  0  0
  2  6  1  0  0  0  0
  3  5  1  0  0  0  0
  3  7  1  0  0  0  0
  4 13  1  0  0  0  0
  5 13  1  0  0  0  0
  6  7  1  0  0  0  0
  6 11  1  0  0  0  0
  7 14  1  0  0  0  0
  8 12  1  0  0  0  0
  9 12  1  0  0  0  0
 10 12  1  0  0  0  0
 11 17  1  0  0  0  0
 11 18  1  0  0  0  0
 11 19  1  0  0  0  0
 12 15  1  0  0  0  0
  2 20  1  0  0  0  0
  2 21  1  0  0  0  0
  3 22  1  0  0  0  0
  3 23  1  0  0  0  0
  4 24  1  0  0  0  0
  4 25  1  0  0  0  0
  5 26  1  0  0  0  0
  5 27  1  0  0  0  0
  6 28  1  0  0  0  0
  7 29  1  0  0  0  0
  8 30  1  0  0  0  0
  8 31  1  0  0  0  0
  8 32  1  0  0  0  0
  9 33  1  0  0  0  0
  9 34  1  0  0  0  0
  9 35  1  0  0  0  0
 10 36  1  0  0  0  0
 10 37  1  0  0  0  0
 10 38  1  0  0  0  0
 14 39  1  0  0  0  0
 14 40  1  0  0  0  0
 15 41  1  0  0  0  0
M  END
> <id>
EN300-763107

> <smiles>
CC(C)(C)NC(=O)N1CCC(N)C(CC1)C(F)(F)F

> <IUPAC Name>
4-amino-N-tert-butyl-5-(trifluoromethyl)azepane-1-carboxamide

> <CAS>
2138515-70-3

> <URL>
https://www.enaminestore.com/catalog/EN300-763107

> <ROCS_ShapeQuery>
A71EV2A-x0451_0A_A71EV2A-x0310_0A_A71EV2A-x0416_0A_peptide

> <ROCS_TanimotoCombo>
0.479 

> <ROCS_ShapeTanimoto>
0.302 

> <ROCS_ColorTanimoto>
0.177 

> <ROCS_RefTversky>
0.270 

> <ROCS_RefColorTversky>
0.187 

> <ROCS_RefTverskyCombo>
0.457 

> <ROCS_FitTversky>
1.640 

> <ROCS_FitColorTversky>
0.779 

> <ROCS_FitTverskyCombo>
2.420 

> <ROCS_ColorScore>
-5.678

> <ROCS_Overlap>
1873.251

> <ROCS_Rank>
381                 

$$$$
untitled-dbase-50775_21
  -OEChem-11132313473D

 38 39  0     1  0  0  0  0  0999 V2000
   10.8046   12.8559   23.8665 C   0  0  0  0  0  0  0  0  0  0  0  0
    7.3755   11.5892   25.6334 C   0  0  0  0  0  0  0  0  0  0  0  0
    8.1802   10.2761   25.7048 C   0  0  0  0  0  0  0  0  0  0  0  0
    8.3547   12.6943   23.5762 C   0  0  0  0  0  0  0  0  0  0  0  0
    9.7194   10.5874   23.7031 C   0  0  0  0  0  0  0  0  0  0  0  0
    7.1870   11.8703   24.1309 C   0  0  1  0  0  0  0  0  0  0  0  0
    8.4477    9.8918   24.2333 C   0  0  2  0  0  0  0  0  0  0  0  0
    7.2186   10.4685   23.5427 C   0  0  0  0  0  0  0  0  0  0  0  0
   13.4034   14.0527   23.8644 C   0  0  0  0  0  0  0  0  0  0  0  0
   14.0865   12.1268   22.4038 C   0  0  0  0  0  0  0  0  0  0  0  0
   12.3337   13.7399   21.6077 C   0  0  0  0  0  0  0  0  0  0  0  0
   12.9342   13.0366   22.8241 C   0  0  0  0  0  0  0  0  0  0  0  0
    9.6570   12.0560   23.7938 N   0  0  0  0  0  0  0  0  0  0  0  0
    8.5702    8.4527   24.0497 N   0  0  0  0  0  0  0  0  0  0  0  0
   10.8158   14.0137   24.2809 O   0  0  0  0  0  0  0  0  0  0  0  0
   11.9261   12.2101   23.4168 O   0  0  0  0  0  0  0  0  0  0  0  0
    7.3061   10.4648   22.2021 F   0  0  0  0  0  0  0  0  0  0  0  0
    6.0973    9.7932   23.8851 F   0  0  0  0  0  0  0  0  0  0  0  0
    6.4012   11.4433   26.1151 H   0  0  0  0  0  0  0  0  0  0  0  0
    7.8814   12.4073   26.1565 H   0  0  0  0  0  0  0  0  0  0  0  0
    9.1030   10.3941   26.2835 H   0  0  0  0  0  0  0  0  0  0  0  0
    7.5726    9.5170   26.2143 H   0  0  0  0  0  0  0  0  0  0  0  0
    8.2436   12.8310   22.4928 H   0  0  0  0  0  0  0  0  0  0  0  0
    8.3477   13.6927   24.0294 H   0  0  0  0  0  0  0  0  0  0  0  0
   10.6064   10.2354   24.2420 H   0  0  0  0  0  0  0  0  0  0  0  0
    9.8749   10.3529   22.6429 H   0  0  0  0  0  0  0  0  0  0  0  0
    6.2379   12.3788   23.9361 H   0  0  0  0  0  0  0  0  0  0  0  0
   12.5792   14.7077   24.1687 H   0  0  0  0  0  0  0  0  0  0  0  0
   13.8043   13.5608   24.7566 H   0  0  0  0  0  0  0  0  0  0  0  0
   14.1804   14.7056   23.4506 H   0  0  0  0  0  0  0  0  0  0  0  0
   13.7544   11.3961   21.6574 H   0  0  0  0  0  0  0  0  0  0  0  0
   14.4587   11.5487   23.2573 H   0  0  0  0  0  0  0  0  0  0  0  0
   14.9197   12.6985   21.9824 H   0  0  0  0  0  0  0  0  0  0  0  0
   11.9971   13.0113   20.8614 H   0  0  0  0  0  0  0  0  0  0  0  0
   11.4817   14.3689   21.8854 H   0  0  0  0  0  0  0  0  0  0  0  0
   13.0826   14.3675   21.1113 H   0  0  0  0  0  0  0  0  0  0  0  0
    7.8651    8.1546   23.4156 H   0  0  0  0  0  0  0  0  0  0  0  0
    9.4729    8.2581   23.6819 H   0  0  0  0  0  0  0  0  0  0  0  0
  1 13  1  0  0  0  0
  1 15  2  0  0  0  0
  1 16  1  0  0  0  0
  2  3  1  0  0  0  0
  2  6  1  0  0  0  0
  3  7  1  0  0  0  0
  4  6  1  0  0  0  0
  4 13  1  0  0  0  0
  5  7  1  0  0  0  0
  5 13  1  0  0  0  0
  6  8  1  0  0  0  0
  7  8  1  0  0  0  0
  7 14  1  0  0  0  0
  8 17  1  0  0  0  0
  8 18  1  0  0  0  0
  9 12  1  0  0  0  0
 10 12  1  0  0  0  0
 11 12  1  0  0  0  0
 12 16  1  0  0  0  0
  2 19  1  0  0  0  0
  2 20  1  0  0  0  0
  3 21  1  0  0  0  0
  3 22  1  0  0  0  0
  4 23  1  0  0  0  0
  4 24  1  0  0  0  0
  5 25  1  0  0  0  0
  5 26  1  0  0  0  0
  6 27  1  0  0  0  0
  9 28  1  0  0  0  0
  9 29  1  0  0  0  0
  9 30  1  0  0  0  0
 10 31  1  0  0  0  0
 10 32  1  0  0  0  0
 10 33  1  0  0  0  0
 11 34  1  0  0  0  0
 11 35  1  0  0  0  0
 11 36  1  0  0  0  0
 14 37  1  0  0  0  0
 14 38  1  0  0  0  0
M  END
> <id>
EN300-27755324

> <smiles>
CC(C)(C)OC(=O)N1CC2CCC(N)(C1)C2(F)F

> <IUPAC Name>
tert-butyl 1-amino-8,8-difluoro-3-azabicyclo[3.2.1]octane-3-carboxylate

> <Purity>
95

> <URL>
https://www.enaminestore.com/catalog/EN300-27755324

> <ROCS_ShapeQuery>
A71EV2A-x0451_0A_A71EV2A-x0310_0A_A71EV2A-x0416_0A_peptide

> <ROCS_TanimotoCombo>
0.479 

> <ROCS_ShapeTanimoto>
0.277 

> <ROCS_ColorTanimoto>
0.202 

> <ROCS_RefTversky>
0.253 

> <ROCS_RefColorTversky>
0.228 

> <ROCS_RefTverskyCombo>
0.480 

> <ROCS_FitTversky>
1.543 

> <ROCS_FitColorTversky>
0.639 

> <ROCS_FitTverskyCombo>
2.182 

> <ROCS_ColorScore>
-6.973

> <ROCS_Overlap>
1752.028

> <ROCS_Rank>
382                 

$$$$
untitled-dbase-14984_50
  -OEChem-11132313473D

 44 46  0     1  0  0  0  0  0999 V2000
    6.4370   10.8457   25.5374 C   0  0  0  0  0  0  0  0  0  0  0  0
    8.2047   10.2975   24.5459 C   0  0  0  0  0  0  0  0  0  0  0  0
   11.6826   15.0863   22.4201 C   0  0  0  0  0  0  0  0  0  0  0  0
    9.8041   13.3016   24.9440 C   0  0  0  0  0  0  0  0  0  0  0  0
   11.1990   13.6740   24.4517 C   0  0  0  0  0  0  0  0  0  0  0  0
   10.3237   10.5592   23.3437 C   0  0  0  0  0  0  0  0  0  0  0  0
   10.8189   12.7819   22.1684 C   0  0  0  0  0  0  0  0  0  0  0  0
    9.7439   11.8793   22.7934 C   0  0  2  0  0  0  0  0  0  0  0  0
    8.9305   12.6073   23.8837 C   0  0  1  0  0  0  0  0  0  0  0  0
    5.1853   10.7175   26.2928 C   0  0  0  0  0  0  0  0  0  0  0  0
   13.5353   16.4438   20.7130 C   0  0  0  0  0  0  0  0  0  0  0  0
   11.8833   15.9972   18.8744 C   0  0  0  0  0  0  0  0  0  0  0  0
   11.2217   17.4279   20.8298 C   0  0  0  0  0  0  0  0  0  0  0  0
   12.0604   16.2353   20.3724 C   0  0  0  0  0  0  0  0  0  0  0  0
    7.1966    9.7589   25.1990 N   0  0  0  0  0  0  0  0  0  0  0  0
    6.9031   12.0308   25.1357 N   0  0  0  0  0  0  0  0  0  0  0  0
    8.0266   11.6540   24.5091 N   0  0  0  0  0  0  0  0  0  0  0  0
    9.2786    9.7402   23.9451 N   0  0  0  0  0  0  0  0  0  0  0  0
   11.2146   13.9080   23.0121 N   0  0  0  0  0  0  0  0  0  0  0  0
   12.1282   16.0447   23.0492 O   0  0  0  0  0  0  0  0  0  0  0  0
   11.5966   15.0638   21.0533 O   0  0  0  0  0  0  0  0  0  0  0  0
    9.8993   12.6584   25.8406 H   0  0  0  0  0  0  0  0  0  0  0  0
    9.2922   14.2140   25.3049 H   0  0  0  0  0  0  0  0  0  0  0  0
   11.5420   14.5985   24.9390 H   0  0  0  0  0  0  0  0  0  0  0  0
   11.9121   12.8849   24.7262 H   0  0  0  0  0  0  0  0  0  0  0  0
   10.7954    9.9929   22.5330 H   0  0  0  0  0  0  0  0  0  0  0  0
   11.0984   10.7499   24.0949 H   0  0  0  0  0  0  0  0  0  0  0  0
   11.6928   12.1736   21.8724 H   0  0  0  0  0  0  0  0  0  0  0  0
   10.4312   13.2168   21.2272 H   0  0  0  0  0  0  0  0  0  0  0  0
    9.0424   11.6003   21.9785 H   0  0  0  0  0  0  0  0  0  0  0  0
    8.2904   13.3632   23.3970 H   0  0  0  0  0  0  0  0  0  0  0  0
    5.3616   10.7730   27.3827 H   0  0  0  0  0  0  0  0  0  0  0  0
    4.4553   11.5092   26.0381 H   0  0  0  0  0  0  0  0  0  0  0  0
    4.6674    9.7601   26.0927 H   0  0  0  0  0  0  0  0  0  0  0  0
   13.6666   16.6151   21.7875 H   0  0  0  0  0  0  0  0  0  0  0  0
   14.1425   15.5806   20.4217 H   0  0  0  0  0  0  0  0  0  0  0  0
   13.9315   17.3320   20.2077 H   0  0  0  0  0  0  0  0  0  0  0  0
   10.8265   15.8471   18.6255 H   0  0  0  0  0  0  0  0  0  0  0  0
   12.4069   15.0874   18.5592 H   0  0  0  0  0  0  0  0  0  0  0  0
   12.2625   16.8376   18.2841 H   0  0  0  0  0  0  0  0  0  0  0  0
   10.1637   17.2786   20.5856 H   0  0  0  0  0  0  0  0  0  0  0  0
   11.3076   17.5912   21.9090 H   0  0  0  0  0  0  0  0  0  0  0  0
   11.5320   18.3434   20.3133 H   0  0  0  0  0  0  0  0  0  0  0  0
    9.4352    8.7367   23.9780 H   0  0  0  0  0  0  0  0  0  0  0  0
  1 10  1  0  0  0  0
  1 15  1  0  0  0  0
  1 16  2  0  0  0  0
  2 15  2  0  0  0  0
  2 17  1  0  0  0  0
  2 18  1  0  0  0  0
  3 19  1  0  0  0  0
  3 20  2  0  0  0  0
  3 21  1  0  0  0  0
  4  5  1  0  0  0  0
  4  9  1  0  0  0  0
  5 19  1  0  0  0  0
  6  8  1  0  0  0  0
  6 18  1  0  0  0  0
  7  8  1  0  0  0  0
  7 19  1  0  0  0  0
  8  9  1  0  0  0  0
  9 17  1  0  0  0  0
 11 14  1  0  0  0  0
 12 14  1  0  0  0  0
 13 14  1  0  0  0  0
 14 21  1  0  0  0  0
 16 17  1  0  0  0  0
  4 22  1  0  0  0  0
  4 23  1  0  0  0  0
  5 24  1  0  0  0  0
  5 25  1  0  0  0  0
  6 26  1  0  0  0  0
  6 27  1  0  0  0  0
  7 28  1  0  0  0  0
  7 29  1  0  0  0  0
  8 30  1  0  0  0  0
  9 31  1  0  0  0  0
 10 32  1  0  0  0  0
 10 33  1  0  0  0  0
 10 34  1  0  0  0  0
 11 35  1  0  0  0  0
 11 36  1  0  0  0  0
 11 37  1  0  0  0  0
 12 38  1  0  0  0  0
 12 39  1  0  0  0  0
 12 40  1  0  0  0  0
 13 41  1  0  0  0  0
 13 42  1  0  0  0  0
 13 43  1  0  0  0  0
 18 44  1  0  0  0  0
M  END
> <id>
EN300-1118522

> <smiles>
CC=1N=C2NCC3CN(CCC3N2N1)C(=O)OC(C)(C)C

> <MDLNUMBER>
MFCD30220882

> <IUPAC Name>
tert-butyl 4-methyl-2,3,5,7,11-pentaazatricyclo[7.4.0.0,2,6]trideca-3,5-diene-11-carboxylate

> <CAS>
1697634-66-4

> <URL>
https://www.enaminestore.com/catalog/EN300-1118522

> <ROCS_ShapeQuery>
A71EV2A-x0451_0A_A71EV2A-x0310_0A_A71EV2A-x0416_0A_peptide

> <ROCS_TanimotoCombo>
0.479 

> <ROCS_ShapeTanimoto>
0.345 

> <ROCS_ColorTanimoto>
0.134 

> <ROCS_RefTversky>
0.303 

> <ROCS_RefColorTversky>
0.154 

> <ROCS_RefTverskyCombo>
0.458 

> <ROCS_FitTversky>
1.650 

> <ROCS_FitColorTversky>
0.510 

> <ROCS_FitTverskyCombo>
2.160 

> <ROCS_ColorScore>
-4.708

> <ROCS_Overlap>
2107.470

> <ROCS_Rank>
383                 

$$$$
untitled-dbase-30095_579
  -OEChem-11132313473D

 41 42  0     0  0  0  0  0  0999 V2000
   10.5500   13.1792   23.5699 C   0  0  0  0  0  0  0  0  0  0  0  0
    7.0275   13.3198   24.4624 C   0  0  0  0  0  0  0  0  0  0  0  0
    6.7461   11.9803   26.1100 C   0  0  0  0  0  0  0  0  0  0  0  0
    9.9205   10.8106   23.0746 C   0  0  0  0  0  0  0  0  0  0  0  0
    9.1265   11.9561   25.1852 C   0  0  0  0  0  0  0  0  0  0  0  0
    9.2737    9.5369   23.6257 C   0  0  0  0  0  0  0  0  0  0  0  0
    7.2304   10.8168   23.8519 C   0  0  0  0  0  0  0  0  0  0  0  0
    5.8427   13.0145   25.4040 C   0  0  0  0  0  0  0  0  0  0  0  0
    7.6363   11.9319   24.8298 C   0  0  0  0  0  0  0  0  0  0  0  0
   12.0512   15.3061   22.3814 C   0  0  0  0  0  0  0  0  0  0  0  0
   11.9561   13.9474   20.2709 C   0  0  0  0  0  0  0  0  0  0  0  0
    9.8320   14.7932   21.3106 C   0  0  0  0  0  0  0  0  0  0  0  0
   11.2466   14.2829   21.5810 C   0  0  0  0  0  0  0  0  0  0  0  0
    9.9019   11.9924   23.9469 N   0  0  0  0  0  0  0  0  0  0  0  0
   10.5761   14.2047   24.2474 O   0  0  0  0  0  0  0  0  0  0  0  0
    7.9476    9.6241   24.1452 O   0  0  0  0  0  0  0  0  0  0  0  0
    5.3867   14.1070   26.2197 O   0  0  0  0  0  0  0  0  0  0  0  0
   11.1574   13.0749   22.3450 O   0  0  0  0  0  0  0  0  0  0  0  0
    6.7560   13.4667   23.4125 H   0  0  0  0  0  0  0  0  0  0  0  0
    7.6211   14.1845   24.7834 H   0  0  0  0  0  0  0  0  0  0  0  0
    7.2423   12.3781   27.0036 H   0  0  0  0  0  0  0  0  0  0  0  0
    6.2520   11.0439   26.3857 H   0  0  0  0  0  0  0  0  0  0  0  0
   10.9825   10.6067   22.8092 H   0  0  0  0  0  0  0  0  0  0  0  0
    9.4485   11.0622   22.0982 H   0  0  0  0  0  0  0  0  0  0  0  0
    9.3687   12.8303   25.7970 H   0  0  0  0  0  0  0  0  0  0  0  0
    9.4140   11.0671   25.7550 H   0  0  0  0  0  0  0  0  0  0  0  0
    9.2387    8.7716   22.8245 H   0  0  0  0  0  0  0  0  0  0  0  0
    9.9250    9.0998   24.4112 H   0  0  0  0  0  0  0  0  0  0  0  0
    6.1428   10.6479   23.8415 H   0  0  0  0  0  0  0  0  0  0  0  0
    7.5051   11.0916   22.8241 H   0  0  0  0  0  0  0  0  0  0  0  0
    4.9969   12.5517   24.8811 H   0  0  0  0  0  0  0  0  0  0  0  0
   11.5453   15.5496   23.3225 H   0  0  0  0  0  0  0  0  0  0  0  0
   13.0562   14.9378   22.6120 H   0  0  0  0  0  0  0  0  0  0  0  0
   12.1460   16.2478   21.8287 H   0  0  0  0  0  0  0  0  0  0  0  0
   11.3823   13.2136   19.6934 H   0  0  0  0  0  0  0  0  0  0  0  0
   12.9347   13.4925   20.4624 H   0  0  0  0  0  0  0  0  0  0  0  0
   12.1030   14.8380   19.6514 H   0  0  0  0  0  0  0  0  0  0  0  0
    9.2547   14.0595   20.7364 H   0  0  0  0  0  0  0  0  0  0  0  0
    9.2947   15.0043   22.2408 H   0  0  0  0  0  0  0  0  0  0  0  0
    9.8564   15.7079   20.7073 H   0  0  0  0  0  0  0  0  0  0  0  0
    4.6531   13.7575   26.7425 H   0  0  0  0  0  0  0  0  0  0  0  0
  1 14  1  0  0  0  0
  1 15  2  0  0  0  0
  1 18  1  0  0  0  0
  2  8  1  0  0  0  0
  2  9  1  0  0  0  0
  3  8  1  0  0  0  0
  3  9  1  0  0  0  0
  4  6  1  0  0  0  0
  4 14  1  0  0  0  0
  5  9  1  0  0  0  0
  5 14  1  0  0  0  0
  6 16  1  0  0  0  0
  7  9  1  0  0  0  0
  7 16  1  0  0  0  0
  8 17  1  0  0  0  0
 10 13  1  0  0  0  0
 11 13  1  0  0  0  0
 12 13  1  0  0  0  0
 13 18  1  0  0  0  0
  2 19  1  0  0  0  0
  2 20  1  0  0  0  0
  3 21  1  0  0  0  0
  3 22  1  0  0  0  0
  4 23  1  0  0  0  0
  4 24  1  0  0  0  0
  5 25  1  0  0  0  0
  5 26  1  0  0  0  0
  6 27  1  0  0  0  0
  6 28  1  0  0  0  0
  7 29  1  0  0  0  0
  7 30  1  0  0  0  0
  8 31  1  0  0  0  0
 10 32  1  0  0  0  0
 10 33  1  0  0  0  0
 10 34  1  0  0  0  0
 11 35  1  0  0  0  0
 11 36  1  0  0  0  0
 11 37  1  0  0  0  0
 12 38  1  0  0  0  0
 12 39  1  0  0  0  0
 12 40  1  0  0  0  0
 17 41  1  0  0  0  0
M  END
> <id>
EN300-37430148

> <smiles>
CC(C)(C)OC(=O)N1CCOCC2(CC(O)C2)C1

> <IUPAC Name>
tert-butyl 2-hydroxy-6-oxa-9-azaspiro[3.6]decane-9-carboxylate

> <CAS>
2803863-99-0

> <Purity>
95

> <URL>
https://www.enaminestore.com/catalog/EN300-37430148

> <ROCS_ShapeQuery>
A71EV2A-x0451_0A_A71EV2A-x0310_0A_A71EV2A-x0416_0A_peptide

> <ROCS_TanimotoCombo>
0.479 

> <ROCS_ShapeTanimoto>
0.319 

> <ROCS_ColorTanimoto>
0.160 

> <ROCS_RefTversky>
0.280 

> <ROCS_RefColorTversky>
0.175 

> <ROCS_RefTverskyCombo>
0.456 

> <ROCS_FitTversky>
1.756 

> <ROCS_FitColorTversky>
0.648 

> <ROCS_FitTverskyCombo>
2.404 

> <ROCS_ColorScore>
-5.340

> <ROCS_Overlap>
1945.048

> <ROCS_Rank>
384                 

$$$$
untitled-dbase-45111_11
  -OEChem-11132313473D

 33 34  0     0  0  0  0  0  0999 V2000
    7.8739   12.7770   25.3560 C   0  0  0  0  0  0  0  0  0  0  0  0
    6.3114   11.0031   25.9255 C   0  0  0  0  0  0  0  0  0  0  0  0
    8.9524   10.0059   23.3916 C   0  0  0  0  0  0  0  0  0  0  0  0
    8.0699   10.5704   24.3288 C   0  0  0  0  0  0  0  0  0  0  0  0
    6.7656   12.3115   26.0721 C   0  0  0  0  0  0  0  0  0  0  0  0
    8.5139   11.8826   24.4845 C   0  0  0  0  0  0  0  0  0  0  0  0
    6.9546   10.1178   25.0554 C   0  0  0  0  0  0  0  0  0  0  0  0
   10.4168   13.1329   23.4318 C   0  0  0  0  0  0  0  0  0  0  0  0
   12.1710   15.1433   22.4705 C   0  0  0  0  0  0  0  0  0  0  0  0
   11.7102   14.1940   20.1911 C   0  0  0  0  0  0  0  0  0  0  0  0
    9.8322   15.1731   21.5412 C   0  0  0  0  0  0  0  0  0  0  0  0
    6.0595   13.2364   27.0084 C   0  0  0  0  0  0  0  0  0  0  0  0
   11.1545   14.4093   21.5972 C   0  0  0  0  0  0  0  0  0  0  0  0
    9.8824   10.8617   22.9742 N   0  0  0  0  0  0  0  0  0  0  0  0
    9.6120   12.0105   23.6442 N   0  0  0  0  0  0  0  0  0  0  0  0
   10.5962   13.9584   24.3120 O   0  0  0  0  0  0  0  0  0  0  0  0
   10.9118   13.1197   22.1669 O   0  0  0  0  0  0  0  0  0  0  0  0
    6.6063   14.4863   27.0561 F   0  0  0  0  0  0  0  0  0  0  0  0
    4.7459   13.4322   26.6930 F   0  0  0  0  0  0  0  0  0  0  0  0
    6.0654   12.7830   28.2950 F   0  0  0  0  0  0  0  0  0  0  0  0
    6.3141    8.3477   24.8784 Br  0  0  0  0  0  0  0  0  0  0  0  0
    8.2187   13.7981   25.4780 H   0  0  0  0  0  0  0  0  0  0  0  0
    5.4466   10.6726   26.4976 H   0  0  0  0  0  0  0  0  0  0  0  0
    8.9604    9.0021   22.9909 H   0  0  0  0  0  0  0  0  0  0  0  0
   11.7759   15.2998   23.4806 H   0  0  0  0  0  0  0  0  0  0  0  0
   13.1119   14.5886   22.5473 H   0  0  0  0  0  0  0  0  0  0  0  0
   12.3880   16.1385   22.0658 H   0  0  0  0  0  0  0  0  0  0  0  0
   10.9841   13.6677   19.5610 H   0  0  0  0  0  0  0  0  0  0  0  0
   12.6079   13.5658   20.2182 H   0  0  0  0  0  0  0  0  0  0  0  0
   11.9653   15.1426   19.7078 H   0  0  0  0  0  0  0  0  0  0  0  0
    9.1029   14.6468   20.9148 H   0  0  0  0  0  0  0  0  0  0  0  0
    9.4000   15.3048   22.5384 H   0  0  0  0  0  0  0  0  0  0  0  0
    9.9720   16.1616   21.0889 H   0  0  0  0  0  0  0  0  0  0  0  0
  1  5  1  0  0  0  0
  1  6  2  0  0  0  0
  2  5  2  0  0  0  0
  2  7  1  0  0  0  0
  3  4  1  0  0  0  0
  3 14  2  0  0  0  0
  4  6  1  0  0  0  0
  4  7  2  0  0  0  0
  5 12  1  0  0  0  0
  6 15  1  0  0  0  0
  7 21  1  0  0  0  0
  8 15  1  0  0  0  0
  8 16  2  0  0  0  0
  8 17  1  0  0  0  0
  9 13  1  0  0  0  0
 10 13  1  0  0  0  0
 11 13  1  0  0  0  0
 12 18  1  0  0  0  0
 12 19  1  0  0  0  0
 12 20  1  0  0  0  0
 13 17  1  0  0  0  0
 14 15  1  0  0  0  0
  1 22  1  0  0  0  0
  2 23  1  0  0  0  0
  3 24  1  0  0  0  0
  9 25  1  0  0  0  0
  9 26  1  0  0  0  0
  9 27  1  0  0  0  0
 10 28  1  0  0  0  0
 10 29  1  0  0  0  0
 10 30  1  0  0  0  0
 11 31  1  0  0  0  0
 11 32  1  0  0  0  0
 11 33  1  0  0  0  0
M  END
> <id>
EN300-28262944

> <smiles>
CC(C)(C)OC(=O)N1N=CC=2C(Br)=CC(=CC12)C(F)(F)F

> <IUPAC Name>
tert-butyl 4-bromo-6-(trifluoromethyl)-1H-indazole-1-carboxylate

> <CAS>
2680709-24-2

> <URL>
https://www.enaminestore.com/catalog/EN300-28262944

> <ROCS_ShapeQuery>
A71EV2A-x0451_0A_A71EV2A-x0310_0A_A71EV2A-x0416_0A_peptide

> <ROCS_TanimotoCombo>
0.479 

> <ROCS_ShapeTanimoto>
0.348 

> <ROCS_ColorTanimoto>
0.131 

> <ROCS_RefTversky>
0.306 

> <ROCS_RefColorTversky>
0.144 

> <ROCS_RefTverskyCombo>
0.449 

> <ROCS_FitTversky>
1.666 

> <ROCS_FitColorTversky>
0.598 

> <ROCS_FitTverskyCombo>
2.264 

> <ROCS_ColorScore>
-4.367

> <ROCS_Overlap>
2121.613

> <ROCS_Rank>
385                 

$$$$
untitled-dbase-30704_32
  -OEChem-11132313473D

 43 44  0     1  0  0  0  0  0999 V2000
   10.1469   13.5803   23.3917 C   0  0  0  0  0  0  0  0  0  0  0  0
   10.0446   11.3906   24.6206 C   0  0  0  0  0  0  0  0  0  0  0  0
    8.5779   11.8396   22.6236 C   0  0  0  0  0  0  0  0  0  0  0  0
    8.0669   11.0843   26.2028 C   0  0  0  0  0  0  0  0  0  0  0  0
    6.4186   11.5991   23.9627 C   0  0  0  0  0  0  0  0  0  0  0  0
    8.9834   10.4189   25.1646 C   0  0  1  0  0  0  0  0  0  0  0  0
    7.5275   10.8707   23.1890 C   0  0  2  0  0  0  0  0  0  0  0  0
    8.1833    9.7561   24.0272 C   0  0  0  0  0  0  0  0  0  0  0  0
    9.0646    8.8311   23.1730 C   0  0  0  0  0  0  0  0  0  0  0  0
   12.3990   14.0755   21.6972 C   0  0  0  0  0  0  0  0  0  0  0  0
   10.7612   15.1996   20.1599 C   0  0  0  0  0  0  0  0  0  0  0  0
   11.1351   16.1099   22.4707 C   0  0  0  0  0  0  0  0  0  0  0  0
   11.0835   14.8480   21.6106 C   0  0  0  0  0  0  0  0  0  0  0  0
    9.5480   12.3279   23.6052 N   0  0  0  0  0  0  0  0  0  0  0  0
   10.7163   14.2330   24.2648 O   0  0  0  0  0  0  0  0  0  0  0  0
    7.6003   13.5159   25.3197 O   0  0  0  0  0  0  0  0  0  0  0  0
    5.7323   12.2351   26.3996 O   0  0  0  0  0  0  0  0  0  0  0  0
    7.1725    8.9166   24.5974 O   0  0  0  0  0  0  0  0  0  0  0  0
   10.0293   14.0086   22.0955 O   0  0  0  0  0  0  0  0  0  0  0  0
    6.9045   12.2640   25.5436 S   0  0  0  0  0  0  0  0  0  0  0  0
   10.4994   11.9407   25.4514 H   0  0  0  0  0  0  0  0  0  0  0  0
   10.8597   10.8314   24.1460 H   0  0  0  0  0  0  0  0  0  0  0  0
    9.1609   11.3442   21.8379 H   0  0  0  0  0  0  0  0  0  0  0  0
    8.0836   12.6898   22.1394 H   0  0  0  0  0  0  0  0  0  0  0  0
    7.4717   10.3203   26.7162 H   0  0  0  0  0  0  0  0  0  0  0  0
    8.6506   11.6047   26.9697 H   0  0  0  0  0  0  0  0  0  0  0  0
    6.0095   12.4301   23.3778 H   0  0  0  0  0  0  0  0  0  0  0  0
    5.5919   10.9079   24.1622 H   0  0  0  0  0  0  0  0  0  0  0  0
    9.5187    9.6312   25.7136 H   0  0  0  0  0  0  0  0  0  0  0  0
    7.0238   10.4049   22.3301 H   0  0  0  0  0  0  0  0  0  0  0  0
    8.4627    8.3868   22.3864 H   0  0  0  0  0  0  0  0  0  0  0  0
    9.4785    8.0483   23.8009 H   0  0  0  0  0  0  0  0  0  0  0  0
    9.8709    9.4091   22.7322 H   0  0  0  0  0  0  0  0  0  0  0  0
   12.6339   13.8212   22.7369 H   0  0  0  0  0  0  0  0  0  0  0  0
   12.3627   13.1504   21.1126 H   0  0  0  0  0  0  0  0  0  0  0  0
   13.2343   14.6835   21.3314 H   0  0  0  0  0  0  0  0  0  0  0  0
    9.8181   15.7540   20.0931 H   0  0  0  0  0  0  0  0  0  0  0  0
   10.6295   14.2929   19.5585 H   0  0  0  0  0  0  0  0  0  0  0  0
   11.5521   15.8051   19.7056 H   0  0  0  0  0  0  0  0  0  0  0  0
   10.1916   16.6642   22.4088 H   0  0  0  0  0  0  0  0  0  0  0  0
   11.3288   15.8738   23.5220 H   0  0  0  0  0  0  0  0  0  0  0  0
   11.9176   16.7909   22.1168 H   0  0  0  0  0  0  0  0  0  0  0  0
    6.6975    8.5231   23.8517 H   0  0  0  0  0  0  0  0  0  0  0  0
  1 14  1  0  0  0  0
  1 15  2  0  0  0  0
  1 19  1  0  0  0  0
  2  6  1  6  0  0  0
  2 14  1  0  0  0  0
  3  7  1  0  0  0  0
  3 14  1  0  0  0  0
  4  6  1  0  0  0  0
  4 20  1  0  0  0  0
  5  7  1  6  0  0  0
  5 20  1  0  0  0  0
  6  8  1  0  0  0  0
  7  8  1  0  0  0  0
  8  9  1  6  0  0  0
  8 18  1  0  0  0  0
 10 13  1  0  0  0  0
 11 13  1  0  0  0  0
 12 13  1  0  0  0  0
 13 19  1  0  0  0  0
 16 20  2  0  0  0  0
 17 20  2  0  0  0  0
  2 21  1  0  0  0  0
  2 22  1  0  0  0  0
  3 23  1  0  0  0  0
  3 24  1  0  0  0  0
  4 25  1  0  0  0  0
  4 26  1  0  0  0  0
  5 27  1  0  0  0  0
  5 28  1  0  0  0  0
  6 29  1  0  0  0  0
  7 30  1  0  0  0  0
  9 31  1  0  0  0  0
  9 32  1  0  0  0  0
  9 33  1  0  0  0  0
 10 34  1  0  0  0  0
 10 35  1  0  0  0  0
 10 36  1  0  0  0  0
 11 37  1  0  0  0  0
 11 38  1  0  0  0  0
 11 39  1  0  0  0  0
 12 40  1  0  0  0  0
 12 41  1  0  0  0  0
 12 42  1  0  0  0  0
 18 43  1  0  0  0  0
M  END
> <id>
EN300-26665825

> <smiles>
CC(C)(C)OC(=O)N1C[C@H]2CS(=O)(=O)C[C@@H](C1)[C@]2(C)O

> <IUPAC Name>
tert-butyl (1R,5S,9s)-9-hydroxy-9-methyl-3,3-dioxo-3lambda6-thia-7-azabicyclo[3.3.1]nonane-7-carboxylate

> <CAS>
2413847-68-2

> <URL>
https://www.enaminestore.com/catalog/EN300-26665825

> <ROCS_ShapeQuery>
A71EV2A-x0451_0A_A71EV2A-x0310_0A_A71EV2A-x0416_0A_peptide

> <ROCS_TanimotoCombo>
0.479 

> <ROCS_ShapeTanimoto>
0.315 

> <ROCS_ColorTanimoto>
0.164 

> <ROCS_RefTversky>
0.281 

> <ROCS_RefColorTversky>
0.184 

> <ROCS_RefTverskyCombo>
0.465 

> <ROCS_FitTversky>
1.646 

> <ROCS_FitColorTversky>
0.595 

> <ROCS_FitTverskyCombo>
2.241 

> <ROCS_ColorScore>
-5.628

> <ROCS_Overlap>
1946.501

> <ROCS_Rank>
386                 

$$$$
untitled-dbase-45937_7
  -OEChem-11132313473D

 36 37  0     1  0  0  0  0  0999 V2000
   10.5377   13.1200   23.4725 C   0  0  0  0  0  0  0  0  0  0  0  0
    9.5588   10.9781   22.7249 C   0  0  0  0  0  0  0  0  0  0  0  0
    7.3502   12.7743   24.3509 C   0  0  0  0  0  0  0  0  0  0  0  0
    6.7706   11.0019   25.7999 C   0  0  0  0  0  0  0  0  0  0  0  0
    9.2065    9.6629   23.3929 C   0  0  0  0  0  0  0  0  0  0  0  0
    8.6445   12.0897   24.7655 C   0  0  1  0  0  0  0  0  0  0  0  0
    8.1546   10.7173   25.2172 C   0  0  2  0  0  0  0  0  0  0  0  0
   12.5352   14.9774   22.6068 C   0  0  0  0  0  0  0  0  0  0  0  0
   12.4128   13.7943   20.3944 C   0  0  0  0  0  0  0  0  0  0  0  0
   10.3883   14.9783   21.2932 C   0  0  0  0  0  0  0  0  0  0  0  0
   11.6424   14.1835   21.6542 C   0  0  0  0  0  0  0  0  0  0  0  0
    6.4051   12.3751   25.4021 N   0  0  0  0  0  0  0  0  0  0  0  0
    9.6463   12.0631   23.6988 N   0  0  0  0  0  0  0  0  0  0  0  0
   10.6841   14.0771   24.2307 O   0  0  0  0  0  0  0  0  0  0  0  0
    7.9931    9.8142   24.1218 O   0  0  0  0  0  0  0  0  0  0  0  0
   11.2428   12.9729   22.3068 O   0  0  0  0  0  0  0  0  0  0  0  0
   10.4955   10.8876   22.1661 H   0  0  0  0  0  0  0  0  0  0  0  0
    8.7725   11.2638   22.0161 H   0  0  0  0  0  0  0  0  0  0  0  0
    7.4490   13.8631   24.3012 H   0  0  0  0  0  0  0  0  0  0  0  0
    6.9837   12.4171   23.3817 H   0  0  0  0  0  0  0  0  0  0  0  0
    6.0137   10.2964   25.4420 H   0  0  0  0  0  0  0  0  0  0  0  0
    6.7955   10.9497   26.8941 H   0  0  0  0  0  0  0  0  0  0  0  0
    9.0453    8.8915   22.6334 H   0  0  0  0  0  0  0  0  0  0  0  0
   10.0062    9.3148   24.0572 H   0  0  0  0  0  0  0  0  0  0  0  0
    9.0595   12.6180   25.6343 H   0  0  0  0  0  0  0  0  0  0  0  0
    8.8204   10.2635   25.9604 H   0  0  0  0  0  0  0  0  0  0  0  0
   11.9859   15.2586   23.5124 H   0  0  0  0  0  0  0  0  0  0  0  0
   13.4208   14.4048   22.9010 H   0  0  0  0  0  0  0  0  0  0  0  0
   12.8666   15.9136   22.1431 H   0  0  0  0  0  0  0  0  0  0  0  0
   11.7760   13.2245   19.7081 H   0  0  0  0  0  0  0  0  0  0  0  0
   13.2605   13.1446   20.6403 H   0  0  0  0  0  0  0  0  0  0  0  0
   12.7925   14.6742   19.8651 H   0  0  0  0  0  0  0  0  0  0  0  0
    9.7477   14.4090   20.6100 H   0  0  0  0  0  0  0  0  0  0  0  0
    9.8033   15.2346   22.1825 H   0  0  0  0  0  0  0  0  0  0  0  0
   10.6514   15.9050   20.7704 H   0  0  0  0  0  0  0  0  0  0  0  0
    6.5444   12.9865   26.2078 H   0  0  0  0  0  0  0  0  0  0  0  0
  1 13  1  0  0  0  0
  1 14  2  0  0  0  0
  1 16  1  0  0  0  0
  2  5  1  0  0  0  0
  2 13  1  0  0  0  0
  3  6  1  6  0  0  0
  3 12  1  0  0  0  0
  4  7  1  6  0  0  0
  4 12  1  0  0  0  0
  5 15  1  0  0  0  0
  6  7  1  0  0  0  0
  6 13  1  0  0  0  0
  7 15  1  0  0  0  0
  8 11  1  0  0  0  0
  9 11  1  0  0  0  0
 10 11  1  0  0  0  0
 11 16  1  0  0  0  0
  2 17  1  0  0  0  0
  2 18  1  0  0  0  0
  3 19  1  0  0  0  0
  3 20  1  0  0  0  0
  4 21  1  0  0  0  0
  4 22  1  0  0  0  0
  5 23  1  0  0  0  0
  5 24  1  0  0  0  0
  6 25  1  0  0  0  0
  7 26  1  0  0  0  0
  8 27  1  0  0  0  0
  8 28  1  0  0  0  0
  8 29  1  0  0  0  0
  9 30  1  0  0  0  0
  9 31  1  0  0  0  0
  9 32  1  0  0  0  0
 10 33  1  0  0  0  0
 10 34  1  0  0  0  0
 10 35  1  0  0  0  0
 12 36  1  0  0  0  0
M  END
> <id>
EN300-7258587

> <smiles>
CC(C)(C)OC(=O)N1CCO[C@@H]2CNC[C@@H]21 |&1:11,15,r|

> <MDLNUMBER>
MFCD28038711

> <IUPAC Name>
rac-tert-butyl (4aR,7aS)-octahydropyrrolo[3,4-b]morpholine-4-carboxylate

> <CAS>
1312131-49-9

> <Purity>
95

> <URL>
https://www.enaminestore.com/catalog/EN300-7258587

> <ROCS_ShapeQuery>
A71EV2A-x0451_0A_A71EV2A-x0310_0A_A71EV2A-x0416_0A_peptide

> <ROCS_TanimotoCombo>
0.479 

> <ROCS_ShapeTanimoto>
0.311 

> <ROCS_ColorTanimoto>
0.168 

> <ROCS_RefTversky>
0.272 

> <ROCS_RefColorTversky>
0.183 

> <ROCS_RefTverskyCombo>
0.456 

> <ROCS_FitTversky>
1.822 

> <ROCS_FitColorTversky>
0.675 

> <ROCS_FitTverskyCombo>
2.497 

> <ROCS_ColorScore>
-5.583

> <ROCS_Overlap>
1888.316

> <ROCS_Rank>
387                 

$$$$
untitled-dbase-19616_7
  -OEChem-11132313473D

 36 37  0     1  0  0  0  0  0999 V2000
   10.5377   13.1200   23.4725 C   0  0  0  0  0  0  0  0  0  0  0  0
    9.5588   10.9781   22.7249 C   0  0  0  0  0  0  0  0  0  0  0  0
    7.3502   12.7743   24.3509 C   0  0  0  0  0  0  0  0  0  0  0  0
    6.7706   11.0019   25.7999 C   0  0  0  0  0  0  0  0  0  0  0  0
    9.2065    9.6629   23.3929 C   0  0  0  0  0  0  0  0  0  0  0  0
    8.6445   12.0897   24.7655 C   0  0  1  0  0  0  0  0  0  0  0  0
    8.1546   10.7173   25.2172 C   0  0  2  0  0  0  0  0  0  0  0  0
   12.5352   14.9774   22.6068 C   0  0  0  0  0  0  0  0  0  0  0  0
   12.4128   13.7943   20.3944 C   0  0  0  0  0  0  0  0  0  0  0  0
   10.3883   14.9783   21.2932 C   0  0  0  0  0  0  0  0  0  0  0  0
   11.6424   14.1835   21.6542 C   0  0  0  0  0  0  0  0  0  0  0  0
    6.4051   12.3751   25.4021 N   0  0  0  0  0  0  0  0  0  0  0  0
    9.6463   12.0631   23.6988 N   0  0  0  0  0  0  0  0  0  0  0  0
   10.6841   14.0771   24.2307 O   0  0  0  0  0  0  0  0  0  0  0  0
    7.9931    9.8142   24.1218 O   0  0  0  0  0  0  0  0  0  0  0  0
   11.2428   12.9729   22.3068 O   0  0  0  0  0  0  0  0  0  0  0  0
   10.4955   10.8876   22.1661 H   0  0  0  0  0  0  0  0  0  0  0  0
    8.7725   11.2638   22.0161 H   0  0  0  0  0  0  0  0  0  0  0  0
    7.4490   13.8631   24.3012 H   0  0  0  0  0  0  0  0  0  0  0  0
    6.9837   12.4171   23.3817 H   0  0  0  0  0  0  0  0  0  0  0  0
    6.0137   10.2964   25.4420 H   0  0  0  0  0  0  0  0  0  0  0  0
    6.7955   10.9497   26.8941 H   0  0  0  0  0  0  0  0  0  0  0  0
    9.0453    8.8915   22.6334 H   0  0  0  0  0  0  0  0  0  0  0  0
   10.0062    9.3148   24.0572 H   0  0  0  0  0  0  0  0  0  0  0  0
    9.0595   12.6180   25.6343 H   0  0  0  0  0  0  0  0  0  0  0  0
    8.8204   10.2635   25.9604 H   0  0  0  0  0  0  0  0  0  0  0  0
   11.9859   15.2586   23.5124 H   0  0  0  0  0  0  0  0  0  0  0  0
   13.4208   14.4048   22.9010 H   0  0  0  0  0  0  0  0  0  0  0  0
   12.8666   15.9136   22.1431 H   0  0  0  0  0  0  0  0  0  0  0  0
   11.7760   13.2245   19.7081 H   0  0  0  0  0  0  0  0  0  0  0  0
   13.2605   13.1446   20.6403 H   0  0  0  0  0  0  0  0  0  0  0  0
   12.7925   14.6742   19.8651 H   0  0  0  0  0  0  0  0  0  0  0  0
    9.7477   14.4090   20.6100 H   0  0  0  0  0  0  0  0  0  0  0  0
    9.8033   15.2346   22.1825 H   0  0  0  0  0  0  0  0  0  0  0  0
   10.6514   15.9050   20.7704 H   0  0  0  0  0  0  0  0  0  0  0  0
    6.5444   12.9865   26.2078 H   0  0  0  0  0  0  0  0  0  0  0  0
  1 13  1  0  0  0  0
  1 14  2  0  0  0  0
  1 16  1  0  0  0  0
  2  5  1  0  0  0  0
  2 13  1  0  0  0  0
  3  6  1  6  0  0  0
  3 12  1  0  0  0  0
  4  7  1  6  0  0  0
  4 12  1  0  0  0  0
  5 15  1  0  0  0  0
  6  7  1  0  0  0  0
  6 13  1  0  0  0  0
  7 15  1  0  0  0  0
  8 11  1  0  0  0  0
  9 11  1  0  0  0  0
 10 11  1  0  0  0  0
 11 16  1  0  0  0  0
  2 17  1  0  0  0  0
  2 18  1  0  0  0  0
  3 19  1  0  0  0  0
  3 20  1  0  0  0  0
  4 21  1  0  0  0  0
  4 22  1  0  0  0  0
  5 23  1  0  0  0  0
  5 24  1  0  0  0  0
  6 25  1  0  0  0  0
  7 26  1  0  0  0  0
  8 27  1  0  0  0  0
  8 28  1  0  0  0  0
  8 29  1  0  0  0  0
  9 30  1  0  0  0  0
  9 31  1  0  0  0  0
  9 32  1  0  0  0  0
 10 33  1  0  0  0  0
 10 34  1  0  0  0  0
 10 35  1  0  0  0  0
 12 36  1  0  0  0  0
M  END
> <id>
EN300-28329391

> <smiles>
Cl.CC(C)(C)OC(=O)N1CCO[C@@H]2CNC[C@@H]21 |&1:12,16,r|

> <MDLNUMBER>
MFCD28893076

> <IUPAC Name>
rac-tert-butyl (4aR,7aS)-octahydropyrrolo[3,4-b][1,4]oxazine-4-carboxylate hydrochloride

> <CAS>
1993249-46-9

> <Purity>
95

> <URL>
https://www.enaminestore.com/catalog/EN300-28329391

> <Saltdate>
Cl

> <ROCS_ShapeQuery>
A71EV2A-x0451_0A_A71EV2A-x0310_0A_A71EV2A-x0416_0A_peptide

> <ROCS_TanimotoCombo>
0.479 

> <ROCS_ShapeTanimoto>
0.311 

> <ROCS_ColorTanimoto>
0.168 

> <ROCS_RefTversky>
0.272 

> <ROCS_RefColorTversky>
0.183 

> <ROCS_RefTverskyCombo>
0.456 

> <ROCS_FitTversky>
1.822 

> <ROCS_FitColorTversky>
0.675 

> <ROCS_FitTverskyCombo>
2.497 

> <ROCS_ColorScore>
-5.583

> <ROCS_Overlap>
1888.316

> <ROCS_Rank>
388                 

$$$$
untitled-dbase-34236_0
  -OEChem-11132313473D

 33 34  0     0  0  0  0  0  0999 V2000
    6.9603   12.0363   25.7896 C   0  0  0  0  0  0  0  0  0  0  0  0
    8.0247   12.7991   25.2647 C   0  0  0  0  0  0  0  0  0  0  0  0
    8.6439   11.9679   24.3550 C   0  0  0  0  0  0  0  0  0  0  0  0
   10.4186   13.3121   23.4134 C   0  0  0  0  0  0  0  0  0  0  0  0
    9.6640    9.5988   23.1846 C   0  0  0  0  0  0  0  0  0  0  0  0
    8.1997    9.6265   23.6000 C   0  0  0  0  0  0  0  0  0  0  0  0
   10.0994   10.9499   22.6164 C   0  0  0  0  0  0  0  0  0  0  0  0
   12.8090   14.8006   22.8737 C   0  0  0  0  0  0  0  0  0  0  0  0
   12.0167   14.8564   20.4907 C   0  0  0  0  0  0  0  0  0  0  0  0
   10.6457   15.9471   22.2904 C   0  0  0  0  0  0  0  0  0  0  0  0
   11.5880   14.7919   21.9551 C   0  0  0  0  0  0  0  0  0  0  0  0
    6.8943   10.8118   25.2636 N   0  0  0  0  0  0  0  0  0  0  0  0
    7.9277   10.7982   24.4065 N   0  0  0  0  0  0  0  0  0  0  0  0
    9.7376   12.0849   23.4909 N   0  0  0  0  0  0  0  0  0  0  0  0
   10.5945   14.1019   24.3381 O   0  0  0  0  0  0  0  0  0  0  0  0
   10.8836   13.5590   22.1447 O   0  0  0  0  0  0  0  0  0  0  0  0
    8.2267   14.5649   25.8531 Br  0  0  0  0  0  0  0  0  0  0  0  0
    6.2211   12.3177   26.5271 H   0  0  0  0  0  0  0  0  0  0  0  0
   10.2885    9.3613   24.0557 H   0  0  0  0  0  0  0  0  0  0  0  0
    9.8298    8.8069   22.4461 H   0  0  0  0  0  0  0  0  0  0  0  0
    7.5397    9.6821   22.7275 H   0  0  0  0  0  0  0  0  0  0  0  0
    7.9465    8.7364   24.1849 H   0  0  0  0  0  0  0  0  0  0  0  0
   11.1825   10.9250   22.4529 H   0  0  0  0  0  0  0  0  0  0  0  0
    9.6190   11.1288   21.6466 H   0  0  0  0  0  0  0  0  0  0  0  0
   12.5055   14.7544   23.9257 H   0  0  0  0  0  0  0  0  0  0  0  0
   13.4755   13.9569   22.6667 H   0  0  0  0  0  0  0  0  0  0  0  0
   13.3796   15.7290   22.7570 H   0  0  0  0  0  0  0  0  0  0  0  0
   11.1438   14.8504   19.8280 H   0  0  0  0  0  0  0  0  0  0  0  0
   12.6154   13.9791   20.2204 H   0  0  0  0  0  0  0  0  0  0  0  0
   12.6049   15.7556   20.2812 H   0  0  0  0  0  0  0  0  0  0  0  0
    9.7698   15.9412   21.6316 H   0  0  0  0  0  0  0  0  0  0  0  0
   10.2985   15.8963   23.3275 H   0  0  0  0  0  0  0  0  0  0  0  0
   11.1420   16.9121   22.1362 H   0  0  0  0  0  0  0  0  0  0  0  0
  1  2  1  0  0  0  0
  1 12  2  0  0  0  0
  2  3  2  0  0  0  0
  2 17  1  0  0  0  0
  3 13  1  0  0  0  0
  3 14  1  0  0  0  0
  4 14  1  0  0  0  0
  4 15  2  0  0  0  0
  4 16  1  0  0  0  0
  5  6  1  0  0  0  0
  5  7  1  0  0  0  0
  6 13  1  0  0  0  0
  7 14  1  0  0  0  0
  8 11  1  0  0  0  0
  9 11  1  0  0  0  0
 10 11  1  0  0  0  0
 11 16  1  0  0  0  0
 12 13  1  0  0  0  0
  1 18  1  0  0  0  0
  5 19  1  0  0  0  0
  5 20  1  0  0  0  0
  6 21  1  0  0  0  0
  6 22  1  0  0  0  0
  7 23  1  0  0  0  0
  7 24  1  0  0  0  0
  8 25  1  0  0  0  0
  8 26  1  0  0  0  0
  8 27  1  0  0  0  0
  9 28  1  0  0  0  0
  9 29  1  0  0  0  0
  9 30  1  0  0  0  0
 10 31  1  0  0  0  0
 10 32  1  0  0  0  0
 10 33  1  0  0  0  0
M  END
> <id>
EN300-657118

> <smiles>
CC(C)(C)OC(=O)N1CCCN2N=CC(Br)=C12

> <MDLNUMBER>
MFCD32667172

> <IUPAC Name>
tert-butyl 3-bromo-4H,5H,6H,7H-pyrazolo[1,5-a]pyrimidine-4-carboxylate

> <CAS>
2166639-82-1

> <Purity>
95

> <URL>
https://www.enaminestore.com/catalog/EN300-657118

> <ROCS_ShapeQuery>
A71EV2A-x0451_0A_A71EV2A-x0310_0A_A71EV2A-x0416_0A_peptide

> <ROCS_TanimotoCombo>
0.479 

> <ROCS_ShapeTanimoto>
0.325 

> <ROCS_ColorTanimoto>
0.154 

> <ROCS_RefTversky>
0.284 

> <ROCS_RefColorTversky>
0.166 

> <ROCS_RefTverskyCombo>
0.449 

> <ROCS_FitTversky>
1.812 

> <ROCS_FitColorTversky>
0.690 

> <ROCS_FitTverskyCombo>
2.502 

> <ROCS_ColorScore>
-5.038

> <ROCS_Overlap>
1965.878

> <ROCS_Rank>
389                 

$$$$
untitled-dbase-33505_65
  -OEChem-11132313473D

 39 40  0     0  0  0  0  0  0999 V2000
    6.9489   13.1854   24.7028 C   0  0  0  0  0  0  0  0  0  0  0  0
    5.8831   11.7254   26.3086 C   0  0  0  0  0  0  0  0  0  0  0  0
    7.6766   12.1083   24.1770 C   0  0  0  0  0  0  0  0  0  0  0  0
    6.0624   12.9957   25.7651 C   0  0  0  0  0  0  0  0  0  0  0  0
    7.5027   10.8393   24.7524 C   0  0  0  0  0  0  0  0  0  0  0  0
    6.5965   10.6436   25.7977 C   0  0  0  0  0  0  0  0  0  0  0  0
   10.8915   12.9135   23.6909 C   0  0  0  0  0  0  0  0  0  0  0  0
    8.5885   12.3234   22.9962 C   0  0  0  0  0  0  0  0  0  0  0  0
   10.2549   10.4988   23.2994 C   0  0  0  0  0  0  0  0  0  0  0  0
    9.5713    9.8124   24.4759 C   0  0  0  0  0  0  0  0  0  0  0  0
   12.8891   14.8979   23.1804 C   0  0  0  0  0  0  0  0  0  0  0  0
   14.2349   13.0224   22.1900 C   0  0  0  0  0  0  0  0  0  0  0  0
   12.0308   13.6565   21.1662 C   0  0  0  0  0  0  0  0  0  0  0  0
   12.8281   13.5489   22.4653 C   0  0  0  0  0  0  0  0  0  0  0  0
    9.9673   11.9381   23.2947 N   0  0  0  0  0  0  0  0  0  0  0  0
    5.3401   14.0917   26.2824 N   0  0  0  0  0  0  0  0  0  0  0  0
   10.5963   13.9356   24.3082 O   0  0  0  0  0  0  0  0  0  0  0  0
    8.1542    9.7284   24.2790 O   0  0  0  0  0  0  0  0  0  0  0  0
   12.1752   12.6069   23.3243 O   0  0  0  0  0  0  0  0  0  0  0  0
    6.3109    8.9324   26.5681 Br  0  0  0  0  0  0  0  0  0  0  0  0
    7.0688   14.1794   24.2757 H   0  0  0  0  0  0  0  0  0  0  0  0
    5.1832   11.5869   27.1299 H   0  0  0  0  0  0  0  0  0  0  0  0
    8.2321   11.7336   22.1415 H   0  0  0  0  0  0  0  0  0  0  0  0
    8.5581   13.3711   22.6750 H   0  0  0  0  0  0  0  0  0  0  0  0
   11.3352   10.3407   23.3628 H   0  0  0  0  0  0  0  0  0  0  0  0
    9.9038   10.0887   22.3470 H   0  0  0  0  0  0  0  0  0  0  0  0
    9.9321    8.7796   24.5327 H   0  0  0  0  0  0  0  0  0  0  0  0
    9.8243   10.2835   25.4350 H   0  0  0  0  0  0  0  0  0  0  0  0
   11.8813   15.2792   23.3798 H   0  0  0  0  0  0  0  0  0  0  0  0
   13.4283   14.8266   24.1307 H   0  0  0  0  0  0  0  0  0  0  0  0
   13.3860   15.6492   22.5561 H   0  0  0  0  0  0  0  0  0  0  0  0
   14.1959   12.0547   21.6771 H   0  0  0  0  0  0  0  0  0  0  0  0
   14.7787   12.8536   23.1266 H   0  0  0  0  0  0  0  0  0  0  0  0
   14.8133   13.7183   21.5739 H   0  0  0  0  0  0  0  0  0  0  0  0
   11.9869   12.6890   20.6531 H   0  0  0  0  0  0  0  0  0  0  0  0
   11.0067   13.9977   21.3486 H   0  0  0  0  0  0  0  0  0  0  0  0
   12.5116   14.3538   20.4706 H   0  0  0  0  0  0  0  0  0  0  0  0
    5.5076   15.0047   25.9110 H   0  0  0  0  0  0  0  0  0  0  0  0
    4.7442   13.9530   27.0731 H   0  0  0  0  0  0  0  0  0  0  0  0
  1  3  2  0  0  0  0
  1  4  1  0  0  0  0
  2  4  2  0  0  0  0
  2  6  1  0  0  0  0
  3  5  1  0  0  0  0
  3  8  1  0  0  0  0
  4 16  1  0  0  0  0
  5  6  2  0  0  0  0
  5 18  1  0  0  0  0
  6 20  1  0  0  0  0
  7 15  1  0  0  0  0
  7 17  2  0  0  0  0
  7 19  1  0  0  0  0
  8 15  1  0  0  0  0
  9 10  1  0  0  0  0
  9 15  1  0  0  0  0
 10 18  1  0  0  0  0
 11 14  1  0  0  0  0
 12 14  1  0  0  0  0
 13 14  1  0  0  0  0
 14 19  1  0  0  0  0
  1 21  1  0  0  0  0
  2 22  1  0  0  0  0
  8 23  1  0  0  0  0
  8 24  1  0  0  0  0
  9 25  1  0  0  0  0
  9 26  1  0  0  0  0
 10 27  1  0  0  0  0
 10 28  1  0  0  0  0
 11 29  1  0  0  0  0
 11 30  1  0  0  0  0
 11 31  1  0  0  0  0
 12 32  1  0  0  0  0
 12 33  1  0  0  0  0
 12 34  1  0  0  0  0
 13 35  1  0  0  0  0
 13 36  1  0  0  0  0
 13 37  1  0  0  0  0
 16 38  1  0  0  0  0
 16 39  1  0  0  0  0
M  END
> <id>
EN300-1665510

> <smiles>
CC(C)(C)OC(=O)N1CCOC=2C(Br)=CC(N)=CC2C1

> <MDLNUMBER>
MFCD31617245

> <IUPAC Name>
tert-butyl 7-amino-9-bromo-2,3,4,5-tetrahydro-1,4-benzoxazepine-4-carboxylate

> <CAS>
2193064-36-5

> <Purity>
95

> <URL>
https://www.enaminestore.com/catalog/EN300-1665510

> <ROCS_ShapeQuery>
A71EV2A-x0451_0A_A71EV2A-x0310_0A_A71EV2A-x0416_0A_peptide

> <ROCS_TanimotoCombo>
0.479 

> <ROCS_ShapeTanimoto>
0.312 

> <ROCS_ColorTanimoto>
0.167 

> <ROCS_RefTversky>
0.279 

> <ROCS_RefColorTversky>
0.186 

> <ROCS_RefTverskyCombo>
0.465 

> <ROCS_FitTversky>
1.611 

> <ROCS_FitColorTversky>
0.619 

> <ROCS_FitTverskyCombo>
2.231 

> <ROCS_ColorScore>
-5.691

> <ROCS_Overlap>
1933.968

> <ROCS_Rank>
390                 

$$$$
untitled-dbase-45469_186
  -OEChem-11132313473D

 41 42  0     1  0  0  0  0  0999 V2000
   10.4557   12.9166   23.8655 C   0  0  0  0  0  0  0  0  0  0  0  0
    6.3421   13.6133   26.6650 C   0  0  0  0  0  0  0  0  0  0  0  0
    7.4214   10.7329   23.6392 C   0  0  0  0  0  0  0  0  0  0  0  0
    9.6929   10.7172   22.8589 C   0  0  0  0  0  0  0  0  0  0  0  0
    7.3464   13.2228   24.3485 C   0  0  0  0  0  0  0  0  0  0  0  0
    8.1468   11.9120   25.8597 C   0  0  0  0  0  0  0  0  0  0  0  0
    8.5544    9.7897   23.2490 C   0  0  1  0  0  0  0  0  0  0  0  0
    8.1408   11.9074   24.3173 C   0  0  0  0  0  0  0  0  0  0  0  0
    4.5400   11.7626   27.4865 C   0  0  0  0  0  0  0  0  0  0  0  0
    5.8341   11.5824   29.6317 C   0  0  0  0  0  0  0  0  0  0  0  0
    4.3776   13.5855   29.2143 C   0  0  0  0  0  0  0  0  0  0  0  0
   11.7697   12.6957   23.1574 C   0  0  0  0  0  0  0  0  0  0  0  0
    5.2850   12.5364   28.5732 C   0  0  0  0  0  0  0  0  0  0  0  0
    9.4995   11.9222   23.6841 N   0  0  0  0  0  0  0  0  0  0  0  0
    7.2302   13.0357   25.7879 N   0  0  0  0  0  0  0  0  0  0  0  0
   10.2947   13.9244   24.5554 O   0  0  0  0  0  0  0  0  0  0  0  0
    5.4780   14.4149   26.3101 O   0  0  0  0  0  0  0  0  0  0  0  0
    8.9470    9.0026   24.3672 O   0  0  0  0  0  0  0  0  0  0  0  0
    6.4045   13.2061   27.9717 O   0  0  0  0  0  0  0  0  0  0  0  0
   11.7464   11.5400   22.4706 F   0  0  0  0  0  0  0  0  0  0  0  0
   12.0152   13.6961   22.2931 F   0  0  0  0  0  0  0  0  0  0  0  0
   12.7824   12.6424   24.0404 F   0  0  0  0  0  0  0  0  0  0  0  0
    6.9126   11.0822   22.7329 H   0  0  0  0  0  0  0  0  0  0  0  0
    6.6842   10.2622   24.2965 H   0  0  0  0  0  0  0  0  0  0  0  0
   10.6795   10.2853   23.0467 H   0  0  0  0  0  0  0  0  0  0  0  0
    9.6155   11.0299   21.8123 H   0  0  0  0  0  0  0  0  0  0  0  0
    7.8809   14.1327   24.0660 H   0  0  0  0  0  0  0  0  0  0  0  0
    6.3709   13.2050   23.8531 H   0  0  0  0  0  0  0  0  0  0  0  0
    7.7012   11.0396   26.3482 H   0  0  0  0  0  0  0  0  0  0  0  0
    9.0976   12.1578   26.3421 H   0  0  0  0  0  0  0  0  0  0  0  0
    8.2682    9.1140   22.4384 H   0  0  0  0  0  0  0  0  0  0  0  0
    4.1443   12.4438   26.7248 H   0  0  0  0  0  0  0  0  0  0  0  0
    5.1896   11.0310   26.9950 H   0  0  0  0  0  0  0  0  0  0  0  0
    3.6770   11.2327   27.9056 H   0  0  0  0  0  0  0  0  0  0  0  0
    6.3694   12.1333   30.4135 H   0  0  0  0  0  0  0  0  0  0  0  0
    6.5589   10.8874   29.1925 H   0  0  0  0  0  0  0  0  0  0  0  0
    5.0363   10.9992   30.1030 H   0  0  0  0  0  0  0  0  0  0  0  0
    4.9117   14.1407   29.9938 H   0  0  0  0  0  0  0  0  0  0  0  0
    4.0036   14.3012   28.4750 H   0  0  0  0  0  0  0  0  0  0  0  0
    3.5199   13.1114   29.7049 H   0  0  0  0  0  0  0  0  0  0  0  0
    9.6655    8.4253   24.0633 H   0  0  0  0  0  0  0  0  0  0  0  0
  1 12  1  0  0  0  0
  1 14  1  0  0  0  0
  1 16  2  0  0  0  0
  2 15  1  0  0  0  0
  2 17  2  0  0  0  0
  2 19  1  0  0  0  0
  3  7  1  0  0  0  0
  3  8  1  0  0  0  0
  4  7  1  0  0  0  0
  4 14  1  0  0  0  0
  5  8  1  0  0  0  0
  5 15  1  0  0  0  0
  6  8  1  0  0  0  0
  6 15  1  0  0  0  0
  7 18  1  0  0  0  0
  8 14  1  0  0  0  0
  9 13  1  0  0  0  0
 10 13  1  0  0  0  0
 11 13  1  0  0  0  0
 12 20  1  0  0  0  0
 12 21  1  0  0  0  0
 12 22  1  0  0  0  0
 13 19  1  0  0  0  0
  3 23  1  0  0  0  0
  3 24  1  0  0  0  0
  4 25  1  0  0  0  0
  4 26  1  0  0  0  0
  5 27  1  0  0  0  0
  5 28  1  0  0  0  0
  6 29  1  0  0  0  0
  6 30  1  0  0  0  0
  7 31  1  0  0  0  0
  9 32  1  0  0  0  0
  9 33  1  0  0  0  0
  9 34  1  0  0  0  0
 10 35  1  0  0  0  0
 10 36  1  0  0  0  0
 10 37  1  0  0  0  0
 11 38  1  0  0  0  0
 11 39  1  0  0  0  0
 11 40  1  0  0  0  0
 18 41  1  0  0  0  0
M  END
> <id>
EN300-28308872

> <smiles>
CC(C)(C)OC(=O)N1CC2(C1)CC(O)CN2C(=O)C(F)(F)F

> <IUPAC Name>
tert-butyl 7-hydroxy-5-(2,2,2-trifluoroacetyl)-2,5-diazaspiro[3.4]octane-2-carboxylate

> <CAS>
2680561-06-0

> <URL>
https://www.enaminestore.com/catalog/EN300-28308872

> <ROCS_ShapeQuery>
A71EV2A-x0451_0A_A71EV2A-x0310_0A_A71EV2A-x0416_0A_peptide

> <ROCS_TanimotoCombo>
0.479 

> <ROCS_ShapeTanimoto>
0.317 

> <ROCS_ColorTanimoto>
0.162 

> <ROCS_RefTversky>
0.286 

> <ROCS_RefColorTversky>
0.177 

> <ROCS_RefTverskyCombo>
0.463 

> <ROCS_FitTversky>
1.517 

> <ROCS_FitColorTversky>
0.653 

> <ROCS_FitTverskyCombo>
2.171 

> <ROCS_ColorScore>
-5.384

> <ROCS_Overlap>
1988.934

> <ROCS_Rank>
391                 

$$$$
untitled-dbase-37669_95
  -OEChem-11132313473D

 41 43  0     0  0  0  0  0  0999 V2000
    6.5167   12.3341   25.3456 C   0  0  0  0  0  0  0  0  0  0  0  0
    7.7055   12.6799   24.6983 C   0  0  0  0  0  0  0  0  0  0  0  0
    6.1560   10.9897   25.4994 C   0  0  0  0  0  0  0  0  0  0  0  0
    8.5384   11.6763   24.2107 C   0  0  0  0  0  0  0  0  0  0  0  0
    8.1695   10.3336   24.3938 C   0  0  0  0  0  0  0  0  0  0  0  0
    6.9823    9.9768   25.0138 C   0  0  0  0  0  0  0  0  0  0  0  0
   10.8549   14.8646   22.5339 C   0  0  0  0  0  0  0  0  0  0  0  0
   10.2592   10.2294   23.3534 C   0  0  0  0  0  0  0  0  0  0  0  0
    9.9457   12.5141   22.0984 C   0  0  0  0  0  0  0  0  0  0  0  0
   11.0222   12.6738   23.9399 C   0  0  0  0  0  0  0  0  0  0  0  0
    9.8965   11.7397   23.4378 C   0  0  0  0  0  0  0  0  0  0  0  0
   13.2422   15.3039   21.3281 C   0  0  0  0  0  0  0  0  0  0  0  0
   12.0124   15.4525   19.1429 C   0  0  0  0  0  0  0  0  0  0  0  0
   11.8910   17.3549   20.7782 C   0  0  0  0  0  0  0  0  0  0  0  0
   11.9981   15.8389   20.6203 C   0  0  0  0  0  0  0  0  0  0  0  0
    9.0932    9.4662   23.8082 N   0  0  0  0  0  0  0  0  0  0  0  0
   10.7137   13.5252   22.8068 N   0  0  0  0  0  0  0  0  0  0  0  0
    6.6052    8.6282   25.1526 N   0  0  0  0  0  0  0  0  0  0  0  0
   11.0498   15.7087   23.4081 O   0  0  0  0  0  0  0  0  0  0  0  0
   10.8383   15.2340   21.2147 O   0  0  0  0  0  0  0  0  0  0  0  0
    5.8703   13.1136   25.7394 H   0  0  0  0  0  0  0  0  0  0  0  0
    7.9786   13.7241   24.5835 H   0  0  0  0  0  0  0  0  0  0  0  0
    5.2252   10.7465   26.0064 H   0  0  0  0  0  0  0  0  0  0  0  0
   10.4793    9.9384   22.3183 H   0  0  0  0  0  0  0  0  0  0  0  0
   11.1314    9.9768   23.9676 H   0  0  0  0  0  0  0  0  0  0  0  0
   10.4938   12.0393   21.2814 H   0  0  0  0  0  0  0  0  0  0  0  0
    8.9921   12.9037   21.7311 H   0  0  0  0  0  0  0  0  0  0  0  0
   10.8414   13.1780   24.8960 H   0  0  0  0  0  0  0  0  0  0  0  0
   12.0375   12.2655   23.9261 H   0  0  0  0  0  0  0  0  0  0  0  0
   13.2356   15.5792   22.3888 H   0  0  0  0  0  0  0  0  0  0  0  0
   13.3121   14.2139   21.2521 H   0  0  0  0  0  0  0  0  0  0  0  0
   14.1527   15.7397   20.9012 H   0  0  0  0  0  0  0  0  0  0  0  0
   11.1216   15.8343   18.6311 H   0  0  0  0  0  0  0  0  0  0  0  0
   11.9934   14.3631   19.0242 H   0  0  0  0  0  0  0  0  0  0  0  0
   12.8992   15.8415   18.6321 H   0  0  0  0  0  0  0  0  0  0  0  0
   10.9988   17.7389   20.2706 H   0  0  0  0  0  0  0  0  0  0  0  0
   11.8423   17.6483   21.8318 H   0  0  0  0  0  0  0  0  0  0  0  0
   12.7493   17.8564   20.3164 H   0  0  0  0  0  0  0  0  0  0  0  0
    9.1253    8.4793   24.0245 H   0  0  0  0  0  0  0  0  0  0  0  0
    5.7626    8.4020   25.6443 H   0  0  0  0  0  0  0  0  0  0  0  0
    7.2297    7.9094   24.8418 H   0  0  0  0  0  0  0  0  0  0  0  0
  1  2  2  0  0  0  0
  1  3  1  0  0  0  0
  2  4  1  0  0  0  0
  3  6  2  0  0  0  0
  4  5  2  0  0  0  0
  4 11  1  0  0  0  0
  5  6  1  0  0  0  0
  5 16  1  0  0  0  0
  6 18  1  0  0  0  0
  7 17  1  0  0  0  0
  7 19  2  0  0  0  0
  7 20  1  0  0  0  0
  8 11  1  0  0  0  0
  8 16  1  0  0  0  0
  9 11  1  0  0  0  0
  9 17  1  0  0  0  0
 10 11  1  0  0  0  0
 10 17  1  0  0  0  0
 12 15  1  0  0  0  0
 13 15  1  0  0  0  0
 14 15  1  0  0  0  0
 15 20  1  0  0  0  0
  1 21  1  0  0  0  0
  2 22  1  0  0  0  0
  3 23  1  0  0  0  0
  8 24  1  0  0  0  0
  8 25  1  0  0  0  0
  9 26  1  0  0  0  0
  9 27  1  0  0  0  0
 10 28  1  0  0  0  0
 10 29  1  0  0  0  0
 12 30  1  0  0  0  0
 12 31  1  0  0  0  0
 12 32  1  0  0  0  0
 13 33  1  0  0  0  0
 13 34  1  0  0  0  0
 13 35  1  0  0  0  0
 14 36  1  0  0  0  0
 14 37  1  0  0  0  0
 14 38  1  0  0  0  0
 16 39  1  0  0  0  0
 18 40  1  0  0  0  0
 18 41  1  0  0  0  0
M  END
> <id>
EN300-338942

> <smiles>
CC(C)(C)OC(=O)N1CC2(C1)CNC=3C2=CC=CC3N

> <MDLNUMBER>
MFCD30499982

> <IUPAC Name>
tert-butyl 7'-amino-1',2'-dihydrospiro[azetidine-3,3'-indole]-1-carboxylate

> <CAS>
2059939-35-2

> <URL>
https://www.enaminestore.com/catalog/EN300-338942

> <ROCS_ShapeQuery>
A71EV2A-x0451_0A_A71EV2A-x0310_0A_A71EV2A-x0416_0A_peptide

> <ROCS_TanimotoCombo>
0.479 

> <ROCS_ShapeTanimoto>
0.346 

> <ROCS_ColorTanimoto>
0.133 

> <ROCS_RefTversky>
0.302 

> <ROCS_RefColorTversky>
0.153 

> <ROCS_RefTverskyCombo>
0.455 

> <ROCS_FitTversky>
1.714 

> <ROCS_FitColorTversky>
0.507 

> <ROCS_FitTverskyCombo>
2.221 

> <ROCS_ColorScore>
-4.667

> <ROCS_Overlap>
2097.548

> <ROCS_Rank>
392                 

$$$$
untitled-dbase-1573_9
  -OEChem-11132313473D

 41 42  0     1  0  0  0  0  0999 V2000
    6.5644   11.3771   26.1979 C   0  0  0  0  0  0  0  0  0  0  0  0
    6.9177   12.6745   25.8612 C   0  0  0  0  0  0  0  0  0  0  0  0
    7.2204   10.3057   25.5947 C   0  0  0  0  0  0  0  0  0  0  0  0
    7.9144   12.8970   24.9121 C   0  0  0  0  0  0  0  0  0  0  0  0
    8.2444   10.5002   24.6438 C   0  0  0  0  0  0  0  0  0  0  0  0
    8.5831   11.8256   24.2842 C   0  0  0  0  0  0  0  0  0  0  0  0
   10.4489   13.1852   23.3999 C   0  0  0  0  0  0  0  0  0  0  0  0
   10.2863    9.9404   22.2394 C   0  0  0  0  0  0  0  0  0  0  0  0
   10.2499    9.4033   23.6616 C   0  0  0  0  0  0  0  0  0  0  0  0
    9.5343   11.2621   22.0275 C   0  0  1  0  0  0  0  0  0  0  0  0
    8.1375   11.0651   21.4171 C   0  0  0  0  0  0  0  0  0  0  0  0
   11.7149   15.6420   22.6402 C   0  0  0  0  0  0  0  0  0  0  0  0
   12.3955   14.4292   20.5485 C   0  0  0  0  0  0  0  0  0  0  0  0
    9.9605   14.7747   21.0577 C   0  0  0  0  0  0  0  0  0  0  0  0
   11.3468   14.5347   21.6537 C   0  0  0  0  0  0  0  0  0  0  0  0
    8.9050    9.3661   24.1863 N   0  0  0  0  0  0  0  0  0  0  0  0
    9.5312   12.1234   23.2377 N   0  0  0  0  0  0  0  0  0  0  0  0
   10.5001   13.9342   24.3745 O   0  0  0  0  0  0  0  0  0  0  0  0
   11.3318   13.2858   22.3550 O   0  0  0  0  0  0  0  0  0  0  0  0
    5.7852   11.1952   26.9317 H   0  0  0  0  0  0  0  0  0  0  0  0
    6.4074   13.5157   26.3209 H   0  0  0  0  0  0  0  0  0  0  0  0
    6.9408    9.2961   25.8925 H   0  0  0  0  0  0  0  0  0  0  0  0
    8.1182   13.9279   24.6317 H   0  0  0  0  0  0  0  0  0  0  0  0
   11.3410   10.0916   21.9742 H   0  0  0  0  0  0  0  0  0  0  0  0
    9.9083    9.1769   21.5479 H   0  0  0  0  0  0  0  0  0  0  0  0
   10.6564    8.3851   23.6617 H   0  0  0  0  0  0  0  0  0  0  0  0
   10.9048    9.9872   24.3205 H   0  0  0  0  0  0  0  0  0  0  0  0
   10.0833   11.7904   21.2391 H   0  0  0  0  0  0  0  0  0  0  0  0
    7.5050   10.5430   22.1282 H   0  0  0  0  0  0  0  0  0  0  0  0
    8.2225   10.4798   20.5069 H   0  0  0  0  0  0  0  0  0  0  0  0
    7.7054   12.0343   21.1882 H   0  0  0  0  0  0  0  0  0  0  0  0
   10.9646   15.7210   23.4350 H   0  0  0  0  0  0  0  0  0  0  0  0
   12.6920   15.4634   23.1009 H   0  0  0  0  0  0  0  0  0  0  0  0
   11.7405   16.6176   22.1413 H   0  0  0  0  0  0  0  0  0  0  0  0
   12.1355   13.6359   19.8384 H   0  0  0  0  0  0  0  0  0  0  0  0
   13.3744   14.1632   20.9635 H   0  0  0  0  0  0  0  0  0  0  0  0
   12.4967   15.3692   19.9965 H   0  0  0  0  0  0  0  0  0  0  0  0
    9.6962   13.9806   20.3500 H   0  0  0  0  0  0  0  0  0  0  0  0
    9.1895   14.8164   21.8339 H   0  0  0  0  0  0  0  0  0  0  0  0
    9.9365   15.7133   20.4923 H   0  0  0  0  0  0  0  0  0  0  0  0
    8.5036    8.4600   24.4011 H   0  0  0  0  0  0  0  0  0  0  0  0
  1  2  2  0  0  0  0
  1  3  1  0  0  0  0
  2  4  1  0  0  0  0
  3  5  2  0  0  0  0
  4  6  2  0  0  0  0
  5  6  1  0  0  0  0
  5 16  1  0  0  0  0
  6 17  1  0  0  0  0
  7 17  1  0  0  0  0
  7 18  2  0  0  0  0
  7 19  1  0  0  0  0
  8  9  1  0  0  0  0
  8 10  1  0  0  0  0
  9 16  1  0  0  0  0
 10 11  1  0  0  0  0
 10 17  1  0  0  0  0
 12 15  1  0  0  0  0
 13 15  1  0  0  0  0
 14 15  1  0  0  0  0
 15 19  1  0  0  0  0
  1 20  1  0  0  0  0
  2 21  1  0  0  0  0
  3 22  1  0  0  0  0
  4 23  1  0  0  0  0
  8 24  1  0  0  0  0
  8 25  1  0  0  0  0
  9 26  1  0  0  0  0
  9 27  1  0  0  0  0
 10 28  1  0  0  0  0
 11 29  1  0  0  0  0
 11 30  1  0  0  0  0
 11 31  1  0  0  0  0
 12 32  1  0  0  0  0
 12 33  1  0  0  0  0
 12 34  1  0  0  0  0
 13 35  1  0  0  0  0
 13 36  1  0  0  0  0
 13 37  1  0  0  0  0
 14 38  1  0  0  0  0
 14 39  1  0  0  0  0
 14 40  1  0  0  0  0
 16 41  1  0  0  0  0
M  END
> <id>
EN300-93207

> <smiles>
CC1CCNC=2C=CC=CC2N1C(=O)OC(C)(C)C

> <MDLNUMBER>
MFCD20502044

> <IUPAC Name>
tert-butyl 2-methyl-2,3,4,5-tetrahydro-1H-1,5-benzodiazepine-1-carboxylate

> <CAS>
1354954-18-9

> <Purity>
95

> <URL>
https://www.enaminestore.com/catalog/EN300-93207

> <ROCS_ShapeQuery>
A71EV2A-x0451_0A_A71EV2A-x0310_0A_A71EV2A-x0416_0A_peptide

> <ROCS_TanimotoCombo>
0.479 

> <ROCS_ShapeTanimoto>
0.336 

> <ROCS_ColorTanimoto>
0.143 

> <ROCS_RefTversky>
0.294 

> <ROCS_RefColorTversky>
0.151 

> <ROCS_RefTverskyCombo>
0.445 

> <ROCS_FitTversky>
1.748 

> <ROCS_FitColorTversky>
0.724 

> <ROCS_FitTverskyCombo>
2.472 

> <ROCS_ColorScore>
-4.588

> <ROCS_Overlap>
2037.789

> <ROCS_Rank>
393                 

$$$$
untitled-dbase-46524_8
  -OEChem-11132313473D

 33 34  0     0  0  0  0  0  0999 V2000
   10.4392   13.1151   23.4950 C   0  0  0  0  0  0  0  0  0  0  0  0
    8.4810   10.5900   25.2880 C   0  0  0  0  0  0  0  0  0  0  0  0
    7.3626   11.1277   23.6015 C   0  0  0  0  0  0  0  0  0  0  0  0
    9.7649   10.6891   23.1683 C   0  0  0  0  0  0  0  0  0  0  0  0
    8.5114   10.0753   23.8039 C   0  0  0  0  0  0  0  0  0  0  0  0
    8.3444   11.9610   24.5160 C   0  0  0  0  0  0  0  0  0  0  0  0
   12.3355   15.0422   22.5630 C   0  0  0  0  0  0  0  0  0  0  0  0
   12.0515   13.9616   20.3133 C   0  0  0  0  0  0  0  0  0  0  0  0
   10.0901   15.0675   21.4262 C   0  0  0  0  0  0  0  0  0  0  0  0
    7.8782   13.1980   25.2197 C   0  0  0  0  0  0  0  0  0  0  0  0
   11.3797   14.2783   21.6477 C   0  0  0  0  0  0  0  0  0  0  0  0
    9.5969   12.0426   23.7115 N   0  0  0  0  0  0  0  0  0  0  0  0
   10.6291   14.0346   24.2857 O   0  0  0  0  0  0  0  0  0  0  0  0
   11.0501   13.0320   22.2714 O   0  0  0  0  0  0  0  0  0  0  0  0
    8.7047   13.5220   26.2394 F   0  0  0  0  0  0  0  0  0  0  0  0
    7.8337   14.2536   24.3760 F   0  0  0  0  0  0  0  0  0  0  0  0
    6.6387   13.0309   25.7335 F   0  0  0  0  0  0  0  0  0  0  0  0
    7.6214   10.2807   25.8935 H   0  0  0  0  0  0  0  0  0  0  0  0
    9.3961   10.4464   25.8706 H   0  0  0  0  0  0  0  0  0  0  0  0
    7.2151   11.4953   22.5813 H   0  0  0  0  0  0  0  0  0  0  0  0
    6.3876   10.8739   24.0330 H   0  0  0  0  0  0  0  0  0  0  0  0
   10.6985   10.2507   23.5310 H   0  0  0  0  0  0  0  0  0  0  0  0
    9.7344   10.7142   22.0758 H   0  0  0  0  0  0  0  0  0  0  0  0
    8.2899    9.0254   23.6162 H   0  0  0  0  0  0  0  0  0  0  0  0
   11.8570   15.2714   23.5219 H   0  0  0  0  0  0  0  0  0  0  0  0
   13.2495   14.4718   22.7580 H   0  0  0  0  0  0  0  0  0  0  0  0
   12.6161   16.0045   22.1197 H   0  0  0  0  0  0  0  0  0  0  0  0
   11.3693   13.4135   19.6535 H   0  0  0  0  0  0  0  0  0  0  0  0
   12.9248   13.3157   20.4596 H   0  0  0  0  0  0  0  0  0  0  0  0
   12.3757   14.8716   19.7982 H   0  0  0  0  0  0  0  0  0  0  0  0
    9.4044   14.5198   20.7697 H   0  0  0  0  0  0  0  0  0  0  0  0
    9.5752   15.2720   22.3704 H   0  0  0  0  0  0  0  0  0  0  0  0
   10.2979   16.0219   20.9290 H   0  0  0  0  0  0  0  0  0  0  0  0
  1 12  1  0  0  0  0
  1 13  2  0  0  0  0
  1 14  1  0  0  0  0
  2  5  1  0  0  0  0
  2  6  1  0  0  0  0
  3  5  1  0  0  0  0
  3  6  1  0  0  0  0
  4  5  1  0  0  0  0
  4 12  1  0  0  0  0
  6 10  1  0  0  0  0
  6 12  1  0  0  0  0
  7 11  1  0  0  0  0
  8 11  1  0  0  0  0
  9 11  1  0  0  0  0
 10 15  1  0  0  0  0
 10 16  1  0  0  0  0
 10 17  1  0  0  0  0
 11 14  1  0  0  0  0
  2 18  1  0  0  0  0
  2 19  1  0  0  0  0
  3 20  1  0  0  0  0
  3 21  1  0  0  0  0
  4 22  1  0  0  0  0
  4 23  1  0  0  0  0
  5 24  1  0  0  0  0
  7 25  1  0  0  0  0
  7 26  1  0  0  0  0
  7 27  1  0  0  0  0
  8 28  1  0  0  0  0
  8 29  1  0  0  0  0
  8 30  1  0  0  0  0
  9 31  1  0  0  0  0
  9 32  1  0  0  0  0
  9 33  1  0  0  0  0
M  END
> <id>
EN300-7300976

> <smiles>
CC(C)(C)OC(=O)N1CC2CC1(C2)C(F)(F)F

> <MDLNUMBER>
MFCD34186724

> <IUPAC Name>
tert-butyl 1-(trifluoromethyl)-2-azabicyclo[2.1.1]hexane-2-carboxylate

> <CAS>
2680542-23-6

> <Purity>
95

> <URL>
https://www.enaminestore.com/catalog/EN300-7300976

> <ROCS_ShapeQuery>
A71EV2A-x0451_0A_A71EV2A-x0310_0A_A71EV2A-x0416_0A_peptide

> <ROCS_TanimotoCombo>
0.479 

> <ROCS_ShapeTanimoto>
0.293 

> <ROCS_ColorTanimoto>
0.186 

> <ROCS_RefTversky>
0.263 

> <ROCS_RefColorTversky>
0.208 

> <ROCS_RefTverskyCombo>
0.470 

> <ROCS_FitTversky>
1.654 

> <ROCS_FitColorTversky>
0.639 

> <ROCS_FitTverskyCombo>
2.293 

> <ROCS_ColorScore>
-6.345

> <ROCS_Overlap>
1820.413

> <ROCS_Rank>
394                 

$$$$
untitled-dbase-50003_8
  -OEChem-11132313473D

 33 34  0     0  0  0  0  0  0999 V2000
   10.4389   13.1152   23.4950 C   0  0  0  0  0  0  0  0  0  0  0  0
    8.4809   10.5897   25.2880 C   0  0  0  0  0  0  0  0  0  0  0  0
    7.3626   11.1278   23.6015 C   0  0  0  0  0  0  0  0  0  0  0  0
    9.7650   10.6892   23.1683 C   0  0  0  0  0  0  0  0  0  0  0  0
    8.5114   10.0753   23.8037 C   0  0  0  0  0  0  0  0  0  0  0  0
    8.3443   11.9609   24.5162 C   0  0  0  0  0  0  0  0  0  0  0  0
   12.3340   15.0431   22.5617 C   0  0  0  0  0  0  0  0  0  0  0  0
   12.0485   13.9627   20.3121 C   0  0  0  0  0  0  0  0  0  0  0  0
   10.0877   15.0679   21.4266 C   0  0  0  0  0  0  0  0  0  0  0  0
    7.8778   13.1978   25.2200 C   0  0  0  0  0  0  0  0  0  0  0  0
   11.3777   14.2790   21.6471 C   0  0  0  0  0  0  0  0  0  0  0  0
    9.5968   12.0427   23.7118 N   0  0  0  0  0  0  0  0  0  0  0  0
   10.6292   14.0347   24.2857 O   0  0  0  0  0  0  0  0  0  0  0  0
   11.0489   13.0325   22.2708 O   0  0  0  0  0  0  0  0  0  0  0  0
    8.7042   13.5217   26.2400 F   0  0  0  0  0  0  0  0  0  0  0  0
    7.8334   14.2535   24.3765 F   0  0  0  0  0  0  0  0  0  0  0  0
    6.6383   13.0305   25.7336 F   0  0  0  0  0  0  0  0  0  0  0  0
    7.6216   10.2798   25.8936 H   0  0  0  0  0  0  0  0  0  0  0  0
    9.3962   10.4460   25.8704 H   0  0  0  0  0  0  0  0  0  0  0  0
    7.2156   11.4955   22.5813 H   0  0  0  0  0  0  0  0  0  0  0  0
    6.3875   10.8736   24.0326 H   0  0  0  0  0  0  0  0  0  0  0  0
   10.6990   10.2507   23.5295 H   0  0  0  0  0  0  0  0  0  0  0  0
    9.7333   10.7149   22.0756 H   0  0  0  0  0  0  0  0  0  0  0  0
    8.2899    9.0254   23.6156 H   0  0  0  0  0  0  0  0  0  0  0  0
   11.8562   15.2721   23.5210 H   0  0  0  0  0  0  0  0  0  0  0  0
   13.2483   14.4729   22.7560 H   0  0  0  0  0  0  0  0  0  0  0  0
   12.6139   16.0055   22.1183 H   0  0  0  0  0  0  0  0  0  0  0  0
   11.3660   13.4145   19.6527 H   0  0  0  0  0  0  0  0  0  0  0  0
   12.9221   13.3170   20.4577 H   0  0  0  0  0  0  0  0  0  0  0  0
   12.3721   14.8728   19.7968 H   0  0  0  0  0  0  0  0  0  0  0  0
    9.4016   14.5200   20.7706 H   0  0  0  0  0  0  0  0  0  0  0  0
    9.5734   15.2721   22.3713 H   0  0  0  0  0  0  0  0  0  0  0  0
   10.2949   16.0224   20.9294 H   0  0  0  0  0  0  0  0  0  0  0  0
  1 12  1  0  0  0  0
  1 13  2  0  0  0  0
  1 14  1  0  0  0  0
  2  5  1  0  0  0  0
  2  6  1  0  0  0  0
  3  5  1  0  0  0  0
  3  6  1  0  0  0  0
  4  5  1  1  0  0  0
  4 12  1  0  0  0  0
  6 10  1  6  0  0  0
  6 12  1  0  0  0  0
  7 11  1  0  0  0  0
  8 11  1  0  0  0  0
  9 11  1  0  0  0  0
 10 15  1  0  0  0  0
 10 16  1  0  0  0  0
 10 17  1  0  0  0  0
 11 14  1  0  0  0  0
  2 18  1  0  0  0  0
  2 19  1  0  0  0  0
  3 20  1  0  0  0  0
  3 21  1  0  0  0  0
  4 22  1  0  0  0  0
  4 23  1  0  0  0  0
  5 24  1  0  0  0  0
  7 25  1  0  0  0  0
  7 26  1  0  0  0  0
  7 27  1  0  0  0  0
  8 28  1  0  0  0  0
  8 29  1  0  0  0  0
  8 30  1  0  0  0  0
  9 31  1  0  0  0  0
  9 32  1  0  0  0  0
  9 33  1  0  0  0  0
M  END
> <id>
EN300-37375486

> <smiles>
CC(C)(C)OC(=O)N1C[C@H]2C[C@@]1(C2)C(F)(F)F

> <IUPAC Name>
tert-butyl (1s)-1-(trifluoromethyl)-2-azabicyclo[2.1.1]hexane-2-carboxylate

> <CAS>
2680542-23-6

> <URL>
https://www.enaminestore.com/catalog/EN300-37375486

> <ROCS_ShapeQuery>
A71EV2A-x0451_0A_A71EV2A-x0310_0A_A71EV2A-x0416_0A_peptide

> <ROCS_TanimotoCombo>
0.479 

> <ROCS_ShapeTanimoto>
0.293 

> <ROCS_ColorTanimoto>
0.186 

> <ROCS_RefTversky>
0.263 

> <ROCS_RefColorTversky>
0.208 

> <ROCS_RefTverskyCombo>
0.470 

> <ROCS_FitTversky>
1.654 

> <ROCS_FitColorTversky>
0.639 

> <ROCS_FitTverskyCombo>
2.293 

> <ROCS_ColorScore>
-6.345

> <ROCS_Overlap>
1820.399

> <ROCS_Rank>
395                 

$$$$
untitled-dbase-42885_121
  -OEChem-11132313473D

 37 38  0     1  0  0  0  0  0999 V2000
    8.2766   12.9641   25.8064 C   0  0  0  0  0  0  0  0  0  0  0  0
    7.2095   12.9795   26.7107 C   0  0  0  0  0  0  0  0  0  0  0  0
    6.1527   11.2048   25.4911 C   0  0  0  0  0  0  0  0  0  0  0  0
    7.2308   11.1690   24.5893 C   0  0  0  0  0  0  0  0  0  0  0  0
    8.2929   12.0908   24.7054 C   0  0  0  0  0  0  0  0  0  0  0  0
    6.1399   12.1110   26.5449 C   0  0  0  0  0  0  0  0  0  0  0  0
   10.2700   13.1386   23.5002 C   0  0  0  0  0  0  0  0  0  0  0  0
    7.2107   10.1394   23.4910 C   0  0  0  0  0  0  0  0  0  0  0  0
    9.4927   10.9277   22.8356 C   0  0  0  0  0  0  0  0  0  0  0  0
    8.6308    9.7184   23.1565 C   0  0  1  0  0  0  0  0  0  0  0  0
   12.2832   14.9919   22.6474 C   0  0  0  0  0  0  0  0  0  0  0  0
   11.5998   14.3695   20.3118 C   0  0  0  0  0  0  0  0  0  0  0  0
    9.9438   15.4662   21.8491 C   0  0  0  0  0  0  0  0  0  0  0  0
   11.1353   14.5137   21.7594 C   0  0  0  0  0  0  0  0  0  0  0  0
    9.3637   12.0783   23.7412 N   0  0  0  0  0  0  0  0  0  0  0  0
   10.6856   13.8858   24.3874 O   0  0  0  0  0  0  0  0  0  0  0  0
    9.2133    9.0001   24.2421 O   0  0  0  0  0  0  0  0  0  0  0  0
   10.7191   13.2190   22.2102 O   0  0  0  0  0  0  0  0  0  0  0  0
    5.0982   12.1545   27.3852 F   0  0  0  0  0  0  0  0  0  0  0  0
    9.0608   13.6882   25.9897 H   0  0  0  0  0  0  0  0  0  0  0  0
    7.2127   13.6827   27.5383 H   0  0  0  0  0  0  0  0  0  0  0  0
    5.3155   10.5230   25.3732 H   0  0  0  0  0  0  0  0  0  0  0  0
    6.6392    9.2722   23.8107 H   0  0  0  0  0  0  0  0  0  0  0  0
    6.7451   10.5875   22.6170 H   0  0  0  0  0  0  0  0  0  0  0  0
   10.5498   10.5913   22.8122 H   0  0  0  0  0  0  0  0  0  0  0  0
    9.2763   11.3005   21.8111 H   0  0  0  0  0  0  0  0  0  0  0  0
    8.6151    9.0352   22.2972 H   0  0  0  0  0  0  0  0  0  0  0  0
   11.9538   15.0967   23.6873 H   0  0  0  0  0  0  0  0  0  0  0  0
   13.1306   14.2992   22.6191 H   0  0  0  0  0  0  0  0  0  0  0  0
   12.6344   15.9815   22.3332 H   0  0  0  0  0  0  0  0  0  0  0  0
   10.7793   14.0266   19.6711 H   0  0  0  0  0  0  0  0  0  0  0  0
   12.3915   13.6162   20.2291 H   0  0  0  0  0  0  0  0  0  0  0  0
   11.9788   15.3160   19.9129 H   0  0  0  0  0  0  0  0  0  0  0  0
    9.1203   15.1234   21.2123 H   0  0  0  0  0  0  0  0  0  0  0  0
    9.5736   15.5534   22.8757 H   0  0  0  0  0  0  0  0  0  0  0  0
   10.2162   16.4656   21.4911 H   0  0  0  0  0  0  0  0  0  0  0  0
    8.6556    8.2204   24.3870 H   0  0  0  0  0  0  0  0  0  0  0  0
  1  2  1  0  0  0  0
  1  5  2  0  0  0  0
  2  6  2  0  0  0  0
  3  4  2  0  0  0  0
  3  6  1  0  0  0  0
  4  5  1  0  0  0  0
  4  8  1  0  0  0  0
  5 15  1  0  0  0  0
  6 19  1  0  0  0  0
  7 15  1  0  0  0  0
  7 16  2  0  0  0  0
  7 18  1  0  0  0  0
  8 10  1  0  0  0  0
  9 10  1  0  0  0  0
  9 15  1  0  0  0  0
 10 17  1  0  0  0  0
 11 14  1  0  0  0  0
 12 14  1  0  0  0  0
 13 14  1  0  0  0  0
 14 18  1  0  0  0  0
  1 20  1  0  0  0  0
  2 21  1  0  0  0  0
  3 22  1  0  0  0  0
  8 23  1  0  0  0  0
  8 24  1  0  0  0  0
  9 25  1  0  0  0  0
  9 26  1  0  0  0  0
 10 27  1  0  0  0  0
 11 28  1  0  0  0  0
 11 29  1  0  0  0  0
 11 30  1  0  0  0  0
 12 31  1  0  0  0  0
 12 32  1  0  0  0  0
 12 33  1  0  0  0  0
 13 34  1  0  0  0  0
 13 35  1  0  0  0  0
 13 36  1  0  0  0  0
 17 37  1  0  0  0  0
M  END
> <id>
EN300-27718515

> <smiles>
CC(C)(C)OC(=O)N1CC(O)CC=2C=C(F)C=CC12

> <IUPAC Name>
tert-butyl 6-fluoro-3-hydroxy-1,2,3,4-tetrahydroquinoline-1-carboxylate

> <CAS>
2580199-38-6

> <URL>
https://www.enaminestore.com/catalog/EN300-27718515

> <ROCS_ShapeQuery>
A71EV2A-x0451_0A_A71EV2A-x0310_0A_A71EV2A-x0416_0A_peptide

> <ROCS_TanimotoCombo>
0.479 

> <ROCS_ShapeTanimoto>
0.332 

> <ROCS_ColorTanimoto>
0.146 

> <ROCS_RefTversky>
0.292 

> <ROCS_RefColorTversky>
0.158 

> <ROCS_RefTverskyCombo>
0.450 

> <ROCS_FitTversky>
1.728 

> <ROCS_FitColorTversky>
0.660 

> <ROCS_FitTverskyCombo>
2.389 

> <ROCS_ColorScore>
-4.814

> <ROCS_Overlap>
2022.983

> <ROCS_Rank>
396                 

$$$$
untitled-dbase-30651_11
  -OEChem-11132313473D

 40 41  0     1  0  0  0  0  0999 V2000
    7.0563   12.2042   25.8397 C   0  0  0  0  0  0  0  0  0  0  0  0
    8.0776   12.6675   25.0025 C   0  0  0  0  0  0  0  0  0  0  0  0
    6.6436   10.8822   25.7743 C   0  0  0  0  0  0  0  0  0  0  0  0
    8.2857   10.4747   24.0249 C   0  0  0  0  0  0  0  0  0  0  0  0
    8.7235   11.8183   24.0858 C   0  0  0  0  0  0  0  0  0  0  0  0
    7.2495   10.0241   24.8652 C   0  0  0  0  0  0  0  0  0  0  0  0
   10.4077   13.5438   23.3568 C   0  0  0  0  0  0  0  0  0  0  0  0
    8.8584    9.4798   23.0510 C   0  0  0  0  0  0  0  0  0  0  0  0
   10.2062    9.9292   22.5257 C   0  0  0  0  0  0  0  0  0  0  0  0
   10.1753   11.3924   22.0903 C   0  0  1  0  0  0  0  0  0  0  0  0
    9.2956   11.6326   20.8588 C   0  0  0  0  0  0  0  0  0  0  0  0
   13.1664   14.0595   22.7527 C   0  0  0  0  0  0  0  0  0  0  0  0
   12.3026   15.3313   20.7663 C   0  0  0  0  0  0  0  0  0  0  0  0
   11.7183   16.0906   23.0880 C   0  0  0  0  0  0  0  0  0  0  0  0
   12.0064   14.8839   22.1960 C   0  0  0  0  0  0  0  0  0  0  0  0
    9.7755   12.2871   23.2052 N   0  0  0  0  0  0  0  0  0  0  0  0
   10.5920   14.1432   24.4127 O   0  0  0  0  0  0  0  0  0  0  0  0
    6.8044    8.7343   24.8038 O   0  0  0  0  0  0  0  0  0  0  0  0
   10.8372   14.0567   22.1560 O   0  0  0  0  0  0  0  0  0  0  0  0
    6.5765   12.8883   26.5341 H   0  0  0  0  0  0  0  0  0  0  0  0
    8.3070   13.7235   25.0819 H   0  0  0  0  0  0  0  0  0  0  0  0
    5.8454   10.5309   26.4216 H   0  0  0  0  0  0  0  0  0  0  0  0
    8.9914    8.5024   23.5301 H   0  0  0  0  0  0  0  0  0  0  0  0
    8.1515    9.3483   22.2229 H   0  0  0  0  0  0  0  0  0  0  0  0
   10.9664    9.8079   23.3094 H   0  0  0  0  0  0  0  0  0  0  0  0
   10.5138    9.2846   21.6938 H   0  0  0  0  0  0  0  0  0  0  0  0
   11.2047   11.6373   21.8006 H   0  0  0  0  0  0  0  0  0  0  0  0
    8.2612   11.4016   21.0999 H   0  0  0  0  0  0  0  0  0  0  0  0
    9.6275   10.9936   20.0445 H   0  0  0  0  0  0  0  0  0  0  0  0
    9.3716   12.6735   20.5549 H   0  0  0  0  0  0  0  0  0  0  0  0
   12.9576   13.7364   23.7788 H   0  0  0  0  0  0  0  0  0  0  0  0
   13.3604   13.1721   22.1414 H   0  0  0  0  0  0  0  0  0  0  0  0
   14.0844   14.6566   22.7973 H   0  0  0  0  0  0  0  0  0  0  0  0
   11.4730   15.9232   20.3629 H   0  0  0  0  0  0  0  0  0  0  0  0
   12.4164   14.4668   20.1024 H   0  0  0  0  0  0  0  0  0  0  0  0
   13.2159   15.9326   20.7121 H   0  0  0  0  0  0  0  0  0  0  0  0
   10.8864   16.6821   22.6889 H   0  0  0  0  0  0  0  0  0  0  0  0
   11.4675   15.7865   24.1093 H   0  0  0  0  0  0  0  0  0  0  0  0
   12.5840   16.7617   23.1271 H   0  0  0  0  0  0  0  0  0  0  0  0
    6.0882    8.6000   25.4423 H   0  0  0  0  0  0  0  0  0  0  0  0
  1  2  1  0  0  0  0
  1  3  2  0  0  0  0
  2  5  2  0  0  0  0
  3  6  1  0  0  0  0
  4  5  1  0  0  0  0
  4  6  2  0  0  0  0
  4  8  1  0  0  0  0
  5 16  1  0  0  0  0
  6 18  1  0  0  0  0
  7 16  1  0  0  0  0
  7 17  2  0  0  0  0
  7 19  1  0  0  0  0
  8  9  1  0  0  0  0
  9 10  1  0  0  0  0
 10 11  1  0  0  0  0
 10 16  1  0  0  0  0
 12 15  1  0  0  0  0
 13 15  1  0  0  0  0
 14 15  1  0  0  0  0
 15 19  1  0  0  0  0
  1 20  1  0  0  0  0
  2 21  1  0  0  0  0
  3 22  1  0  0  0  0
  8 23  1  0  0  0  0
  8 24  1  0  0  0  0
  9 25  1  0  0  0  0
  9 26  1  0  0  0  0
 10 27  1  0  0  0  0
 11 28  1  0  0  0  0
 11 29  1  0  0  0  0
 11 30  1  0  0  0  0
 12 31  1  0  0  0  0
 12 32  1  0  0  0  0
 12 33  1  0  0  0  0
 13 34  1  0  0  0  0
 13 35  1  0  0  0  0
 13 36  1  0  0  0  0
 14 37  1  0  0  0  0
 14 38  1  0  0  0  0
 14 39  1  0  0  0  0
 18 40  1  0  0  0  0
M  END
> <id>
EN300-26664769

> <smiles>
CC1CCC=2C(O)=CC=CC2N1C(=O)OC(C)(C)C

> <IUPAC Name>
tert-butyl 5-hydroxy-2-methyl-1,2,3,4-tetrahydroquinoline-1-carboxylate

> <CAS>
2413883-64-2

> <URL>
https://www.enaminestore.com/catalog/EN300-26664769

> <ROCS_ShapeQuery>
A71EV2A-x0451_0A_A71EV2A-x0310_0A_A71EV2A-x0416_0A_peptide

> <ROCS_TanimotoCombo>
0.479 

> <ROCS_ShapeTanimoto>
0.335 

> <ROCS_ColorTanimoto>
0.144 

> <ROCS_RefTversky>
0.293 

> <ROCS_RefColorTversky>
0.156 

> <ROCS_RefTverskyCombo>
0.449 

> <ROCS_FitTversky>
1.741 

> <ROCS_FitColorTversky>
0.651 

> <ROCS_FitTverskyCombo>
2.393 

> <ROCS_ColorScore>
-4.746

> <ROCS_Overlap>
2032.536

> <ROCS_Rank>
397                 

$$$$
untitled-dbase-45500_2
  -OEChem-11132313473D

 38 39  0     1  0  0  0  0  0999 V2000
    7.9321   12.9683   25.1796 C   0  0  0  0  0  0  0  0  0  0  0  0
    6.9008   12.7449   26.0914 C   0  0  0  0  0  0  0  0  0  0  0  0
    6.9017   10.4199   25.4943 C   0  0  0  0  0  0  0  0  0  0  0  0
    8.4801   11.9195   24.4151 C   0  0  0  0  0  0  0  0  0  0  0  0
    7.9533   10.6054   24.5683 C   0  0  0  0  0  0  0  0  0  0  0  0
    6.3863   11.4707   26.2507 C   0  0  0  0  0  0  0  0  0  0  0  0
   10.2812   13.3507   23.3890 C   0  0  0  0  0  0  0  0  0  0  0  0
    9.7588   11.0833   22.4794 C   0  0  0  0  0  0  0  0  0  0  0  0
    9.7150    9.7179   23.1328 C   0  0  0  0  0  0  0  0  0  0  0  0
   12.7449   14.6861   22.7733 C   0  0  0  0  0  0  0  0  0  0  0  0
   11.8083   14.9529   20.4580 C   0  0  0  0  0  0  0  0  0  0  0  0
   10.6475   16.0286   22.4083 C   0  0  0  0  0  0  0  0  0  0  0  0
    7.9631    8.1752   24.0054 C   0  0  0  0  0  0  0  0  0  0  0  0
   11.4707   14.8287   21.9421 C   0  0  0  0  0  0  0  0  0  0  0  0
    9.5281   12.1599   23.4501 N   0  0  0  0  0  0  0  0  0  0  0  0
    8.4528    9.5341   23.8259 N   0  0  1  0  0  0  0  0  0  0  0  0
   10.5821   14.0684   24.3392 O   0  0  0  0  0  0  0  0  0  0  0  0
   10.6833   13.6433   22.1079 O   0  0  0  0  0  0  0  0  0  0  0  0
    4.9841   11.1609   27.4787 Br  0  0  0  0  0  0  0  0  0  0  0  0
    8.2513   13.9981   25.0670 H   0  0  0  0  0  0  0  0  0  0  0  0
    6.5053   13.5846   26.6570 H   0  0  0  0  0  0  0  0  0  0  0  0
    6.4723    9.4308   25.6417 H   0  0  0  0  0  0  0  0  0  0  0  0
   10.7318   11.1988   21.9915 H   0  0  0  0  0  0  0  0  0  0  0  0
    8.9935   11.1746   21.6982 H   0  0  0  0  0  0  0  0  0  0  0  0
    9.8455    8.9537   22.3574 H   0  0  0  0  0  0  0  0  0  0  0  0
   10.5466    9.6035   23.8398 H   0  0  0  0  0  0  0  0  0  0  0  0
   12.5069   14.5967   23.8393 H   0  0  0  0  0  0  0  0  0  0  0  0
   13.3269   13.8090   22.4722 H   0  0  0  0  0  0  0  0  0  0  0  0
   13.3794   15.5740   22.6717 H   0  0  0  0  0  0  0  0  0  0  0  0
   10.8969   15.0554   19.8578 H   0  0  0  0  0  0  0  0  0  0  0  0
   12.3162   14.0515   20.0964 H   0  0  0  0  0  0  0  0  0  0  0  0
   12.4520   15.8162   20.2609 H   0  0  0  0  0  0  0  0  0  0  0  0
    9.7335   16.1311   21.8122 H   0  0  0  0  0  0  0  0  0  0  0  0
   10.3647   15.9388   23.4621 H   0  0  0  0  0  0  0  0  0  0  0  0
   11.2087   16.9609   22.2766 H   0  0  0  0  0  0  0  0  0  0  0  0
    8.4957    7.4994   23.3200 H   0  0  0  0  0  0  0  0  0  0  0  0
    8.1380    7.8566   25.0436 H   0  0  0  0  0  0  0  0  0  0  0  0
    6.8852    8.1423   23.7884 H   0  0  0  0  0  0  0  0  0  0  0  0
  1  2  1  0  0  0  0
  1  4  2  0  0  0  0
  2  6  2  0  0  0  0
  3  5  2  0  0  0  0
  3  6  1  0  0  0  0
  4  5  1  0  0  0  0
  4 15  1  0  0  0  0
  5 16  1  0  0  0  0
  6 19  1  0  0  0  0
  7 15  1  0  0  0  0
  7 17  2  0  0  0  0
  7 18  1  0  0  0  0
  8  9  1  0  0  0  0
  8 15  1  0  0  0  0
  9 16  1  0  0  0  0
 10 14  1  0  0  0  0
 11 14  1  0  0  0  0
 12 14  1  0  0  0  0
 13 16  1  0  0  0  0
 14 18  1  0  0  0  0
  1 20  1  0  0  0  0
  2 21  1  0  0  0  0
  3 22  1  0  0  0  0
  8 23  1  0  0  0  0
  8 24  1  0  0  0  0
  9 25  1  0  0  0  0
  9 26  1  0  0  0  0
 10 27  1  0  0  0  0
 10 28  1  0  0  0  0
 10 29  1  0  0  0  0
 11 30  1  0  0  0  0
 11 31  1  0  0  0  0
 11 32  1  0  0  0  0
 12 33  1  0  0  0  0
 12 34  1  0  0  0  0
 12 35  1  0  0  0  0
 13 36  1  0  0  0  0
 13 37  1  0  0  0  0
 13 38  1  0  0  0  0
M  END
> <id>
EN300-28294966

> <smiles>
CN1CCN(C(=O)OC(C)(C)C)C=2C=CC(Br)=CC12

> <IUPAC Name>
tert-butyl 6-bromo-4-methyl-1,2,3,4-tetrahydroquinoxaline-1-carboxylate

> <CAS>
2044280-88-6

> <URL>
https://www.enaminestore.com/catalog/EN300-28294966

> <ROCS_ShapeQuery>
A71EV2A-x0451_0A_A71EV2A-x0310_0A_A71EV2A-x0416_0A_peptide

> <ROCS_TanimotoCombo>
0.479 

> <ROCS_ShapeTanimoto>
0.354 

> <ROCS_ColorTanimoto>
0.125 

> <ROCS_RefTversky>
0.305 

> <ROCS_RefColorTversky>
0.134 

> <ROCS_RefTverskyCombo>
0.439 

> <ROCS_FitTversky>
1.826 

> <ROCS_FitColorTversky>
0.642 

> <ROCS_FitTverskyCombo>
2.468 

> <ROCS_ColorScore>
-4.068

> <ROCS_Overlap>
2117.089

> <ROCS_Rank>
398                 

$$$$
untitled-dbase-30710_148
  -OEChem-11132313473D

 38 39  0     0  0  0  0  0  0999 V2000
    6.5924   10.6548   25.8372 C   0  0  0  0  0  0  0  0  0  0  0  0
    5.8714   11.7337   26.3441 C   0  0  0  0  0  0  0  0  0  0  0  0
    6.8933   13.1873   24.7042 C   0  0  0  0  0  0  0  0  0  0  0  0
    7.6272   12.1131   24.1821 C   0  0  0  0  0  0  0  0  0  0  0  0
    7.4801   10.8494   24.7763 C   0  0  0  0  0  0  0  0  0  0  0  0
    6.0251   12.9992   25.7817 C   0  0  0  0  0  0  0  0  0  0  0  0
   10.8772   12.9031   23.6704 C   0  0  0  0  0  0  0  0  0  0  0  0
    8.5208   12.3216   22.9867 C   0  0  0  0  0  0  0  0  0  0  0  0
   10.2264   10.5363   23.3035 C   0  0  0  0  0  0  0  0  0  0  0  0
    9.5597    9.8491   24.4899 C   0  0  0  0  0  0  0  0  0  0  0  0
   12.9203   14.8267   23.1078 C   0  0  0  0  0  0  0  0  0  0  0  0
   14.1773   12.9146   22.0719 C   0  0  0  0  0  0  0  0  0  0  0  0
   11.9650   13.6212   21.1156 C   0  0  0  0  0  0  0  0  0  0  0  0
   12.7962   13.4833   22.3903 C   0  0  0  0  0  0  0  0  0  0  0  0
    9.9121   11.9659   23.2807 N   0  0  0  0  0  0  0  0  0  0  0  0
   10.6318   13.9307   24.2996 O   0  0  0  0  0  0  0  0  0  0  0  0
    8.1422    9.7431   24.3061 O   0  0  0  0  0  0  0  0  0  0  0  0
    5.3192   14.0528   26.2766 O   0  0  0  0  0  0  0  0  0  0  0  0
   12.1399   12.5585   23.2648 O   0  0  0  0  0  0  0  0  0  0  0  0
    6.4666    9.6693   26.2773 H   0  0  0  0  0  0  0  0  0  0  0  0
    5.1896   11.5818   27.1763 H   0  0  0  0  0  0  0  0  0  0  0  0
    6.9903   14.1782   24.2660 H   0  0  0  0  0  0  0  0  0  0  0  0
    8.1686   11.7073   22.1490 H   0  0  0  0  0  0  0  0  0  0  0  0
    8.4699   13.3611   22.6458 H   0  0  0  0  0  0  0  0  0  0  0  0
   11.3104   10.3980   23.3658 H   0  0  0  0  0  0  0  0  0  0  0  0
    9.8826   10.1050   22.3566 H   0  0  0  0  0  0  0  0  0  0  0  0
    9.9364    8.8220   24.5528 H   0  0  0  0  0  0  0  0  0  0  0  0
    9.8141   10.3312   25.4438 H   0  0  0  0  0  0  0  0  0  0  0  0
   11.9311   15.2383   23.3380 H   0  0  0  0  0  0  0  0  0  0  0  0
   13.4846   14.7347   24.0415 H   0  0  0  0  0  0  0  0  0  0  0  0
   13.4218   15.5649   22.4716 H   0  0  0  0  0  0  0  0  0  0  0  0
   14.0931   11.9507   21.5571 H   0  0  0  0  0  0  0  0  0  0  0  0
   14.7428   12.7249   22.9914 H   0  0  0  0  0  0  0  0  0  0  0  0
   14.7588   13.5948   21.4413 H   0  0  0  0  0  0  0  0  0  0  0  0
   11.8759   12.6577   20.6007 H   0  0  0  0  0  0  0  0  0  0  0  0
   10.9578   13.9933   21.3292 H   0  0  0  0  0  0  0  0  0  0  0  0
   12.4467   14.3062   20.4085 H   0  0  0  0  0  0  0  0  0  0  0  0
    4.7573   13.7645   27.0133 H   0  0  0  0  0  0  0  0  0  0  0  0
  1  2  1  0  0  0  0
  1  5  2  0  0  0  0
  2  6  2  0  0  0  0
  3  4  2  0  0  0  0
  3  6  1  0  0  0  0
  4  5  1  0  0  0  0
  4  8  1  0  0  0  0
  5 17  1  0  0  0  0
  6 18  1  0  0  0  0
  7 15  1  0  0  0  0
  7 16  2  0  0  0  0
  7 19  1  0  0  0  0
  8 15  1  0  0  0  0
  9 10  1  0  0  0  0
  9 15  1  0  0  0  0
 10 17  1  0  0  0  0
 11 14  1  0  0  0  0
 12 14  1  0  0  0  0
 13 14  1  0  0  0  0
 14 19  1  0  0  0  0
  1 20  1  0  0  0  0
  2 21  1  0  0  0  0
  3 22  1  0  0  0  0
  8 23  1  0  0  0  0
  8 24  1  0  0  0  0
  9 25  1  0  0  0  0
  9 26  1  0  0  0  0
 10 27  1  0  0  0  0
 10 28  1  0  0  0  0
 11 29  1  0  0  0  0
 11 30  1  0  0  0  0
 11 31  1  0  0  0  0
 12 32  1  0  0  0  0
 12 33  1  0  0  0  0
 12 34  1  0  0  0  0
 13 35  1  0  0  0  0
 13 36  1  0  0  0  0
 13 37  1  0  0  0  0
 18 38  1  0  0  0  0
M  END
> <id>
EN300-295266

> <smiles>
CC(C)(C)OC(=O)N1CCOC=2C=CC(O)=CC2C1

> <MDLNUMBER>
MFCD14582642

> <IUPAC Name>
tert-butyl 7-hydroxy-2,3,4,5-tetrahydro-1,4-benzoxazepine-4-carboxylate

> <CAS>
1205748-93-1

> <URL>
https://www.enaminestore.com/catalog/EN300-295266

> <ROCS_ShapeQuery>
A71EV2A-x0451_0A_A71EV2A-x0310_0A_A71EV2A-x0416_0A_peptide

> <ROCS_TanimotoCombo>
0.479 

> <ROCS_ShapeTanimoto>
0.308 

> <ROCS_ColorTanimoto>
0.171 

> <ROCS_RefTversky>
0.275 

> <ROCS_RefColorTversky>
0.186 

> <ROCS_RefTverskyCombo>
0.460 

> <ROCS_FitTversky>
1.629 

> <ROCS_FitColorTversky>
0.686 

> <ROCS_FitTverskyCombo>
2.315 

> <ROCS_ColorScore>
-5.655

> <ROCS_Overlap>
1907.415

> <ROCS_Rank>
399                 

$$$$
untitled-dbase-34912_35
  -OEChem-11132313473D

 43 44  0     1  0  0  0  0  0999 V2000
   10.3325   13.3298   23.4656 C   0  0  0  0  0  0  0  0  0  0  0  0
    5.7414   13.1909   25.3554 C   0  0  0  0  0  0  0  0  0  0  0  0
    9.5858   11.0357   22.8054 C   0  0  0  0  0  0  0  0  0  0  0  0
    9.2810   11.8663   25.1690 C   0  0  0  0  0  0  0  0  0  0  0  0
    5.4808   12.6933   26.7695 C   0  0  0  0  0  0  0  0  0  0  0  0
    9.1394    9.6725   23.3360 C   0  0  0  0  0  0  0  0  0  0  0  0
    7.3817   11.3138   26.6881 C   0  0  0  0  0  0  0  0  0  0  0  0
    7.1595   10.7863   24.2071 C   0  0  0  0  0  0  0  0  0  0  0  0
    7.7363   11.7754   25.2535 C   0  0  2  0  0  0  0  0  0  0  0  0
   12.5128   14.8872   22.4617 C   0  0  0  0  0  0  0  0  0  0  0  0
   11.4913   14.5207   20.1964 C   0  0  0  0  0  0  0  0  0  0  0  0
   10.2087   15.7670   21.9599 C   0  0  0  0  0  0  0  0  0  0  0  0
   11.2142   14.6478   21.6928 C   0  0  0  0  0  0  0  0  0  0  0  0
    7.1682   13.1239   25.0284 N   0  0  0  0  0  0  0  0  0  0  0  0
    9.7764   12.0885   23.8097 N   0  0  0  0  0  0  0  0  0  0  0  0
   10.5193   14.2531   24.2556 O   0  0  0  0  0  0  0  0  0  0  0  0
    5.9723   11.3624   26.9212 O   0  0  0  0  0  0  0  0  0  0  0  0
    7.9402    9.6020   24.1047 O   0  0  0  0  0  0  0  0  0  0  0  0
   10.6456   13.4094   22.1330 O   0  0  0  0  0  0  0  0  0  0  0  0
    5.1772   12.5865   24.6366 H   0  0  0  0  0  0  0  0  0  0  0  0
    5.3873   14.2214   25.2434 H   0  0  0  0  0  0  0  0  0  0  0  0
   10.5192   10.9069   22.2172 H   0  0  0  0  0  0  0  0  0  0  0  0
    8.8494   11.4110   22.0627 H   0  0  0  0  0  0  0  0  0  0  0  0
    9.6506   12.6943   25.7851 H   0  0  0  0  0  0  0  0  0  0  0  0
    9.7460   10.9579   25.5628 H   0  0  0  0  0  0  0  0  0  0  0  0
    6.0058   13.3271   27.4904 H   0  0  0  0  0  0  0  0  0  0  0  0
    4.4139   12.7213   27.0185 H   0  0  0  0  0  0  0  0  0  0  0  0
    9.0486    8.9586   22.4905 H   0  0  0  0  0  0  0  0  0  0  0  0
    9.9401    9.2526   23.9783 H   0  0  0  0  0  0  0  0  0  0  0  0
    7.7368   10.2916   26.8809 H   0  0  0  0  0  0  0  0  0  0  0  0
    7.8554   11.9550   27.4398 H   0  0  0  0  0  0  0  0  0  0  0  0
    6.1608   10.4526   24.5286 H   0  0  0  0  0  0  0  0  0  0  0  0
    7.0145   11.2577   23.2216 H   0  0  0  0  0  0  0  0  0  0  0  0
   12.3181   14.9790   23.5363 H   0  0  0  0  0  0  0  0  0  0  0  0
   13.2293   14.0740   22.3064 H   0  0  0  0  0  0  0  0  0  0  0  0
   12.9834   15.8271   22.1514 H   0  0  0  0  0  0  0  0  0  0  0  0
   10.5623   14.3489   19.6408 H   0  0  0  0  0  0  0  0  0  0  0  0
   12.1376   13.6597   19.9909 H   0  0  0  0  0  0  0  0  0  0  0  0
   11.9731   15.4190   19.7970 H   0  0  0  0  0  0  0  0  0  0  0  0
    9.2771   15.5956   21.4085 H   0  0  0  0  0  0  0  0  0  0  0  0
    9.9697   15.8487   23.0252 H   0  0  0  0  0  0  0  0  0  0  0  0
   10.5988   16.7316   21.6156 H   0  0  0  0  0  0  0  0  0  0  0  0
    7.2791   13.3712   24.0487 H   0  0  0  0  0  0  0  0  0  0  0  0
  1 15  1  0  0  0  0
  1 16  2  0  0  0  0
  1 19  1  0  0  0  0
  2  5  1  0  0  0  0
  2 14  1  0  0  0  0
  3  6  1  0  0  0  0
  3 15  1  0  0  0  0
  4  9  1  0  0  0  0
  4 15  1  0  0  0  0
  5 17  1  0  0  0  0
  6 18  1  0  0  0  0
  7  9  1  0  0  0  0
  7 17  1  0  0  0  0
  8  9  1  0  0  0  0
  8 18  1  0  0  0  0
  9 14  1  0  0  0  0
 10 13  1  0  0  0  0
 11 13  1  0  0  0  0
 12 13  1  0  0  0  0
 13 19  1  0  0  0  0
  2 20  1  0  0  0  0
  2 21  1  0  0  0  0
  3 22  1  0  0  0  0
  3 23  1  0  0  0  0
  4 24  1  0  0  0  0
  4 25  1  0  0  0  0
  5 26  1  0  0  0  0
  5 27  1  0  0  0  0
  6 28  1  0  0  0  0
  6 29  1  0  0  0  0
  7 30  1  0  0  0  0
  7 31  1  0  0  0  0
  8 32  1  0  0  0  0
  8 33  1  0  0  0  0
 10 34  1  0  0  0  0
 10 35  1  0  0  0  0
 10 36  1  0  0  0  0
 11 37  1  0  0  0  0
 11 38  1  0  0  0  0
 11 39  1  0  0  0  0
 12 40  1  0  0  0  0
 12 41  1  0  0  0  0
 12 42  1  0  0  0  0
 14 43  1  0  0  0  0
M  END
> <id>
EN300-6745706

> <smiles>
CC(C)(C)OC(=O)N1CCOCC2(COCCN2)C1

> <MDLNUMBER>
MFCD18791691

> <IUPAC Name>
tert-butyl 4,8-dioxa-1,11-diazaspiro[5.6]dodecane-11-carboxylate

> <CAS>
1251000-86-8

> <Purity>
95

> <URL>
https://www.enaminestore.com/catalog/EN300-6745706

> <ROCS_ShapeQuery>
A71EV2A-x0451_0A_A71EV2A-x0310_0A_A71EV2A-x0416_0A_peptide

> <ROCS_TanimotoCombo>
0.478 

> <ROCS_ShapeTanimoto>
0.328 

> <ROCS_ColorTanimoto>
0.150 

> <ROCS_RefTversky>
0.288 

> <ROCS_RefColorTversky>
0.170 

> <ROCS_RefTverskyCombo>
0.458 

> <ROCS_FitTversky>
1.730 

> <ROCS_FitColorTversky>
0.564 

> <ROCS_FitTverskyCombo>
2.294 

> <ROCS_ColorScore>
-5.180

> <ROCS_Overlap>
2001.076

> <ROCS_Rank>
400                 

$$$$
untitled-dbase-47342_82
  -OEChem-11132313473D

 38 39  0     0  0  0  0  0  0999 V2000
    6.8402   10.5148   25.5419 C   0  0  0  0  0  0  0  0  0  0  0  0
    6.1501   11.6312   26.0031 C   0  0  0  0  0  0  0  0  0  0  0  0
    7.7094   13.0594   24.8340 C   0  0  0  0  0  0  0  0  0  0  0  0
    7.9675   10.6635   24.7182 C   0  0  0  0  0  0  0  0  0  0  0  0
    8.4468   11.9490   24.3918 C   0  0  0  0  0  0  0  0  0  0  0  0
    6.5768   12.9019   25.6378 C   0  0  0  0  0  0  0  0  0  0  0  0
   10.3950   13.2682   23.4584 C   0  0  0  0  0  0  0  0  0  0  0  0
    8.6685    9.4350   24.2086 C   0  0  0  0  0  0  0  0  0  0  0  0
    9.1916    9.7191   22.8129 C   0  0  0  0  0  0  0  0  0  0  0  0
   10.1168   10.9248   22.8352 C   0  0  0  0  0  0  0  0  0  0  0  0
   12.0108   15.5713   22.9214 C   0  0  0  0  0  0  0  0  0  0  0  0
   11.9362   14.8375   20.5203 C   0  0  0  0  0  0  0  0  0  0  0  0
    9.8109   15.4632   21.7034 C   0  0  0  0  0  0  0  0  0  0  0  0
   11.1967   14.8379   21.8565 C   0  0  0  0  0  0  0  0  0  0  0  0
    9.6264   12.0895   23.5810 N   0  0  0  0  0  0  0  0  0  0  0  0
    5.8563   14.0351   26.0702 N   0  0  0  0  0  0  0  0  0  0  0  0
   10.4832   14.1205   24.3431 O   0  0  0  0  0  0  0  0  0  0  0  0
   11.0385   13.4690   22.2641 O   0  0  0  0  0  0  0  0  0  0  0  0
    6.4941    9.5265   25.8281 H   0  0  0  0  0  0  0  0  0  0  0  0
    5.2773   11.4980   26.6382 H   0  0  0  0  0  0  0  0  0  0  0  0
    7.9619   14.0711   24.5476 H   0  0  0  0  0  0  0  0  0  0  0  0
    9.5022    9.1725   24.8521 H   0  0  0  0  0  0  0  0  0  0  0  0
    7.9607    8.6117   24.1826 H   0  0  0  0  0  0  0  0  0  0  0  0
    9.7332    8.8460   22.4226 H   0  0  0  0  0  0  0  0  0  0  0  0
    8.3509    9.9006   22.1315 H   0  0  0  0  0  0  0  0  0  0  0  0
   11.0902   10.5878   23.2446 H   0  0  0  0  0  0  0  0  0  0  0  0
   10.3364   11.2694   21.8024 H   0  0  0  0  0  0  0  0  0  0  0  0
   11.4834   15.5738   23.8820 H   0  0  0  0  0  0  0  0  0  0  0  0
   12.9938   15.1112   23.0656 H   0  0  0  0  0  0  0  0  0  0  0  0
   12.1575   16.6221   22.6466 H   0  0  0  0  0  0  0  0  0  0  0  0
   11.3557   14.3123   19.7533 H   0  0  0  0  0  0  0  0  0  0  0  0
   12.8911   14.3057   20.6029 H   0  0  0  0  0  0  0  0  0  0  0  0
   12.1353   15.8549   20.1684 H   0  0  0  0  0  0  0  0  0  0  0  0
    9.2268   14.9373   20.9396 H   0  0  0  0  0  0  0  0  0  0  0  0
    9.2513   15.4387   22.6441 H   0  0  0  0  0  0  0  0  0  0  0  0
    9.8880   16.5047   21.3711 H   0  0  0  0  0  0  0  0  0  0  0  0
    5.0175   13.9050   26.5974 H   0  0  0  0  0  0  0  0  0  0  0  0
    6.1440   14.9415   25.7633 H   0  0  0  0  0  0  0  0  0  0  0  0
  1  2  1  0  0  0  0
  1  4  2  0  0  0  0
  2  6  2  0  0  0  0
  3  5  2  0  0  0  0
  3  6  1  0  0  0  0
  4  5  1  0  0  0  0
  4  8  1  0  0  0  0
  5 15  1  0  0  0  0
  6 16  1  0  0  0  0
  7 15  1  0  0  0  0
  7 17  2  0  0  0  0
  7 18  1  0  0  0  0
  8  9  1  0  0  0  0
  9 10  1  0  0  0  0
 10 15  1  0  0  0  0
 11 14  1  0  0  0  0
 12 14  1  0  0  0  0
 13 14  1  0  0  0  0
 14 18  1  0  0  0  0
  1 19  1  0  0  0  0
  2 20  1  0  0  0  0
  3 21  1  0  0  0  0
  8 22  1  0  0  0  0
  8 23  1  0  0  0  0
  9 24  1  0  0  0  0
  9 25  1  0  0  0  0
 10 26  1  0  0  0  0
 10 27  1  0  0  0  0
 11 28  1  0  0  0  0
 11 29  1  0  0  0  0
 11 30  1  0  0  0  0
 12 31  1  0  0  0  0
 12 32  1  0  0  0  0
 12 33  1  0  0  0  0
 13 34  1  0  0  0  0
 13 35  1  0  0  0  0
 13 36  1  0  0  0  0
 16 37  1  0  0  0  0
 16 38  1  0  0  0  0
M  END
> <id>
EN300-75047

> <smiles>
CC(C)(C)OC(=O)N1CCCC=2C=CC(N)=CC12

> <MDLNUMBER>
MFCD10566742

> <IUPAC Name>
tert-butyl 7-amino-1,2,3,4-tetrahydroquinoline-1-carboxylate

> <CAS>
351324-70-4

> <Purity>
95

> <URL>
https://www.enaminestore.com/catalog/EN300-75047

> <ROCS_ShapeQuery>
A71EV2A-x0451_0A_A71EV2A-x0310_0A_A71EV2A-x0416_0A_peptide

> <ROCS_TanimotoCombo>
0.478 

> <ROCS_ShapeTanimoto>
0.341 

> <ROCS_ColorTanimoto>
0.137 

> <ROCS_RefTversky>
0.296 

> <ROCS_RefColorTversky>
0.150 

> <ROCS_RefTverskyCombo>
0.445 

> <ROCS_FitTversky>
1.824 

> <ROCS_FitColorTversky>
0.624 

> <ROCS_FitTverskyCombo>
2.448 

> <ROCS_ColorScore>
-4.550

> <ROCS_Overlap>
2050.287

> <ROCS_Rank>
401                 

$$$$
untitled-dbase-51179_24
  -OEChem-11132313473D

 37 38  0     0  0  0  0  0  0999 V2000
    9.3887   11.5871   23.8016 C   0  0  0  0  0  0  0  0  0  0  0  0
    8.3562   12.1696   24.5278 C   0  0  0  0  0  0  0  0  0  0  0  0
    9.2779   10.2216   23.5943 C   0  0  0  0  0  0  0  0  0  0  0  0
    7.3073   10.1498   24.7191 C   0  0  0  0  0  0  0  0  0  0  0  0
   11.1703   14.7549   22.7801 C   0  0  0  0  0  0  0  0  0  0  0  0
   10.5622   12.3651   23.2884 C   0  0  0  0  0  0  0  0  0  0  0  0
    8.3630   13.6501   24.7902 C   0  0  0  0  0  0  0  0  0  0  0  0
    9.7761   14.2215   24.7611 C   0  0  0  0  0  0  0  0  0  0  0  0
   12.5954   16.3004   20.8386 C   0  0  0  0  0  0  0  0  0  0  0  0
   11.6458   14.7074   19.1445 C   0  0  0  0  0  0  0  0  0  0  0  0
   10.1049   16.1460   20.5099 C   0  0  0  0  0  0  0  0  0  0  0  0
   10.3305    9.4752   22.8409 C   0  0  0  0  0  0  0  0  0  0  0  0
   11.4257   15.3778   20.4989 C   0  0  0  0  0  0  0  0  0  0  0  0
    7.2961   11.4683   24.9911 N   0  0  0  0  0  0  0  0  0  0  0  0
    8.2492    9.4721   24.0396 N   0  0  0  0  0  0  0  0  0  0  0  0
   10.4801   13.8093   23.5470 N   0  0  0  0  0  0  0  0  0  0  0  0
   11.5728   15.8355   23.2068 O   0  0  0  0  0  0  0  0  0  0  0  0
   11.3596   14.3431   21.4869 O   0  0  0  0  0  0  0  0  0  0  0  0
   11.3553   10.2662   22.4086 F   0  0  0  0  0  0  0  0  0  0  0  0
   10.9241    8.4866   23.5709 F   0  0  0  0  0  0  0  0  0  0  0  0
    9.8399    8.8649   21.7243 F   0  0  0  0  0  0  0  0  0  0  0  0
    5.9823    9.2406   25.2989 Cl  0  0  0  0  0  0  0  0  0  0  0  0
   11.4787   12.0162   23.7790 H   0  0  0  0  0  0  0  0  0  0  0  0
   10.6642   12.2046   22.2098 H   0  0  0  0  0  0  0  0  0  0  0  0
    7.7459   14.1405   24.0277 H   0  0  0  0  0  0  0  0  0  0  0  0
    7.9090   13.8543   25.7666 H   0  0  0  0  0  0  0  0  0  0  0  0
    9.7400   15.3127   24.8407 H   0  0  0  0  0  0  0  0  0  0  0  0
   10.3621   13.8507   25.6115 H   0  0  0  0  0  0  0  0  0  0  0  0
   12.4412   16.7836   21.8101 H   0  0  0  0  0  0  0  0  0  0  0  0
   13.5441   15.7547   20.8683 H   0  0  0  0  0  0  0  0  0  0  0  0
   12.6834   17.1076   20.1024 H   0  0  0  0  0  0  0  0  0  0  0  0
   10.8089   14.0446   18.8968 H   0  0  0  0  0  0  0  0  0  0  0  0
   12.5432   14.0784   19.1616 H   0  0  0  0  0  0  0  0  0  0  0  0
   11.7539   15.4441   18.3419 H   0  0  0  0  0  0  0  0  0  0  0  0
    9.2657   15.4845   20.2663 H   0  0  0  0  0  0  0  0  0  0  0  0
    9.9124   16.6033   21.4859 H   0  0  0  0  0  0  0  0  0  0  0  0
   10.1070   16.9356   19.7497 H   0  0  0  0  0  0  0  0  0  0  0  0
  1  2  1  0  0  0  0
  1  3  2  0  0  0  0
  1  6  1  0  0  0  0
  2  7  1  0  0  0  0
  2 14  2  0  0  0  0
  3 12  1  0  0  0  0
  3 15  1  0  0  0  0
  4 14  1  0  0  0  0
  4 15  2  0  0  0  0
  4 22  1  0  0  0  0
  5 16  1  0  0  0  0
  5 17  2  0  0  0  0
  5 18  1  0  0  0  0
  6 16  1  0  0  0  0
  7  8  1  0  0  0  0
  8 16  1  0  0  0  0
  9 13  1  0  0  0  0
 10 13  1  0  0  0  0
 11 13  1  0  0  0  0
 12 19  1  0  0  0  0
 12 20  1  0  0  0  0
 12 21  1  0  0  0  0
 13 18  1  0  0  0  0
  6 23  1  0  0  0  0
  6 24  1  0  0  0  0
  7 25  1  0  0  0  0
  7 26  1  0  0  0  0
  8 27  1  0  0  0  0
  8 28  1  0  0  0  0
  9 29  1  0  0  0  0
  9 30  1  0  0  0  0
  9 31  1  0  0  0  0
 10 32  1  0  0  0  0
 10 33  1  0  0  0  0
 10 34  1  0  0  0  0
 11 35  1  0  0  0  0
 11 36  1  0  0  0  0
 11 37  1  0  0  0  0
M  END
> <id>
EN300-26573106

> <smiles>
CC(C)(C)OC(=O)N1CCC=2N=C(Cl)N=C(C2C1)C(F)(F)F

> <IUPAC Name>
tert-butyl 2-chloro-4-(trifluoromethyl)-5H,6H,7H,8H-pyrido[4,3-d]pyrimidine-6-carboxylate

> <CAS>
2763932-14-3

> <Purity>
95

> <URL>
https://www.enaminestore.com/catalog/EN300-26573106

> <ROCS_ShapeQuery>
A71EV2A-x0451_0A_A71EV2A-x0310_0A_A71EV2A-x0416_0A_peptide

> <ROCS_TanimotoCombo>
0.478 

> <ROCS_ShapeTanimoto>
0.356 

> <ROCS_ColorTanimoto>
0.123 

> <ROCS_RefTversky>
0.312 

> <ROCS_RefColorTversky>
0.136 

> <ROCS_RefTverskyCombo>
0.447 

> <ROCS_FitTversky>
1.652 

> <ROCS_FitColorTversky>
0.565 

> <ROCS_FitTverskyCombo>
2.217 

> <ROCS_ColorScore>
-4.123

> <ROCS_Overlap>
2165.641

> <ROCS_Rank>
402                 

$$$$
untitled-dbase-30507_75
  -OEChem-11132313473D

 37 38  0     0  0  0  0  0  0999 V2000
    6.8502   10.5113   25.5369 C   0  0  0  0  0  0  0  0  0  0  0  0
    6.1599   11.6277   25.9979 C   0  0  0  0  0  0  0  0  0  0  0  0
    7.7183   13.0559   24.8273 C   0  0  0  0  0  0  0  0  0  0  0  0
    7.9770   10.6599   24.7126 C   0  0  0  0  0  0  0  0  0  0  0  0
    8.4558   11.9455   24.3853 C   0  0  0  0  0  0  0  0  0  0  0  0
    6.5861   12.8984   25.6318 C   0  0  0  0  0  0  0  0  0  0  0  0
   10.4032   13.2647   23.4504 C   0  0  0  0  0  0  0  0  0  0  0  0
    8.6782    9.4314   24.2034 C   0  0  0  0  0  0  0  0  0  0  0  0
    9.2005    9.7150   22.8073 C   0  0  0  0  0  0  0  0  0  0  0  0
   10.1254   10.9210   22.8285 C   0  0  0  0  0  0  0  0  0  0  0  0
   12.8637   14.7130   23.2231 C   0  0  0  0  0  0  0  0  0  0  0  0
   12.4251   14.7102   20.7499 C   0  0  0  0  0  0  0  0  0  0  0  0
   10.8223   15.8622   22.3029 C   0  0  0  0  0  0  0  0  0  0  0  0
   11.7884   14.6899   22.1378 C   0  0  0  0  0  0  0  0  0  0  0  0
    9.6350   12.0859   23.5739 N   0  0  0  0  0  0  0  0  0  0  0  0
   10.4915   14.1175   24.3346 O   0  0  0  0  0  0  0  0  0  0  0  0
    5.8898   13.9914   26.0476 O   0  0  0  0  0  0  0  0  0  0  0  0
   11.0460   13.4651   22.2557 O   0  0  0  0  0  0  0  0  0  0  0  0
    6.5039    9.5231   25.8234 H   0  0  0  0  0  0  0  0  0  0  0  0
    5.2866   11.4994   26.6325 H   0  0  0  0  0  0  0  0  0  0  0  0
    7.9664   14.0690   24.5435 H   0  0  0  0  0  0  0  0  0  0  0  0
    9.5124    9.1696   24.8465 H   0  0  0  0  0  0  0  0  0  0  0  0
    7.9705    8.6079   24.1786 H   0  0  0  0  0  0  0  0  0  0  0  0
    9.7422    8.8420   22.4167 H   0  0  0  0  0  0  0  0  0  0  0  0
    8.3593    9.8961   22.1264 H   0  0  0  0  0  0  0  0  0  0  0  0
   11.0984   10.5841   23.2391 H   0  0  0  0  0  0  0  0  0  0  0  0
   10.3457   11.2647   21.7955 H   0  0  0  0  0  0  0  0  0  0  0  0
   12.4107   14.6986   24.2209 H   0  0  0  0  0  0  0  0  0  0  0  0
   13.5423   13.8581   23.1369 H   0  0  0  0  0  0  0  0  0  0  0  0
   13.4569   15.6329   23.1663 H   0  0  0  0  0  0  0  0  0  0  0  0
   11.6572   14.6937   19.9680 H   0  0  0  0  0  0  0  0  0  0  0  0
   13.0455   13.8205   20.5920 H   0  0  0  0  0  0  0  0  0  0  0  0
   13.0489   15.5980   20.6045 H   0  0  0  0  0  0  0  0  0  0  0  0
   10.0509   15.8458   21.5245 H   0  0  0  0  0  0  0  0  0  0  0  0
   10.3281   15.8430   23.2797 H   0  0  0  0  0  0  0  0  0  0  0  0
   11.3479   16.8181   22.1973 H   0  0  0  0  0  0  0  0  0  0  0  0
    6.3068   14.8015   25.7143 H   0  0  0  0  0  0  0  0  0  0  0  0
  1  2  1  0  0  0  0
  1  4  2  0  0  0  0
  2  6  2  0  0  0  0
  3  5  2  0  0  0  0
  3  6  1  0  0  0  0
  4  5  1  0  0  0  0
  4  8  1  0  0  0  0
  5 15  1  0  0  0  0
  6 17  1  0  0  0  0
  7 15  1  0  0  0  0
  7 16  2  0  0  0  0
  7 18  1  0  0  0  0
  8  9  1  0  0  0  0
  9 10  1  0  0  0  0
 10 15  1  0  0  0  0
 11 14  1  0  0  0  0
 12 14  1  0  0  0  0
 13 14  1  0  0  0  0
 14 18  1  0  0  0  0
  1 19  1  0  0  0  0
  2 20  1  0  0  0  0
  3 21  1  0  0  0  0
  8 22  1  0  0  0  0
  8 23  1  0  0  0  0
  9 24  1  0  0  0  0
  9 25  1  0  0  0  0
 10 26  1  0  0  0  0
 10 27  1  0  0  0  0
 11 28  1  0  0  0  0
 11 29  1  0  0  0  0
 11 30  1  0  0  0  0
 12 31  1  0  0  0  0
 12 32  1  0  0  0  0
 12 33  1  0  0  0  0
 13 34  1  0  0  0  0
 13 35  1  0  0  0  0
 13 36  1  0  0  0  0
 17 37  1  0  0  0  0
M  END
> <id>
EN300-6898695

> <smiles>
CC(C)(C)OC(=O)N1CCCC=2C=CC(O)=CC12

> <MDLNUMBER>
MFCD08275031

> <IUPAC Name>
tert-butyl 7-hydroxy-1,2,3,4-tetrahydroquinoline-1-carboxylate

> <CAS>
676254-89-0

> <URL>
https://www.enaminestore.com/catalog/EN300-6898695

> <ROCS_ShapeQuery>
A71EV2A-x0451_0A_A71EV2A-x0310_0A_A71EV2A-x0416_0A_peptide

> <ROCS_TanimotoCombo>
0.478 

> <ROCS_ShapeTanimoto>
0.342 

> <ROCS_ColorTanimoto>
0.137 

> <ROCS_RefTversky>
0.296 

> <ROCS_RefColorTversky>
0.149 

> <ROCS_RefTverskyCombo>
0.445 

> <ROCS_FitTversky>
1.824 

> <ROCS_FitColorTversky>
0.622 

> <ROCS_FitTverskyCombo>
2.446 

> <ROCS_ColorScore>
-4.536

> <ROCS_Overlap>
2052.439

> <ROCS_Rank>
403                 

$$$$
untitled-dbase-26326_52
  -OEChem-11132313473D

 33 34  0     1  0  0  0  0  0999 V2000
   10.7567   12.9959   23.6415 C   0  0  0  0  0  0  0  0  0  0  0  0
   10.1331   10.5886   23.4352 C   0  0  0  0  0  0  0  0  0  0  0  0
    9.3583    9.7490   24.4409 C   0  0  0  0  0  0  0  0  0  0  0  0
    8.3748   12.2767   23.6805 C   0  0  2  0  0  0  0  0  0  0  0  0
    7.6505   12.2423   25.0073 C   0  0  2  0  0  0  0  0  0  0  0  0
    7.4074   11.1604   23.9870 C   0  0  2  0  0  0  0  0  0  0  0  0
   13.0637   14.6772   23.4694 C   0  0  0  0  0  0  0  0  0  0  0  0
   13.7880   13.1796   21.5874 C   0  0  0  0  0  0  0  0  0  0  0  0
   11.6662   14.5079   21.3830 C   0  0  0  0  0  0  0  0  0  0  0  0
   12.5935   13.7609   22.3406 C   0  0  0  0  0  0  0  0  0  0  0  0
    9.7848   11.9981   23.5896 N   0  0  0  0  0  0  0  0  0  0  0  0
    6.6044   13.2313   25.2863 N   0  0  0  0  0  0  0  0  0  0  0  0
   10.6386   14.0514   24.2597 O   0  0  0  0  0  0  0  0  0  0  0  0
    7.9460    9.8382   24.2463 O   0  0  0  0  0  0  0  0  0  0  0  0
   11.8706   12.6659   22.9139 O   0  0  0  0  0  0  0  0  0  0  0  0
   11.1975   10.5128   23.6265 H   0  0  0  0  0  0  0  0  0  0  0  0
    9.9240   10.2711   22.4228 H   0  0  0  0  0  0  0  0  0  0  0  0
    9.6686    8.6857   24.4066 H   0  0  0  0  0  0  0  0  0  0  0  0
    9.5744   10.0990   25.4667 H   0  0  0  0  0  0  0  0  0  0  0  0
    8.0356   12.9813   22.9268 H   0  0  0  0  0  0  0  0  0  0  0  0
    8.2331   11.9706   25.8798 H   0  0  0  0  0  0  0  0  0  0  0  0
    6.4449   11.1859   23.4457 H   0  0  0  0  0  0  0  0  0  0  0  0
   12.2092   15.0965   24.0125 H   0  0  0  0  0  0  0  0  0  0  0  0
   13.7014   14.1444   24.1823 H   0  0  0  0  0  0  0  0  0  0  0  0
   13.6262   15.5300   23.0722 H   0  0  0  0  0  0  0  0  0  0  0  0
   13.4552   12.5215   20.7766 H   0  0  0  0  0  0  0  0  0  0  0  0
   14.4057   12.5637   22.2510 H   0  0  0  0  0  0  0  0  0  0  0  0
   14.4174   13.9664   21.1592 H   0  0  0  0  0  0  0  0  0  0  0  0
   11.3288   13.8509   20.5733 H   0  0  0  0  0  0  0  0  0  0  0  0
   10.7844   14.9006   21.8996 H   0  0  0  0  0  0  0  0  0  0  0  0
   12.1906   15.3433   20.9051 H   0  0  0  0  0  0  0  0  0  0  0  0
    5.9907   12.8447   25.9614 H   0  0  0  0  0  0  0  0  0  0  0  0
    7.0430   14.0494   25.6332 H   0  0  0  0  0  0  0  0  0  0  0  0
  1 11  1  0  0  0  0
  1 13  2  0  0  0  0
  1 15  1  0  0  0  0
  2  3  1  0  0  0  0
  2 11  1  0  0  0  0
  3 14  1  0  0  0  0
  4  5  1  0  0  0  0
  4  6  1  0  0  0  0
  4 11  1  0  0  0  0
  5  6  1  0  0  0  0
  5 12  1  0  0  0  0
  6 14  1  0  0  0  0
  7 10  1  0  0  0  0
  8 10  1  0  0  0  0
  9 10  1  0  0  0  0
 10 15  1  0  0  0  0
  2 16  1  0  0  0  0
  2 17  1  0  0  0  0
  3 18  1  0  0  0  0
  3 19  1  0  0  0  0
  4 20  1  0  0  0  0
  5 21  1  0  0  0  0
  6 22  1  0  0  0  0
  7 23  1  0  0  0  0
  7 24  1  0  0  0  0
  7 25  1  0  0  0  0
  8 26  1  0  0  0  0
  8 27  1  0  0  0  0
  8 28  1  0  0  0  0
  9 29  1  0  0  0  0
  9 30  1  0  0  0  0
  9 31  1  0  0  0  0
 12 32  1  0  0  0  0
 12 33  1  0  0  0  0
M  END
> <id>
EN300-6766910

> <smiles>
CC(C)(C)OC(=O)N1CCOC2C(N)C21

> <MDLNUMBER>
MFCD31915134

> <IUPAC Name>
tert-butyl 7-amino-2-oxa-5-azabicyclo[4.1.0]heptane-5-carboxylate

> <CAS>
2309468-46-8

> <Purity>
95

> <URL>
https://www.enaminestore.com/catalog/EN300-6766910

> <ROCS_ShapeQuery>
A71EV2A-x0451_0A_A71EV2A-x0310_0A_A71EV2A-x0416_0A_peptide

> <ROCS_TanimotoCombo>
0.478 

> <ROCS_ShapeTanimoto>
0.272 

> <ROCS_ColorTanimoto>
0.206 

> <ROCS_RefTversky>
0.244 

> <ROCS_RefColorTversky>
0.227 

> <ROCS_RefTverskyCombo>
0.471 

> <ROCS_FitTversky>
1.715 

> <ROCS_FitColorTversky>
0.696 

> <ROCS_FitTverskyCombo>
2.411 

> <ROCS_ColorScore>
-6.935

> <ROCS_Overlap>
1691.171

> <ROCS_Rank>
404                 

$$$$
untitled-dbase-41485_7
  -OEChem-11132313473D

 37 38  0     0  0  0  0  0  0999 V2000
    8.7563    8.5627   22.9534 C   0  0  0  0  0  0  0  0  0  0  0  0
    8.6646    7.4268   22.5738 C   0  0  0  0  0  0  0  0  0  0  0  0
    7.9294   12.8049   25.3446 C   0  0  0  0  0  0  0  0  0  0  0  0
    6.8237   12.3874   26.0926 C   0  0  0  0  0  0  0  0  0  0  0  0
    6.9353   10.1810   25.1121 C   0  0  0  0  0  0  0  0  0  0  0  0
    9.8181   10.7983   22.9717 C   0  0  0  0  0  0  0  0  0  0  0  0
    8.8657    9.9097   23.4039 C   0  0  0  0  0  0  0  0  0  0  0  0
    8.0518   10.5792   24.3474 C   0  0  0  0  0  0  0  0  0  0  0  0
    8.5404   11.8873   24.4685 C   0  0  0  0  0  0  0  0  0  0  0  0
    6.3313   11.0935   25.9794 C   0  0  0  0  0  0  0  0  0  0  0  0
   10.4227   13.1630   23.4199 C   0  0  0  0  0  0  0  0  0  0  0  0
   12.9329   14.3269   22.7906 C   0  0  0  0  0  0  0  0  0  0  0  0
   12.1954   14.1671   20.3948 C   0  0  0  0  0  0  0  0  0  0  0  0
   10.8984   15.5867   22.0106 C   0  0  0  0  0  0  0  0  0  0  0  0
    8.5507    6.0444   22.1108 C   0  0  0  0  0  0  0  0  0  0  0  0
   11.7344   14.3188   21.8428 C   0  0  0  0  0  0  0  0  0  0  0  0
    9.6374   12.0134   23.6096 N   0  0  0  0  0  0  0  0  0  0  0  0
   10.5914   13.9766   24.3131 O   0  0  0  0  0  0  0  0  0  0  0  0
    9.8146    5.4026   22.2033 O   0  0  0  0  0  0  0  0  0  0  0  0
   10.9149   13.1882   22.1549 O   0  0  0  0  0  0  0  0  0  0  0  0
    5.2708   10.7173   26.7065 F   0  0  0  0  0  0  0  0  0  0  0  0
    8.2900   13.8215   25.4553 H   0  0  0  0  0  0  0  0  0  0  0  0
    6.3440   13.0873   26.7718 H   0  0  0  0  0  0  0  0  0  0  0  0
    6.5401    9.1719   25.0348 H   0  0  0  0  0  0  0  0  0  0  0  0
   10.6165   10.6593   22.2537 H   0  0  0  0  0  0  0  0  0  0  0  0
   12.6062   14.4356   23.8310 H   0  0  0  0  0  0  0  0  0  0  0  0
   13.5211   13.4074   22.7051 H   0  0  0  0  0  0  0  0  0  0  0  0
   13.5902   15.1789   22.5824 H   0  0  0  0  0  0  0  0  0  0  0  0
   11.3387   14.1608   19.7113 H   0  0  0  0  0  0  0  0  0  0  0  0
   12.7143   13.2129   20.2483 H   0  0  0  0  0  0  0  0  0  0  0  0
   12.8694   14.9773   20.0984 H   0  0  0  0  0  0  0  0  0  0  0  0
   10.0387   15.5811   21.3308 H   0  0  0  0  0  0  0  0  0  0  0  0
   10.5281   15.6930   23.0353 H   0  0  0  0  0  0  0  0  0  0  0  0
   11.4860   16.4770   21.7586 H   0  0  0  0  0  0  0  0  0  0  0  0
    7.8339    5.4888   22.7229 H   0  0  0  0  0  0  0  0  0  0  0  0
    8.2204    6.0115   21.0681 H   0  0  0  0  0  0  0  0  0  0  0  0
   10.4261    5.9038   21.6394 H   0  0  0  0  0  0  0  0  0  0  0  0
  1  2  3  0  0  0  0
  1  7  1  0  0  0  0
  2 15  1  0  0  0  0
  3  4  1  0  0  0  0
  3  9  2  0  0  0  0
  4 10  2  0  0  0  0
  5  8  2  0  0  0  0
  5 10  1  0  0  0  0
  6  7  2  0  0  0  0
  6 17  1  0  0  0  0
  7  8  1  0  0  0  0
  8  9  1  0  0  0  0
  9 17  1  0  0  0  0
 10 21  1  0  0  0  0
 11 17  1  0  0  0  0
 11 18  2  0  0  0  0
 11 20  1  0  0  0  0
 12 16  1  0  0  0  0
 13 16  1  0  0  0  0
 14 16  1  0  0  0  0
 15 19  1  0  0  0  0
 16 20  1  0  0  0  0
  3 22  1  0  0  0  0
  4 23  1  0  0  0  0
  5 24  1  0  0  0  0
  6 25  1  0  0  0  0
 12 26  1  0  0  0  0
 12 27  1  0  0  0  0
 12 28  1  0  0  0  0
 13 29  1  0  0  0  0
 13 30  1  0  0  0  0
 13 31  1  0  0  0  0
 14 32  1  0  0  0  0
 14 33  1  0  0  0  0
 14 34  1  0  0  0  0
 15 35  1  0  0  0  0
 15 36  1  0  0  0  0
 19 37  1  0  0  0  0
M  END
> <id>
EN300-697694

> <smiles>
CC(C)(C)OC(=O)N1C=C(C#CCO)C=2C=C(F)C=CC12

> <MDLNUMBER>
MFCD31431495

> <IUPAC Name>
tert-butyl 5-fluoro-3-(3-hydroxyprop-1-yn-1-yl)-1H-indole-1-carboxylate

> <CAS>
2138413-58-6

> <URL>
https://www.enaminestore.com/catalog/EN300-697694

> <ROCS_ShapeQuery>
A71EV2A-x0451_0A_A71EV2A-x0310_0A_A71EV2A-x0416_0A_peptide

> <ROCS_TanimotoCombo>
0.478 

> <ROCS_ShapeTanimoto>
0.347 

> <ROCS_ColorTanimoto>
0.131 

> <ROCS_RefTversky>
0.305 

> <ROCS_RefColorTversky>
0.143 

> <ROCS_RefTverskyCombo>
0.448 

> <ROCS_FitTversky>
1.676 

> <ROCS_FitColorTversky>
0.598 

> <ROCS_FitTverskyCombo>
2.274 

> <ROCS_ColorScore>
-4.365

> <ROCS_Overlap>
2114.735

> <ROCS_Rank>
405                 

$$$$
untitled-dbase-8410_5
  -OEChem-11132313473D

 39 40  0     0  0  0  0  0  0999 V2000
    7.9482   12.8042   25.3337 C   0  0  0  0  0  0  0  0  0  0  0  0
    6.8428   12.4153   26.0956 C   0  0  0  0  0  0  0  0  0  0  0  0
    6.9091   10.1901   25.1327 C   0  0  0  0  0  0  0  0  0  0  0  0
    8.0083   10.5794   24.3761 C   0  0  0  0  0  0  0  0  0  0  0  0
    8.5221   11.8755   24.4769 C   0  0  0  0  0  0  0  0  0  0  0  0
    6.3263   11.1172   25.9963 C   0  0  0  0  0  0  0  0  0  0  0  0
   10.3913   13.1754   23.4520 C   0  0  0  0  0  0  0  0  0  0  0  0
    9.8563   10.7587   22.9029 C   0  0  0  0  0  0  0  0  0  0  0  0
    8.7895    9.7453   23.3880 C   0  0  0  0  0  0  0  0  0  0  0  0
    7.9057    9.2819   22.2250 C   0  0  0  0  0  0  0  0  0  0  0  0
    9.4482    8.5425   24.0721 C   0  0  0  0  0  0  0  0  0  0  0  0
   12.9071   14.4012   22.8455 C   0  0  0  0  0  0  0  0  0  0  0  0
   12.1789   14.2809   20.4446 C   0  0  0  0  0  0  0  0  0  0  0  0
   10.8612   15.6537   22.0838 C   0  0  0  0  0  0  0  0  0  0  0  0
   11.7117   14.3986   21.8937 C   0  0  0  0  0  0  0  0  0  0  0  0
    9.6265   12.0285   23.6191 N   0  0  0  0  0  0  0  0  0  0  0  0
   10.6036   14.0305   24.3070 O   0  0  0  0  0  0  0  0  0  0  0  0
   10.9029   13.2519   22.1809 O   0  0  0  0  0  0  0  0  0  0  0  0
    4.8292   10.6199   27.0393 Br  0  0  0  0  0  0  0  0  0  0  0  0
    8.3218   13.8157   25.4350 H   0  0  0  0  0  0  0  0  0  0  0  0
    6.3901   13.1401   26.7684 H   0  0  0  0  0  0  0  0  0  0  0  0
    6.5173    9.1809   25.0477 H   0  0  0  0  0  0  0  0  0  0  0  0
   10.8812   10.4295   23.1132 H   0  0  0  0  0  0  0  0  0  0  0  0
    9.7913   10.9602   21.8267 H   0  0  0  0  0  0  0  0  0  0  0  0
    8.4963    8.6858   21.5340 H   0  0  0  0  0  0  0  0  0  0  0  0
    7.5064   10.1482   21.7037 H   0  0  0  0  0  0  0  0  0  0  0  0
    7.0846    8.6815   22.6086 H   0  0  0  0  0  0  0  0  0  0  0  0
   10.0013    7.9636   23.3369 H   0  0  0  0  0  0  0  0  0  0  0  0
    8.6826    7.9161   24.5228 H   0  0  0  0  0  0  0  0  0  0  0  0
   10.1297    8.8911   24.8439 H   0  0  0  0  0  0  0  0  0  0  0  0
   12.5759   14.4855   23.8868 H   0  0  0  0  0  0  0  0  0  0  0  0
   13.5057   13.4901   22.7437 H   0  0  0  0  0  0  0  0  0  0  0  0
   13.5556   15.2643   22.6565 H   0  0  0  0  0  0  0  0  0  0  0  0
   11.3245   14.2787   19.7582 H   0  0  0  0  0  0  0  0  0  0  0  0
   12.7088   13.3355   20.2809 H   0  0  0  0  0  0  0  0  0  0  0  0
   12.8448   15.1042   20.1666 H   0  0  0  0  0  0  0  0  0  0  0  0
   10.0038   15.6521   21.4012 H   0  0  0  0  0  0  0  0  0  0  0  0
   10.4865   15.7355   23.1093 H   0  0  0  0  0  0  0  0  0  0  0  0
   11.4397   16.5552   21.8516 H   0  0  0  0  0  0  0  0  0  0  0  0
  1  2  1  0  0  0  0
  1  5  2  0  0  0  0
  2  6  2  0  0  0  0
  3  4  2  0  0  0  0
  3  6  1  0  0  0  0
  4  5  1  0  0  0  0
  4  9  1  0  0  0  0
  5 16  1  0  0  0  0
  6 19  1  0  0  0  0
  7 16  1  0  0  0  0
  7 17  2  0  0  0  0
  7 18  1  0  0  0  0
  8  9  1  0  0  0  0
  8 16  1  0  0  0  0
  9 10  1  0  0  0  0
  9 11  1  0  0  0  0
 12 15  1  0  0  0  0
 13 15  1  0  0  0  0
 14 15  1  0  0  0  0
 15 18  1  0  0  0  0
  1 20  1  0  0  0  0
  2 21  1  0  0  0  0
  3 22  1  0  0  0  0
  8 23  1  0  0  0  0
  8 24  1  0  0  0  0
 10 25  1  0  0  0  0
 10 26  1  0  0  0  0
 10 27  1  0  0  0  0
 11 28  1  0  0  0  0
 11 29  1  0  0  0  0
 11 30  1  0  0  0  0
 12 31  1  0  0  0  0
 12 32  1  0  0  0  0
 12 33  1  0  0  0  0
 13 34  1  0  0  0  0
 13 35  1  0  0  0  0
 13 36  1  0  0  0  0
 14 37  1  0  0  0  0
 14 38  1  0  0  0  0
 14 39  1  0  0  0  0
M  END
> <id>
EN300-12442638

> <smiles>
CC(C)(C)OC(=O)N1CC(C)(C)C=2C=C(Br)C=CC12

> <MDLNUMBER>
MFCD18374763

> <IUPAC Name>
tert-butyl 5-bromo-3,3-dimethyl-2,3-dihydro-1H-indole-1-carboxylate

> <CAS>
1262409-50-6

> <URL>
https://www.enaminestore.com/catalog/EN300-12442638

> <ROCS_ShapeQuery>
A71EV2A-x0451_0A_A71EV2A-x0310_0A_A71EV2A-x0416_0A_peptide

> <ROCS_TanimotoCombo>
0.478 

> <ROCS_ShapeTanimoto>
0.348 

> <ROCS_ColorTanimoto>
0.130 

> <ROCS_RefTversky>
0.301 

> <ROCS_RefColorTversky>
0.143 

> <ROCS_RefTverskyCombo>
0.444 

> <ROCS_FitTversky>
1.803 

> <ROCS_FitColorTversky>
0.596 

> <ROCS_FitTverskyCombo>
2.399 

> <ROCS_ColorScore>
-4.350

> <ROCS_Overlap>
2089.002

> <ROCS_Rank>
406                 

$$$$
untitled-dbase-50538_5
  -OEChem-11132313473D

 31 32  0     0  0  0  0  0  0999 V2000
    8.7219   11.8196   24.2294 C   0  0  0  0  0  0  0  0  0  0  0  0
   10.4320   13.2729   23.4096 C   0  0  0  0  0  0  0  0  0  0  0  0
    9.8616    9.5319   23.0164 C   0  0  0  0  0  0  0  0  0  0  0  0
    8.3903    9.4788   23.4206 C   0  0  0  0  0  0  0  0  0  0  0  0
   10.2575   10.9219   22.5032 C   0  0  0  0  0  0  0  0  0  0  0  0
   12.7425   14.9229   23.0327 C   0  0  0  0  0  0  0  0  0  0  0  0
   12.0266   15.0584   20.6289 C   0  0  0  0  0  0  0  0  0  0  0  0
   10.5339   15.9695   22.4316 C   0  0  0  0  0  0  0  0  0  0  0  0
   11.5550   14.8912   22.0717 C   0  0  0  0  0  0  0  0  0  0  0  0
    8.1122   12.6102   25.0883 N   0  0  0  0  0  0  0  0  0  0  0  0
    7.0660   11.8733   25.6067 N   0  0  0  0  0  0  0  0  0  0  0  0
    7.0288   10.6548   25.0795 N   0  0  0  0  0  0  0  0  0  0  0  0
    8.0615   10.6250   24.2321 N   0  0  0  0  0  0  0  0  0  0  0  0
    9.8261   12.0096   23.4049 N   0  0  0  0  0  0  0  0  0  0  0  0
   10.5252   14.0161   24.3849 O   0  0  0  0  0  0  0  0  0  0  0  0
   10.9209   13.6109   22.1728 O   0  0  0  0  0  0  0  0  0  0  0  0
   10.4861    9.2877   23.8857 H   0  0  0  0  0  0  0  0  0  0  0  0
   10.0678    8.7745   22.2521 H   0  0  0  0  0  0  0  0  0  0  0  0
    7.7377    9.5113   22.5419 H   0  0  0  0  0  0  0  0  0  0  0  0
    8.1760    8.5716   23.9944 H   0  0  0  0  0  0  0  0  0  0  0  0
   11.3430   10.9657   22.3649 H   0  0  0  0  0  0  0  0  0  0  0  0
    9.7930   11.1158   21.5289 H   0  0  0  0  0  0  0  0  0  0  0  0
   12.4081   14.8032   24.0695 H   0  0  0  0  0  0  0  0  0  0  0  0
   13.4653   14.1321   22.8070 H   0  0  0  0  0  0  0  0  0  0  0  0
   13.2592   15.8883   22.9841 H   0  0  0  0  0  0  0  0  0  0  0  0
   11.1778   15.0363   19.9359 H   0  0  0  0  0  0  0  0  0  0  0  0
   12.6860   14.2335   20.3357 H   0  0  0  0  0  0  0  0  0  0  0  0
   12.5658   16.0006   20.4867 H   0  0  0  0  0  0  0  0  0  0  0  0
    9.6820   15.9470   21.7424 H   0  0  0  0  0  0  0  0  0  0  0  0
   10.1567   15.8434   23.4516 H   0  0  0  0  0  0  0  0  0  0  0  0
   10.9756   16.9689   22.3448 H   0  0  0  0  0  0  0  0  0  0  0  0
  1 10  2  0  0  0  0
  1 13  1  0  0  0  0
  1 14  1  0  0  0  0
  2 14  1  0  0  0  0
  2 15  2  0  0  0  0
  2 16  1  0  0  0  0
  3  4  1  0  0  0  0
  3  5  1  0  0  0  0
  4 13  1  0  0  0  0
  5 14  1  0  0  0  0
  6  9  1  0  0  0  0
  7  9  1  0  0  0  0
  8  9  1  0  0  0  0
  9 16  1  0  0  0  0
 10 11  1  0  0  0  0
 11 12  2  0  0  0  0
 12 13  1  0  0  0  0
  3 17  1  0  0  0  0
  3 18  1  0  0  0  0
  4 19  1  0  0  0  0
  4 20  1  0  0  0  0
  5 21  1  0  0  0  0
  5 22  1  0  0  0  0
  6 23  1  0  0  0  0
  6 24  1  0  0  0  0
  6 25  1  0  0  0  0
  7 26  1  0  0  0  0
  7 27  1  0  0  0  0
  7 28  1  0  0  0  0
  8 29  1  0  0  0  0
  8 30  1  0  0  0  0
  8 31  1  0  0  0  0
M  END
> <id>
EN300-6994905

> <smiles>
CC(C)(C)OC(=O)N1CCCN2N=NN=C12

> <MDLNUMBER>
MFCD32797305

> <IUPAC Name>
tert-butyl 4H,5H,6H,7H-[1,2,3,4]tetrazolo[1,5-a]pyrimidine-4-carboxylate

> <URL>
https://www.enaminestore.com/catalog/EN300-6994905

> <ROCS_ShapeQuery>
A71EV2A-x0451_0A_A71EV2A-x0310_0A_A71EV2A-x0416_0A_peptide

> <ROCS_TanimotoCombo>
0.478 

> <ROCS_ShapeTanimoto>
0.323 

> <ROCS_ColorTanimoto>
0.155 

> <ROCS_RefTversky>
0.282 

> <ROCS_RefColorTversky>
0.173 

> <ROCS_RefTverskyCombo>
0.455 

> <ROCS_FitTversky>
1.844 

> <ROCS_FitColorTversky>
0.594 

> <ROCS_FitTverskyCombo>
2.438 

> <ROCS_ColorScore>
-5.273

> <ROCS_Overlap>
1953.377

> <ROCS_Rank>
407                 

$$$$
untitled-dbase-34339_160
  -OEChem-11132313473D

 48 50  0     1  0  0  0  0  0999 V2000
    6.6110   11.9744   25.7694 C   0  0  0  0  0  0  0  0  0  0  0  0
    7.7997   10.8103   24.4611 C   0  0  0  0  0  0  0  0  0  0  0  0
    8.3822   12.0571   24.4686 C   0  0  0  0  0  0  0  0  0  0  0  0
   11.9049   15.8611   22.2485 C   0  0  0  0  0  0  0  0  0  0  0  0
    8.3381    9.6919   23.6589 C   0  0  0  0  0  0  0  0  0  0  0  0
    9.1665   13.4307   22.5348 C   0  0  0  0  0  0  0  0  0  0  0  0
   10.6029   13.2213   24.5763 C   0  0  0  0  0  0  0  0  0  0  0  0
    9.2987   10.2462   22.5840 C   0  0  0  0  0  0  0  0  0  0  0  0
   10.3593   13.9915   21.7668 C   0  0  0  0  0  0  0  0  0  0  0  0
   11.7759   13.9000   23.8403 C   0  0  1  0  0  0  0  0  0  0  0  0
    9.5865   12.4770   23.6743 C   0  0  1  0  0  0  0  0  0  0  0  0
   12.9159   12.9442   23.4806 C   0  0  0  0  0  0  0  0  0  0  0  0
   14.3209   15.4371   21.3141 C   0  0  0  0  0  0  0  0  0  0  0  0
   13.3817   15.5007   18.9854 C   0  0  0  0  0  0  0  0  0  0  0  0
   13.6448   17.6329   20.2865 C   0  0  0  0  0  0  0  0  0  0  0  0
   13.3421   16.1376   20.3728 C   0  0  0  0  0  0  0  0  0  0  0  0
    6.7041   10.7569   25.2745 N   0  0  0  0  0  0  0  0  0  0  0  0
    7.6027   12.8020   25.3065 N   0  0  0  0  0  0  0  0  0  0  0  0
   10.2412   11.2528   23.1187 N   0  0  0  0  0  0  0  0  0  0  0  0
   11.3246   14.6480   22.6499 N   0  0  0  0  0  0  0  0  0  0  0  0
   12.2750   16.7426   23.0221 O   0  0  0  0  0  0  0  0  0  0  0  0
   12.0160   15.9697   20.8870 O   0  0  0  0  0  0  0  0  0  0  0  0
    5.8579   12.3216   26.4626 H   0  0  0  0  0  0  0  0  0  0  0  0
    8.8656    8.9752   24.2965 H   0  0  0  0  0  0  0  0  0  0  0  0
    7.5066    9.1653   23.1763 H   0  0  0  0  0  0  0  0  0  0  0  0
    8.5897   14.2750   22.9369 H   0  0  0  0  0  0  0  0  0  0  0  0
    8.4956   12.9167   21.8331 H   0  0  0  0  0  0  0  0  0  0  0  0
   10.9921   12.5617   25.3628 H   0  0  0  0  0  0  0  0  0  0  0  0
   10.0649   14.0140   25.1186 H   0  0  0  0  0  0  0  0  0  0  0  0
    9.8545    9.4266   22.1133 H   0  0  0  0  0  0  0  0  0  0  0  0
    8.7024   10.7118   21.7911 H   0  0  0  0  0  0  0  0  0  0  0  0
   10.8929   13.2022   21.2259 H   0  0  0  0  0  0  0  0  0  0  0  0
    9.9992   14.6976   21.0108 H   0  0  0  0  0  0  0  0  0  0  0  0
   12.1950   14.5959   24.5482 H   0  0  0  0  0  0  0  0  0  0  0  0
   12.5632   12.2065   22.7629 H   0  0  0  0  0  0  0  0  0  0  0  0
   13.2637   12.4347   24.3767 H   0  0  0  0  0  0  0  0  0  0  0  0
   13.7399   13.5043   23.0436 H   0  0  0  0  0  0  0  0  0  0  0  0
   14.2955   15.8913   22.3111 H   0  0  0  0  0  0  0  0  0  0  0  0
   14.0932   14.3706   21.4120 H   0  0  0  0  0  0  0  0  0  0  0  0
   15.3510   15.5394   20.9540 H   0  0  0  0  0  0  0  0  0  0  0  0
   12.6809   16.0003   18.3067 H   0  0  0  0  0  0  0  0  0  0  0  0
   13.0729   14.4500   19.0293 H   0  0  0  0  0  0  0  0  0  0  0  0
   14.3836   15.5496   18.5468 H   0  0  0  0  0  0  0  0  0  0  0  0
   12.9429   18.1356   19.6114 H   0  0  0  0  0  0  0  0  0  0  0  0
   13.5846   18.1139   21.2682 H   0  0  0  0  0  0  0  0  0  0  0  0
   14.6461   17.8046   19.8753 H   0  0  0  0  0  0  0  0  0  0  0  0
    7.7294   13.7764   25.5464 H   0  0  0  0  0  0  0  0  0  0  0  0
   10.8564   10.8218   23.7998 H   0  0  0  0  0  0  0  0  0  0  0  0
  1 17  2  0  0  0  0
  1 18  1  0  0  0  0
  2  3  2  0  0  0  0
  2  5  1  0  0  0  0
  2 17  1  0  0  0  0
  3 11  1  0  0  0  0
  3 18  1  0  0  0  0
  4 20  1  0  0  0  0
  4 21  2  0  0  0  0
  4 22  1  0  0  0  0
  5  8  1  0  0  0  0
  6  9  1  0  0  0  0
  6 11  1  0  0  0  0
  7 10  1  0  0  0  0
  7 11  1  0  0  0  0
  8 19  1  0  0  0  0
  9 20  1  0  0  0  0
 10 12  1  0  0  0  0
 10 20  1  0  0  0  0
 11 19  1  0  0  0  0
 13 16  1  0  0  0  0
 14 16  1  0  0  0  0
 15 16  1  0  0  0  0
 16 22  1  0  0  0  0
  1 23  1  0  0  0  0
  5 24  1  0  0  0  0
  5 25  1  0  0  0  0
  6 26  1  0  0  0  0
  6 27  1  0  0  0  0
  7 28  1  0  0  0  0
  7 29  1  0  0  0  0
  8 30  1  0  0  0  0
  8 31  1  0  0  0  0
  9 32  1  0  0  0  0
  9 33  1  0  0  0  0
 10 34  1  0  0  0  0
 12 35  1  0  0  0  0
 12 36  1  0  0  0  0
 12 37  1  0  0  0  0
 13 38  1  0  0  0  0
 13 39  1  0  0  0  0
 13 40  1  0  0  0  0
 14 41  1  0  0  0  0
 14 42  1  0  0  0  0
 14 43  1  0  0  0  0
 15 44  1  0  0  0  0
 15 45  1  0  0  0  0
 15 46  1  0  0  0  0
 18 47  1  0  0  0  0
 19 48  1  0  0  0  0
M  END
> <id>
EN300-1076175

> <smiles>
CC1CC2(CCN1C(=O)OC(C)(C)C)NCCC=3N=CNC32

> <IUPAC Name>
tert-butyl 6'-methyl-3,5,6,7-tetrahydrospiro[imidazo[4,5-c]pyridine-4,4'-piperidine]-1'-carboxylate

> <CAS>
1999028-45-3

> <URL>
https://www.enaminestore.com/catalog/EN300-1076175

> <ROCS_ShapeQuery>
A71EV2A-x0451_0A_A71EV2A-x0310_0A_A71EV2A-x0416_0A_peptide

> <ROCS_TanimotoCombo>
0.478 

> <ROCS_ShapeTanimoto>
0.345 

> <ROCS_ColorTanimoto>
0.133 

> <ROCS_RefTversky>
0.305 

> <ROCS_RefColorTversky>
0.160 

> <ROCS_RefTverskyCombo>
0.465 

> <ROCS_FitTversky>
1.620 

> <ROCS_FitColorTversky>
0.441 

> <ROCS_FitTverskyCombo>
2.061 

> <ROCS_ColorScore>
-4.896

> <ROCS_Overlap>
2117.373

> <ROCS_Rank>
408                 

$$$$
untitled-dbase-25549_76
  -OEChem-11132313473D

 55 59  0     1  0  0  0  0  0999 V2000
   14.0626    9.4639   26.3137 C   0  0  0  0  0  0  0  0  0  0  0  0
    6.5907   11.6332   26.0055 C   0  0  0  0  0  0  0  0  0  0  0  0
    6.4148   12.5054   24.9213 C   0  0  0  0  0  0  0  0  0  0  0  0
   14.9438   10.5200   26.0823 C   0  0  0  0  0  0  0  0  0  0  0  0
   13.2520    8.9982   25.2832 C   0  0  0  0  0  0  0  0  0  0  0  0
    7.6729   10.7519   26.0397 C   0  0  0  0  0  0  0  0  0  0  0  0
    7.3210   12.5105   23.8591 C   0  0  0  0  0  0  0  0  0  0  0  0
   15.0245   11.1162   24.8189 C   0  0  0  0  0  0  0  0  0  0  0  0
   13.3261    9.6086   24.0294 C   0  0  0  0  0  0  0  0  0  0  0  0
    8.5738   10.7717   24.9869 C   0  0  0  0  0  0  0  0  0  0  0  0
    8.4054   11.6464   23.9092 C   0  0  0  0  0  0  0  0  0  0  0  0
   14.2148   10.6645   23.7754 C   0  0  0  0  0  0  0  0  0  0  0  0
   13.2037   14.2827   21.8637 C   0  0  0  0  0  0  0  0  0  0  0  0
   13.9544   13.5347   22.6851 C   0  0  0  0  0  0  0  0  0  0  0  0
   12.4727    9.0966   22.9493 C   0  0  0  0  0  0  0  0  0  0  0  0
   10.4397   13.7910   23.0524 C   0  0  0  0  0  0  0  0  0  0  0  0
    9.7612    9.8835   24.7911 C   0  0  0  0  0  0  0  0  0  0  0  0
   12.3374   15.4089   22.3426 C   0  0  0  0  0  0  0  0  0  0  0  0
   14.8299   12.4102   22.2224 C   0  0  0  0  0  0  0  0  0  0  0  0
    9.9360   16.2927   22.4321 C   0  0  0  0  0  0  0  0  0  0  0  0
   10.2882   15.1746   20.7180 C   0  0  0  0  0  0  0  0  0  0  0  0
    9.4912   11.4505   22.8881 C   0  0  2  0  0  0  0  0  0  0  0  0
   10.5365   10.6104   23.6680 C   0  0  2  0  0  0  0  0  0  0  0  0
   10.8449   15.0458   22.1732 C   0  0  0  0  0  0  0  0  0  0  0  0
   11.2153    9.6479   22.7974 N   0  0  0  0  0  0  0  0  0  0  0  0
   10.0254   12.6826   22.3182 N   0  0  0  0  0  0  0  0  0  0  0  0
    9.9472   16.5852   20.9867 N   0  0  0  0  0  0  0  0  0  0  0  0
   12.9319    8.2197   22.2217 O   0  0  0  0  0  0  0  0  0  0  0  0
   10.4768   13.8085   24.2890 O   0  0  0  0  0  0  0  0  0  0  0  0
   14.2166   11.1510   22.4970 O   0  0  0  0  0  0  0  0  0  0  0  0
   14.0149    9.0043   27.2954 H   0  0  0  0  0  0  0  0  0  0  0  0
    5.8746   11.6400   26.8225 H   0  0  0  0  0  0  0  0  0  0  0  0
    5.5616   13.1771   24.9054 H   0  0  0  0  0  0  0  0  0  0  0  0
   15.5751   10.8855   26.8910 H   0  0  0  0  0  0  0  0  0  0  0  0
   12.5901    8.1638   25.4691 H   0  0  0  0  0  0  0  0  0  0  0  0
    7.8010   10.0694   26.8741 H   0  0  0  0  0  0  0  0  0  0  0  0
    7.1681   13.1771   23.0171 H   0  0  0  0  0  0  0  0  0  0  0  0
   15.7237   11.9352   24.6641 H   0  0  0  0  0  0  0  0  0  0  0  0
   13.2179   14.0854   20.7948 H   0  0  0  0  0  0  0  0  0  0  0  0
   13.9567   13.7462   23.7492 H   0  0  0  0  0  0  0  0  0  0  0  0
   10.3715    9.7946   25.7037 H   0  0  0  0  0  0  0  0  0  0  0  0
    9.4292    8.8797   24.4783 H   0  0  0  0  0  0  0  0  0  0  0  0
   12.5743   15.6105   23.3952 H   0  0  0  0  0  0  0  0  0  0  0  0
   12.5523   16.3343   21.7917 H   0  0  0  0  0  0  0  0  0  0  0  0
   14.9941   12.5252   21.1309 H   0  0  0  0  0  0  0  0  0  0  0  0
   15.8274   12.4629   22.7107 H   0  0  0  0  0  0  0  0  0  0  0  0
    8.9333   16.1229   22.8443 H   0  0  0  0  0  0  0  0  0  0  0  0
   10.4000   17.0884   23.0370 H   0  0  0  0  0  0  0  0  0  0  0  0
   11.0295   15.0550   19.9116 H   0  0  0  0  0  0  0  0  0  0  0  0
    9.4251   14.5420   20.4664 H   0  0  0  0  0  0  0  0  0  0  0  0
    9.0492   10.8444   22.0476 H   0  0  0  0  0  0  0  0  0  0  0  0
   11.2860   11.2458   24.1193 H   0  0  0  0  0  0  0  0  0  0  0  0
   10.6702    9.3389   21.9463 H   0  0  0  0  0  0  0  0  0  0  0  0
   10.0884   12.7242   21.2952 H   0  0  0  0  0  0  0  0  0  0  0  0
    9.0293   16.8487   20.6258 H   0  0  0  0  0  0  0  0  0  0  0  0
  1  4  2  0  0  0  0
  1  5  1  0  0  0  0
  2  3  2  0  0  0  0
  2  6  1  0  0  0  0
  3  7  1  0  0  0  0
  4  8  1  0  0  0  0
  5  9  2  0  0  0  0
  6 10  2  0  0  0  0
  7 11  2  0  0  0  0
  8 12  2  0  0  0  0
  9 12  1  0  0  0  0
  9 15  1  0  0  0  0
 10 11  1  0  0  0  0
 10 17  1  0  0  0  0
 11 22  1  0  0  0  0
 12 30  1  0  0  0  0
 13 14  2  0  0  0  0
 13 18  1  0  0  0  0
 14 19  1  0  0  0  0
 15 25  1  0  0  0  0
 15 28  2  0  0  0  0
 16 24  1  0  0  0  0
 16 26  1  0  0  0  0
 16 29  2  0  0  0  0
 17 23  1  6  0  0  0
 18 24  1  0  0  0  0
 19 30  1  0  0  0  0
 20 24  1  0  0  0  0
 20 27  1  0  0  0  0
 21 24  1  0  0  0  0
 21 27  1  0  0  0  0
 22 23  1  0  0  0  0
 22 26  1  1  0  0  0
 23 25  1  0  0  0  0
  1 31  1  0  0  0  0
  2 32  1  0  0  0  0
  3 33  1  0  0  0  0
  4 34  1  0  0  0  0
  5 35  1  0  0  0  0
  6 36  1  0  0  0  0
  7 37  1  0  0  0  0
  8 38  1  0  0  0  0
 13 39  1  0  0  0  0
 14 40  1  0  0  0  0
 17 41  1  0  0  0  0
 17 42  1  0  0  0  0
 18 43  1  0  0  0  0
 18 44  1  0  0  0  0
 19 45  1  0  0  0  0
 19 46  1  0  0  0  0
 20 47  1  0  0  0  0
 20 48  1  0  0  0  0
 21 49  1  0  0  0  0
 21 50  1  0  0  0  0
 22 51  1  0  0  0  0
 23 52  1  0  0  0  0
 25 53  1  0  0  0  0
 26 54  1  0  0  0  0
 27 55  1  0  0  0  0
M  END
> <id>
EN300-6486916

> <smiles>
OC(=O)C(F)(F)F.O=C1N[C@@H]2CC=3C=CC=CC3[C@H]2NC(=O)C4(CNC4)C/C=C/COC=5C=CC=CC15

> <MDLNUMBER>
MFCD31736692

> <IUPAC Name>
(1'R,12'E,18'R)-10'-oxa-2',17'-diazaspiro[azetidine-3,15'-tetracyclo[16.7.0.0^{4,9}.0^{19,24}]pentacosane]-4'(9'),5',7',12',19'(24'),20',22'-heptaene-3',16'-dione; trifluoroacetic acid

> <URL>
https://www.enaminestore.com/catalog/EN300-6486916

> <Saltdate>
OC(=O)C(F)(F)F

> <ROCS_ShapeQuery>
A71EV2A-x0451_0A_A71EV2A-x0310_0A_A71EV2A-x0416_0A_peptide

> <ROCS_TanimotoCombo>
0.478 

> <ROCS_ShapeTanimoto>
0.295 

> <ROCS_ColorTanimoto>
0.183 

> <ROCS_RefTversky>
0.282 

> <ROCS_RefColorTversky>
0.215 

> <ROCS_RefTverskyCombo>
0.498 

> <ROCS_FitTversky>
1.180 

> <ROCS_FitColorTversky>
0.548 

> <ROCS_FitTverskyCombo>
1.728 

> <ROCS_ColorScore>
-6.603

> <ROCS_Overlap>
1967.355

> <ROCS_Rank>
409                 

$$$$
untitled-dbase-45851_224
  -OEChem-11132313473D

 45 47  0     0  0  0  0  0  0999 V2000
    6.5958   12.4744   25.7493 C   0  0  0  0  0  0  0  0  0  0  0  0
    6.3012   11.1399   26.0629 C   0  0  0  0  0  0  0  0  0  0  0  0
    7.6545   12.7858   24.8941 C   0  0  0  0  0  0  0  0  0  0  0  0
    7.0578   10.0992   25.5203 C   0  0  0  0  0  0  0  0  0  0  0  0
    8.3945   11.7457   24.3500 C   0  0  0  0  0  0  0  0  0  0  0  0
    8.0873   10.4138   24.6485 C   0  0  0  0  0  0  0  0  0  0  0  0
   12.0816   15.2438   22.3603 C   0  0  0  0  0  0  0  0  0  0  0  0
   10.8668   12.2181   24.2742 C   0  0  0  0  0  0  0  0  0  0  0  0
    9.4088   12.6891   22.2153 C   0  0  0  0  0  0  0  0  0  0  0  0
   11.1872   13.7044   24.1349 C   0  0  0  0  0  0  0  0  0  0  0  0
   10.7220   13.2763   21.7105 C   0  0  0  0  0  0  0  0  0  0  0  0
    9.7222   10.2802   23.0618 C   0  0  0  0  0  0  0  0  0  0  0  0
    9.6189   11.7956   23.4579 C   0  0  0  0  0  0  0  0  0  0  0  0
   13.7325   17.2653   21.1890 C   0  0  0  0  0  0  0  0  0  0  0  0
   13.5390   15.9343   19.0676 C   0  0  0  0  0  0  0  0  0  0  0  0
   11.4818   16.9232   20.1156 C   0  0  0  0  0  0  0  0  0  0  0  0
   12.8559   16.3096   20.3808 C   0  0  0  0  0  0  0  0  0  0  0  0
    8.9806    9.5212   24.0606 N   0  0  0  0  0  0  0  0  0  0  0  0
   11.3609   14.1050   22.7341 N   0  0  0  0  0  0  0  0  0  0  0  0
   12.1804   16.2583   23.0479 O   0  0  0  0  0  0  0  0  0  0  0  0
   12.6794   15.1051   21.1350 O   0  0  0  0  0  0  0  0  0  0  0  0
    6.0012   13.2728   26.1853 H   0  0  0  0  0  0  0  0  0  0  0  0
    5.4815   10.9151   26.7398 H   0  0  0  0  0  0  0  0  0  0  0  0
    7.8932   13.8216   24.6758 H   0  0  0  0  0  0  0  0  0  0  0  0
    6.8350    9.0688   25.7773 H   0  0  0  0  0  0  0  0  0  0  0  0
   11.7413   11.6285   23.9733 H   0  0  0  0  0  0  0  0  0  0  0  0
   10.7015   11.9987   25.3372 H   0  0  0  0  0  0  0  0  0  0  0  0
    8.7289   13.5156   22.4572 H   0  0  0  0  0  0  0  0  0  0  0  0
    8.9244   12.1233   21.4106 H   0  0  0  0  0  0  0  0  0  0  0  0
   10.3968   14.2908   24.6197 H   0  0  0  0  0  0  0  0  0  0  0  0
   12.1221   13.9550   24.6552 H   0  0  0  0  0  0  0  0  0  0  0  0
   11.4310   12.4817   21.4458 H   0  0  0  0  0  0  0  0  0  0  0  0
   10.5401   13.8604   20.8011 H   0  0  0  0  0  0  0  0  0  0  0  0
    9.2619   10.0985   22.0824 H   0  0  0  0  0  0  0  0  0  0  0  0
   10.7552    9.9243   23.0078 H   0  0  0  0  0  0  0  0  0  0  0  0
   13.2456   17.5371   22.1324 H   0  0  0  0  0  0  0  0  0  0  0  0
   14.7082   16.8234   21.4159 H   0  0  0  0  0  0  0  0  0  0  0  0
   13.8952   18.2021   20.6440 H   0  0  0  0  0  0  0  0  0  0  0  0
   12.9135   15.2487   18.4845 H   0  0  0  0  0  0  0  0  0  0  0  0
   14.4821   15.4082   19.2546 H   0  0  0  0  0  0  0  0  0  0  0  0
   13.7499   16.8170   18.4552 H   0  0  0  0  0  0  0  0  0  0  0  0
   10.8528   16.2379   19.5359 H   0  0  0  0  0  0  0  0  0  0  0  0
   10.9613   17.1650   21.0479 H   0  0  0  0  0  0  0  0  0  0  0  0
   11.5723   17.8386   19.5198 H   0  0  0  0  0  0  0  0  0  0  0  0
    8.7738    8.5392   23.9681 H   0  0  0  0  0  0  0  0  0  0  0  0
  1  2  2  0  0  0  0
  1  3  1  0  0  0  0
  2  4  1  0  0  0  0
  3  5  2  0  0  0  0
  4  6  2  0  0  0  0
  5  6  1  0  0  0  0
  5 13  1  0  0  0  0
  6 18  1  0  0  0  0
  7 19  1  0  0  0  0
  7 20  2  0  0  0  0
  7 21  1  0  0  0  0
  8 10  1  0  0  0  0
  8 13  1  0  0  0  0
  9 11  1  0  0  0  0
  9 13  1  0  0  0  0
 10 19  1  0  0  0  0
 11 19  1  0  0  0  0
 12 13  1  0  0  0  0
 12 18  1  0  0  0  0
 14 17  1  0  0  0  0
 15 17  1  0  0  0  0
 16 17  1  0  0  0  0
 17 21  1  0  0  0  0
  1 22  1  0  0  0  0
  2 23  1  0  0  0  0
  3 24  1  0  0  0  0
  4 25  1  0  0  0  0
  8 26  1  0  0  0  0
  8 27  1  0  0  0  0
  9 28  1  0  0  0  0
  9 29  1  0  0  0  0
 10 30  1  0  0  0  0
 10 31  1  0  0  0  0
 11 32  1  0  0  0  0
 11 33  1  0  0  0  0
 12 34  1  0  0  0  0
 12 35  1  0  0  0  0
 14 36  1  0  0  0  0
 14 37  1  0  0  0  0
 14 38  1  0  0  0  0
 15 39  1  0  0  0  0
 15 40  1  0  0  0  0
 15 41  1  0  0  0  0
 16 42  1  0  0  0  0
 16 43  1  0  0  0  0
 16 44  1  0  0  0  0
 18 45  1  0  0  0  0
M  END
> <id>
EN300-268905

> <smiles>
CC(C)(C)OC(=O)N1CCC2(CNC=3C=CC=CC32)CC1

> <MDLNUMBER>
MFCD09953258

> <IUPAC Name>
tert-butyl 1,2-dihydrospiro[indole-3,4'-piperidine]-1'-carboxylate

> <CAS>
180465-84-3

> <Purity>
95

> <URL>
https://www.enaminestore.com/catalog/EN300-268905

> <MP>
173-174

> <ROCS_ShapeQuery>
A71EV2A-x0451_0A_A71EV2A-x0310_0A_A71EV2A-x0416_0A_peptide

> <ROCS_TanimotoCombo>
0.478 

> <ROCS_ShapeTanimoto>
0.348 

> <ROCS_ColorTanimoto>
0.130 

> <ROCS_RefTversky>
0.305 

> <ROCS_RefColorTversky>
0.143 

> <ROCS_RefTverskyCombo>
0.448 

> <ROCS_FitTversky>
1.676 

> <ROCS_FitColorTversky>
0.595 

> <ROCS_FitTverskyCombo>
2.271 

> <ROCS_ColorScore>
-4.345

> <ROCS_Overlap>
2117.194

> <ROCS_Rank>
410                 

$$$$
untitled-dbase-45352_21
  -OEChem-11132313473D

 45 46  0     1  0  0  0  0  0999 V2000
    7.9752   12.9795   25.1834 C   0  0  0  0  0  0  0  0  0  0  0  0
    6.9270   12.7951   26.0875 C   0  0  0  0  0  0  0  0  0  0  0  0
    6.8567   10.4745   25.5002 C   0  0  0  0  0  0  0  0  0  0  0  0
    7.9339   10.6322   24.6002 C   0  0  0  0  0  0  0  0  0  0  0  0
    8.5206   11.9103   24.4402 C   0  0  0  0  0  0  0  0  0  0  0  0
    6.3696   11.5397   26.2503 C   0  0  0  0  0  0  0  0  0  0  0  0
   10.2617   13.3741   23.3865 C   0  0  0  0  0  0  0  0  0  0  0  0
    9.7042    9.6937   23.0940 C   0  0  0  0  0  0  0  0  0  0  0  0
    8.3591    9.4400   23.7655 C   0  0  1  0  0  0  0  0  0  0  0  0
    9.8165   11.0846   22.4385 C   0  0  0  0  0  0  0  0  0  0  0  0
    8.4540    8.1218   24.5500 C   0  0  0  0  0  0  0  0  0  0  0  0
   11.2510   11.1295   21.8460 C   0  0  0  0  0  0  0  0  0  0  0  0
    8.8173   11.2580   21.2795 C   0  0  0  0  0  0  0  0  0  0  0  0
   12.8386   13.9480   22.2744 C   0  0  0  0  0  0  0  0  0  0  0  0
   11.5799   14.9818   20.3623 C   0  0  0  0  0  0  0  0  0  0  0  0
   11.3464   15.9350   22.6742 C   0  0  0  0  0  0  0  0  0  0  0  0
   11.5542   14.6618   21.8553 C   0  0  0  0  0  0  0  0  0  0  0  0
    9.5851   12.1386   23.4758 N   0  0  0  0  0  0  0  0  0  0  0  0
   10.5797   14.0696   24.3489 O   0  0  0  0  0  0  0  0  0  0  0  0
   10.4473   13.7832   22.0894 O   0  0  0  0  0  0  0  0  0  0  0  0
    4.9789   11.2701   27.4985 Br  0  0  0  0  0  0  0  0  0  0  0  0
    8.3831   13.9875   25.1042 H   0  0  0  0  0  0  0  0  0  0  0  0
    6.5671   13.6491   26.6566 H   0  0  0  0  0  0  0  0  0  0  0  0
    6.3925    9.4965   25.6247 H   0  0  0  0  0  0  0  0  0  0  0  0
   10.5119    9.5666   23.8439 H   0  0  0  0  0  0  0  0  0  0  0  0
    9.8990    8.9080   22.3386 H   0  0  0  0  0  0  0  0  0  0  0  0
    7.5680    9.2713   23.0028 H   0  0  0  0  0  0  0  0  0  0  0  0
    9.2148    8.2118   25.3209 H   0  0  0  0  0  0  0  0  0  0  0  0
    8.7198    7.3144   23.8728 H   0  0  0  0  0  0  0  0  0  0  0  0
    7.4948    7.9046   25.0126 H   0  0  0  0  0  0  0  0  0  0  0  0
   11.4019   12.0876   21.3651 H   0  0  0  0  0  0  0  0  0  0  0  0
   11.3567   10.3307   21.1229 H   0  0  0  0  0  0  0  0  0  0  0  0
   11.9660   11.0005   22.6487 H   0  0  0  0  0  0  0  0  0  0  0  0
    8.9399   12.2473   20.8588 H   0  0  0  0  0  0  0  0  0  0  0  0
    7.8132   11.1387   21.6644 H   0  0  0  0  0  0  0  0  0  0  0  0
    9.0206   10.5059   20.5287 H   0  0  0  0  0  0  0  0  0  0  0  0
   12.8241   13.7166   23.3455 H   0  0  0  0  0  0  0  0  0  0  0  0
   12.9814   13.0153   21.7190 H   0  0  0  0  0  0  0  0  0  0  0  0
   13.7133   14.5872   22.1081 H   0  0  0  0  0  0  0  0  0  0  0  0
   10.6602   15.4940   20.0572 H   0  0  0  0  0  0  0  0  0  0  0  0
   11.6335   14.0630   19.7671 H   0  0  0  0  0  0  0  0  0  0  0  0
   12.4332   15.6154   20.0995 H   0  0  0  0  0  0  0  0  0  0  0  0
   10.4252   16.4472   22.3738 H   0  0  0  0  0  0  0  0  0  0  0  0
   11.2885   15.7201   23.7462 H   0  0  0  0  0  0  0  0  0  0  0  0
   12.1641   16.6449   22.5050 H   0  0  0  0  0  0  0  0  0  0  0  0
  1  2  1  0  0  0  0
  1  5  2  0  0  0  0
  2  6  2  0  0  0  0
  3  4  2  0  0  0  0
  3  6  1  0  0  0  0
  4  5  1  0  0  0  0
  4  9  1  0  0  0  0
  5 18  1  0  0  0  0
  6 21  1  0  0  0  0
  7 18  1  0  0  0  0
  7 19  2  0  0  0  0
  7 20  1  0  0  0  0
  8  9  1  0  0  0  0
  8 10  1  0  0  0  0
  9 11  1  0  0  0  0
 10 12  1  0  0  0  0
 10 13  1  0  0  0  0
 10 18  1  0  0  0  0
 14 17  1  0  0  0  0
 15 17  1  0  0  0  0
 16 17  1  0  0  0  0
 17 20  1  0  0  0  0
  1 22  1  0  0  0  0
  2 23  1  0  0  0  0
  3 24  1  0  0  0  0
  8 25  1  0  0  0  0
  8 26  1  0  0  0  0
  9 27  1  0  0  0  0
 11 28  1  0  0  0  0
 11 29  1  0  0  0  0
 11 30  1  0  0  0  0
 12 31  1  0  0  0  0
 12 32  1  0  0  0  0
 12 33  1  0  0  0  0
 13 34  1  0  0  0  0
 13 35  1  0  0  0  0
 13 36  1  0  0  0  0
 14 37  1  0  0  0  0
 14 38  1  0  0  0  0
 14 39  1  0  0  0  0
 15 40  1  0  0  0  0
 15 41  1  0  0  0  0
 15 42  1  0  0  0  0
 16 43  1  0  0  0  0
 16 44  1  0  0  0  0
 16 45  1  0  0  0  0
M  END
> <id>
EN300-28299006

> <smiles>
CC1CC(C)(C)N(C(=O)OC(C)(C)C)C=2C=CC(Br)=CC12

> <IUPAC Name>
tert-butyl 6-bromo-2,2,4-trimethyl-1,2,3,4-tetrahydroquinoline-1-carboxylate

> <CAS>
2680760-48-7

> <URL>
https://www.enaminestore.com/catalog/EN300-28299006

> <ROCS_ShapeQuery>
A71EV2A-x0451_0A_A71EV2A-x0310_0A_A71EV2A-x0416_0A_peptide

> <ROCS_TanimotoCombo>
0.478 

> <ROCS_ShapeTanimoto>
0.359 

> <ROCS_ColorTanimoto>
0.119 

> <ROCS_RefTversky>
0.311 

> <ROCS_RefColorTversky>
0.132 

> <ROCS_RefTverskyCombo>
0.443 

> <ROCS_FitTversky>
1.749 

> <ROCS_FitColorTversky>
0.551 

> <ROCS_FitTverskyCombo>
2.301 

> <ROCS_ColorScore>
-4.019

> <ROCS_Overlap>
2157.614

> <ROCS_Rank>
411                 

$$$$
untitled-dbase-43353_484
  -OEChem-11132313473D

 49 50  0     0  0  0  0  0  0999 V2000
    8.8923    9.8362   24.0140 C   0  0  0  0  0  0  0  0  0  0  0  0
    7.8560   10.6442   24.5235 C   0  0  0  0  0  0  0  0  0  0  0  0
    8.2345   11.9619   24.3382 C   0  0  0  0  0  0  0  0  0  0  0  0
    9.8765   10.6801   23.5504 C   0  0  0  0  0  0  0  0  0  0  0  0
   10.2517   13.1391   23.4642 C   0  0  0  0  0  0  0  0  0  0  0  0
    5.2209   11.3298   26.9852 C   0  0  0  0  0  0  0  0  0  0  0  0
    6.5666   10.2342   25.1432 C   0  0  0  0  0  0  0  0  0  0  0  0
    7.3996   13.1331   24.7409 C   0  0  0  0  0  0  0  0  0  0  0  0
    5.9612   12.6719   25.0261 C   0  0  0  0  0  0  0  0  0  0  0  0
   12.6368   14.2757   22.4303 C   0  0  0  0  0  0  0  0  0  0  0  0
   11.4905   14.1831   20.1972 C   0  0  0  0  0  0  0  0  0  0  0  0
   10.5235   15.5864   22.0422 C   0  0  0  0  0  0  0  0  0  0  0  0
    3.5515    9.8733   28.7973 C   0  0  0  0  0  0  0  0  0  0  0  0
    5.6939    9.0467   29.8153 C   0  0  0  0  0  0  0  0  0  0  0  0
    5.1588   11.5005   29.8478 C   0  0  0  0  0  0  0  0  0  0  0  0
   11.2918   14.3090   21.7061 C   0  0  0  0  0  0  0  0  0  0  0  0
    5.0209   10.1948   29.0661 C   0  0  0  0  0  0  0  0  0  0  0  0
    9.4955   11.9969   23.7642 N   0  0  0  0  0  0  0  0  0  0  0  0
    5.9261   11.4055   25.7786 N   0  0  0  0  0  0  0  0  0  0  0  0
   10.5880   13.9271   24.3329 O   0  0  0  0  0  0  0  0  0  0  0  0
    4.2775   12.0596   27.2843 O   0  0  0  0  0  0  0  0  0  0  0  0
   10.5165   13.1853   22.1340 O   0  0  0  0  0  0  0  0  0  0  0  0
    5.6924   10.3425   27.8096 O   0  0  0  0  0  0  0  0  0  0  0  0
   11.4521    9.9680   22.7407 Br  0  0  0  0  0  0  0  0  0  0  0  0
    8.9131    8.7547   23.9881 H   0  0  0  0  0  0  0  0  0  0  0  0
    5.9089    9.7894   24.3913 H   0  0  0  0  0  0  0  0  0  0  0  0
    6.7422    9.4939   25.9313 H   0  0  0  0  0  0  0  0  0  0  0  0
    7.7907   13.6091   25.6457 H   0  0  0  0  0  0  0  0  0  0  0  0
    7.3947   13.8724   23.9315 H   0  0  0  0  0  0  0  0  0  0  0  0
    5.4413   13.4157   25.6430 H   0  0  0  0  0  0  0  0  0  0  0  0
    5.4060   12.5871   24.0865 H   0  0  0  0  0  0  0  0  0  0  0  0
   12.4985   14.3658   23.5136 H   0  0  0  0  0  0  0  0  0  0  0  0
   13.1825   13.3489   22.2253 H   0  0  0  0  0  0  0  0  0  0  0  0
   13.2650   15.1213   22.1275 H   0  0  0  0  0  0  0  0  0  0  0  0
   10.5280   14.2065   19.6736 H   0  0  0  0  0  0  0  0  0  0  0  0
   11.9566   13.2241   19.9436 H   0  0  0  0  0  0  0  0  0  0  0  0
   12.1188   14.9887   19.8038 H   0  0  0  0  0  0  0  0  0  0  0  0
    9.5586   15.6105   21.5229 H   0  0  0  0  0  0  0  0  0  0  0  0
   10.3394   15.6751   23.1177 H   0  0  0  0  0  0  0  0  0  0  0  0
   11.0761   16.4724   21.7092 H   0  0  0  0  0  0  0  0  0  0  0  0
    3.0648   10.6949   28.2597 H   0  0  0  0  0  0  0  0  0  0  0  0
    3.4403    8.9576   28.2074 H   0  0  0  0  0  0  0  0  0  0  0  0
    3.0003    9.7490   29.7364 H   0  0  0  0  0  0  0  0  0  0  0  0
    6.7484    9.2732   30.0102 H   0  0  0  0  0  0  0  0  0  0  0  0
    5.6809    8.1290   29.2162 H   0  0  0  0  0  0  0  0  0  0  0  0
    5.2004    8.8438   30.7712 H   0  0  0  0  0  0  0  0  0  0  0  0
    6.2127   11.7313   30.0407 H   0  0  0  0  0  0  0  0  0  0  0  0
    4.7137   12.3426   29.3080 H   0  0  0  0  0  0  0  0  0  0  0  0
    4.6752   11.4206   30.8281 H   0  0  0  0  0  0  0  0  0  0  0  0
  1  2  1  0  0  0  0
  1  4  2  0  0  0  0
  2  3  2  0  0  0  0
  2  7  1  0  0  0  0
  3  8  1  0  0  0  0
  3 18  1  0  0  0  0
  4 18  1  0  0  0  0
  4 24  1  0  0  0  0
  5 18  1  0  0  0  0
  5 20  2  0  0  0  0
  5 22  1  0  0  0  0
  6 19  1  0  0  0  0
  6 21  2  0  0  0  0
  6 23  1  0  0  0  0
  7 19  1  0  0  0  0
  8  9  1  0  0  0  0
  9 19  1  0  0  0  0
 10 16  1  0  0  0  0
 11 16  1  0  0  0  0
 12 16  1  0  0  0  0
 13 17  1  0  0  0  0
 14 17  1  0  0  0  0
 15 17  1  0  0  0  0
 16 22  1  0  0  0  0
 17 23  1  0  0  0  0
  1 25  1  0  0  0  0
  7 26  1  0  0  0  0
  7 27  1  0  0  0  0
  8 28  1  0  0  0  0
  8 29  1  0  0  0  0
  9 30  1  0  0  0  0
  9 31  1  0  0  0  0
 10 32  1  0  0  0  0
 10 33  1  0  0  0  0
 10 34  1  0  0  0  0
 11 35  1  0  0  0  0
 11 36  1  0  0  0  0
 11 37  1  0  0  0  0
 12 38  1  0  0  0  0
 12 39  1  0  0  0  0
 12 40  1  0  0  0  0
 13 41  1  0  0  0  0
 13 42  1  0  0  0  0
 13 43  1  0  0  0  0
 14 44  1  0  0  0  0
 14 45  1  0  0  0  0
 14 46  1  0  0  0  0
 15 47  1  0  0  0  0
 15 48  1  0  0  0  0
 15 49  1  0  0  0  0
M  END
> <id>
EN300-157253

> <smiles>
CC(C)(C)OC(=O)N1CCC2=C(C1)C=C(Br)N2C(=O)OC(C)(C)C

> <MDLNUMBER>
MFCD27959380

> <IUPAC Name>
1,5-di-tert-butyl 2-bromo-1H,4H,5H,6H,7H-pyrrolo[3,2-c]pyridine-1,5-dicarboxylate

> <CAS>
1803607-10-4

> <URL>
https://www.enaminestore.com/catalog/EN300-157253

> <ROCS_ShapeQuery>
A71EV2A-x0451_0A_A71EV2A-x0310_0A_A71EV2A-x0416_0A_peptide

> <ROCS_TanimotoCombo>
0.478 

> <ROCS_ShapeTanimoto>
0.330 

> <ROCS_ColorTanimoto>
0.148 

> <ROCS_RefTversky>
0.297 

> <ROCS_RefColorTversky>
0.163 

> <ROCS_RefTverskyCombo>
0.461 

> <ROCS_FitTversky>
1.501 

> <ROCS_FitColorTversky>
0.603 

> <ROCS_FitTverskyCombo>
2.105 

> <ROCS_ColorScore>
-4.979

> <ROCS_Overlap>
2067.341

> <ROCS_Rank>
412                 

$$$$
untitled-dbase-43726_350
  -OEChem-11132313473D

 45 46  0     1  0  0  0  0  0999 V2000
   10.3527   13.0671   23.6161 C   0  0  0  0  0  0  0  0  0  0  0  0
    7.2092   13.3379   24.0243 C   0  0  0  0  0  0  0  0  0  0  0  0
    8.6014   13.0254   26.1040 C   0  0  0  0  0  0  0  0  0  0  0  0
    7.4232   11.0546   25.1545 C   0  0  0  0  0  0  0  0  0  0  0  0
    9.2687   10.9617   22.8897 C   0  0  0  0  0  0  0  0  0  0  0  0
    6.5391   14.3436   24.9643 C   0  0  0  0  0  0  0  0  0  0  0  0
    7.3953   13.4070   26.9731 C   0  0  0  0  0  0  0  0  0  0  0  0
    7.2490   10.0544   24.0232 C   0  0  1  0  0  0  0  0  0  0  0  0
    8.5927    9.7080   23.4124 C   0  0  2  0  0  0  0  0  0  0  0  0
    8.1791   12.3668   24.7569 C   0  0  0  0  0  0  0  0  0  0  0  0
   12.4898   14.7584   22.7205 C   0  0  0  0  0  0  0  0  0  0  0  0
   12.3466   13.4839   20.5608 C   0  0  0  0  0  0  0  0  0  0  0  0
   10.3810   14.8344   21.3487 C   0  0  0  0  0  0  0  0  0  0  0  0
   11.5717   13.9793   21.7799 C   0  0  0  0  0  0  0  0  0  0  0  0
    9.3623   12.0768   23.8569 N   0  0  0  0  0  0  0  0  0  0  0  0
   10.5616   14.0530   24.3182 O   0  0  0  0  0  0  0  0  0  0  0  0
    6.2323   13.7442   26.2160 O   0  0  0  0  0  0  0  0  0  0  0  0
    6.6202    8.8752   24.5167 O   0  0  0  0  0  0  0  0  0  0  0  0
    9.4446    9.0672   24.3609 O   0  0  0  0  0  0  0  0  0  0  0  0
   11.0782   12.8276   22.4749 O   0  0  0  0  0  0  0  0  0  0  0  0
    6.4418   12.7876   23.4699 H   0  0  0  0  0  0  0  0  0  0  0  0
    7.7781   13.9190   23.2879 H   0  0  0  0  0  0  0  0  0  0  0  0
    9.1377   13.9620   25.9429 H   0  0  0  0  0  0  0  0  0  0  0  0
    9.2757   12.3702   26.6689 H   0  0  0  0  0  0  0  0  0  0  0  0
    6.4304   11.2684   25.5691 H   0  0  0  0  0  0  0  0  0  0  0  0
    7.9537   10.5588   25.9819 H   0  0  0  0  0  0  0  0  0  0  0  0
   10.2693   10.6892   22.5443 H   0  0  0  0  0  0  0  0  0  0  0  0
    8.7168   11.3520   22.0279 H   0  0  0  0  0  0  0  0  0  0  0  0
    7.2270   15.1724   25.1546 H   0  0  0  0  0  0  0  0  0  0  0  0
    5.6333   14.7744   24.5283 H   0  0  0  0  0  0  0  0  0  0  0  0
    7.1407   12.6148   27.7048 H   0  0  0  0  0  0  0  0  0  0  0  0
    7.6546   14.2931   27.5832 H   0  0  0  0  0  0  0  0  0  0  0  0
    6.5780   10.4727   23.2494 H   0  0  0  0  0  0  0  0  0  0  0  0
    8.4524    8.9903   22.5862 H   0  0  0  0  0  0  0  0  0  0  0  0
   11.9373   15.1157   23.5969 H   0  0  0  0  0  0  0  0  0  0  0  0
   13.3289   14.1450   23.0647 H   0  0  0  0  0  0  0  0  0  0  0  0
   12.8926   15.6490   22.2248 H   0  0  0  0  0  0  0  0  0  0  0  0
   11.6917   12.9243   19.8831 H   0  0  0  0  0  0  0  0  0  0  0  0
   13.1441   12.7938   20.8592 H   0  0  0  0  0  0  0  0  0  0  0  0
   12.7956   14.3123   20.0035 H   0  0  0  0  0  0  0  0  0  0  0  0
    9.7223   14.2758   20.6740 H   0  0  0  0  0  0  0  0  0  0  0  0
    9.7918   15.1684   22.2089 H   0  0  0  0  0  0  0  0  0  0  0  0
   10.7165   15.7172   20.7925 H   0  0  0  0  0  0  0  0  0  0  0  0
    5.7591    9.1476   24.8707 H   0  0  0  0  0  0  0  0  0  0  0  0
    8.9722    8.2770   24.6639 H   0  0  0  0  0  0  0  0  0  0  0  0
  1 15  1  0  0  0  0
  1 16  2  0  0  0  0
  1 20  1  0  0  0  0
  2  6  1  0  0  0  0
  2 10  1  0  0  0  0
  3  7  1  0  0  0  0
  3 10  1  0  0  0  0
  4  8  1  0  0  0  0
  4 10  1  0  0  0  0
  5  9  1  0  0  0  0
  5 15  1  0  0  0  0
  6 17  1  0  0  0  0
  7 17  1  0  0  0  0
  8  9  1  0  0  0  0
  8 18  1  1  0  0  0
  9 19  1  1  0  0  0
 10 15  1  0  0  0  0
 11 14  1  0  0  0  0
 12 14  1  0  0  0  0
 13 14  1  0  0  0  0
 14 20  1  0  0  0  0
  2 21  1  0  0  0  0
  2 22  1  0  0  0  0
  3 23  1  0  0  0  0
  3 24  1  0  0  0  0
  4 25  1  0  0  0  0
  4 26  1  0  0  0  0
  5 27  1  0  0  0  0
  5 28  1  0  0  0  0
  6 29  1  0  0  0  0
  6 30  1  0  0  0  0
  7 31  1  0  0  0  0
  7 32  1  0  0  0  0
  8 33  1  0  0  0  0
  9 34  1  0  0  0  0
 11 35  1  0  0  0  0
 11 36  1  0  0  0  0
 11 37  1  0  0  0  0
 12 38  1  0  0  0  0
 12 39  1  0  0  0  0
 12 40  1  0  0  0  0
 13 41  1  0  0  0  0
 13 42  1  0  0  0  0
 13 43  1  0  0  0  0
 18 44  1  0  0  0  0
 19 45  1  0  0  0  0
M  END
> <id>
EN300-28229078

> <smiles>
CC(C)(C)OC(=O)N1C[C@@H](O)[C@@H](O)CC21CCOCC2 |&1:9,11,r|

> <IUPAC Name>
rac-tert-butyl (3R,4S)-3,4-dihydroxy-9-oxa-1-azaspiro[5.5]undecane-1-carboxylate

> <CAS>
2639392-40-6

> <URL>
https://www.enaminestore.com/catalog/EN300-28229078

> <ROCS_ShapeQuery>
A71EV2A-x0451_0A_A71EV2A-x0310_0A_A71EV2A-x0416_0A_peptide

> <ROCS_TanimotoCombo>
0.478 

> <ROCS_ShapeTanimoto>
0.324 

> <ROCS_ColorTanimoto>
0.154 

> <ROCS_RefTversky>
0.287 

> <ROCS_RefColorTversky>
0.177 

> <ROCS_RefTverskyCombo>
0.464 

> <ROCS_FitTversky>
1.670 

> <ROCS_FitColorTversky>
0.535 

> <ROCS_FitTverskyCombo>
2.204 

> <ROCS_ColorScore>
-5.421

> <ROCS_Overlap>
1990.877

> <ROCS_Rank>
413                 

$$$$
untitled-dbase-34726_34
  -OEChem-11132313473D

 39 40  0     1  0  0  0  0  0999 V2000
    9.3803    9.8506   22.8459 C   0  0  0  0  0  0  0  0  0  0  0  0
   10.3019   13.1888   23.4071 C   0  0  0  0  0  0  0  0  0  0  0  0
    9.0591   11.2725   22.4543 C   0  0  0  0  0  0  0  0  0  0  0  0
    7.4787   12.8160   25.0093 C   0  0  0  0  0  0  0  0  0  0  0  0
    6.5428   12.2959   26.0966 C   0  0  0  0  0  0  0  0  0  0  0  0
    6.7891   10.1788   24.8704 C   0  0  0  0  0  0  0  0  0  0  0  0
    8.6910   11.8832   24.8515 C   0  0  1  0  0  0  0  0  0  0  0  0
    8.2985   10.4002   25.0303 C   0  0  2  0  0  0  0  0  0  0  0  0
   12.9499   14.0925   22.8029 C   0  0  0  0  0  0  0  0  0  0  0  0
   12.1800   14.1674   20.4132 C   0  0  0  0  0  0  0  0  0  0  0  0
   11.0798   15.6359   22.1282 C   0  0  0  0  0  0  0  0  0  0  0  0
   11.7523   14.2875   21.8743 C   0  0  0  0  0  0  0  0  0  0  0  0
    9.0409    9.5180   24.1403 N   0  0  0  0  0  0  0  0  0  0  0  0
    5.9863   10.9758   25.7985 N   0  0  0  0  0  0  0  0  0  0  0  0
    9.3833   12.1437   23.5767 N   0  0  0  0  0  0  0  0  0  0  0  0
    9.7988    9.0324   22.0284 O   0  0  0  0  0  0  0  0  0  0  0  0
   10.6356   13.9717   24.2947 O   0  0  0  0  0  0  0  0  0  0  0  0
   10.8015   13.2480   22.1324 O   0  0  0  0  0  0  0  0  0  0  0  0
    9.6417   11.5410   21.6135 H   0  0  0  0  0  0  0  0  0  0  0  0
    8.0148   11.3451   22.2825 H   0  0  0  0  0  0  0  0  0  0  0  0
    6.9250   12.8914   24.0678 H   0  0  0  0  0  0  0  0  0  0  0  0
    7.8145   13.8240   25.2697 H   0  0  0  0  0  0  0  0  0  0  0  0
    7.0676   12.2711   27.0691 H   0  0  0  0  0  0  0  0  0  0  0  0
    5.7099   13.0084   26.2228 H   0  0  0  0  0  0  0  0  0  0  0  0
    6.4846   10.4174   23.8397 H   0  0  0  0  0  0  0  0  0  0  0  0
    6.5571    9.1103   25.0085 H   0  0  0  0  0  0  0  0  0  0  0  0
    9.3866   12.1303   25.6784 H   0  0  0  0  0  0  0  0  0  0  0  0
    8.5857   10.0799   26.0512 H   0  0  0  0  0  0  0  0  0  0  0  0
   12.6470   14.1779   23.8527 H   0  0  0  0  0  0  0  0  0  0  0  0
   13.4199   13.1147   22.6551 H   0  0  0  0  0  0  0  0  0  0  0  0
   13.7054   14.8686   22.6350 H   0  0  0  0  0  0  0  0  0  0  0  0
   11.3238   14.3066   19.7433 H   0  0  0  0  0  0  0  0  0  0  0  0
   12.5765   13.1673   20.2035 H   0  0  0  0  0  0  0  0  0  0  0  0
   12.9462   14.9054   20.1546 H   0  0  0  0  0  0  0  0  0  0  0  0
   10.2207   15.7760   21.4622 H   0  0  0  0  0  0  0  0  0  0  0  0
   10.7332   15.7252   23.1629 H   0  0  0  0  0  0  0  0  0  0  0  0
   11.7704   16.4611   21.9199 H   0  0  0  0  0  0  0  0  0  0  0  0
    9.3227    8.6144   24.4885 H   0  0  0  0  0  0  0  0  0  0  0  0
    5.8792   10.4522   26.6820 H   0  0  0  0  0  0  0  0  0  0  0  0
  1  3  1  0  0  0  0
  1 13  1  0  0  0  0
  1 16  2  0  0  0  0
  2 15  1  0  0  0  0
  2 17  2  0  0  0  0
  2 18  1  0  0  0  0
  3 15  1  0  0  0  0
  4  5  1  0  0  0  0
  4  7  1  6  0  0  0
  5 14  1  0  0  0  0
  6  8  1  6  0  0  0
  6 14  1  0  0  0  0
  7  8  1  0  0  0  0
  7 15  1  0  0  0  0
  8 13  1  0  0  0  0
  9 12  1  0  0  0  0
 10 12  1  0  0  0  0
 11 12  1  0  0  0  0
 12 18  1  0  0  0  0
  3 19  1  0  0  0  0
  3 20  1  0  0  0  0
  4 21  1  0  0  0  0
  4 22  1  0  0  0  0
  5 23  1  0  0  0  0
  5 24  1  0  0  0  0
  6 25  1  0  0  0  0
  6 26  1  0  0  0  0
  7 27  1  0  0  0  0
  8 28  1  0  0  0  0
  9 29  1  0  0  0  0
  9 30  1  0  0  0  0
  9 31  1  0  0  0  0
 10 32  1  0  0  0  0
 10 33  1  0  0  0  0
 10 34  1  0  0  0  0
 11 35  1  0  0  0  0
 11 36  1  0  0  0  0
 11 37  1  0  0  0  0
 13 38  1  0  0  0  0
 14 39  1  0  0  0  0
M  END
> <id>
EN300-1272239

> <smiles>
CC(C)(C)OC(=O)N1CC(=O)N[C@@H]2CNCC[C@@H]21 |&1:12,17,r|

> <MDLNUMBER>
MFCD31629885

> <IUPAC Name>
rac-tert-butyl (4aR,8aS)-3-oxo-decahydropyrido[3,4-b]piperazine-1-carboxylate

> <CAS>
2307777-24-6

> <Purity>
95

> <URL>
https://www.enaminestore.com/catalog/EN300-1272239

> <ROCS_ShapeQuery>
A71EV2A-x0451_0A_A71EV2A-x0310_0A_A71EV2A-x0416_0A_peptide

> <ROCS_TanimotoCombo>
0.478 

> <ROCS_ShapeTanimoto>
0.332 

> <ROCS_ColorTanimoto>
0.146 

> <ROCS_RefTversky>
0.289 

> <ROCS_RefColorTversky>
0.166 

> <ROCS_RefTverskyCombo>
0.455 

> <ROCS_FitTversky>
1.794 

> <ROCS_FitColorTversky>
0.550 

> <ROCS_FitTverskyCombo>
2.344 

> <ROCS_ColorScore>
-5.061

> <ROCS_Overlap>
2006.570

> <ROCS_Rank>
414                 

$$$$
untitled-dbase-48115_510
  -OEChem-11132313473D

 48 50  0     1  0  0  0  0  0999 V2000
    6.5808   11.7036   26.4026 C   0  0  0  0  0  0  0  0  0  0  0  0
    6.6382   12.9766   25.8424 C   0  0  0  0  0  0  0  0  0  0  0  0
    7.3781   10.6792   25.8904 C   0  0  0  0  0  0  0  0  0  0  0  0
    7.5006   13.2281   24.7773 C   0  0  0  0  0  0  0  0  0  0  0  0
    8.2370   10.9138   24.8058 C   0  0  0  0  0  0  0  0  0  0  0  0
    8.3083   12.2058   24.2697 C   0  0  0  0  0  0  0  0  0  0  0  0
   11.8282   15.3074   22.2589 C   0  0  0  0  0  0  0  0  0  0  0  0
   11.3891   11.8570   23.8068 C   0  0  0  0  0  0  0  0  0  0  0  0
   10.5860   12.0000   21.4193 C   0  0  0  0  0  0  0  0  0  0  0  0
    9.6519   10.1940   22.8918 C   0  0  0  0  0  0  0  0  0  0  0  0
   11.8522   13.3168   23.7866 C   0  0  0  0  0  0  0  0  0  0  0  0
   11.7312   13.0134   21.3231 C   0  0  0  0  0  0  0  0  0  0  0  0
    9.0999    9.8093   24.2605 C   0  0  2  0  0  0  0  0  0  0  0  0
   10.1803   11.6361   22.8728 C   0  0  0  0  0  0  0  0  0  0  0  0
   14.1024   15.9414   21.1160 C   0  0  0  0  0  0  0  0  0  0  0  0
   12.9215   15.9978   18.8998 C   0  0  0  0  0  0  0  0  0  0  0  0
   12.5771   17.8612   20.5482 C   0  0  0  0  0  0  0  0  0  0  0  0
   12.8320   16.3641   20.3797 C   0  0  0  0  0  0  0  0  0  0  0  0
   11.7662   13.9252   22.4579 N   0  0  0  0  0  0  0  0  0  0  0  0
   11.9583   16.1348   23.1586 O   0  0  0  0  0  0  0  0  0  0  0  0
    9.1288   12.5603   23.2319 O   0  0  0  0  0  0  0  0  0  0  0  0
    8.3463    8.6075   24.1252 O   0  0  0  0  0  0  0  0  0  0  0  0
   11.7234   15.6475   20.9352 O   0  0  0  0  0  0  0  0  0  0  0  0
    5.9156   11.5071   27.2382 H   0  0  0  0  0  0  0  0  0  0  0  0
    6.0163   13.7739   26.2385 H   0  0  0  0  0  0  0  0  0  0  0  0
    7.3221    9.6930   26.3449 H   0  0  0  0  0  0  0  0  0  0  0  0
    7.5465   14.2274   24.3518 H   0  0  0  0  0  0  0  0  0  0  0  0
   12.2195   11.2145   23.5014 H   0  0  0  0  0  0  0  0  0  0  0  0
   11.1407   11.6074   24.8403 H   0  0  0  0  0  0  0  0  0  0  0  0
    9.7165   12.4214   20.8876 H   0  0  0  0  0  0  0  0  0  0  0  0
   10.8747   11.0859   20.8728 H   0  0  0  0  0  0  0  0  0  0  0  0
   10.4293    9.4782   22.5914 H   0  0  0  0  0  0  0  0  0  0  0  0
    8.8474   10.0886   22.1475 H   0  0  0  0  0  0  0  0  0  0  0  0
   11.2325   13.9285   24.4631 H   0  0  0  0  0  0  0  0  0  0  0  0
   12.8823   13.3797   24.1713 H   0  0  0  0  0  0  0  0  0  0  0  0
   12.6817   12.4693   21.2133 H   0  0  0  0  0  0  0  0  0  0  0  0
   11.6237   13.6283   20.4139 H   0  0  0  0  0  0  0  0  0  0  0  0
    9.9157    9.6178   24.9678 H   0  0  0  0  0  0  0  0  0  0  0  0
   14.0421   16.2025   22.1786 H   0  0  0  0  0  0  0  0  0  0  0  0
   14.2776   14.8639   21.0322 H   0  0  0  0  0  0  0  0  0  0  0  0
   14.9782   16.4665   20.7179 H   0  0  0  0  0  0  0  0  0  0  0  0
   12.0121   16.2993   18.3676 H   0  0  0  0  0  0  0  0  0  0  0  0
   13.0093   14.9130   18.7708 H   0  0  0  0  0  0  0  0  0  0  0  0
   13.7802   16.4751   18.4167 H   0  0  0  0  0  0  0  0  0  0  0  0
   11.6659   18.1647   20.0201 H   0  0  0  0  0  0  0  0  0  0  0  0
   12.4732   18.1364   21.6028 H   0  0  0  0  0  0  0  0  0  0  0  0
   13.3955   18.4471   20.1144 H   0  0  0  0  0  0  0  0  0  0  0  0
    8.9533    7.9385   23.7720 H   0  0  0  0  0  0  0  0  0  0  0  0
  1  2  2  0  0  0  0
  1  3  1  0  0  0  0
  2  4  1  0  0  0  0
  3  5  2  0  0  0  0
  4  6  2  0  0  0  0
  5  6  1  0  0  0  0
  5 13  1  0  0  0  0
  6 21  1  0  0  0  0
  7 19  1  0  0  0  0
  7 20  2  0  0  0  0
  7 23  1  0  0  0  0
  8 11  1  0  0  0  0
  8 14  1  0  0  0  0
  9 12  1  0  0  0  0
  9 14  1  0  0  0  0
 10 13  1  0  0  0  0
 10 14  1  0  0  0  0
 11 19  1  0  0  0  0
 12 19  1  0  0  0  0
 13 22  1  0  0  0  0
 14 21  1  0  0  0  0
 15 18  1  0  0  0  0
 16 18  1  0  0  0  0
 17 18  1  0  0  0  0
 18 23  1  0  0  0  0
  1 24  1  0  0  0  0
  2 25  1  0  0  0  0
  3 26  1  0  0  0  0
  4 27  1  0  0  0  0
  8 28  1  0  0  0  0
  8 29  1  0  0  0  0
  9 30  1  0  0  0  0
  9 31  1  0  0  0  0
 10 32  1  0  0  0  0
 10 33  1  0  0  0  0
 11 34  1  0  0  0  0
 11 35  1  0  0  0  0
 12 36  1  0  0  0  0
 12 37  1  0  0  0  0
 13 38  1  0  0  0  0
 15 39  1  0  0  0  0
 15 40  1  0  0  0  0
 15 41  1  0  0  0  0
 16 42  1  0  0  0  0
 16 43  1  0  0  0  0
 16 44  1  0  0  0  0
 17 45  1  0  0  0  0
 17 46  1  0  0  0  0
 17 47  1  0  0  0  0
 22 48  1  0  0  0  0
M  END
> <id>
EN300-300131

> <smiles>
CC(C)(C)OC(=O)N1CCC2(CC1)CC(O)C=3C=CC=CC3O2

> <MDLNUMBER>
MFCD22377049

> <IUPAC Name>
tert-butyl 4-hydroxy-3,4-dihydrospiro[1-benzopyran-2,4'-piperidine]-1'-carboxylate

> <CAS>
1024604-94-1

> <Purity>
95

> <URL>
https://www.enaminestore.com/catalog/EN300-300131

> <ROCS_ShapeQuery>
A71EV2A-x0451_0A_A71EV2A-x0310_0A_A71EV2A-x0416_0A_peptide

> <ROCS_TanimotoCombo>
0.478 

> <ROCS_ShapeTanimoto>
0.357 

> <ROCS_ColorTanimoto>
0.121 

> <ROCS_RefTversky>
0.314 

> <ROCS_RefColorTversky>
0.140 

> <ROCS_RefTverskyCombo>
0.454 

> <ROCS_FitTversky>
1.619 

> <ROCS_FitColorTversky>
0.465 

> <ROCS_FitTverskyCombo>
2.084 

> <ROCS_ColorScore>
-4.275

> <ROCS_Overlap>
2183.003

> <ROCS_Rank>
415                 

$$$$
untitled-dbase-6366_131
  -OEChem-11132313473D

 41 42  0     0  0  0  0  0  0999 V2000
    6.4911   10.9280   26.5333 C   0  0  0  0  0  0  0  0  0  0  0  0
    7.3329   10.0375   25.8670 C   0  0  0  0  0  0  0  0  0  0  0  0
    7.0682   12.6391   24.9438 C   0  0  0  0  0  0  0  0  0  0  0  0
    7.9222   11.7516   24.2629 C   0  0  0  0  0  0  0  0  0  0  0  0
    6.3624   12.2319   26.0738 C   0  0  0  0  0  0  0  0  0  0  0  0
    8.0655   10.4278   24.7291 C   0  0  0  0  0  0  0  0  0  0  0  0
   10.8964   13.1031   23.4495 C   0  0  0  0  0  0  0  0  0  0  0  0
    8.5810   12.2280   22.9901 C   0  0  0  0  0  0  0  0  0  0  0  0
   10.3347    9.8117   23.9316 C   0  0  0  0  0  0  0  0  0  0  0  0
   10.5565   10.7490   22.7549 C   0  0  0  0  0  0  0  0  0  0  0  0
    5.4693   13.1919   26.7847 C   0  0  0  0  0  0  0  0  0  0  0  0
   12.5055   15.4223   22.9784 C   0  0  0  0  0  0  0  0  0  0  0  0
   13.8533   13.9503   21.4533 C   0  0  0  0  0  0  0  0  0  0  0  0
   11.4340   14.3950   20.9460 C   0  0  0  0  0  0  0  0  0  0  0  0
   12.4720   14.2080   22.0516 C   0  0  0  0  0  0  0  0  0  0  0  0
    8.9319    9.4964   24.1570 N   0  0  0  0  0  0  0  0  0  0  0  0
   10.0341   12.0834   23.0271 N   0  0  0  0  0  0  0  0  0  0  0  0
   10.6024   13.9588   24.2822 O   0  0  0  0  0  0  0  0  0  0  0  0
   12.1141   13.0558   22.8229 O   0  0  0  0  0  0  0  0  0  0  0  0
    5.9453   10.5940   27.4118 H   0  0  0  0  0  0  0  0  0  0  0  0
    7.4224    9.0253   26.2526 H   0  0  0  0  0  0  0  0  0  0  0  0
    6.9458   13.6580   24.5837 H   0  0  0  0  0  0  0  0  0  0  0  0
    8.1992   11.6534   22.1356 H   0  0  0  0  0  0  0  0  0  0  0  0
    8.3181   13.2735   22.7847 H   0  0  0  0  0  0  0  0  0  0  0  0
   10.8627    8.8691   23.7247 H   0  0  0  0  0  0  0  0  0  0  0  0
   10.7910   10.1967   24.8557 H   0  0  0  0  0  0  0  0  0  0  0  0
   11.6182   10.8529   22.5658 H   0  0  0  0  0  0  0  0  0  0  0  0
   10.0826   10.3460   21.8690 H   0  0  0  0  0  0  0  0  0  0  0  0
    6.0260   13.7260   27.5645 H   0  0  0  0  0  0  0  0  0  0  0  0
    5.0457   13.9308   26.0920 H   0  0  0  0  0  0  0  0  0  0  0  0
    4.6220   12.6751   27.2544 H   0  0  0  0  0  0  0  0  0  0  0  0
   11.5159   15.6107   23.4099 H   0  0  0  0  0  0  0  0  0  0  0  0
   13.2211   15.2862   23.7959 H   0  0  0  0  0  0  0  0  0  0  0  0
   12.7794   16.3285   22.4260 H   0  0  0  0  0  0  0  0  0  0  0  0
   13.8339   13.0799   20.7876 H   0  0  0  0  0  0  0  0  0  0  0  0
   14.5824   13.7218   22.2390 H   0  0  0  0  0  0  0  0  0  0  0  0
   14.2149   14.8134   20.8851 H   0  0  0  0  0  0  0  0  0  0  0  0
   11.4097   13.5241   20.2810 H   0  0  0  0  0  0  0  0  0  0  0  0
   10.4300   14.5444   21.3564 H   0  0  0  0  0  0  0  0  0  0  0  0
   11.6851   15.2570   20.3174 H   0  0  0  0  0  0  0  0  0  0  0  0
    8.6352    8.5637   24.0550 H   0  0  0  0  0  0  0  0  0  0  0  0
  1  2  1  0  0  0  0
  1  5  2  0  0  0  0
  2  6  2  0  0  0  0
  3  4  2  0  0  0  0
  3  5  1  0  0  0  0
  4  6  1  0  0  0  0
  4  8  1  0  0  0  0
  5 11  1  0  0  0  0
  6 16  1  0  0  0  0
  7 17  1  0  0  0  0
  7 18  2  0  0  0  0
  7 19  1  0  0  0  0
  8 17  1  0  0  0  0
  9 10  1  0  0  0  0
  9 16  1  0  0  0  0
 10 17  1  0  0  0  0
 12 15  1  0  0  0  0
 13 15  1  0  0  0  0
 14 15  1  0  0  0  0
 15 19  1  0  0  0  0
  1 20  1  0  0  0  0
  2 21  1  0  0  0  0
  3 22  1  0  0  0  0
  8 23  1  0  0  0  0
  8 24  1  0  0  0  0
  9 25  1  0  0  0  0
  9 26  1  0  0  0  0
 10 27  1  0  0  0  0
 10 28  1  0  0  0  0
 11 29  1  0  0  0  0
 11 30  1  0  0  0  0
 11 31  1  0  0  0  0
 12 32  1  0  0  0  0
 12 33  1  0  0  0  0
 12 34  1  0  0  0  0
 13 35  1  0  0  0  0
 13 36  1  0  0  0  0
 13 37  1  0  0  0  0
 14 38  1  0  0  0  0
 14 39  1  0  0  0  0
 14 40  1  0  0  0  0
 16 41  1  0  0  0  0
M  END
> <id>
EN300-97878

> <smiles>
CC=1C=CC=2NCCN(CC2C1)C(=O)OC(C)(C)C

> <MDLNUMBER>
MFCD07369871

> <IUPAC Name>
tert-butyl 7-methyl-2,3,4,5-tetrahydro-1H-1,4-benzodiazepine-4-carboxylate

> <CAS>
886364-42-7

> <Purity>
95

> <URL>
https://www.enaminestore.com/catalog/EN300-97878

> <ROCS_ShapeQuery>
A71EV2A-x0451_0A_A71EV2A-x0310_0A_A71EV2A-x0416_0A_peptide

> <ROCS_TanimotoCombo>
0.478 

> <ROCS_ShapeTanimoto>
0.327 

> <ROCS_ColorTanimoto>
0.150 

> <ROCS_RefTversky>
0.288 

> <ROCS_RefColorTversky>
0.158 

> <ROCS_RefTverskyCombo>
0.446 

> <ROCS_FitTversky>
1.718 

> <ROCS_FitColorTversky>
0.757 

> <ROCS_FitTverskyCombo>
2.475 

> <ROCS_ColorScore>
-4.800

> <ROCS_Overlap>
1996.908

> <ROCS_Rank>
416                 

$$$$
untitled-dbase-30599_149
  -OEChem-11132313473D

 40 41  0     1  0  0  0  0  0999 V2000
    8.4632   13.1887   25.7909 C   0  0  0  0  0  0  0  0  0  0  0  0
    7.2912   13.3243   26.5355 C   0  0  0  0  0  0  0  0  0  0  0  0
    6.3915   11.3868   25.4392 C   0  0  0  0  0  0  0  0  0  0  0  0
    7.5601   11.2365   24.6590 C   0  0  0  0  0  0  0  0  0  0  0  0
    8.6262   12.1478   24.8534 C   0  0  0  0  0  0  0  0  0  0  0  0
    6.2562   12.4187   26.3645 C   0  0  0  0  0  0  0  0  0  0  0  0
   10.6081   13.1525   23.7413 C   0  0  0  0  0  0  0  0  0  0  0  0
    9.8910   10.0808   22.6285 C   0  0  0  0  0  0  0  0  0  0  0  0
    8.4022   10.3147   22.3865 C   0  0  0  0  0  0  0  0  0  0  0  0
   10.3863   10.6611   23.9434 C   0  0  0  0  0  0  0  0  0  0  0  0
    7.5215   10.1230   23.6254 C   0  0  1  0  0  0  0  0  0  0  0  0
   12.2240   15.1308   22.4422 C   0  0  0  0  0  0  0  0  0  0  0  0
   12.2935   13.5351   20.5036 C   0  0  0  0  0  0  0  0  0  0  0  0
   10.0977   14.4957   21.2547 C   0  0  0  0  0  0  0  0  0  0  0  0
   11.4798   14.0210   21.7011 C   0  0  0  0  0  0  0  0  0  0  0  0
    9.8883   12.0213   24.1747 N   0  0  0  0  0  0  0  0  0  0  0  0
   10.5969   14.2554   24.2848 O   0  0  0  0  0  0  0  0  0  0  0  0
    7.8065    8.8835   24.2677 O   0  0  0  0  0  0  0  0  0  0  0  0
   11.3153   12.9100   22.5903 O   0  0  0  0  0  0  0  0  0  0  0  0
    5.1317   12.5365   27.0816 F   0  0  0  0  0  0  0  0  0  0  0  0
    9.2698   13.8863   26.0036 H   0  0  0  0  0  0  0  0  0  0  0  0
    7.1984   14.1274   27.2605 H   0  0  0  0  0  0  0  0  0  0  0  0
    5.5600   10.6957   25.3128 H   0  0  0  0  0  0  0  0  0  0  0  0
   10.0999    9.0038   22.6220 H   0  0  0  0  0  0  0  0  0  0  0  0
   10.4567   10.5081   21.7916 H   0  0  0  0  0  0  0  0  0  0  0  0
    8.2430   11.3162   21.9668 H   0  0  0  0  0  0  0  0  0  0  0  0
    8.0861    9.6034   21.6124 H   0  0  0  0  0  0  0  0  0  0  0  0
   10.0997   10.0294   24.7933 H   0  0  0  0  0  0  0  0  0  0  0  0
   11.4819   10.6571   23.9453 H   0  0  0  0  0  0  0  0  0  0  0  0
    6.4893   10.0587   23.2549 H   0  0  0  0  0  0  0  0  0  0  0  0
   11.6432   15.4822   23.3026 H   0  0  0  0  0  0  0  0  0  0  0  0
   13.2026   14.7923   22.7981 H   0  0  0  0  0  0  0  0  0  0  0  0
   12.3738   16.0017   21.7939 H   0  0  0  0  0  0  0  0  0  0  0  0
   11.7633   12.7388   19.9689 H   0  0  0  0  0  0  0  0  0  0  0  0
   13.2482   13.1061   20.8286 H   0  0  0  0  0  0  0  0  0  0  0  0
   12.5003   14.3475   19.7993 H   0  0  0  0  0  0  0  0  0  0  0  0
    9.5637   13.6998   20.7231 H   0  0  0  0  0  0  0  0  0  0  0  0
    9.4863   14.8136   22.1054 H   0  0  0  0  0  0  0  0  0  0  0  0
   10.1813   15.3338   20.5534 H   0  0  0  0  0  0  0  0  0  0  0  0
    7.1214    8.7578   24.9425 H   0  0  0  0  0  0  0  0  0  0  0  0
  1  2  1  0  0  0  0
  1  5  2  0  0  0  0
  2  6  2  0  0  0  0
  3  4  2  0  0  0  0
  3  6  1  0  0  0  0
  4  5  1  0  0  0  0
  4 11  1  0  0  0  0
  5 16  1  0  0  0  0
  6 20  1  0  0  0  0
  7 16  1  0  0  0  0
  7 17  2  0  0  0  0
  7 19  1  0  0  0  0
  8  9  1  0  0  0  0
  8 10  1  0  0  0  0
  9 11  1  0  0  0  0
 10 16  1  0  0  0  0
 11 18  1  0  0  0  0
 12 15  1  0  0  0  0
 13 15  1  0  0  0  0
 14 15  1  0  0  0  0
 15 19  1  0  0  0  0
  1 21  1  0  0  0  0
  2 22  1  0  0  0  0
  3 23  1  0  0  0  0
  8 24  1  0  0  0  0
  8 25  1  0  0  0  0
  9 26  1  0  0  0  0
  9 27  1  0  0  0  0
 10 28  1  0  0  0  0
 10 29  1  0  0  0  0
 11 30  1  0  0  0  0
 12 31  1  0  0  0  0
 12 32  1  0  0  0  0
 12 33  1  0  0  0  0
 13 34  1  0  0  0  0
 13 35  1  0  0  0  0
 13 36  1  0  0  0  0
 14 37  1  0  0  0  0
 14 38  1  0  0  0  0
 14 39  1  0  0  0  0
 18 40  1  0  0  0  0
M  END
> <id>
EN300-26666139

> <smiles>
CC(C)(C)OC(=O)N1CCCC(O)C=2C=C(F)C=CC12

> <IUPAC Name>
tert-butyl 7-fluoro-5-hydroxy-2,3,4,5-tetrahydro-1H-1-benzazepine-1-carboxylate

> <CAS>
2413874-90-3

> <URL>
https://www.enaminestore.com/catalog/EN300-26666139

> <ROCS_ShapeQuery>
A71EV2A-x0451_0A_A71EV2A-x0310_0A_A71EV2A-x0416_0A_peptide

> <ROCS_TanimotoCombo>
0.478 

> <ROCS_ShapeTanimoto>
0.333 

> <ROCS_ColorTanimoto>
0.145 

> <ROCS_RefTversky>
0.293 

> <ROCS_RefColorTversky>
0.157 

> <ROCS_RefTverskyCombo>
0.450 

> <ROCS_FitTversky>
1.682 

> <ROCS_FitColorTversky>
0.655 

> <ROCS_FitTverskyCombo>
2.338 

> <ROCS_ColorScore>
-4.776

> <ROCS_Overlap>
2033.679

> <ROCS_Rank>
417                 

$$$$
untitled-dbase-9792_190
  -OEChem-11132313473D

 40 42  0     0  0  0  0  0  0999 V2000
    6.8059   10.1902   25.3641 C   0  0  0  0  0  0  0  0  0  0  0  0
    6.0543   11.2727   25.8200 C   0  0  0  0  0  0  0  0  0  0  0  0
    7.6432   12.8275   24.8414 C   0  0  0  0  0  0  0  0  0  0  0  0
    8.4017   11.7538   24.3826 C   0  0  0  0  0  0  0  0  0  0  0  0
    7.9774   10.4459   24.6690 C   0  0  0  0  0  0  0  0  0  0  0  0
    6.4719   12.5845   25.5631 C   0  0  0  0  0  0  0  0  0  0  0  0
   10.7858   14.7075   22.3989 C   0  0  0  0  0  0  0  0  0  0  0  0
   10.0065   10.1694   23.5436 C   0  0  0  0  0  0  0  0  0  0  0  0
    9.7436   12.3843   22.1585 C   0  0  0  0  0  0  0  0  0  0  0  0
   10.9148   12.6031   23.9350 C   0  0  0  0  0  0  0  0  0  0  0  0
    9.7221   11.6987   23.5462 C   0  0  0  0  0  0  0  0  0  0  0  0
   13.1300   14.9470   21.0598 C   0  0  0  0  0  0  0  0  0  0  0  0
   11.8041   15.0219   18.9278 C   0  0  0  0  0  0  0  0  0  0  0  0
   11.8548   17.0265   20.4401 C   0  0  0  0  0  0  0  0  0  0  0  0
   11.8805   15.5001   20.3762 C   0  0  0  0  0  0  0  0  0  0  0  0
    8.8284    9.4972   24.0994 N   0  0  0  0  0  0  0  0  0  0  0  0
   10.5932   13.3968   22.7643 N   0  0  0  0  0  0  0  0  0  0  0  0
   11.0637   15.5934   23.2068 O   0  0  0  0  0  0  0  0  0  0  0  0
    5.7341   13.6314   26.0275 O   0  0  0  0  0  0  0  0  0  0  0  0
   10.7229   14.9941   21.0606 O   0  0  0  0  0  0  0  0  0  0  0  0
    6.4734    9.1743   25.5507 H   0  0  0  0  0  0  0  0  0  0  0  0
    5.1414   11.0919   26.3818 H   0  0  0  0  0  0  0  0  0  0  0  0
    7.9659   13.8453   24.6433 H   0  0  0  0  0  0  0  0  0  0  0  0
   10.1614    9.8035   22.5205 H   0  0  0  0  0  0  0  0  0  0  0  0
   10.8941    9.9105   24.1326 H   0  0  0  0  0  0  0  0  0  0  0  0
   10.2274   11.8318   21.3500 H   0  0  0  0  0  0  0  0  0  0  0  0
    8.7932   12.7987   21.8105 H   0  0  0  0  0  0  0  0  0  0  0  0
   10.8051   13.1746   24.8636 H   0  0  0  0  0  0  0  0  0  0  0  0
   11.9072   12.1426   23.9022 H   0  0  0  0  0  0  0  0  0  0  0  0
   13.1885   15.2880   22.0997 H   0  0  0  0  0  0  0  0  0  0  0  0
   13.1432   13.8522   21.0516 H   0  0  0  0  0  0  0  0  0  0  0  0
   14.0388   15.3078   20.5647 H   0  0  0  0  0  0  0  0  0  0  0  0
   10.9090   15.4163   18.4334 H   0  0  0  0  0  0  0  0  0  0  0  0
   11.7266   13.9296   18.8810 H   0  0  0  0  0  0  0  0  0  0  0  0
   12.6828   15.3320   18.3531 H   0  0  0  0  0  0  0  0  0  0  0  0
   10.9586   17.4235   19.9497 H   0  0  0  0  0  0  0  0  0  0  0  0
   11.8717   17.3872   21.4736 H   0  0  0  0  0  0  0  0  0  0  0  0
   12.7129   17.4532   19.9083 H   0  0  0  0  0  0  0  0  0  0  0  0
    8.5014    8.5955   23.7803 H   0  0  0  0  0  0  0  0  0  0  0  0
    4.9586   13.3062   26.5112 H   0  0  0  0  0  0  0  0  0  0  0  0
  1  2  1  0  0  0  0
  1  5  2  0  0  0  0
  2  6  2  0  0  0  0
  3  4  2  0  0  0  0
  3  6  1  0  0  0  0
  4  5  1  0  0  0  0
  4 11  1  0  0  0  0
  5 16  1  0  0  0  0
  6 19  1  0  0  0  0
  7 17  1  0  0  0  0
  7 18  2  0  0  0  0
  7 20  1  0  0  0  0
  8 11  1  0  0  0  0
  8 16  1  0  0  0  0
  9 11  1  0  0  0  0
  9 17  1  0  0  0  0
 10 11  1  0  0  0  0
 10 17  1  0  0  0  0
 12 15  1  0  0  0  0
 13 15  1  0  0  0  0
 14 15  1  0  0  0  0
 15 20  1  0  0  0  0
  1 21  1  0  0  0  0
  2 22  1  0  0  0  0
  3 23  1  0  0  0  0
  8 24  1  0  0  0  0
  8 25  1  0  0  0  0
  9 26  1  0  0  0  0
  9 27  1  0  0  0  0
 10 28  1  0  0  0  0
 10 29  1  0  0  0  0
 12 30  1  0  0  0  0
 12 31  1  0  0  0  0
 12 32  1  0  0  0  0
 13 33  1  0  0  0  0
 13 34  1  0  0  0  0
 13 35  1  0  0  0  0
 14 36  1  0  0  0  0
 14 37  1  0  0  0  0
 14 38  1  0  0  0  0
 16 39  1  0  0  0  0
 19 40  1  0  0  0  0
M  END
> <id>
EN300-338955

> <smiles>
CC(C)(C)OC(=O)N1CC2(C1)CNC=3C=CC(O)=CC32

> <MDLNUMBER>
MFCD30499991

> <IUPAC Name>
tert-butyl 5'-hydroxy-1',2'-dihydrospiro[azetidine-3,3'-indole]-1-carboxylate

> <CAS>
2060058-24-2

> <URL>
https://www.enaminestore.com/catalog/EN300-338955

> <ROCS_ShapeQuery>
A71EV2A-x0451_0A_A71EV2A-x0310_0A_A71EV2A-x0416_0A_peptide

> <ROCS_TanimotoCombo>
0.477 

> <ROCS_ShapeTanimoto>
0.345 

> <ROCS_ColorTanimoto>
0.132 

> <ROCS_RefTversky>
0.302 

> <ROCS_RefColorTversky>
0.152 

> <ROCS_RefTverskyCombo>
0.454 

> <ROCS_FitTversky>
1.712 

> <ROCS_FitColorTversky>
0.504 

> <ROCS_FitTverskyCombo>
2.216 

> <ROCS_ColorScore>
-4.639

> <ROCS_Overlap>
2095.503

> <ROCS_Rank>
418                 

$$$$
untitled-dbase-12004_6
  -OEChem-11132313473D

 40 41  0     0  0  0  0  0  0999 V2000
    8.7553    8.5618   22.9546 C   0  0  0  0  0  0  0  0  0  0  0  0
    8.6637    7.4258   22.5752 C   0  0  0  0  0  0  0  0  0  0  0  0
    6.8226   12.3876   26.0924 C   0  0  0  0  0  0  0  0  0  0  0  0
    7.9284   12.8048   25.3446 C   0  0  0  0  0  0  0  0  0  0  0  0
    6.9340   10.1810   25.1125 C   0  0  0  0  0  0  0  0  0  0  0  0
    9.8173   10.7973   22.9725 C   0  0  0  0  0  0  0  0  0  0  0  0
    8.8647    9.9090   23.4047 C   0  0  0  0  0  0  0  0  0  0  0  0
    8.0507   10.5789   24.3479 C   0  0  0  0  0  0  0  0  0  0  0  0
    6.3300   11.0938   25.9795 C   0  0  0  0  0  0  0  0  0  0  0  0
    8.5395   11.8869   24.4688 C   0  0  0  0  0  0  0  0  0  0  0  0
   10.4222   13.1621   23.4202 C   0  0  0  0  0  0  0  0  0  0  0  0
    5.1487   10.6745   26.7890 C   0  0  0  0  0  0  0  0  0  0  0  0
   12.9326   14.3254   22.7911 C   0  0  0  0  0  0  0  0  0  0  0  0
   12.1955   14.1652   20.3952 C   0  0  0  0  0  0  0  0  0  0  0  0
   10.8985   15.5854   22.0104 C   0  0  0  0  0  0  0  0  0  0  0  0
    8.5499    6.0433   22.1125 C   0  0  0  0  0  0  0  0  0  0  0  0
   11.7343   14.3172   21.8431 C   0  0  0  0  0  0  0  0  0  0  0  0
    9.6367   12.0125   23.6100 N   0  0  0  0  0  0  0  0  0  0  0  0
   10.5908   13.9758   24.3133 O   0  0  0  0  0  0  0  0  0  0  0  0
    9.8138    5.4015   22.2056 O   0  0  0  0  0  0  0  0  0  0  0  0
   10.9145   13.1869   22.1553 O   0  0  0  0  0  0  0  0  0  0  0  0
    6.3493   13.0956   26.7694 H   0  0  0  0  0  0  0  0  0  0  0  0
    8.2892   13.8213   25.4549 H   0  0  0  0  0  0  0  0  0  0  0  0
    6.5457    9.1688   25.0284 H   0  0  0  0  0  0  0  0  0  0  0  0
   10.6162   10.6579   22.2554 H   0  0  0  0  0  0  0  0  0  0  0  0
    4.2205   10.8719   26.2394 H   0  0  0  0  0  0  0  0  0  0  0  0
    5.1907    9.6045   27.0293 H   0  0  0  0  0  0  0  0  0  0  0  0
    5.1096   11.2137   27.7442 H   0  0  0  0  0  0  0  0  0  0  0  0
   12.6058   14.4344   23.8314 H   0  0  0  0  0  0  0  0  0  0  0  0
   13.5207   13.4058   22.7059 H   0  0  0  0  0  0  0  0  0  0  0  0
   13.5901   15.1773   22.5828 H   0  0  0  0  0  0  0  0  0  0  0  0
   11.3389   14.1588   19.7115 H   0  0  0  0  0  0  0  0  0  0  0  0
   12.7143   13.2108   20.2490 H   0  0  0  0  0  0  0  0  0  0  0  0
   12.8697   14.9752   20.0987 H   0  0  0  0  0  0  0  0  0  0  0  0
   10.0389   15.5797   21.3305 H   0  0  0  0  0  0  0  0  0  0  0  0
   10.5279   15.6919   23.0351 H   0  0  0  0  0  0  0  0  0  0  0  0
   11.4862   16.4755   21.7583 H   0  0  0  0  0  0  0  0  0  0  0  0
    7.8329    5.4879   22.7246 H   0  0  0  0  0  0  0  0  0  0  0  0
    8.2200    6.0101   21.0698 H   0  0  0  0  0  0  0  0  0  0  0  0
   10.4254    5.9025   21.6418 H   0  0  0  0  0  0  0  0  0  0  0  0
  1  2  3  0  0  0  0
  1  7  1  0  0  0  0
  2 16  1  0  0  0  0
  3  4  1  0  0  0  0
  3  9  2  0  0  0  0
  4 10  2  0  0  0  0
  5  8  2  0  0  0  0
  5  9  1  0  0  0  0
  6  7  2  0  0  0  0
  6 18  1  0  0  0  0
  7  8  1  0  0  0  0
  8 10  1  0  0  0  0
  9 12  1  0  0  0  0
 10 18  1  0  0  0  0
 11 18  1  0  0  0  0
 11 19  2  0  0  0  0
 11 21  1  0  0  0  0
 13 17  1  0  0  0  0
 14 17  1  0  0  0  0
 15 17  1  0  0  0  0
 16 20  1  0  0  0  0
 17 21  1  0  0  0  0
  3 22  1  0  0  0  0
  4 23  1  0  0  0  0
  5 24  1  0  0  0  0
  6 25  1  0  0  0  0
 12 26  1  0  0  0  0
 12 27  1  0  0  0  0
 12 28  1  0  0  0  0
 13 29  1  0  0  0  0
 13 30  1  0  0  0  0
 13 31  1  0  0  0  0
 14 32  1  0  0  0  0
 14 33  1  0  0  0  0
 14 34  1  0  0  0  0
 15 35  1  0  0  0  0
 15 36  1  0  0  0  0
 15 37  1  0  0  0  0
 16 38  1  0  0  0  0
 16 39  1  0  0  0  0
 20 40  1  0  0  0  0
M  END
> <id>
EN300-697696

> <smiles>
CC=1C=CC=2N(C=C(C#CCO)C2C1)C(=O)OC(C)(C)C

> <MDLNUMBER>
MFCD31431497

> <IUPAC Name>
tert-butyl 3-(3-hydroxyprop-1-yn-1-yl)-5-methyl-1H-indole-1-carboxylate

> <CAS>
2137691-95-1

> <URL>
https://www.enaminestore.com/catalog/EN300-697696

> <ROCS_ShapeQuery>
A71EV2A-x0451_0A_A71EV2A-x0310_0A_A71EV2A-x0416_0A_peptide

> <ROCS_TanimotoCombo>
0.477 

> <ROCS_ShapeTanimoto>
0.347 

> <ROCS_ColorTanimoto>
0.131 

> <ROCS_RefTversky>
0.304 

> <ROCS_RefColorTversky>
0.143 

> <ROCS_RefTverskyCombo>
0.447 

> <ROCS_FitTversky>
1.679 

> <ROCS_FitColorTversky>
0.598 

> <ROCS_FitTverskyCombo>
2.277 

> <ROCS_ColorScore>
-4.365

> <ROCS_Overlap>
2110.312

> <ROCS_Rank>
419                 

$$$$
untitled-dbase-9952_80
  -OEChem-11132313473D

 40 41  0     0  0  0  0  0  0999 V2000
    7.0275   12.9280   25.1557 C   0  0  0  0  0  0  0  0  0  0  0  0
    6.3437   12.5575   26.3155 C   0  0  0  0  0  0  0  0  0  0  0  0
    6.9920   10.2592   25.9708 C   0  0  0  0  0  0  0  0  0  0  0  0
    7.7075   11.9703   24.3906 C   0  0  0  0  0  0  0  0  0  0  0  0
    6.3221   11.2241   26.7197 C   0  0  0  0  0  0  0  0  0  0  0  0
    7.6974   10.6351   24.8250 C   0  0  0  0  0  0  0  0  0  0  0  0
   10.8102   12.9935   23.5103 C   0  0  0  0  0  0  0  0  0  0  0  0
    8.3974   12.3774   23.1141 C   0  0  0  0  0  0  0  0  0  0  0  0
   10.1911   10.6611   22.9304 C   0  0  0  0  0  0  0  0  0  0  0  0
    9.7401    9.7933   24.0999 C   0  0  0  0  0  0  0  0  0  0  0  0
    5.5789   10.8298   27.9511 C   0  0  0  0  0  0  0  0  0  0  0  0
   12.6749   15.0807   22.9123 C   0  0  0  0  0  0  0  0  0  0  0  0
   13.8203   13.3869   21.4534 C   0  0  0  0  0  0  0  0  0  0  0  0
   11.4638   14.0890   20.9415 C   0  0  0  0  0  0  0  0  0  0  0  0
   12.4868   13.8350   22.0477 C   0  0  0  0  0  0  0  0  0  0  0  0
    9.8287   12.0628   23.1468 N   0  0  0  0  0  0  0  0  0  0  0  0
   10.6306   13.9178   24.3012 O   0  0  0  0  0  0  0  0  0  0  0  0
    8.3157    9.6351   24.1172 O   0  0  0  0  0  0  0  0  0  0  0  0
   12.0057   12.7721   22.8784 O   0  0  0  0  0  0  0  0  0  0  0  0
    7.0177   13.9713   24.8501 H   0  0  0  0  0  0  0  0  0  0  0  0
    5.8225   13.3167   26.8929 H   0  0  0  0  0  0  0  0  0  0  0  0
    6.9742    9.2171   26.2807 H   0  0  0  0  0  0  0  0  0  0  0  0
    7.9404   11.8576   22.2631 H   0  0  0  0  0  0  0  0  0  0  0  0
    8.2594   13.4477   22.9282 H   0  0  0  0  0  0  0  0  0  0  0  0
   11.2757   10.5746   22.8112 H   0  0  0  0  0  0  0  0  0  0  0  0
    9.7194   10.3361   21.9960 H   0  0  0  0  0  0  0  0  0  0  0  0
   10.1566    8.7882   23.9674 H   0  0  0  0  0  0  0  0  0  0  0  0
   10.1226   10.1631   25.0612 H   0  0  0  0  0  0  0  0  0  0  0  0
    4.5414   10.5724   27.7051 H   0  0  0  0  0  0  0  0  0  0  0  0
    6.0460    9.9641   28.4384 H   0  0  0  0  0  0  0  0  0  0  0  0
    5.5702   11.6429   28.6887 H   0  0  0  0  0  0  0  0  0  0  0  0
   11.7200   15.4055   23.3408 H   0  0  0  0  0  0  0  0  0  0  0  0
   13.3799   14.9011   23.7305 H   0  0  0  0  0  0  0  0  0  0  0  0
   13.0464   15.9200   22.3133 H   0  0  0  0  0  0  0  0  0  0  0  0
   13.6900   12.4934   20.8323 H   0  0  0  0  0  0  0  0  0  0  0  0
   14.5276   13.1125   22.2444 H   0  0  0  0  0  0  0  0  0  0  0  0
   14.2736   14.1724   20.8402 H   0  0  0  0  0  0  0  0  0  0  0  0
   11.3286   13.1956   20.3211 H   0  0  0  0  0  0  0  0  0  0  0  0
   10.4898   14.3759   21.3510 H   0  0  0  0  0  0  0  0  0  0  0  0
   11.8065   14.8836   20.2688 H   0  0  0  0  0  0  0  0  0  0  0  0
  1  2  1  0  0  0  0
  1  4  2  0  0  0  0
  2  5  2  0  0  0  0
  3  5  1  0  0  0  0
  3  6  2  0  0  0  0
  4  6  1  0  0  0  0
  4  8  1  0  0  0  0
  5 11  1  0  0  0  0
  6 18  1  0  0  0  0
  7 16  1  0  0  0  0
  7 17  2  0  0  0  0
  7 19  1  0  0  0  0
  8 16  1  0  0  0  0
  9 10  1  0  0  0  0
  9 16  1  0  0  0  0
 10 18  1  0  0  0  0
 12 15  1  0  0  0  0
 13 15  1  0  0  0  0
 14 15  1  0  0  0  0
 15 19  1  0  0  0  0
  1 20  1  0  0  0  0
  2 21  1  0  0  0  0
  3 22  1  0  0  0  0
  8 23  1  0  0  0  0
  8 24  1  0  0  0  0
  9 25  1  0  0  0  0
  9 26  1  0  0  0  0
 10 27  1  0  0  0  0
 10 28  1  0  0  0  0
 11 29  1  0  0  0  0
 11 30  1  0  0  0  0
 11 31  1  0  0  0  0
 12 32  1  0  0  0  0
 12 33  1  0  0  0  0
 12 34  1  0  0  0  0
 13 35  1  0  0  0  0
 13 36  1  0  0  0  0
 13 37  1  0  0  0  0
 14 38  1  0  0  0  0
 14 39  1  0  0  0  0
 14 40  1  0  0  0  0
M  END
> <id>
EN300-336166

> <smiles>
CC=1C=CC=2CN(CCOC2C1)C(=O)OC(C)(C)C

> <MDLNUMBER>
MFCD30498189

> <IUPAC Name>
tert-butyl 8-methyl-2,3,4,5-tetrahydro-1,4-benzoxazepine-4-carboxylate

> <CAS>
2060048-90-8

> <URL>
https://www.enaminestore.com/catalog/EN300-336166

> <ROCS_ShapeQuery>
A71EV2A-x0451_0A_A71EV2A-x0310_0A_A71EV2A-x0416_0A_peptide

> <ROCS_TanimotoCombo>
0.477 

> <ROCS_ShapeTanimoto>
0.322 

> <ROCS_ColorTanimoto>
0.156 

> <ROCS_RefTversky>
0.284 

> <ROCS_RefColorTversky>
0.163 

> <ROCS_RefTverskyCombo>
0.447 

> <ROCS_FitTversky>
1.690 

> <ROCS_FitColorTversky>
0.781 

> <ROCS_FitTverskyCombo>
2.471 

> <ROCS_ColorScore>
-4.947

> <ROCS_Overlap>
1972.389

> <ROCS_Rank>
420                 

$$$$
untitled-dbase-12198_0
  -OEChem-11132313473D

 40 41  0     0  0  0  0  0  0999 V2000
    8.7594    8.5613   22.9499 C   0  0  0  0  0  0  0  0  0  0  0  0
    8.6689    7.4257   22.5692 C   0  0  0  0  0  0  0  0  0  0  0  0
    6.3308   11.0872   25.9770 C   0  0  0  0  0  0  0  0  0  0  0  0
    6.9361   10.1760   25.1093 C   0  0  0  0  0  0  0  0  0  0  0  0
    6.8218   12.3816   26.0913 C   0  0  0  0  0  0  0  0  0  0  0  0
    9.8191   10.7980   22.9705 C   0  0  0  0  0  0  0  0  0  0  0  0
    8.8675    9.9080   23.4016 C   0  0  0  0  0  0  0  0  0  0  0  0
    8.0525   10.5760   24.3453 C   0  0  0  0  0  0  0  0  0  0  0  0
    7.9273   12.8008   25.3441 C   0  0  0  0  0  0  0  0  0  0  0  0
    8.5396   11.8845   24.4676 C   0  0  0  0  0  0  0  0  0  0  0  0
   10.4210   13.1630   23.4207 C   0  0  0  0  0  0  0  0  0  0  0  0
    8.3374   14.2200   25.5752 C   0  0  0  0  0  0  0  0  0  0  0  0
   12.9302   14.3301   22.7933 C   0  0  0  0  0  0  0  0  0  0  0  0
   12.1939   14.1713   20.3971 C   0  0  0  0  0  0  0  0  0  0  0  0
   10.8947   15.5883   22.0134 C   0  0  0  0  0  0  0  0  0  0  0  0
    8.5564    6.0436   22.1049 C   0  0  0  0  0  0  0  0  0  0  0  0
   11.7321   14.3213   21.8450 C   0  0  0  0  0  0  0  0  0  0  0  0
    9.6369   12.0124   23.6092 N   0  0  0  0  0  0  0  0  0  0  0  0
   10.5885   13.9761   24.3146 O   0  0  0  0  0  0  0  0  0  0  0  0
    9.8210    5.4030   22.1970 O   0  0  0  0  0  0  0  0  0  0  0  0
   10.9137   13.1897   22.1559 O   0  0  0  0  0  0  0  0  0  0  0  0
    5.4711   10.7798   26.5658 H   0  0  0  0  0  0  0  0  0  0  0  0
    6.5417    9.1664   25.0305 H   0  0  0  0  0  0  0  0  0  0  0  0
    6.3294   13.0697   26.7755 H   0  0  0  0  0  0  0  0  0  0  0  0
   10.6148   10.6509   22.2513 H   0  0  0  0  0  0  0  0  0  0  0  0
    9.0678   14.2746   26.3900 H   0  0  0  0  0  0  0  0  0  0  0  0
    8.7849   14.6534   24.6730 H   0  0  0  0  0  0  0  0  0  0  0  0
    7.4735   14.8430   25.8357 H   0  0  0  0  0  0  0  0  0  0  0  0
   12.6030   14.4376   23.8336 H   0  0  0  0  0  0  0  0  0  0  0  0
   13.5194   13.4113   22.7073 H   0  0  0  0  0  0  0  0  0  0  0  0
   13.5867   15.1829   22.5860 H   0  0  0  0  0  0  0  0  0  0  0  0
   11.3374   14.1645   19.7132 H   0  0  0  0  0  0  0  0  0  0  0  0
   12.7138   13.2177   20.2500 H   0  0  0  0  0  0  0  0  0  0  0  0
   12.8671   14.9824   20.1016 H   0  0  0  0  0  0  0  0  0  0  0  0
   10.0353   15.5823   21.3333 H   0  0  0  0  0  0  0  0  0  0  0  0
   10.5238   15.6934   23.0381 H   0  0  0  0  0  0  0  0  0  0  0  0
   11.4814   16.4794   21.7623 H   0  0  0  0  0  0  0  0  0  0  0  0
    7.8401    5.4868   22.7165 H   0  0  0  0  0  0  0  0  0  0  0  0
    8.2263    6.0113   21.0622 H   0  0  0  0  0  0  0  0  0  0  0  0
   10.4319    5.9053   21.6336 H   0  0  0  0  0  0  0  0  0  0  0  0
  1  2  3  0  0  0  0
  1  7  1  0  0  0  0
  2 16  1  0  0  0  0
  3  4  2  0  0  0  0
  3  5  1  0  0  0  0
  4  8  1  0  0  0  0
  5  9  2  0  0  0  0
  6  7  2  0  0  0  0
  6 18  1  0  0  0  0
  7  8  1  0  0  0  0
  8 10  2  0  0  0  0
  9 10  1  0  0  0  0
  9 12  1  0  0  0  0
 10 18  1  0  0  0  0
 11 18  1  0  0  0  0
 11 19  2  0  0  0  0
 11 21  1  0  0  0  0
 13 17  1  0  0  0  0
 14 17  1  0  0  0  0
 15 17  1  0  0  0  0
 16 20  1  0  0  0  0
 17 21  1  0  0  0  0
  3 22  1  0  0  0  0
  4 23  1  0  0  0  0
  5 24  1  0  0  0  0
  6 25  1  0  0  0  0
 12 26  1  0  0  0  0
 12 27  1  0  0  0  0
 12 28  1  0  0  0  0
 13 29  1  0  0  0  0
 13 30  1  0  0  0  0
 13 31  1  0  0  0  0
 14 32  1  0  0  0  0
 14 33  1  0  0  0  0
 14 34  1  0  0  0  0
 15 35  1  0  0  0  0
 15 36  1  0  0  0  0
 15 37  1  0  0  0  0
 16 38  1  0  0  0  0
 16 39  1  0  0  0  0
 20 40  1  0  0  0  0
M  END
> <id>
EN300-697695

> <smiles>
CC=1C=CC=C2C(C#CCO)=CN(C(=O)OC(C)(C)C)C12

> <MDLNUMBER>
MFCD31431496

> <IUPAC Name>
tert-butyl 3-(3-hydroxyprop-1-yn-1-yl)-7-methyl-1H-indole-1-carboxylate

> <CAS>
2138413-65-5

> <URL>
https://www.enaminestore.com/catalog/EN300-697695

> <ROCS_ShapeQuery>
A71EV2A-x0451_0A_A71EV2A-x0310_0A_A71EV2A-x0416_0A_peptide

> <ROCS_TanimotoCombo>
0.477 

> <ROCS_ShapeTanimoto>
0.346 

> <ROCS_ColorTanimoto>
0.131 

> <ROCS_RefTversky>
0.304 

> <ROCS_RefColorTversky>
0.143 

> <ROCS_RefTverskyCombo>
0.447 

> <ROCS_FitTversky>
1.676 

> <ROCS_FitColorTversky>
0.598 

> <ROCS_FitTverskyCombo>
2.274 

> <ROCS_ColorScore>
-4.365

> <ROCS_Overlap>
2110.711

> <ROCS_Rank>
421                 

$$$$
untitled-dbase-52083_109
  -OEChem-11132313473D

 40 41  0     1  0  0  0  0  0999 V2000
    8.4681   13.1863   25.7935 C   0  0  0  0  0  0  0  0  0  0  0  0
    7.2978   13.3180   26.5414 C   0  0  0  0  0  0  0  0  0  0  0  0
    6.3994   11.3804   25.4441 C   0  0  0  0  0  0  0  0  0  0  0  0
    7.5663   11.2341   24.6606 C   0  0  0  0  0  0  0  0  0  0  0  0
    8.6309   12.1474   24.8537 C   0  0  0  0  0  0  0  0  0  0  0  0
    6.2644   12.4105   26.3716 C   0  0  0  0  0  0  0  0  0  0  0  0
   10.6076   13.1584   23.7380 C   0  0  0  0  0  0  0  0  0  0  0  0
    9.8942   10.0871   22.6218 C   0  0  0  0  0  0  0  0  0  0  0  0
    8.4042   10.3182   22.3842 C   0  0  0  0  0  0  0  0  0  0  0  0
   10.3918   10.6662   23.9364 C   0  0  0  0  0  0  0  0  0  0  0  0
    7.5273   10.1224   23.6250 C   0  0  1  0  0  0  0  0  0  0  0  0
   12.2157   15.1425   22.4382 C   0  0  0  0  0  0  0  0  0  0  0  0
   12.2834   13.5505   20.4965 C   0  0  0  0  0  0  0  0  0  0  0  0
   10.0876   14.5048   21.2553 C   0  0  0  0  0  0  0  0  0  0  0  0
   11.4719   14.0324   21.6971 C   0  0  0  0  0  0  0  0  0  0  0  0
    9.8914   12.0249   24.1714 N   0  0  0  0  0  0  0  0  0  0  0  0
   10.5954   14.2604   24.2835 O   0  0  0  0  0  0  0  0  0  0  0  0
    7.8168    8.8823   24.2645 O   0  0  0  0  0  0  0  0  0  0  0  0
   11.3122   12.9195   22.5847 O   0  0  0  0  0  0  0  0  0  0  0  0
    4.8224   12.5576   27.2976 Cl  0  0  0  0  0  0  0  0  0  0  0  0
    9.2737   13.8852   26.0051 H   0  0  0  0  0  0  0  0  0  0  0  0
    7.2197   14.1253   27.2650 H   0  0  0  0  0  0  0  0  0  0  0  0
    5.5764   10.6796   25.3074 H   0  0  0  0  0  0  0  0  0  0  0  0
   10.1054    9.0106   22.6128 H   0  0  0  0  0  0  0  0  0  0  0  0
   10.4568   10.5171   21.7842 H   0  0  0  0  0  0  0  0  0  0  0  0
    8.2417   11.3200   21.9667 H   0  0  0  0  0  0  0  0  0  0  0  0
    8.0877    9.6076   21.6096 H   0  0  0  0  0  0  0  0  0  0  0  0
   10.1088   10.0324   24.7859 H   0  0  0  0  0  0  0  0  0  0  0  0
   11.4875   10.6647   23.9353 H   0  0  0  0  0  0  0  0  0  0  0  0
    6.4944   10.0561   23.2567 H   0  0  0  0  0  0  0  0  0  0  0  0
   11.6364   15.4912   23.3007 H   0  0  0  0  0  0  0  0  0  0  0  0
   13.1959   14.8056   22.7908 H   0  0  0  0  0  0  0  0  0  0  0  0
   12.3618   16.0149   21.7909 H   0  0  0  0  0  0  0  0  0  0  0  0
   11.7535   12.7539   19.9618 H   0  0  0  0  0  0  0  0  0  0  0  0
   13.2400   13.1229   20.8182 H   0  0  0  0  0  0  0  0  0  0  0  0
   12.4865   14.3644   19.7932 H   0  0  0  0  0  0  0  0  0  0  0  0
    9.5539   13.7087   20.7237 H   0  0  0  0  0  0  0  0  0  0  0  0
    9.4777   14.8199   22.1081 H   0  0  0  0  0  0  0  0  0  0  0  0
   10.1675   15.3444   20.5552 H   0  0  0  0  0  0  0  0  0  0  0  0
    7.7827    8.2011   23.5750 H   0  0  0  0  0  0  0  0  0  0  0  0
  1  2  1  0  0  0  0
  1  5  2  0  0  0  0
  2  6  2  0  0  0  0
  3  4  2  0  0  0  0
  3  6  1  0  0  0  0
  4  5  1  0  0  0  0
  4 11  1  0  0  0  0
  5 16  1  0  0  0  0
  6 20  1  0  0  0  0
  7 16  1  0  0  0  0
  7 17  2  0  0  0  0
  7 19  1  0  0  0  0
  8  9  1  0  0  0  0
  8 10  1  0  0  0  0
  9 11  1  0  0  0  0
 10 16  1  0  0  0  0
 11 18  1  0  0  0  0
 12 15  1  0  0  0  0
 13 15  1  0  0  0  0
 14 15  1  0  0  0  0
 15 19  1  0  0  0  0
  1 21  1  0  0  0  0
  2 22  1  0  0  0  0
  3 23  1  0  0  0  0
  8 24  1  0  0  0  0
  8 25  1  0  0  0  0
  9 26  1  0  0  0  0
  9 27  1  0  0  0  0
 10 28  1  0  0  0  0
 10 29  1  0  0  0  0
 11 30  1  0  0  0  0
 12 31  1  0  0  0  0
 12 32  1  0  0  0  0
 12 33  1  0  0  0  0
 13 34  1  0  0  0  0
 13 35  1  0  0  0  0
 13 36  1  0  0  0  0
 14 37  1  0  0  0  0
 14 38  1  0  0  0  0
 14 39  1  0  0  0  0
 18 40  1  0  0  0  0
M  END
> <id>
EN300-34666809

> <smiles>
CC(C)(C)OC(=O)N1CCCC(O)C=2C=C(Cl)C=CC12

> <IUPAC Name>
tert-butyl 7-chloro-5-hydroxy-2,3,4,5-tetrahydro-1H-1-benzazepine-1-carboxylate

> <URL>
https://www.enaminestore.com/catalog/EN300-34666809

> <ROCS_ShapeQuery>
A71EV2A-x0451_0A_A71EV2A-x0310_0A_A71EV2A-x0416_0A_peptide

> <ROCS_TanimotoCombo>
0.477 

> <ROCS_ShapeTanimoto>
0.332 

> <ROCS_ColorTanimoto>
0.145 

> <ROCS_RefTversky>
0.292 

> <ROCS_RefColorTversky>
0.157 

> <ROCS_RefTverskyCombo>
0.449 

> <ROCS_FitTversky>
1.694 

> <ROCS_FitColorTversky>
0.655 

> <ROCS_FitTverskyCombo>
2.350 

> <ROCS_ColorScore>
-4.776

> <ROCS_Overlap>
2029.534

> <ROCS_Rank>
422                 

$$$$
untitled-dbase-45508_0
  -OEChem-11132313473D

 39 40  0     0  0  0  0  0  0999 V2000
    6.3289   11.1104   25.9964 C   0  0  0  0  0  0  0  0  0  0  0  0
    6.9124   10.1850   25.1313 C   0  0  0  0  0  0  0  0  0  0  0  0
    6.8438   12.4089   26.0970 C   0  0  0  0  0  0  0  0  0  0  0  0
    8.0106   10.5768   24.3745 C   0  0  0  0  0  0  0  0  0  0  0  0
    8.5227   11.8733   24.4765 C   0  0  0  0  0  0  0  0  0  0  0  0
    7.9481   12.8002   25.3349 C   0  0  0  0  0  0  0  0  0  0  0  0
   10.3895   13.1770   23.4521 C   0  0  0  0  0  0  0  0  0  0  0  0
    9.8574   10.7603   22.9003 C   0  0  0  0  0  0  0  0  0  0  0  0
    8.7922    9.7449   23.3848 C   0  0  0  0  0  0  0  0  0  0  0  0
    7.9083    9.2817   22.2219 C   0  0  0  0  0  0  0  0  0  0  0  0
    9.4530    8.5421   24.0671 C   0  0  0  0  0  0  0  0  0  0  0  0
   12.9033   14.4068   22.8454 C   0  0  0  0  0  0  0  0  0  0  0  0
   12.1737   14.2885   20.4448 C   0  0  0  0  0  0  0  0  0  0  0  0
   10.8553   15.6576   22.0866 C   0  0  0  0  0  0  0  0  0  0  0  0
   11.7074   14.4039   21.8944 C   0  0  0  0  0  0  0  0  0  0  0  0
    9.6264   12.0289   23.6182 N   0  0  0  0  0  0  0  0  0  0  0  0
   10.6012   14.0314   24.3080 O   0  0  0  0  0  0  0  0  0  0  0  0
   10.9003   13.2557   22.1807 O   0  0  0  0  0  0  0  0  0  0  0  0
    8.2876   14.6661   25.4166 Br  0  0  0  0  0  0  0  0  0  0  0  0
    5.4656   10.8249   26.5911 H   0  0  0  0  0  0  0  0  0  0  0  0
    6.5092    9.1805   25.0561 H   0  0  0  0  0  0  0  0  0  0  0  0
    6.3385   13.1064   26.7623 H   0  0  0  0  0  0  0  0  0  0  0  0
   10.8815   10.4203   23.0999 H   0  0  0  0  0  0  0  0  0  0  0  0
    9.7793   10.9622   21.8247 H   0  0  0  0  0  0  0  0  0  0  0  0
    8.4993    8.6873   21.5298 H   0  0  0  0  0  0  0  0  0  0  0  0
    7.5075   10.1481   21.7019 H   0  0  0  0  0  0  0  0  0  0  0  0
    7.0883    8.6798   22.6053 H   0  0  0  0  0  0  0  0  0  0  0  0
   10.0063    7.9649   23.3308 H   0  0  0  0  0  0  0  0  0  0  0  0
    8.6885    7.9142   24.5174 H   0  0  0  0  0  0  0  0  0  0  0  0
   10.1345    8.8908   24.8388 H   0  0  0  0  0  0  0  0  0  0  0  0
   12.5727   14.4895   23.8870 H   0  0  0  0  0  0  0  0  0  0  0  0
   13.5031   13.4967   22.7421 H   0  0  0  0  0  0  0  0  0  0  0  0
   13.5506   15.2710   22.6570 H   0  0  0  0  0  0  0  0  0  0  0  0
   11.3189   14.2860   19.7589 H   0  0  0  0  0  0  0  0  0  0  0  0
   12.7048   13.3441   20.2796 H   0  0  0  0  0  0  0  0  0  0  0  0
   12.8384   15.1131   20.1674 H   0  0  0  0  0  0  0  0  0  0  0  0
    9.9974   15.6557   21.4045 H   0  0  0  0  0  0  0  0  0  0  0  0
   10.4811   15.7376   23.1124 H   0  0  0  0  0  0  0  0  0  0  0  0
   11.4324   16.5602   21.8550 H   0  0  0  0  0  0  0  0  0  0  0  0
  1  2  1  0  0  0  0
  1  3  2  0  0  0  0
  2  4  2  0  0  0  0
  3  6  1  0  0  0  0
  4  5  1  0  0  0  0
  4  9  1  0  0  0  0
  5  6  2  0  0  0  0
  5 16  1  0  0  0  0
  6 19  1  0  0  0  0
  7 16  1  0  0  0  0
  7 17  2  0  0  0  0
  7 18  1  0  0  0  0
  8  9  1  0  0  0  0
  8 16  1  0  0  0  0
  9 10  1  0  0  0  0
  9 11  1  0  0  0  0
 12 15  1  0  0  0  0
 13 15  1  0  0  0  0
 14 15  1  0  0  0  0
 15 18  1  0  0  0  0
  1 20  1  0  0  0  0
  2 21  1  0  0  0  0
  3 22  1  0  0  0  0
  8 23  1  0  0  0  0
  8 24  1  0  0  0  0
 10 25  1  0  0  0  0
 10 26  1  0  0  0  0
 10 27  1  0  0  0  0
 11 28  1  0  0  0  0
 11 29  1  0  0  0  0
 11 30  1  0  0  0  0
 12 31  1  0  0  0  0
 12 32  1  0  0  0  0
 12 33  1  0  0  0  0
 13 34  1  0  0  0  0
 13 35  1  0  0  0  0
 13 36  1  0  0  0  0
 14 37  1  0  0  0  0
 14 38  1  0  0  0  0
 14 39  1  0  0  0  0
M  END
> <id>
EN300-28294790

> <smiles>
CC(C)(C)OC(=O)N1CC(C)(C)C=2C=CC=C(Br)C12

> <IUPAC Name>
tert-butyl 7-bromo-3,3-dimethyl-2,3-dihydro-1H-indole-1-carboxylate

> <CAS>
2680668-05-5

> <URL>
https://www.enaminestore.com/catalog/EN300-28294790

> <ROCS_ShapeQuery>
A71EV2A-x0451_0A_A71EV2A-x0310_0A_A71EV2A-x0416_0A_peptide

> <ROCS_TanimotoCombo>
0.477 

> <ROCS_ShapeTanimoto>
0.347 

> <ROCS_ColorTanimoto>
0.130 

> <ROCS_RefTversky>
0.301 

> <ROCS_RefColorTversky>
0.143 

> <ROCS_RefTverskyCombo>
0.444 

> <ROCS_FitTversky>
1.797 

> <ROCS_FitColorTversky>
0.596 

> <ROCS_FitTverskyCombo>
2.393 

> <ROCS_ColorScore>
-4.350

> <ROCS_Overlap>
2085.938

> <ROCS_Rank>
423                 

$$$$
untitled-dbase-38742_16
  -OEChem-11132313473D

 39 42  0     1  0  0  0  0  0999 V2000
   10.5049   14.5650   22.5434 C   0  0  0  0  0  0  0  0  0  0  0  0
    8.4331    9.5758   24.2577 C   0  0  0  0  0  0  0  0  0  0  0  0
   10.7896   12.4999   23.8979 C   0  0  0  0  0  0  0  0  0  0  0  0
    9.3463   12.4089   21.9394 C   0  0  0  0  0  0  0  0  0  0  0  0
    9.2488   10.6603   25.0000 C   0  0  1  0  0  0  0  0  0  0  0  0
    7.9196   10.5756   23.1951 C   0  0  2  0  0  0  0  0  0  0  0  0
   10.1915   11.1061   23.8554 C   0  0  1  0  0  0  0  0  0  0  0  0
    9.2719   11.0477   22.6066 C   0  0  2  0  0  0  0  0  0  0  0  0
    8.1473   11.6597   25.3084 C   0  0  2  0  0  0  0  0  0  0  0  0
    7.2530   11.6028   24.0940 C   0  0  1  0  0  0  0  0  0  0  0  0
   12.7668   15.5319   21.0881 C   0  0  0  0  0  0  0  0  0  0  0  0
   11.1226   16.1164   19.2813 C   0  0  0  0  0  0  0  0  0  0  0  0
   10.9449   17.2098   21.5355 C   0  0  0  0  0  0  0  0  0  0  0  0
   11.3245   15.9345   20.7841 C   0  0  0  0  0  0  0  0  0  0  0  0
   10.2189   13.2273   22.7741 N   0  0  0  0  0  0  0  0  0  0  0  0
   10.7712   15.3762   23.4275 O   0  0  0  0  0  0  0  0  0  0  0  0
    7.9468   12.7858   24.4656 O   0  0  0  0  0  0  0  0  0  0  0  0
   10.4569   14.8784   21.2112 O   0  0  0  0  0  0  0  0  0  0  0  0
    9.0451    8.7669   23.8450 H   0  0  0  0  0  0  0  0  0  0  0  0
    7.6272    9.1565   24.8709 H   0  0  0  0  0  0  0  0  0  0  0  0
   10.6014   13.0399   24.8312 H   0  0  0  0  0  0  0  0  0  0  0  0
   11.8754   12.4670   23.7516 H   0  0  0  0  0  0  0  0  0  0  0  0
    9.8098   12.3364   20.9490 H   0  0  0  0  0  0  0  0  0  0  0  0
    8.3745   12.8967   21.8146 H   0  0  0  0  0  0  0  0  0  0  0  0
    9.7701   10.3023   25.8905 H   0  0  0  0  0  0  0  0  0  0  0  0
    7.2417   10.1413   22.4572 H   0  0  0  0  0  0  0  0  0  0  0  0
   10.9953   10.3656   23.7458 H   0  0  0  0  0  0  0  0  0  0  0  0
    9.6488   10.2805   21.9170 H   0  0  0  0  0  0  0  0  0  0  0  0
    7.6956   11.5965   26.2859 H   0  0  0  0  0  0  0  0  0  0  0  0
    6.1893   11.5001   24.2409 H   0  0  0  0  0  0  0  0  0  0  0  0
   12.9158   15.4004   22.1658 H   0  0  0  0  0  0  0  0  0  0  0  0
   13.0404   14.5998   20.5829 H   0  0  0  0  0  0  0  0  0  0  0  0
   13.4661   16.3147   20.7726 H   0  0  0  0  0  0  0  0  0  0  0  0
   10.0891   16.4054   19.0586 H   0  0  0  0  0  0  0  0  0  0  0  0
   11.3024   15.1766   18.7468 H   0  0  0  0  0  0  0  0  0  0  0  0
   11.7919   16.8808   18.8734 H   0  0  0  0  0  0  0  0  0  0  0  0
    9.9104   17.4988   21.3176 H   0  0  0  0  0  0  0  0  0  0  0  0
   11.0484   17.0858   22.6183 H   0  0  0  0  0  0  0  0  0  0  0  0
   11.5738   18.0500   21.2195 H   0  0  0  0  0  0  0  0  0  0  0  0
  1 15  1  0  0  0  0
  1 16  2  0  0  0  0
  1 18  1  0  0  0  0
  2  5  1  1  0  0  0
  2  6  1  1  0  0  0
  3  7  1  6  0  0  0
  3 15  1  0  0  0  0
  4  8  1  6  0  0  0
  4 15  1  0  0  0  0
  5  7  1  0  0  0  0
  5  9  1  0  0  0  0
  6  8  1  0  0  0  0
  6 10  1  0  0  0  0
  7  8  1  0  0  0  0
  9 10  1  0  0  0  0
  9 17  1  6  0  0  0
 10 17  1  6  0  0  0
 11 14  1  0  0  0  0
 12 14  1  0  0  0  0
 13 14  1  0  0  0  0
 14 18  1  0  0  0  0
  2 19  1  0  0  0  0
  2 20  1  0  0  0  0
  3 21  1  0  0  0  0
  3 22  1  0  0  0  0
  4 23  1  0  0  0  0
  4 24  1  0  0  0  0
  5 25  1  0  0  0  0
  6 26  1  0  0  0  0
  7 27  1  0  0  0  0
  8 28  1  0  0  0  0
  9 29  1  0  0  0  0
 10 30  1  0  0  0  0
 11 31  1  0  0  0  0
 11 32  1  0  0  0  0
 11 33  1  0  0  0  0
 12 34  1  0  0  0  0
 12 35  1  0  0  0  0
 12 36  1  0  0  0  0
 13 37  1  0  0  0  0
 13 38  1  0  0  0  0
 13 39  1  0  0  0  0
M  END
> <id>
EN300-383916

> <smiles>
CC(C)(C)OC(=O)N1C[C@H]2[C@@H]3C[C@@H]([C@@H]4O[C@@H]43)[C@H]2C1

> <MDLNUMBER>
MFCD30750666

> <IUPAC Name>
tert-butyl (1R,2S,6R,7S,8R,10S)-9-oxa-4-azatetracyclo[5.3.1.0^{2,6}.0^{8,10}]undecane-4-carboxylate

> <CAS>
2126143-04-0

> <Purity>
95

> <URL>
https://www.enaminestore.com/catalog/EN300-383916

> <ROCS_ShapeQuery>
A71EV2A-x0451_0A_A71EV2A-x0310_0A_A71EV2A-x0416_0A_peptide

> <ROCS_TanimotoCombo>
0.477 

> <ROCS_ShapeTanimoto>
0.284 

> <ROCS_ColorTanimoto>
0.193 

> <ROCS_RefTversky>
0.258 

> <ROCS_RefColorTversky>
0.276 

> <ROCS_RefTverskyCombo>
0.534 

> <ROCS_FitTversky>
1.549 

> <ROCS_FitColorTversky>
0.392 

> <ROCS_FitTverskyCombo>
1.941 

> <ROCS_ColorScore>
-8.607

> <ROCS_Overlap>
1790.618

> <ROCS_Rank>
424                 

$$$$
untitled-dbase-47093_77
  -OEChem-11132313473D

 37 38  0     0  0  0  0  0  0999 V2000
    6.3283   11.2145   26.7256 C   0  0  0  0  0  0  0  0  0  0  0  0
    6.9975   10.2519   25.9731 C   0  0  0  0  0  0  0  0  0  0  0  0
    6.3473   12.5487   26.3242 C   0  0  0  0  0  0  0  0  0  0  0  0
    7.7073   11.9671   24.3947 C   0  0  0  0  0  0  0  0  0  0  0  0
    7.6997   10.6310   24.8265 C   0  0  0  0  0  0  0  0  0  0  0  0
    7.0279   12.9224   25.1635 C   0  0  0  0  0  0  0  0  0  0  0  0
   10.8066   12.9958   23.5092 C   0  0  0  0  0  0  0  0  0  0  0  0
    8.3936   12.3776   23.1175 C   0  0  0  0  0  0  0  0  0  0  0  0
   10.1888   10.6638   22.9259 C   0  0  0  0  0  0  0  0  0  0  0  0
    9.7417    9.7931   24.0947 C   0  0  0  0  0  0  0  0  0  0  0  0
   12.6674   15.0864   22.9110 C   0  0  0  0  0  0  0  0  0  0  0  0
   13.8113   13.3969   21.4459 C   0  0  0  0  0  0  0  0  0  0  0  0
   11.4527   14.0973   20.9410 C   0  0  0  0  0  0  0  0  0  0  0  0
   12.4787   13.8422   22.0443 C   0  0  0  0  0  0  0  0  0  0  0  0
    9.8254   12.0647   23.1460 N   0  0  0  0  0  0  0  0  0  0  0  0
   10.6278   13.9182   24.3024 O   0  0  0  0  0  0  0  0  0  0  0  0
    8.3175    9.6332   24.1151 O   0  0  0  0  0  0  0  0  0  0  0  0
   12.0008   12.7771   22.8739 O   0  0  0  0  0  0  0  0  0  0  0  0
    6.9645   14.6060   24.7582 Cl  0  0  0  0  0  0  0  0  0  0  0  0
    5.7898   10.9247   27.6232 H   0  0  0  0  0  0  0  0  0  0  0  0
    6.9763    9.2121   26.2877 H   0  0  0  0  0  0  0  0  0  0  0  0
    5.8180   13.2840   26.9256 H   0  0  0  0  0  0  0  0  0  0  0  0
    7.9392   11.8333   22.2795 H   0  0  0  0  0  0  0  0  0  0  0  0
    8.2691   13.4330   22.8701 H   0  0  0  0  0  0  0  0  0  0  0  0
   11.2734   10.5789   22.8048 H   0  0  0  0  0  0  0  0  0  0  0  0
    9.7165   10.3395   21.9919 H   0  0  0  0  0  0  0  0  0  0  0  0
   10.1577    8.7884   23.9587 H   0  0  0  0  0  0  0  0  0  0  0  0
   10.1265   10.1604   25.0561 H   0  0  0  0  0  0  0  0  0  0  0  0
   11.7132   15.4092   23.3424 H   0  0  0  0  0  0  0  0  0  0  0  0
   13.3747   14.9059   23.7272 H   0  0  0  0  0  0  0  0  0  0  0  0
   13.0365   15.9273   22.3129 H   0  0  0  0  0  0  0  0  0  0  0  0
   13.6806   12.5045   20.8232 H   0  0  0  0  0  0  0  0  0  0  0  0
   14.5208   13.1217   22.2346 H   0  0  0  0  0  0  0  0  0  0  0  0
   14.2622   14.1842   20.8331 H   0  0  0  0  0  0  0  0  0  0  0  0
   11.3172   13.2051   20.3192 H   0  0  0  0  0  0  0  0  0  0  0  0
   10.4794   14.3823   21.3535 H   0  0  0  0  0  0  0  0  0  0  0  0
   11.7929   14.8937   20.2692 H   0  0  0  0  0  0  0  0  0  0  0  0
  1  2  1  0  0  0  0
  1  3  2  0  0  0  0
  2  5  2  0  0  0  0
  3  6  1  0  0  0  0
  4  5  1  0  0  0  0
  4  6  2  0  0  0  0
  4  8  1  0  0  0  0
  5 17  1  0  0  0  0
  6 19  1  0  0  0  0
  7 15  1  0  0  0  0
  7 16  2  0  0  0  0
  7 18  1  0  0  0  0
  8 15  1  0  0  0  0
  9 10  1  0  0  0  0
  9 15  1  0  0  0  0
 10 17  1  0  0  0  0
 11 14  1  0  0  0  0
 12 14  1  0  0  0  0
 13 14  1  0  0  0  0
 14 18  1  0  0  0  0
  1 20  1  0  0  0  0
  2 21  1  0  0  0  0
  3 22  1  0  0  0  0
  8 23  1  0  0  0  0
  8 24  1  0  0  0  0
  9 25  1  0  0  0  0
  9 26  1  0  0  0  0
 10 27  1  0  0  0  0
 10 28  1  0  0  0  0
 11 29  1  0  0  0  0
 11 30  1  0  0  0  0
 11 31  1  0  0  0  0
 12 32  1  0  0  0  0
 12 33  1  0  0  0  0
 12 34  1  0  0  0  0
 13 35  1  0  0  0  0
 13 36  1  0  0  0  0
 13 37  1  0  0  0  0
M  END
> <id>
EN300-33050370

> <smiles>
CC(C)(C)OC(=O)N1CCOC=2C=CC=C(Cl)C2C1

> <IUPAC Name>
tert-butyl 6-chloro-2,3,4,5-tetrahydro-1,4-benzoxazepine-4-carboxylate

> <CAS>
2694722-99-9

> <URL>
https://www.enaminestore.com/catalog/EN300-33050370

> <ROCS_ShapeQuery>
A71EV2A-x0451_0A_A71EV2A-x0310_0A_A71EV2A-x0416_0A_peptide

> <ROCS_TanimotoCombo>
0.477 

> <ROCS_ShapeTanimoto>
0.321 

> <ROCS_ColorTanimoto>
0.156 

> <ROCS_RefTversky>
0.284 

> <ROCS_RefColorTversky>
0.163 

> <ROCS_RefTverskyCombo>
0.447 

> <ROCS_FitTversky>
1.696 

> <ROCS_FitColorTversky>
0.781 

> <ROCS_FitTverskyCombo>
2.476 

> <ROCS_ColorScore>
-4.947

> <ROCS_Overlap>
1970.062

> <ROCS_Rank>
425                 

$$$$
untitled-dbase-9953_81
  -OEChem-11132313473D

 37 38  0     0  0  0  0  0  0999 V2000
    7.0302   12.9207   25.1660 C   0  0  0  0  0  0  0  0  0  0  0  0
    6.3494   12.5431   26.3254 C   0  0  0  0  0  0  0  0  0  0  0  0
    6.9986   10.2473   25.9661 C   0  0  0  0  0  0  0  0  0  0  0  0
    7.7091   11.9678   24.3939 C   0  0  0  0  0  0  0  0  0  0  0  0
    7.7010   10.6302   24.8208 C   0  0  0  0  0  0  0  0  0  0  0  0
    6.3298   11.2075   26.7220 C   0  0  0  0  0  0  0  0  0  0  0  0
   10.8090   12.9984   23.5121 C   0  0  0  0  0  0  0  0  0  0  0  0
    8.3956   12.3826   23.1181 C   0  0  0  0  0  0  0  0  0  0  0  0
   10.1902   10.6688   22.9204 C   0  0  0  0  0  0  0  0  0  0  0  0
    9.7426    9.7941   24.0861 C   0  0  0  0  0  0  0  0  0  0  0  0
   12.6707   15.0903   22.9214 C   0  0  0  0  0  0  0  0  0  0  0  0
   13.8138   13.4056   21.4503 C   0  0  0  0  0  0  0  0  0  0  0  0
   11.4556   14.1088   20.9479 C   0  0  0  0  0  0  0  0  0  0  0  0
   12.4814   13.8493   22.0502 C   0  0  0  0  0  0  0  0  0  0  0  0
    9.8273   12.0690   23.1456 N   0  0  0  0  0  0  0  0  0  0  0  0
   10.6305   13.9181   24.3085 O   0  0  0  0  0  0  0  0  0  0  0  0
    8.3184    9.6347   24.1059 O   0  0  0  0  0  0  0  0  0  0  0  0
   12.0031   12.7815   22.8760 O   0  0  0  0  0  0  0  0  0  0  0  0
    5.4764   10.7440   28.1428 Cl  0  0  0  0  0  0  0  0  0  0  0  0
    7.0189   13.9658   24.8665 H   0  0  0  0  0  0  0  0  0  0  0  0
    5.8301   13.3031   26.9040 H   0  0  0  0  0  0  0  0  0  0  0  0
    6.9861    9.2017   26.2653 H   0  0  0  0  0  0  0  0  0  0  0  0
    7.9371   11.8672   22.2654 H   0  0  0  0  0  0  0  0  0  0  0  0
    8.2563   13.4539   22.9386 H   0  0  0  0  0  0  0  0  0  0  0  0
   11.2747   10.5839   22.7985 H   0  0  0  0  0  0  0  0  0  0  0  0
    9.7169   10.3487   21.9854 H   0  0  0  0  0  0  0  0  0  0  0  0
   10.1594    8.7901   23.9467 H   0  0  0  0  0  0  0  0  0  0  0  0
   10.1273   10.1584   25.0486 H   0  0  0  0  0  0  0  0  0  0  0  0
   11.7165   15.4120   23.3540 H   0  0  0  0  0  0  0  0  0  0  0  0
   13.3778   14.9066   23.7369 H   0  0  0  0  0  0  0  0  0  0  0  0
   13.0401   15.9333   22.3263 H   0  0  0  0  0  0  0  0  0  0  0  0
   13.6827   12.5155   20.8244 H   0  0  0  0  0  0  0  0  0  0  0  0
   14.5232   13.1273   22.2380 H   0  0  0  0  0  0  0  0  0  0  0  0
   14.2651   14.1949   20.8403 H   0  0  0  0  0  0  0  0  0  0  0  0
   11.3196   13.2189   20.3228 H   0  0  0  0  0  0  0  0  0  0  0  0
   10.4824   14.3927   21.3613 H   0  0  0  0  0  0  0  0  0  0  0  0
   11.7961   14.9074   20.2789 H   0  0  0  0  0  0  0  0  0  0  0  0
  1  2  1  0  0  0  0
  1  4  2  0  0  0  0
  2  6  2  0  0  0  0
  3  5  2  0  0  0  0
  3  6  1  0  0  0  0
  4  5  1  0  0  0  0
  4  8  1  0  0  0  0
  5 17  1  0  0  0  0
  6 19  1  0  0  0  0
  7 15  1  0  0  0  0
  7 16  2  0  0  0  0
  7 18  1  0  0  0  0
  8 15  1  0  0  0  0
  9 10  1  0  0  0  0
  9 15  1  0  0  0  0
 10 17  1  0  0  0  0
 11 14  1  0  0  0  0
 12 14  1  0  0  0  0
 13 14  1  0  0  0  0
 14 18  1  0  0  0  0
  1 20  1  0  0  0  0
  2 21  1  0  0  0  0
  3 22  1  0  0  0  0
  8 23  1  0  0  0  0
  8 24  1  0  0  0  0
  9 25  1  0  0  0  0
  9 26  1  0  0  0  0
 10 27  1  0  0  0  0
 10 28  1  0  0  0  0
 11 29  1  0  0  0  0
 11 30  1  0  0  0  0
 11 31  1  0  0  0  0
 12 32  1  0  0  0  0
 12 33  1  0  0  0  0
 12 34  1  0  0  0  0
 13 35  1  0  0  0  0
 13 36  1  0  0  0  0
 13 37  1  0  0  0  0
M  END
> <id>
EN300-336167

> <smiles>
CC(C)(C)OC(=O)N1CCOC=2C=C(Cl)C=CC2C1

> <MDLNUMBER>
MFCD30498190

> <IUPAC Name>
tert-butyl 8-chloro-2,3,4,5-tetrahydro-1,4-benzoxazepine-4-carboxylate

> <CAS>
2060041-85-0

> <URL>
https://www.enaminestore.com/catalog/EN300-336167

> <ROCS_ShapeQuery>
A71EV2A-x0451_0A_A71EV2A-x0310_0A_A71EV2A-x0416_0A_peptide

> <ROCS_TanimotoCombo>
0.477 

> <ROCS_ShapeTanimoto>
0.321 

> <ROCS_ColorTanimoto>
0.156 

> <ROCS_RefTversky>
0.284 

> <ROCS_RefColorTversky>
0.163 

> <ROCS_RefTverskyCombo>
0.447 

> <ROCS_FitTversky>
1.697 

> <ROCS_FitColorTversky>
0.780 

> <ROCS_FitTverskyCombo>
2.477 

> <ROCS_ColorScore>
-4.946

> <ROCS_Overlap>
1969.480

> <ROCS_Rank>
426                 

$$$$
untitled-dbase-1423_5
  -OEChem-11132313473D

 35 36  0     1  0  0  0  0  0999 V2000
   10.4777   12.9968   23.6488 C   0  0  0  0  0  0  0  0  0  0  0  0
    6.9335   11.0616   23.8458 C   0  0  0  0  0  0  0  0  0  0  0  0
    7.8847   11.0712   22.6293 C   0  0  0  0  0  0  0  0  0  0  0  0
    8.7562   12.0390   25.2542 C   0  0  0  0  0  0  0  0  0  0  0  0
    7.8888   10.7833   25.0317 C   0  0  2  0  0  0  0  0  0  0  0  0
    9.2591   10.8154   23.2791 C   0  0  2  0  0  0  0  0  0  0  0  0
    8.9316    9.8304   24.4128 C   0  0  2  0  0  0  0  0  0  0  0  0
   12.4639   14.6409   22.4175 C   0  0  0  0  0  0  0  0  0  0  0  0
   12.1367   13.1974   20.3882 C   0  0  0  0  0  0  0  0  0  0  0  0
   10.2257   14.5688   21.2687 C   0  0  0  0  0  0  0  0  0  0  0  0
   11.4763   13.7729   21.6391 C   0  0  0  0  0  0  0  0  0  0  0  0
    9.5835   12.0258   24.0471 N   0  0  0  0  0  0  0  0  0  0  0  0
    8.4070    8.5469   23.9789 N   0  0  0  0  0  0  0  0  0  0  0  0
   10.7022   14.0297   24.2749 O   0  0  0  0  0  0  0  0  0  0  0  0
   11.0871   12.6713   22.4670 O   0  0  0  0  0  0  0  0  0  0  0  0
    6.4025   12.0127   23.9551 H   0  0  0  0  0  0  0  0  0  0  0  0
    6.1877   10.2661   23.7405 H   0  0  0  0  0  0  0  0  0  0  0  0
    7.6193   10.2727   21.9277 H   0  0  0  0  0  0  0  0  0  0  0  0
    7.8476   12.0219   22.0868 H   0  0  0  0  0  0  0  0  0  0  0  0
    8.1856   12.9701   25.3187 H   0  0  0  0  0  0  0  0  0  0  0  0
    9.4129   11.9450   26.1252 H   0  0  0  0  0  0  0  0  0  0  0  0
    7.3882   10.4270   25.9343 H   0  0  0  0  0  0  0  0  0  0  0  0
   10.0483   10.5298   22.5804 H   0  0  0  0  0  0  0  0  0  0  0  0
    9.7899    9.6680   25.0770 H   0  0  0  0  0  0  0  0  0  0  0  0
   11.9937   15.0559   23.3162 H   0  0  0  0  0  0  0  0  0  0  0  0
   13.3497   14.0726   22.7194 H   0  0  0  0  0  0  0  0  0  0  0  0
   12.7904   15.4971   21.8161 H   0  0  0  0  0  0  0  0  0  0  0  0
   11.4317   12.5738   19.8266 H   0  0  0  0  0  0  0  0  0  0  0  0
   12.9784   12.5481   20.6548 H   0  0  0  0  0  0  0  0  0  0  0  0
   12.5046   13.9875   19.7256 H   0  0  0  0  0  0  0  0  0  0  0  0
    9.5171   13.9464   20.7104 H   0  0  0  0  0  0  0  0  0  0  0  0
    9.7179   14.9586   22.1569 H   0  0  0  0  0  0  0  0  0  0  0  0
   10.4793   15.4111   20.6149 H   0  0  0  0  0  0  0  0  0  0  0  0
    9.1242    8.0579   23.4928 H   0  0  0  0  0  0  0  0  0  0  0  0
    8.1215    8.0328   24.7813 H   0  0  0  0  0  0  0  0  0  0  0  0
  1 12  1  0  0  0  0
  1 14  2  0  0  0  0
  1 15  1  0  0  0  0
  2  3  1  0  0  0  0
  2  5  1  0  0  0  0
  3  6  1  0  0  0  0
  4  5  1  0  0  0  0
  4 12  1  0  0  0  0
  5  7  1  0  0  0  0
  6  7  1  0  0  0  0
  6 12  1  0  0  0  0
  7 13  1  0  0  0  0
  8 11  1  0  0  0  0
  9 11  1  0  0  0  0
 10 11  1  0  0  0  0
 11 15  1  0  0  0  0
  2 16  1  0  0  0  0
  2 17  1  0  0  0  0
  3 18  1  0  0  0  0
  3 19  1  0  0  0  0
  4 20  1  0  0  0  0
  4 21  1  0  0  0  0
  5 22  1  0  0  0  0
  6 23  1  0  0  0  0
  7 24  1  0  0  0  0
  8 25  1  0  0  0  0
  8 26  1  0  0  0  0
  8 27  1  0  0  0  0
  9 28  1  0  0  0  0
  9 29  1  0  0  0  0
  9 30  1  0  0  0  0
 10 31  1  0  0  0  0
 10 32  1  0  0  0  0
 10 33  1  0  0  0  0
 13 34  1  0  0  0  0
 13 35  1  0  0  0  0
M  END
> <id>
EN300-90613

> <smiles>
CC(C)(C)OC(=O)N1CC2CCC1C2N

> <MDLNUMBER>
MFCD17016707

> <IUPAC Name>
tert-butyl 7-amino-2-azabicyclo[2.2.1]heptane-2-carboxylate

> <CAS>
1251015-62-9

> <URL>
https://www.enaminestore.com/catalog/EN300-90613

> <ROCS_ShapeQuery>
A71EV2A-x0451_0A_A71EV2A-x0310_0A_A71EV2A-x0416_0A_peptide

> <ROCS_TanimotoCombo>
0.477 

> <ROCS_ShapeTanimoto>
0.270 

> <ROCS_ColorTanimoto>
0.207 

> <ROCS_RefTversky>
0.243 

> <ROCS_RefColorTversky>
0.235 

> <ROCS_RefTverskyCombo>
0.479 

> <ROCS_FitTversky>
1.690 

> <ROCS_FitColorTversky>
0.631 

> <ROCS_FitTverskyCombo>
2.321 

> <ROCS_ColorScore>
-7.214

> <ROCS_Overlap>
1685.549

> <ROCS_Rank>
427                 

$$$$
untitled-dbase-45542_21
  -OEChem-11132313473D

 43 45  0     1  0  0  0  0  0999 V2000
   11.1722   10.0747   22.9245 C   0  0  0  0  0  0  0  0  0  0  0  0
   11.1880    8.7093   22.6244 C   0  0  0  0  0  0  0  0  0  0  0  0
    8.8463    8.5047   23.2258 C   0  0  0  0  0  0  0  0  0  0  0  0
    8.8391    9.8586   23.5323 C   0  0  0  0  0  0  0  0  0  0  0  0
    9.9897   10.6379   23.3826 C   0  0  0  0  0  0  0  0  0  0  0  0
   10.0338    7.9292   22.7744 C   0  0  0  0  0  0  0  0  0  0  0  0
   10.5875   13.0514   23.5821 C   0  0  0  0  0  0  0  0  0  0  0  0
    6.0729   11.1712   25.8468 C   0  0  0  0  0  0  0  0  0  0  0  0
    6.9647   12.2719   26.4242 C   0  0  0  0  0  0  0  0  0  0  0  0
    6.8736   10.0909   25.1317 C   0  0  0  0  0  0  0  0  0  0  0  0
    8.3695   12.3121   25.8200 C   0  0  0  0  0  0  0  0  0  0  0  0
    7.6683   10.6928   23.9711 C   0  0  1  0  0  0  0  0  0  0  0  0
    8.3471   12.0477   24.3072 C   0  0  2  0  0  0  0  0  0  0  0  0
   13.2639   14.0698   23.5216 C   0  0  0  0  0  0  0  0  0  0  0  0
   13.2389   13.4738   21.0817 C   0  0  0  0  0  0  0  0  0  0  0  0
   11.6278   15.1847   21.9678 C   0  0  0  0  0  0  0  0  0  0  0  0
   12.3914   13.8983   22.2790 C   0  0  0  0  0  0  0  0  0  0  0  0
    9.7231   11.9751   23.7460 N   0  0  0  0  0  0  0  0  0  0  0  0
   10.6195   14.0601   24.2815 O   0  0  0  0  0  0  0  0  0  0  0  0
   11.4432   12.8542   22.5285 O   0  0  0  0  0  0  0  0  0  0  0  0
   10.0816    6.0900   22.3393 Br  0  0  0  0  0  0  0  0  0  0  0  0
   12.0853   10.6483   22.8098 H   0  0  0  0  0  0  0  0  0  0  0  0
   12.1146    8.2626   22.2716 H   0  0  0  0  0  0  0  0  0  0  0  0
    7.9401    7.9142   23.3181 H   0  0  0  0  0  0  0  0  0  0  0  0
    5.4668   10.7207   26.6520 H   0  0  0  0  0  0  0  0  0  0  0  0
    5.3543   11.6206   25.1408 H   0  0  0  0  0  0  0  0  0  0  0  0
    6.4760   13.2594   26.2892 H   0  0  0  0  0  0  0  0  0  0  0  0
    7.0468   12.1350   27.5218 H   0  0  0  0  0  0  0  0  0  0  0  0
    7.5156    9.5796   25.8316 H   0  0  0  0  0  0  0  0  0  0  0  0
    6.1745    9.3704   24.7236 H   0  0  0  0  0  0  0  0  0  0  0  0
    8.8206   13.2824   26.0261 H   0  0  0  0  0  0  0  0  0  0  0  0
    8.9749   11.5609   26.3318 H   0  0  0  0  0  0  0  0  0  0  0  0
    7.0176   10.7958   23.1301 H   0  0  0  0  0  0  0  0  0  0  0  0
    7.7809   12.8622   23.8187 H   0  0  0  0  0  0  0  0  0  0  0  0
   12.6593   14.3745   24.3833 H   0  0  0  0  0  0  0  0  0  0  0  0
   13.7900   13.1439   23.7760 H   0  0  0  0  0  0  0  0  0  0  0  0
   14.0079   14.8604   23.3710 H   0  0  0  0  0  0  0  0  0  0  0  0
   12.6169   13.3496   20.1878 H   0  0  0  0  0  0  0  0  0  0  0  0
   13.7141   12.5032   21.2643 H   0  0  0  0  0  0  0  0  0  0  0  0
   14.0214   14.2068   20.8604 H   0  0  0  0  0  0  0  0  0  0  0  0
   11.0018   15.0620   21.0765 H   0  0  0  0  0  0  0  0  0  0  0  0
   10.9857   15.4846   22.8023 H   0  0  0  0  0  0  0  0  0  0  0  0
   12.3202   16.0056   21.7487 H   0  0  0  0  0  0  0  0  0  0  0  0
  1  2  1  0  0  0  0
  1  5  2  0  0  0  0
  2  6  2  0  0  0  0
  3  4  2  0  0  0  0
  3  6  1  0  0  0  0
  4  5  1  0  0  0  0
  4 12  1  0  0  0  0
  5 18  1  0  0  0  0
  6 21  1  0  0  0  0
  7 18  1  0  0  0  0
  7 19  2  0  0  0  0
  7 20  1  0  0  0  0
  8  9  1  0  0  0  0
  8 10  1  0  0  0  0
  9 11  1  0  0  0  0
 10 12  1  6  0  0  0
 11 13  1  6  0  0  0
 12 13  1  0  0  0  0
 13 18  1  0  0  0  0
 14 17  1  0  0  0  0
 15 17  1  0  0  0  0
 16 17  1  0  0  0  0
 17 20  1  0  0  0  0
  1 22  1  0  0  0  0
  2 23  1  0  0  0  0
  3 24  1  0  0  0  0
  8 25  1  0  0  0  0
  8 26  1  0  0  0  0
  9 27  1  0  0  0  0
  9 28  1  0  0  0  0
 10 29  1  0  0  0  0
 10 30  1  0  0  0  0
 11 31  1  0  0  0  0
 11 32  1  0  0  0  0
 12 33  1  0  0  0  0
 13 34  1  0  0  0  0
 14 35  1  0  0  0  0
 14 36  1  0  0  0  0
 14 37  1  0  0  0  0
 15 38  1  0  0  0  0
 15 39  1  0  0  0  0
 15 40  1  0  0  0  0
 16 41  1  0  0  0  0
 16 42  1  0  0  0  0
 16 43  1  0  0  0  0
M  END
> <id>
EN300-28298771

> <smiles>
CC(C)(C)OC(=O)N1[C@@H]2CCCC[C@@H]2C=3C=C(Br)C=CC13 |&1:8,13,r|

> <IUPAC Name>
rac-tert-butyl (4aR,9aR)-6-bromo-2,3,4,4a,9,9a-hexahydro-1H-carbazole-9-carboxylate

> <CAS>
2679805-85-5

> <URL>
https://www.enaminestore.com/catalog/EN300-28298771

> <ROCS_ShapeQuery>
A71EV2A-x0451_0A_A71EV2A-x0310_0A_A71EV2A-x0416_0A_peptide

> <ROCS_TanimotoCombo>
0.477 

> <ROCS_ShapeTanimoto>
0.346 

> <ROCS_ColorTanimoto>
0.131 

> <ROCS_RefTversky>
0.303 

> <ROCS_RefColorTversky>
0.144 

> <ROCS_RefTverskyCombo>
0.447 

> <ROCS_FitTversky>
1.682 

> <ROCS_FitColorTversky>
0.598 

> <ROCS_FitTverskyCombo>
2.280 

> <ROCS_ColorScore>
-4.384

> <ROCS_Overlap>
2104.705

> <ROCS_Rank>
428                 

$$$$
untitled-dbase-45047_11
  -OEChem-11132313473D

 33 34  0     0  0  0  0  0  0999 V2000
    6.9482   10.1268   25.0675 C   0  0  0  0  0  0  0  0  0  0  0  0
    6.3062   11.0168   25.9337 C   0  0  0  0  0  0  0  0  0  0  0  0
    7.8720   12.7856   25.3575 C   0  0  0  0  0  0  0  0  0  0  0  0
    8.0644   10.5746   24.3394 C   0  0  0  0  0  0  0  0  0  0  0  0
    8.5107   11.8866   24.4898 C   0  0  0  0  0  0  0  0  0  0  0  0
    6.7627   12.3251   26.0751 C   0  0  0  0  0  0  0  0  0  0  0  0
    8.9463   10.0047   23.4049 C   0  0  0  0  0  0  0  0  0  0  0  0
   10.4161   13.1292   23.4326 C   0  0  0  0  0  0  0  0  0  0  0  0
    8.9354    8.6282   22.8781 C   0  0  0  0  0  0  0  0  0  0  0  0
   12.1741   15.1326   22.4637 C   0  0  0  0  0  0  0  0  0  0  0  0
   11.7124   14.1747   20.1880 C   0  0  0  0  0  0  0  0  0  0  0  0
    9.8357   15.1626   21.5335 C   0  0  0  0  0  0  0  0  0  0  0  0
   11.1566   14.3968   21.5930 C   0  0  0  0  0  0  0  0  0  0  0  0
    9.8778   10.8571   22.9842 N   0  0  0  0  0  0  0  0  0  0  0  0
    9.6093   12.0091   23.6494 N   0  0  0  0  0  0  0  0  0  0  0  0
   10.5966   13.9580   24.3095 O   0  0  0  0  0  0  0  0  0  0  0  0
   10.9115   13.1099   22.1680 O   0  0  0  0  0  0  0  0  0  0  0  0
    5.8689   13.5030   27.2577 Br  0  0  0  0  0  0  0  0  0  0  0  0
    6.5843    9.1086   24.9654 H   0  0  0  0  0  0  0  0  0  0  0  0
    5.4430   10.6660   26.4947 H   0  0  0  0  0  0  0  0  0  0  0  0
    8.2235   13.8056   25.4705 H   0  0  0  0  0  0  0  0  0  0  0  0
    8.3137    8.5529   21.9699 H   0  0  0  0  0  0  0  0  0  0  0  0
    9.9486    8.2740   22.6188 H   0  0  0  0  0  0  0  0  0  0  0  0
    8.5407    7.9047   23.6132 H   0  0  0  0  0  0  0  0  0  0  0  0
   11.7789   15.2939   23.4730 H   0  0  0  0  0  0  0  0  0  0  0  0
   13.1140   14.5766   22.5430 H   0  0  0  0  0  0  0  0  0  0  0  0
   12.3929   16.1257   22.0550 H   0  0  0  0  0  0  0  0  0  0  0  0
   10.9856   13.6471   19.5599 H   0  0  0  0  0  0  0  0  0  0  0  0
   12.6090   13.5451   20.2180 H   0  0  0  0  0  0  0  0  0  0  0  0
   11.9693   15.1209   19.7009 H   0  0  0  0  0  0  0  0  0  0  0  0
    9.1056   14.6351   20.9090 H   0  0  0  0  0  0  0  0  0  0  0  0
    9.4033   15.2991   22.5300 H   0  0  0  0  0  0  0  0  0  0  0  0
    9.9773   16.1490   21.0772 H   0  0  0  0  0  0  0  0  0  0  0  0
  1  2  1  0  0  0  0
  1  4  2  0  0  0  0
  2  6  2  0  0  0  0
  3  5  2  0  0  0  0
  3  6  1  0  0  0  0
  4  5  1  0  0  0  0
  4  7  1  0  0  0  0
  5 15  1  0  0  0  0
  6 18  1  0  0  0  0
  7  9  1  0  0  0  0
  7 14  2  0  0  0  0
  8 15  1  0  0  0  0
  8 16  2  0  0  0  0
  8 17  1  0  0  0  0
 10 13  1  0  0  0  0
 11 13  1  0  0  0  0
 12 13  1  0  0  0  0
 13 17  1  0  0  0  0
 14 15  1  0  0  0  0
  1 19  1  0  0  0  0
  2 20  1  0  0  0  0
  3 21  1  0  0  0  0
  9 22  1  0  0  0  0
  9 23  1  0  0  0  0
  9 24  1  0  0  0  0
 10 25  1  0  0  0  0
 10 26  1  0  0  0  0
 10 27  1  0  0  0  0
 11 28  1  0  0  0  0
 11 29  1  0  0  0  0
 11 30  1  0  0  0  0
 12 31  1  0  0  0  0
 12 32  1  0  0  0  0
 12 33  1  0  0  0  0
M  END
> <id>
EN300-12460617

> <smiles>
CC1=NN(C(=O)OC(C)(C)C)C=2C=C(Br)C=CC12

> <MDLNUMBER>
MFCD24471372

> <IUPAC Name>
tert-butyl 6-bromo-3-methyl-1H-indazole-1-carboxylate

> <CAS>
1300582-43-7

> <URL>
https://www.enaminestore.com/catalog/EN300-12460617

> <ROCS_ShapeQuery>
A71EV2A-x0451_0A_A71EV2A-x0310_0A_A71EV2A-x0416_0A_peptide

> <ROCS_TanimotoCombo>
0.477 

> <ROCS_ShapeTanimoto>
0.346 

> <ROCS_ColorTanimoto>
0.131 

> <ROCS_RefTversky>
0.299 

> <ROCS_RefColorTversky>
0.144 

> <ROCS_RefTverskyCombo>
0.443 

> <ROCS_FitTversky>
1.831 

> <ROCS_FitColorTversky>
0.598 

> <ROCS_FitTverskyCombo>
2.429 

> <ROCS_ColorScore>
-4.368

> <ROCS_Overlap>
2074.721

> <ROCS_Rank>
429                 

$$$$
untitled-dbase-13421_61
  -OEChem-11132313473D

 46 48  0     1  0  0  0  0  0999 V2000
    6.0506   10.5668   26.3950 C   0  0  0  0  0  0  0  0  0  0  0  0
    6.2036   11.9401   26.5611 C   0  0  0  0  0  0  0  0  0  0  0  0
    6.7962    9.8951   25.4258 C   0  0  0  0  0  0  0  0  0  0  0  0
    7.1041   12.6407   25.7609 C   0  0  0  0  0  0  0  0  0  0  0  0
    7.7080   10.5885   24.6130 C   0  0  0  0  0  0  0  0  0  0  0  0
    7.8610   11.9686   24.7956 C   0  0  0  0  0  0  0  0  0  0  0  0
   11.7514   15.0323   22.3904 C   0  0  0  0  0  0  0  0  0  0  0  0
   10.9653   11.8526   24.1142 C   0  0  0  0  0  0  0  0  0  0  0  0
    9.1252   10.8350   22.5797 C   0  0  0  0  0  0  0  0  0  0  0  0
   11.6303   13.2238   24.1461 C   0  0  0  0  0  0  0  0  0  0  0  0
   10.1921   13.0914   22.2214 C   0  0  0  0  0  0  0  0  0  0  0  0
    8.4901    9.8443   23.5607 C   0  0  1  0  0  0  0  0  0  0  0  0
    9.6990   12.0772   23.2680 C   0  0  2  0  0  0  0  0  0  0  0  0
   14.1126   15.2242   20.7916 C   0  0  0  0  0  0  0  0  0  0  0  0
   12.5565   15.7042   18.8791 C   0  0  0  0  0  0  0  0  0  0  0  0
   12.6462   17.2692   20.8415 C   0  0  0  0  0  0  0  0  0  0  0  0
   12.7621   15.8145   20.3883 C   0  0  0  0  0  0  0  0  0  0  0  0
   11.2310   13.8542   22.8984 N   0  0  0  0  0  0  0  0  0  0  0  0
    9.4764    8.9425   24.1588 N   0  0  0  0  0  0  0  0  0  0  0  0
   12.1874   15.9494   23.0825 O   0  0  0  0  0  0  0  0  0  0  0  0
    8.7043   12.7540   24.0564 O   0  0  0  0  0  0  0  0  0  0  0  0
   11.7258   15.0558   21.0215 O   0  0  0  0  0  0  0  0  0  0  0  0
    5.3517   10.0184   27.0188 H   0  0  0  0  0  0  0  0  0  0  0  0
    5.6151   12.4671   27.3067 H   0  0  0  0  0  0  0  0  0  0  0  0
    6.6589    8.8233   25.3134 H   0  0  0  0  0  0  0  0  0  0  0  0
    7.2021   13.7166   25.8853 H   0  0  0  0  0  0  0  0  0  0  0  0
   11.6382   11.1317   23.6323 H   0  0  0  0  0  0  0  0  0  0  0  0
   10.7406   11.5019   25.1279 H   0  0  0  0  0  0  0  0  0  0  0  0
    9.9489   10.3344   22.0291 H   0  0  0  0  0  0  0  0  0  0  0  0
    8.3845   11.1244   21.8077 H   0  0  0  0  0  0  0  0  0  0  0  0
   11.2484   13.8394   24.9678 H   0  0  0  0  0  0  0  0  0  0  0  0
   12.7203   13.1707   24.2242 H   0  0  0  0  0  0  0  0  0  0  0  0
   10.6622   12.6011   21.3599 H   0  0  0  0  0  0  0  0  0  0  0  0
    9.4133   13.7744   21.8645 H   0  0  0  0  0  0  0  0  0  0  0  0
    7.7531    9.2160   23.0184 H   0  0  0  0  0  0  0  0  0  0  0  0
   14.2640   15.3014   21.8742 H   0  0  0  0  0  0  0  0  0  0  0  0
   14.1948   14.1711   20.5033 H   0  0  0  0  0  0  0  0  0  0  0  0
   14.9359   15.7763   20.3242 H   0  0  0  0  0  0  0  0  0  0  0  0
   11.5888   16.1266   18.5853 H   0  0  0  0  0  0  0  0  0  0  0  0
   12.5443   14.6550   18.5625 H   0  0  0  0  0  0  0  0  0  0  0  0
   13.3445   16.2244   18.3249 H   0  0  0  0  0  0  0  0  0  0  0  0
   11.6777   17.6928   20.5524 H   0  0  0  0  0  0  0  0  0  0  0  0
   12.7544   17.3633   21.9269 H   0  0  0  0  0  0  0  0  0  0  0  0
   13.4111   17.8894   20.3602 H   0  0  0  0  0  0  0  0  0  0  0  0
    8.9983    8.3343   24.7779 H   0  0  0  0  0  0  0  0  0  0  0  0
    9.9087    8.4345   23.4260 H   0  0  0  0  0  0  0  0  0  0  0  0
  1  2  2  0  0  0  0
  1  3  1  0  0  0  0
  2  4  1  0  0  0  0
  3  5  2  0  0  0  0
  4  6  2  0  0  0  0
  5  6  1  0  0  0  0
  5 12  1  0  0  0  0
  6 21  1  0  0  0  0
  7 18  1  0  0  0  0
  7 20  2  0  0  0  0
  7 22  1  0  0  0  0
  8 10  1  0  0  0  0
  8 13  1  0  0  0  0
  9 12  1  0  0  0  0
  9 13  1  0  0  0  0
 10 18  1  0  0  0  0
 11 13  1  0  0  0  0
 11 18  1  0  0  0  0
 12 19  1  0  0  0  0
 13 21  1  0  0  0  0
 14 17  1  0  0  0  0
 15 17  1  0  0  0  0
 16 17  1  0  0  0  0
 17 22  1  0  0  0  0
  1 23  1  0  0  0  0
  2 24  1  0  0  0  0
  3 25  1  0  0  0  0
  4 26  1  0  0  0  0
  8 27  1  0  0  0  0
  8 28  1  0  0  0  0
  9 29  1  0  0  0  0
  9 30  1  0  0  0  0
 10 31  1  0  0  0  0
 10 32  1  0  0  0  0
 11 33  1  0  0  0  0
 11 34  1  0  0  0  0
 12 35  1  0  0  0  0
 14 36  1  0  0  0  0
 14 37  1  0  0  0  0
 14 38  1  0  0  0  0
 15 39  1  0  0  0  0
 15 40  1  0  0  0  0
 15 41  1  0  0  0  0
 16 42  1  0  0  0  0
 16 43  1  0  0  0  0
 16 44  1  0  0  0  0
 19 45  1  0  0  0  0
 19 46  1  0  0  0  0
M  END
> <id>
EN300-746890

> <smiles>
CC(C)(C)OC(=O)N1CCC2(C1)CC(N)C=3C=CC=CC3O2

> <MDLNUMBER>
MFCD31456972

> <IUPAC Name>
tert-butyl 4-amino-3,4-dihydrospiro[1-benzopyran-2,3'-pyrrolidine]-1'-carboxylate

> <CAS>
2137917-15-6

> <Purity>
95

> <URL>
https://www.enaminestore.com/catalog/EN300-746890

> <ROCS_ShapeQuery>
A71EV2A-x0451_0A_A71EV2A-x0310_0A_A71EV2A-x0416_0A_peptide

> <ROCS_TanimotoCombo>
0.477 

> <ROCS_ShapeTanimoto>
0.367 

> <ROCS_ColorTanimoto>
0.110 

> <ROCS_RefTversky>
0.319 

> <ROCS_RefColorTversky>
0.129 

> <ROCS_RefTverskyCombo>
0.448 

> <ROCS_FitTversky>
1.689 

> <ROCS_FitColorTversky>
0.430 

> <ROCS_FitTverskyCombo>
2.119 

> <ROCS_ColorScore>
-3.951

> <ROCS_Overlap>
2214.604

> <ROCS_Rank>
430                 

$$$$
untitled-dbase-45641_654
  -OEChem-11132313473D

 53 54  0     0  0  0  0  0  0999 V2000
    7.2048   10.1433   25.8435 C   0  0  0  0  0  0  0  0  0  0  0  0
    6.4584   11.0618   26.5806 C   0  0  0  0  0  0  0  0  0  0  0  0
    7.1271   12.8117   25.0647 C   0  0  0  0  0  0  0  0  0  0  0  0
    7.8839   11.9005   24.3071 C   0  0  0  0  0  0  0  0  0  0  0  0
    7.9310   10.5495   24.7097 C   0  0  0  0  0  0  0  0  0  0  0  0
    6.4240   12.3965   26.1948 C   0  0  0  0  0  0  0  0  0  0  0  0
    8.2408    8.3273   23.6271 C   0  0  0  0  0  0  0  0  0  0  0  0
   10.8677   13.1966   23.4343 C   0  0  0  0  0  0  0  0  0  0  0  0
    8.5207   12.3849   23.0265 C   0  0  0  0  0  0  0  0  0  0  0  0
   10.1585    9.8956   23.8470 C   0  0  0  0  0  0  0  0  0  0  0  0
   10.4507   10.8632   22.7084 C   0  0  0  0  0  0  0  0  0  0  0  0
    6.9474    5.8290   24.1621 C   0  0  0  0  0  0  0  0  0  0  0  0
    4.8063    7.0364   23.6454 C   0  0  0  0  0  0  0  0  0  0  0  0
    6.5664    6.7961   21.8699 C   0  0  0  0  0  0  0  0  0  0  0  0
   12.5202   15.4834   22.9542 C   0  0  0  0  0  0  0  0  0  0  0  0
   13.7890   14.0036   21.3701 C   0  0  0  0  0  0  0  0  0  0  0  0
   11.3685   14.5148   20.9367 C   0  0  0  0  0  0  0  0  0  0  0  0
    6.3060    6.9646   23.3661 C   0  0  0  0  0  0  0  0  0  0  0  0
   12.4314   14.2852   22.0102 C   0  0  0  0  0  0  0  0  0  0  0  0
    8.7314    9.5870   24.0156 N   0  0  0  0  0  0  0  0  0  0  0  0
    9.9697   12.2045   23.0206 N   0  0  0  0  0  0  0  0  0  0  0  0
    8.9359    7.4357   23.1417 O   0  0  0  0  0  0  0  0  0  0  0  0
   10.6182   14.0459   24.2878 O   0  0  0  0  0  0  0  0  0  0  0  0
    6.8841    8.2034   23.7928 O   0  0  0  0  0  0  0  0  0  0  0  0
   12.0663   13.1298   22.7735 O   0  0  0  0  0  0  0  0  0  0  0  0
    5.4302   13.6476   27.2038 Br  0  0  0  0  0  0  0  0  0  0  0  0
    7.2433    9.1260   26.2106 H   0  0  0  0  0  0  0  0  0  0  0  0
    5.9233   10.7228   27.4631 H   0  0  0  0  0  0  0  0  0  0  0  0
    7.0792   13.8532   24.7596 H   0  0  0  0  0  0  0  0  0  0  0  0
    8.1032   11.8409   22.1738 H   0  0  0  0  0  0  0  0  0  0  0  0
    8.2880   13.4426   22.8665 H   0  0  0  0  0  0  0  0  0  0  0  0
   10.7291    8.9654   23.6764 H   0  0  0  0  0  0  0  0  0  0  0  0
   10.5521   10.2728   24.8102 H   0  0  0  0  0  0  0  0  0  0  0  0
   11.5295   10.9313   22.5436 H   0  0  0  0  0  0  0  0  0  0  0  0
    9.9948   10.5057   21.7819 H   0  0  0  0  0  0  0  0  0  0  0  0
    8.0239    5.7741   23.9643 H   0  0  0  0  0  0  0  0  0  0  0  0
    6.7978    5.9567   25.2392 H   0  0  0  0  0  0  0  0  0  0  0  0
    6.5292    4.8598   23.8671 H   0  0  0  0  0  0  0  0  0  0  0  0
    4.3420    7.8499   23.0763 H   0  0  0  0  0  0  0  0  0  0  0  0
    4.6162    7.2520   24.7031 H   0  0  0  0  0  0  0  0  0  0  0  0
    4.3018    6.1000   23.3862 H   0  0  0  0  0  0  0  0  0  0  0  0
    6.1064    7.6105   21.2987 H   0  0  0  0  0  0  0  0  0  0  0  0
    7.6380    6.7796   21.6464 H   0  0  0  0  0  0  0  0  0  0  0  0
    6.1189    5.8670   21.4987 H   0  0  0  0  0  0  0  0  0  0  0  0
   11.5476   15.6888   23.4157 H   0  0  0  0  0  0  0  0  0  0  0  0
   13.2542   15.3170   23.7493 H   0  0  0  0  0  0  0  0  0  0  0  0
   12.8012   16.3913   22.4082 H   0  0  0  0  0  0  0  0  0  0  0  0
   13.7300   13.1446   20.6920 H   0  0  0  0  0  0  0  0  0  0  0  0
   14.5335   13.7450   22.1318 H   0  0  0  0  0  0  0  0  0  0  0  0
   14.1562   14.8665   20.8053 H   0  0  0  0  0  0  0  0  0  0  0  0
   11.3046   13.6554   20.2595 H   0  0  0  0  0  0  0  0  0  0  0  0
   10.3802   14.6820   21.3770 H   0  0  0  0  0  0  0  0  0  0  0  0
   11.6236   15.3804   20.3147 H   0  0  0  0  0  0  0  0  0  0  0  0
  1  2  1  0  0  0  0
  1  5  2  0  0  0  0
  2  6  2  0  0  0  0
  3  4  2  0  0  0  0
  3  6  1  0  0  0  0
  4  5  1  0  0  0  0
  4  9  1  0  0  0  0
  5 20  1  0  0  0  0
  6 26  1  0  0  0  0
  7 20  1  0  0  0  0
  7 22  2  0  0  0  0
  7 24  1  0  0  0  0
  8 21  1  0  0  0  0
  8 23  2  0  0  0  0
  8 25  1  0  0  0  0
  9 21  1  0  0  0  0
 10 11  1  0  0  0  0
 10 20  1  0  0  0  0
 11 21  1  0  0  0  0
 12 18  1  0  0  0  0
 13 18  1  0  0  0  0
 14 18  1  0  0  0  0
 15 19  1  0  0  0  0
 16 19  1  0  0  0  0
 17 19  1  0  0  0  0
 18 24  1  0  0  0  0
 19 25  1  0  0  0  0
  1 27  1  0  0  0  0
  2 28  1  0  0  0  0
  3 29  1  0  0  0  0
  9 30  1  0  0  0  0
  9 31  1  0  0  0  0
 10 32  1  0  0  0  0
 10 33  1  0  0  0  0
 11 34  1  0  0  0  0
 11 35  1  0  0  0  0
 12 36  1  0  0  0  0
 12 37  1  0  0  0  0
 12 38  1  0  0  0  0
 13 39  1  0  0  0  0
 13 40  1  0  0  0  0
 13 41  1  0  0  0  0
 14 42  1  0  0  0  0
 14 43  1  0  0  0  0
 14 44  1  0  0  0  0
 15 45  1  0  0  0  0
 15 46  1  0  0  0  0
 15 47  1  0  0  0  0
 16 48  1  0  0  0  0
 16 49  1  0  0  0  0
 16 50  1  0  0  0  0
 17 51  1  0  0  0  0
 17 52  1  0  0  0  0
 17 53  1  0  0  0  0
M  END
> <id>
EN300-28304097

> <smiles>
CC(C)(C)OC(=O)N1CCN(C(=O)OC(C)(C)C)C=2C=CC(Br)=CC2C1

> <IUPAC Name>
1,4-di-tert-butyl 7-bromo-2,3,4,5-tetrahydro-1H-1,4-benzodiazepine-1,4-dicarboxylate

> <CAS>
2680898-87-5

> <URL>
https://www.enaminestore.com/catalog/EN300-28304097

> <ROCS_ShapeQuery>
A71EV2A-x0451_0A_A71EV2A-x0310_0A_A71EV2A-x0416_0A_peptide

> <ROCS_TanimotoCombo>
0.477 

> <ROCS_ShapeTanimoto>
0.362 

> <ROCS_ColorTanimoto>
0.115 

> <ROCS_RefTversky>
0.321 

> <ROCS_RefColorTversky>
0.131 

> <ROCS_RefTverskyCombo>
0.452 

> <ROCS_FitTversky>
1.536 

> <ROCS_FitColorTversky>
0.486 

> <ROCS_FitTverskyCombo>
2.022 

> <ROCS_ColorScore>
-4.005

> <ROCS_Overlap>
2232.430

> <ROCS_Rank>
431                 

$$$$
untitled-dbase-46466_15
  -OEChem-11132313473D

 41 43  0     0  0  0  0  0  0999 V2000
   10.5357    7.4460   21.4081 C   0  0  0  0  0  0  0  0  0  0  0  0
    7.0375   11.5316   26.4503 C   0  0  0  0  0  0  0  0  0  0  0  0
   10.7453    8.4946   20.5145 C   0  0  0  0  0  0  0  0  0  0  0  0
    7.1251   12.7239   25.7343 C   0  0  0  0  0  0  0  0  0  0  0  0
    9.9023    7.6817   22.6318 C   0  0  0  0  0  0  0  0  0  0  0  0
    7.6067   10.3615   25.9391 C   0  0  0  0  0  0  0  0  0  0  0  0
   10.3259    9.7802   20.8435 C   0  0  0  0  0  0  0  0  0  0  0  0
    7.7839   12.7500   24.5088 C   0  0  0  0  0  0  0  0  0  0  0  0
    9.4700    8.9682   22.9847 C   0  0  0  0  0  0  0  0  0  0  0  0
    8.2745   10.3630   24.7061 C   0  0  0  0  0  0  0  0  0  0  0  0
    9.6998   10.0001   22.0725 C   0  0  0  0  0  0  0  0  0  0  0  0
    8.3513   11.5734   24.0143 C   0  0  0  0  0  0  0  0  0  0  0  0
   10.5619   13.7634   23.0991 C   0  0  0  0  0  0  0  0  0  0  0  0
   12.9553   14.7264   22.6377 C   0  0  0  0  0  0  0  0  0  0  0  0
   12.1169   15.6431   20.4546 C   0  0  0  0  0  0  0  0  0  0  0  0
   11.4646   16.7542   22.6106 C   0  0  0  0  0  0  0  0  0  0  0  0
   11.7947   15.4258   21.9315 C   0  0  0  0  0  0  0  0  0  0  0  0
   10.5044   12.4024   22.7440 N   0  0  0  0  0  0  0  0  0  0  0  0
    8.8196    9.1721   24.2087 N   0  0  0  0  0  0  0  0  0  0  0  0
   10.5274   14.1764   24.2536 O   0  0  0  0  0  0  0  0  0  0  0  0
    8.1725   11.9719   21.4833 O   0  0  0  0  0  0  0  0  0  0  0  0
   10.6417   14.5789   22.0015 O   0  0  0  0  0  0  0  0  0  0  0  0
    9.1903   11.6425   22.4640 S   0  0  0  0  0  0  0  0  0  0  0  0
   10.8631    6.4423   21.1528 H   0  0  0  0  0  0  0  0  0  0  0  0
    6.5238   11.5100   27.4071 H   0  0  0  0  0  0  0  0  0  0  0  0
   11.2352    8.3087   19.5635 H   0  0  0  0  0  0  0  0  0  0  0  0
    6.6803   13.6309   26.1329 H   0  0  0  0  0  0  0  0  0  0  0  0
    9.7446    6.8454   23.3098 H   0  0  0  0  0  0  0  0  0  0  0  0
    7.5211    9.4424   26.5150 H   0  0  0  0  0  0  0  0  0  0  0  0
   10.4932   10.5936   20.1436 H   0  0  0  0  0  0  0  0  0  0  0  0
    7.8502   13.6822   23.9552 H   0  0  0  0  0  0  0  0  0  0  0  0
   12.7279   14.5686   23.6981 H   0  0  0  0  0  0  0  0  0  0  0  0
   13.1792   13.7564   22.1820 H   0  0  0  0  0  0  0  0  0  0  0  0
   13.8615   15.3420   22.6042 H   0  0  0  0  0  0  0  0  0  0  0  0
   11.2869   16.1446   19.9439 H   0  0  0  0  0  0  0  0  0  0  0  0
   12.2614   14.6854   19.9416 H   0  0  0  0  0  0  0  0  0  0  0  0
   13.0206   16.2468   20.3228 H   0  0  0  0  0  0  0  0  0  0  0  0
   10.6321   17.2560   22.1041 H   0  0  0  0  0  0  0  0  0  0  0  0
   11.1949   16.6134   23.6623 H   0  0  0  0  0  0  0  0  0  0  0  0
   12.3172   17.4408   22.5586 H   0  0  0  0  0  0  0  0  0  0  0  0
    8.7221    8.3557   24.8020 H   0  0  0  0  0  0  0  0  0  0  0  0
  1  3  2  0  0  0  0
  1  5  1  0  0  0  0
  2  4  2  0  0  0  0
  2  6  1  0  0  0  0
  3  7  1  0  0  0  0
  4  8  1  0  0  0  0
  5  9  2  0  0  0  0
  6 10  2  0  0  0  0
  7 11  2  0  0  0  0
  8 12  2  0  0  0  0
  9 11  1  0  0  0  0
  9 19  1  0  0  0  0
 10 12  1  0  0  0  0
 10 19  1  0  0  0  0
 11 23  1  0  0  0  0
 12 23  1  0  0  0  0
 13 18  1  0  0  0  0
 13 20  2  0  0  0  0
 13 22  1  0  0  0  0
 14 17  1  0  0  0  0
 15 17  1  0  0  0  0
 16 17  1  0  0  0  0
 17 22  1  0  0  0  0
 18 23  2  0  0  0  0
 21 23  2  0  0  0  0
  1 24  1  0  0  0  0
  2 25  1  0  0  0  0
  3 26  1  0  0  0  0
  4 27  1  0  0  0  0
  5 28  1  0  0  0  0
  6 29  1  0  0  0  0
  7 30  1  0  0  0  0
  8 31  1  0  0  0  0
 14 32  1  0  0  0  0
 14 33  1  0  0  0  0
 14 34  1  0  0  0  0
 15 35  1  0  0  0  0
 15 36  1  0  0  0  0
 15 37  1  0  0  0  0
 16 38  1  0  0  0  0
 16 39  1  0  0  0  0
 16 40  1  0  0  0  0
 19 41  1  0  0  0  0
M  END
> <id>
EN300-28295647

> <smiles>
CC(C)(C)OC(=O)N=S1(=O)C=2C=CC=CC2NC=3C=CC=CC31

> <IUPAC Name>
tert-butyl N-(5-oxo-10H-5lambda6-phenothiazin-5-ylidene)carbamate

> <CAS>
2680693-48-3

> <URL>
https://www.enaminestore.com/catalog/EN300-28295647

> <ROCS_ShapeQuery>
A71EV2A-x0451_0A_A71EV2A-x0310_0A_A71EV2A-x0416_0A_peptide

> <ROCS_TanimotoCombo>
0.477 

> <ROCS_ShapeTanimoto>
0.320 

> <ROCS_ColorTanimoto>
0.157 

> <ROCS_RefTversky>
0.289 

> <ROCS_RefColorTversky>
0.176 

> <ROCS_RefTverskyCombo>
0.466 

> <ROCS_FitTversky>
1.501 

> <ROCS_FitColorTversky>
0.585 

> <ROCS_FitTverskyCombo>
2.086 

> <ROCS_ColorScore>
-5.374

> <ROCS_Overlap>
2011.023

> <ROCS_Rank>
432                 

$$$$
untitled-dbase-45484_76
  -OEChem-11132313473D

 37 38  0     0  0  0  0  0  0999 V2000
    7.0267   12.9245   25.1550 C   0  0  0  0  0  0  0  0  0  0  0  0
    6.3223   11.2184   26.7170 C   0  0  0  0  0  0  0  0  0  0  0  0
    7.7079   11.9682   24.3892 C   0  0  0  0  0  0  0  0  0  0  0  0
    7.6988   10.6325   24.8223 C   0  0  0  0  0  0  0  0  0  0  0  0
    6.9933   10.2548   25.9674 C   0  0  0  0  0  0  0  0  0  0  0  0
    6.3428   12.5521   26.3143 C   0  0  0  0  0  0  0  0  0  0  0  0
   10.8100   12.9951   23.5111 C   0  0  0  0  0  0  0  0  0  0  0  0
    8.3979   12.3772   23.1134 C   0  0  0  0  0  0  0  0  0  0  0  0
   10.1932   10.6627   22.9286 C   0  0  0  0  0  0  0  0  0  0  0  0
    9.7426    9.7933   24.0971 C   0  0  0  0  0  0  0  0  0  0  0  0
   12.6730   15.0846   22.9160 C   0  0  0  0  0  0  0  0  0  0  0  0
   13.8204   13.3934   21.4557 C   0  0  0  0  0  0  0  0  0  0  0  0
   11.4635   14.0938   20.9436 C   0  0  0  0  0  0  0  0  0  0  0  0
   12.4863   13.8396   22.0500 C   0  0  0  0  0  0  0  0  0  0  0  0
    9.8295   12.0639   23.1462 N   0  0  0  0  0  0  0  0  0  0  0  0
   10.6292   13.9185   24.3029 O   0  0  0  0  0  0  0  0  0  0  0  0
    8.3183    9.6338   24.1137 O   0  0  0  0  0  0  0  0  0  0  0  0
   12.0059   12.7755   22.8794 O   0  0  0  0  0  0  0  0  0  0  0  0
    6.9408    8.6114   26.4957 Cl  0  0  0  0  0  0  0  0  0  0  0  0
    5.4322   13.8595   27.3320 Br  0  0  0  0  0  0  0  0  0  0  0  0
    7.0267   13.9650   24.8367 H   0  0  0  0  0  0  0  0  0  0  0  0
    5.7811   10.9291   27.6153 H   0  0  0  0  0  0  0  0  0  0  0  0
    7.9422   11.8565   22.2622 H   0  0  0  0  0  0  0  0  0  0  0  0
    8.2591   13.4475   22.9275 H   0  0  0  0  0  0  0  0  0  0  0  0
   11.2781   10.5776   22.8103 H   0  0  0  0  0  0  0  0  0  0  0  0
    9.7225   10.3380   21.9939 H   0  0  0  0  0  0  0  0  0  0  0  0
   10.1598    8.7889   23.9638 H   0  0  0  0  0  0  0  0  0  0  0  0
   10.1244   10.1622   25.0589 H   0  0  0  0  0  0  0  0  0  0  0  0
   11.7176   15.4082   23.3444 H   0  0  0  0  0  0  0  0  0  0  0  0
   13.3779   14.9049   23.7342 H   0  0  0  0  0  0  0  0  0  0  0  0
   13.0439   15.9249   22.3179 H   0  0  0  0  0  0  0  0  0  0  0  0
   13.6912   12.5003   20.8336 H   0  0  0  0  0  0  0  0  0  0  0  0
   14.5277   13.1188   22.2467 H   0  0  0  0  0  0  0  0  0  0  0  0
   14.2733   14.1799   20.8434 H   0  0  0  0  0  0  0  0  0  0  0  0
   11.3294   13.2009   20.3223 H   0  0  0  0  0  0  0  0  0  0  0  0
   10.4891   14.3794   21.3531 H   0  0  0  0  0  0  0  0  0  0  0  0
   11.8057   14.8894   20.2719 H   0  0  0  0  0  0  0  0  0  0  0  0
  1  3  2  0  0  0  0
  1  6  1  0  0  0  0
  2  5  1  0  0  0  0
  2  6  2  0  0  0  0
  3  4  1  0  0  0  0
  3  8  1  0  0  0  0
  4  5  2  0  0  0  0
  4 17  1  0  0  0  0
  5 19  1  0  0  0  0
  6 20  1  0  0  0  0
  7 15  1  0  0  0  0
  7 16  2  0  0  0  0
  7 18  1  0  0  0  0
  8 15  1  0  0  0  0
  9 10  1  0  0  0  0
  9 15  1  0  0  0  0
 10 17  1  0  0  0  0
 11 14  1  0  0  0  0
 12 14  1  0  0  0  0
 13 14  1  0  0  0  0
 14 18  1  0  0  0  0
  1 21  1  0  0  0  0
  2 22  1  0  0  0  0
  8 23  1  0  0  0  0
  8 24  1  0  0  0  0
  9 25  1  0  0  0  0
  9 26  1  0  0  0  0
 10 27  1  0  0  0  0
 10 28  1  0  0  0  0
 11 29  1  0  0  0  0
 11 30  1  0  0  0  0
 11 31  1  0  0  0  0
 12 32  1  0  0  0  0
 12 33  1  0  0  0  0
 12 34  1  0  0  0  0
 13 35  1  0  0  0  0
 13 36  1  0  0  0  0
 13 37  1  0  0  0  0
M  END
> <id>
EN300-28300082

> <smiles>
CC(C)(C)OC(=O)N1CCOC=2C(Cl)=CC(Br)=CC2C1

> <IUPAC Name>
tert-butyl 7-bromo-9-chloro-2,3,4,5-tetrahydro-1,4-benzoxazepine-4-carboxylate

> <CAS>
1379580-48-9

> <URL>
https://www.enaminestore.com/catalog/EN300-28300082

> <ROCS_ShapeQuery>
A71EV2A-x0451_0A_A71EV2A-x0310_0A_A71EV2A-x0416_0A_peptide

> <ROCS_TanimotoCombo>
0.477 

> <ROCS_ShapeTanimoto>
0.326 

> <ROCS_ColorTanimoto>
0.151 

> <ROCS_RefTversky>
0.288 

> <ROCS_RefColorTversky>
0.163 

> <ROCS_RefTverskyCombo>
0.451 

> <ROCS_FitTversky>
1.677 

> <ROCS_FitColorTversky>
0.679 

> <ROCS_FitTverskyCombo>
2.355 

> <ROCS_ColorScore>
-4.947

> <ROCS_Overlap>
1998.558

> <ROCS_Rank>
433                 

$$$$
untitled-dbase-35692_23
  -OEChem-11132313473D

 35 36  0     0  0  0  0  0  0999 V2000
    6.3945   11.6371   26.3381 C   0  0  0  0  0  0  0  0  0  0  0  0
    6.8759   12.9216   26.1184 C   0  0  0  0  0  0  0  0  0  0  0  0
    6.9191   10.5717   25.6140 C   0  0  0  0  0  0  0  0  0  0  0  0
    7.8840   13.1459   25.1748 C   0  0  0  0  0  0  0  0  0  0  0  0
    7.9321   10.7942   24.6690 C   0  0  0  0  0  0  0  0  0  0  0  0
    8.4377   12.0885   24.4341 C   0  0  0  0  0  0  0  0  0  0  0  0
    8.4985    9.6191   23.9641 C   0  0  0  0  0  0  0  0  0  0  0  0
   10.2408   13.4668   23.3742 C   0  0  0  0  0  0  0  0  0  0  0  0
    9.6697    9.8639   23.0560 C   0  0  0  0  0  0  0  0  0  0  0  0
    9.5804   11.2382   22.4263 C   0  0  0  0  0  0  0  0  0  0  0  0
   12.9590   13.5357   22.4615 C   0  0  0  0  0  0  0  0  0  0  0  0
   12.0535   14.7036   20.4304 C   0  0  0  0  0  0  0  0  0  0  0  0
   11.8214   15.7688   22.6930 C   0  0  0  0  0  0  0  0  0  0  0  0
   11.8586   14.4492   21.9236 C   0  0  0  0  0  0  0  0  0  0  0  0
    9.4504   12.3020   23.4333 N   0  0  0  0  0  0  0  0  0  0  0  0
    8.0644    8.4890   24.1624 O   0  0  0  0  0  0  0  0  0  0  0  0
   10.6087   14.1367   24.3364 O   0  0  0  0  0  0  0  0  0  0  0  0
   10.5975   13.7895   22.0881 O   0  0  0  0  0  0  0  0  0  0  0  0
    5.6105   11.4659   27.0696 H   0  0  0  0  0  0  0  0  0  0  0  0
    6.4589   13.7584   26.6718 H   0  0  0  0  0  0  0  0  0  0  0  0
    6.5324    9.5740   25.8047 H   0  0  0  0  0  0  0  0  0  0  0  0
    8.1764   14.1784   25.0160 H   0  0  0  0  0  0  0  0  0  0  0  0
   10.5927    9.7503   23.6347 H   0  0  0  0  0  0  0  0  0  0  0  0
    9.6614    9.1052   22.2659 H   0  0  0  0  0  0  0  0  0  0  0  0
   10.4625   11.3892   21.7973 H   0  0  0  0  0  0  0  0  0  0  0  0
    8.7023   11.3112   21.7716 H   0  0  0  0  0  0  0  0  0  0  0  0
   12.8227   13.3507   23.5331 H   0  0  0  0  0  0  0  0  0  0  0  0
   12.9737   12.5724   21.9415 H   0  0  0  0  0  0  0  0  0  0  0  0
   13.9441   14.0034   22.3515 H   0  0  0  0  0  0  0  0  0  0  0  0
   11.2662   15.3586   20.0402 H   0  0  0  0  0  0  0  0  0  0  0  0
   11.9862   13.7682   19.8631 H   0  0  0  0  0  0  0  0  0  0  0  0
   13.0239   15.1660   20.2226 H   0  0  0  0  0  0  0  0  0  0  0  0
   11.0322   16.4243   22.3073 H   0  0  0  0  0  0  0  0  0  0  0  0
   11.6454   15.6078   23.7616 H   0  0  0  0  0  0  0  0  0  0  0  0
   12.7635   16.3161   22.5739 H   0  0  0  0  0  0  0  0  0  0  0  0
  1  2  2  0  0  0  0
  1  3  1  0  0  0  0
  2  4  1  0  0  0  0
  3  5  2  0  0  0  0
  4  6  2  0  0  0  0
  5  6  1  0  0  0  0
  5  7  1  0  0  0  0
  6 15  1  0  0  0  0
  7  9  1  0  0  0  0
  7 16  2  0  0  0  0
  8 15  1  0  0  0  0
  8 17  2  0  0  0  0
  8 18  1  0  0  0  0
  9 10  1  0  0  0  0
 10 15  1  0  0  0  0
 11 14  1  0  0  0  0
 12 14  1  0  0  0  0
 13 14  1  0  0  0  0
 14 18  1  0  0  0  0
  1 19  1  0  0  0  0
  2 20  1  0  0  0  0
  3 21  1  0  0  0  0
  4 22  1  0  0  0  0
  9 23  1  0  0  0  0
  9 24  1  0  0  0  0
 10 25  1  0  0  0  0
 10 26  1  0  0  0  0
 11 27  1  0  0  0  0
 11 28  1  0  0  0  0
 11 29  1  0  0  0  0
 12 30  1  0  0  0  0
 12 31  1  0  0  0  0
 12 32  1  0  0  0  0
 13 33  1  0  0  0  0
 13 34  1  0  0  0  0
 13 35  1  0  0  0  0
M  END
> <id>
EN300-1722859

> <smiles>
CC(C)(C)OC(=O)N1CCC(=O)C=2C=CC=CC12

> <MDLNUMBER>
MFCD10697721

> <IUPAC Name>
tert-butyl 4-oxo-1,2,3,4-tetrahydroquinoline-1-carboxylate

> <CAS>
179898-00-1

> <Purity>
95

> <URL>
https://www.enaminestore.com/catalog/EN300-1722859

> <MP>
83-84

> <ROCS_ShapeQuery>
A71EV2A-x0451_0A_A71EV2A-x0310_0A_A71EV2A-x0416_0A_peptide

> <ROCS_TanimotoCombo>
0.477 

> <ROCS_ShapeTanimoto>
0.342 

> <ROCS_ColorTanimoto>
0.134 

> <ROCS_RefTversky>
0.297 

> <ROCS_RefColorTversky>
0.143 

> <ROCS_RefTverskyCombo>
0.440 

> <ROCS_FitTversky>
1.818 

> <ROCS_FitColorTversky>
0.686 

> <ROCS_FitTverskyCombo>
2.504 

> <ROCS_ColorScore>
-4.348

> <ROCS_Overlap>
2058.055

> <ROCS_Rank>
434                 

$$$$
untitled-dbase-44836_23
  -OEChem-11132313473D

 35 36  0     0  0  0  0  0  0999 V2000
    6.8738   12.9224   26.1145 C   0  0  0  0  0  0  0  0  0  0  0  0
    7.8831   13.1461   25.1721 C   0  0  0  0  0  0  0  0  0  0  0  0
    6.3918   11.6381   26.3343 C   0  0  0  0  0  0  0  0  0  0  0  0
    7.9313   10.7941   24.6676 C   0  0  0  0  0  0  0  0  0  0  0  0
    8.4374   12.0881   24.4326 C   0  0  0  0  0  0  0  0  0  0  0  0
    6.9171   10.5723   25.6114 C   0  0  0  0  0  0  0  0  0  0  0  0
    8.4983    9.6185   23.9640 C   0  0  0  0  0  0  0  0  0  0  0  0
   10.2422   13.4654   23.3742 C   0  0  0  0  0  0  0  0  0  0  0  0
    9.6706    9.8625   23.0571 C   0  0  0  0  0  0  0  0  0  0  0  0
    9.5824   11.2365   22.4267 C   0  0  0  0  0  0  0  0  0  0  0  0
   12.9615   13.5333   22.4648 C   0  0  0  0  0  0  0  0  0  0  0  0
   12.0587   14.7003   20.4320 C   0  0  0  0  0  0  0  0  0  0  0  0
   11.8241   15.7668   22.6937 C   0  0  0  0  0  0  0  0  0  0  0  0
   11.8620   14.4468   21.9250 C   0  0  0  0  0  0  0  0  0  0  0  0
    9.4514   12.3009   23.4329 N   0  0  0  0  0  0  0  0  0  0  0  0
    8.0637    8.4885   24.1623 O   0  0  0  0  0  0  0  0  0  0  0  0
   10.6090   14.1357   24.3365 O   0  0  0  0  0  0  0  0  0  0  0  0
   10.6005   13.7874   22.0883 O   0  0  0  0  0  0  0  0  0  0  0  0
    6.1096    8.9001   26.0664 Br  0  0  0  0  0  0  0  0  0  0  0  0
    6.4567   13.7594   26.6675 H   0  0  0  0  0  0  0  0  0  0  0  0
    8.1759   14.1783   25.0132 H   0  0  0  0  0  0  0  0  0  0  0  0
    5.6052   11.5001   27.0721 H   0  0  0  0  0  0  0  0  0  0  0  0
   10.5930    9.7500   23.6372 H   0  0  0  0  0  0  0  0  0  0  0  0
    9.6668    9.1053   22.2650 H   0  0  0  0  0  0  0  0  0  0  0  0
   10.4654   11.3861   21.7986 H   0  0  0  0  0  0  0  0  0  0  0  0
    8.7050   11.3096   21.7709 H   0  0  0  0  0  0  0  0  0  0  0  0
   12.8238   13.3489   23.5362 H   0  0  0  0  0  0  0  0  0  0  0  0
   12.9766   12.5697   21.9452 H   0  0  0  0  0  0  0  0  0  0  0  0
   13.9468   14.0007   22.3557 H   0  0  0  0  0  0  0  0  0  0  0  0
   11.2720   15.3553   20.0404 H   0  0  0  0  0  0  0  0  0  0  0  0
   11.9919   13.7646   19.8651 H   0  0  0  0  0  0  0  0  0  0  0  0
   13.0294   15.1624   20.2251 H   0  0  0  0  0  0  0  0  0  0  0  0
   11.0355   16.4222   22.3067 H   0  0  0  0  0  0  0  0  0  0  0  0
   11.6467   15.6064   23.7621 H   0  0  0  0  0  0  0  0  0  0  0  0
   12.7665   16.3138   22.5754 H   0  0  0  0  0  0  0  0  0  0  0  0
  1  2  1  0  0  0  0
  1  3  2  0  0  0  0
  2  5  2  0  0  0  0
  3  6  1  0  0  0  0
  4  5  1  0  0  0  0
  4  6  2  0  0  0  0
  4  7  1  0  0  0  0
  5 15  1  0  0  0  0
  6 19  1  0  0  0  0
  7  9  1  0  0  0  0
  7 16  2  0  0  0  0
  8 15  1  0  0  0  0
  8 17  2  0  0  0  0
  8 18  1  0  0  0  0
  9 10  1  0  0  0  0
 10 15  1  0  0  0  0
 11 14  1  0  0  0  0
 12 14  1  0  0  0  0
 13 14  1  0  0  0  0
 14 18  1  0  0  0  0
  1 20  1  0  0  0  0
  2 21  1  0  0  0  0
  3 22  1  0  0  0  0
  9 23  1  0  0  0  0
  9 24  1  0  0  0  0
 10 25  1  0  0  0  0
 10 26  1  0  0  0  0
 11 27  1  0  0  0  0
 11 28  1  0  0  0  0
 11 29  1  0  0  0  0
 12 30  1  0  0  0  0
 12 31  1  0  0  0  0
 12 32  1  0  0  0  0
 13 33  1  0  0  0  0
 13 34  1  0  0  0  0
 13 35  1  0  0  0  0
M  END
> <id>
EN300-12718895

> <smiles>
CC(C)(C)OC(=O)N1CCC(=O)C=2C(Br)=CC=CC12

> <MDLNUMBER>
MFCD24539216

> <IUPAC Name>
tert-butyl 5-bromo-4-oxo-1,2,3,4-tetrahydroquinoline-1-carboxylate

> <CAS>
1823262-91-4

> <URL>
https://www.enaminestore.com/catalog/EN300-12718895

> <ROCS_ShapeQuery>
A71EV2A-x0451_0A_A71EV2A-x0310_0A_A71EV2A-x0416_0A_peptide

> <ROCS_TanimotoCombo>
0.477 

> <ROCS_ShapeTanimoto>
0.346 

> <ROCS_ColorTanimoto>
0.130 

> <ROCS_RefTversky>
0.300 

> <ROCS_RefColorTversky>
0.143 

> <ROCS_RefTverskyCombo>
0.443 

> <ROCS_FitTversky>
1.791 

> <ROCS_FitColorTversky>
0.596 

> <ROCS_FitTverskyCombo>
2.387 

> <ROCS_ColorScore>
-4.348

> <ROCS_Overlap>
2084.653

> <ROCS_Rank>
435                 

$$$$
untitled-dbase-17791_0
  -OEChem-11132313473D

 38 39  0     1  0  0  0  0  0999 V2000
   10.5137   13.3663   23.4108 C   0  0  0  0  0  0  0  0  0  0  0  0
    7.1276   11.7437   24.1885 C   0  0  0  0  0  0  0  0  0  0  0  0
    7.3526   10.9320   22.9086 C   0  0  0  0  0  0  0  0  0  0  0  0
    8.1813    9.7808   25.3290 C   0  0  0  0  0  0  0  0  0  0  0  0
    9.4741   11.9638   25.1632 C   0  0  0  0  0  0  0  0  0  0  0  0
    9.9172   10.9777   22.8874 C   0  0  0  0  0  0  0  0  0  0  0  0
    8.0871   11.3110   25.3055 C   0  0  1  0  0  0  0  0  0  0  0  0
    8.6480   10.1087   22.9434 C   0  0  1  0  0  0  0  0  0  0  0  0
   12.7703   14.8541   22.4663 C   0  0  0  0  0  0  0  0  0  0  0  0
   11.8552   14.4269   20.1664 C   0  0  0  0  0  0  0  0  0  0  0  0
   10.5104   15.7547   21.8207 C   0  0  0  0  0  0  0  0  0  0  0  0
   11.5070   14.6103   21.6420 C   0  0  0  0  0  0  0  0  0  0  0  0
    8.7142    9.2045   24.0959 N   0  0  0  0  0  0  0  0  0  0  0  0
    9.9264   12.1436   23.7805 N   0  0  0  0  0  0  0  0  0  0  0  0
   10.6802   14.3157   24.1748 O   0  0  0  0  0  0  0  0  0  0  0  0
   10.8944   13.3973   22.0947 O   0  0  0  0  0  0  0  0  0  0  0  0
    7.2276   12.8171   23.9865 H   0  0  0  0  0  0  0  0  0  0  0  0
    6.0912   11.5956   24.5174 H   0  0  0  0  0  0  0  0  0  0  0  0
    6.5029   10.2501   22.7715 H   0  0  0  0  0  0  0  0  0  0  0  0
    7.3480   11.6012   22.0397 H   0  0  0  0  0  0  0  0  0  0  0  0
    8.7975    9.4532   26.1747 H   0  0  0  0  0  0  0  0  0  0  0  0
    7.1829    9.3597   25.4998 H   0  0  0  0  0  0  0  0  0  0  0  0
    9.4385   12.9431   25.6541 H   0  0  0  0  0  0  0  0  0  0  0  0
   10.2425   11.3853   25.6900 H   0  0  0  0  0  0  0  0  0  0  0  0
   10.8165   10.3910   23.1139 H   0  0  0  0  0  0  0  0  0  0  0  0
   10.0354   11.3159   21.8521 H   0  0  0  0  0  0  0  0  0  0  0  0
    7.6682   11.6381   26.2661 H   0  0  0  0  0  0  0  0  0  0  0  0
    8.6618    9.4713   22.0504 H   0  0  0  0  0  0  0  0  0  0  0  0
   12.5245   14.9862   23.5261 H   0  0  0  0  0  0  0  0  0  0  0  0
   13.4784   14.0241   22.3743 H   0  0  0  0  0  0  0  0  0  0  0  0
   13.2729   15.7747   22.1484 H   0  0  0  0  0  0  0  0  0  0  0  0
   10.9518   14.2517   19.5712 H   0  0  0  0  0  0  0  0  0  0  0  0
   12.4948   13.5486   20.0225 H   0  0  0  0  0  0  0  0  0  0  0  0
   12.3727   15.3027   19.7615 H   0  0  0  0  0  0  0  0  0  0  0  0
    9.6042   15.5800   21.2295 H   0  0  0  0  0  0  0  0  0  0  0  0
   10.2207   15.8771   22.8693 H   0  0  0  0  0  0  0  0  0  0  0  0
   10.9348   16.7002   21.4640 H   0  0  0  0  0  0  0  0  0  0  0  0
    9.6701    8.8830   24.2417 H   0  0  0  0  0  0  0  0  0  0  0  0
  1 14  1  0  0  0  0
  1 15  2  0  0  0  0
  1 16  1  0  0  0  0
  2  3  1  0  0  0  0
  2  7  1  0  0  0  0
  3  8  1  0  0  0  0
  4  7  1  0  0  0  0
  4 13  1  0  0  0  0
  5  7  1  0  0  0  0
  5 14  1  0  0  0  0
  6  8  1  0  0  0  0
  6 14  1  0  0  0  0
  8 13  1  0  0  0  0
  9 12  1  0  0  0  0
 10 12  1  0  0  0  0
 11 12  1  0  0  0  0
 12 16  1  0  0  0  0
  2 17  1  0  0  0  0
  2 18  1  0  0  0  0
  3 19  1  0  0  0  0
  3 20  1  0  0  0  0
  4 21  1  0  0  0  0
  4 22  1  0  0  0  0
  5 23  1  0  0  0  0
  5 24  1  0  0  0  0
  6 25  1  0  0  0  0
  6 26  1  0  0  0  0
  7 27  1  0  0  0  0
  8 28  1  0  0  0  0
  9 29  1  0  0  0  0
  9 30  1  0  0  0  0
  9 31  1  0  0  0  0
 10 32  1  0  0  0  0
 10 33  1  0  0  0  0
 10 34  1  0  0  0  0
 11 35  1  0  0  0  0
 11 36  1  0  0  0  0
 11 37  1  0  0  0  0
 13 38  1  0  0  0  0
M  END
> <id>
EN300-37083925

> <smiles>
Cl.CC(C)(C)OC(=O)N1CC2CCC(C1)NC2

> <MDLNUMBER>
MFCD34562276

> <IUPAC Name>
tert-butyl 3,6-diazabicyclo[3.2.2]nonane-3-carboxylate hydrochloride

> <CAS>
2704344-75-0

> <Purity>
95

> <URL>
https://www.enaminestore.com/catalog/EN300-37083925

> <ROCS_ShapeQuery>
A71EV2A-x0451_0A_A71EV2A-x0310_0A_A71EV2A-x0416_0A_peptide

> <ROCS_TanimotoCombo>
0.477 

> <ROCS_ShapeTanimoto>
0.282 

> <ROCS_ColorTanimoto>
0.195 

> <ROCS_RefTversky>
0.253 

> <ROCS_RefColorTversky>
0.220 

> <ROCS_RefTverskyCombo>
0.472 

> <ROCS_FitTversky>
1.702 

> <ROCS_FitColorTversky>
0.629 

> <ROCS_FitTverskyCombo>
2.332 

> <ROCS_ColorScore>
-6.729

> <ROCS_Overlap>
1750.341

> <ROCS_Rank>
436                 

$$$$
untitled-dbase-42940_205
  -OEChem-11132313473D

 38 39  0     0  0  0  0  0  0999 V2000
    7.8015   13.2992   25.5079 C   0  0  0  0  0  0  0  0  0  0  0  0
    6.6870   13.3768   26.3502 C   0  0  0  0  0  0  0  0  0  0  0  0
    5.9465   11.2557   25.5394 C   0  0  0  0  0  0  0  0  0  0  0  0
    7.0805   11.1474   24.7018 C   0  0  0  0  0  0  0  0  0  0  0  0
    8.0062   12.2223   24.6180 C   0  0  0  0  0  0  0  0  0  0  0  0
    5.7447   12.3650   26.3494 C   0  0  0  0  0  0  0  0  0  0  0  0
   10.0105   13.3450   23.5720 C   0  0  0  0  0  0  0  0  0  0  0  0
    7.2417    9.8231   23.9949 C   0  0  0  0  0  0  0  0  0  0  0  0
    9.2172   11.1974   22.6565 C   0  0  0  0  0  0  0  0  0  0  0  0
    9.4613    9.7798   23.1538 C   0  0  0  0  0  0  0  0  0  0  0  0
   12.6505   13.5212   22.4123 C   0  0  0  0  0  0  0  0  0  0  0  0
   11.5411   14.7904   20.5502 C   0  0  0  0  0  0  0  0  0  0  0  0
   11.5179   15.7188   22.8838 C   0  0  0  0  0  0  0  0  0  0  0  0
   11.4940   14.4468   22.0374 C   0  0  0  0  0  0  0  0  0  0  0  0
    9.1438   12.2276   23.7030 N   0  0  0  0  0  0  0  0  0  0  0  0
   10.4836   14.0051   24.4947 O   0  0  0  0  0  0  0  0  0  0  0  0
    8.5710    9.3577   24.1733 O   0  0  0  0  0  0  0  0  0  0  0  0
    4.6362   12.4553   27.1281 O   0  0  0  0  0  0  0  0  0  0  0  0
   10.2586   13.7571   22.2833 O   0  0  0  0  0  0  0  0  0  0  0  0
    8.4888   14.1484   25.5300 H   0  0  0  0  0  0  0  0  0  0  0  0
    6.5620   14.2477   26.9897 H   0  0  0  0  0  0  0  0  0  0  0  0
    5.2173   10.4457   25.5632 H   0  0  0  0  0  0  0  0  0  0  0  0
    6.6050    9.0826   24.4718 H   0  0  0  0  0  0  0  0  0  0  0  0
    6.9633    9.8899   22.9482 H   0  0  0  0  0  0  0  0  0  0  0  0
   10.0024   11.4561   21.9135 H   0  0  0  0  0  0  0  0  0  0  0  0
    8.2787   11.2561   22.0602 H   0  0  0  0  0  0  0  0  0  0  0  0
    9.3996    9.0688   22.3118 H   0  0  0  0  0  0  0  0  0  0  0  0
   10.4840    9.6916   23.5567 H   0  0  0  0  0  0  0  0  0  0  0  0
   12.6203   13.2722   23.4791 H   0  0  0  0  0  0  0  0  0  0  0  0
   12.6247   12.5900   21.8370 H   0  0  0  0  0  0  0  0  0  0  0  0
   13.6155   14.0101   22.2362 H   0  0  0  0  0  0  0  0  0  0  0  0
   10.7131   15.4544   20.2768 H   0  0  0  0  0  0  0  0  0  0  0  0
   11.4288   13.8886   19.9375 H   0  0  0  0  0  0  0  0  0  0  0  0
   12.4820   15.2795   20.2781 H   0  0  0  0  0  0  0  0  0  0  0  0
   10.6884   16.3829   22.6151 H   0  0  0  0  0  0  0  0  0  0  0  0
   11.4476   15.4933   23.9528 H   0  0  0  0  0  0  0  0  0  0  0  0
   12.4384   16.2869   22.7075 H   0  0  0  0  0  0  0  0  0  0  0  0
    4.6430   13.2865   27.6297 H   0  0  0  0  0  0  0  0  0  0  0  0
  1  2  1  0  0  0  0
  1  5  2  0  0  0  0
  2  6  2  0  0  0  0
  3  4  2  0  0  0  0
  3  6  1  0  0  0  0
  4  5  1  0  0  0  0
  4  8  1  0  0  0  0
  5 15  1  0  0  0  0
  6 18  1  0  0  0  0
  7 15  1  0  0  0  0
  7 16  2  0  0  0  0
  7 19  1  0  0  0  0
  8 17  1  0  0  0  0
  9 10  1  0  0  0  0
  9 15  1  0  0  0  0
 10 17  1  0  0  0  0
 11 14  1  0  0  0  0
 12 14  1  0  0  0  0
 13 14  1  0  0  0  0
 14 19  1  0  0  0  0
  1 20  1  0  0  0  0
  2 21  1  0  0  0  0
  3 22  1  0  0  0  0
  8 23  1  0  0  0  0
  8 24  1  0  0  0  0
  9 25  1  0  0  0  0
  9 26  1  0  0  0  0
 10 27  1  0  0  0  0
 10 28  1  0  0  0  0
 11 29  1  0  0  0  0
 11 30  1  0  0  0  0
 11 31  1  0  0  0  0
 12 32  1  0  0  0  0
 12 33  1  0  0  0  0
 12 34  1  0  0  0  0
 13 35  1  0  0  0  0
 13 36  1  0  0  0  0
 13 37  1  0  0  0  0
 18 38  1  0  0  0  0
M  END
> <id>
EN300-27718539

> <smiles>
CC(C)(C)OC(=O)N1CCOCC=2C=C(O)C=CC12

> <IUPAC Name>
tert-butyl 7-hydroxy-1,2,3,5-tetrahydro-4,1-benzoxazepine-1-carboxylate

> <CAS>
2580238-83-9

> <URL>
https://www.enaminestore.com/catalog/EN300-27718539

> <ROCS_ShapeQuery>
A71EV2A-x0451_0A_A71EV2A-x0310_0A_A71EV2A-x0416_0A_peptide

> <ROCS_TanimotoCombo>
0.477 

> <ROCS_ShapeTanimoto>
0.337 

> <ROCS_ColorTanimoto>
0.140 

> <ROCS_RefTversky>
0.295 

> <ROCS_RefColorTversky>
0.156 

> <ROCS_RefTverskyCombo>
0.450 

> <ROCS_FitTversky>
1.746 

> <ROCS_FitColorTversky>
0.576 

> <ROCS_FitTverskyCombo>
2.321 

> <ROCS_ColorScore>
-4.740

> <ROCS_Overlap>
2043.825

> <ROCS_Rank>
437                 

$$$$
untitled-dbase-46181_65
  -OEChem-11132313473D

 42 43  0     0  0  0  0  0  0999 V2000
    6.4082   13.8798   25.6303 C   0  0  0  0  0  0  0  0  0  0  0  0
    7.7847   10.6672   24.3924 C   0  0  0  0  0  0  0  0  0  0  0  0
   10.4552   13.3200   23.4465 C   0  0  0  0  0  0  0  0  0  0  0  0
    7.8476   13.9183   26.0710 C   0  0  0  0  0  0  0  0  0  0  0  0
    6.1162   13.3829   24.2356 C   0  0  0  0  0  0  0  0  0  0  0  0
    8.5381   12.5941   25.7664 C   0  0  0  0  0  0  0  0  0  0  0  0
    7.3810   12.9727   23.4790 C   0  0  0  0  0  0  0  0  0  0  0  0
   10.0569    9.7510   24.0560 C   0  0  0  0  0  0  0  0  0  0  0  0
   10.2405   10.8643   23.0562 C   0  0  0  0  0  0  0  0  0  0  0  0
    8.3856   12.1059   24.2932 C   0  0  0  0  0  0  0  0  0  0  0  0
   12.1458   15.5150   22.7123 C   0  0  0  0  0  0  0  0  0  0  0  0
   12.2651   14.4262   20.4519 C   0  0  0  0  0  0  0  0  0  0  0  0
   10.0566   15.2295   21.3381 C   0  0  0  0  0  0  0  0  0  0  0  0
   11.4142   14.6309   21.7034 C   0  0  0  0  0  0  0  0  0  0  0  0
    8.6608    9.6090   24.3590 N   0  0  0  0  0  0  0  0  0  0  0  0
    9.7251   12.1218   23.6037 N   0  0  0  0  0  0  0  0  0  0  0  0
    5.5033   14.2818   26.3621 O   0  0  0  0  0  0  0  0  0  0  0  0
    6.5906   10.4713   24.6330 O   0  0  0  0  0  0  0  0  0  0  0  0
   10.4401   14.2613   24.2361 O   0  0  0  0  0  0  0  0  0  0  0  0
   11.2008   13.3440   22.2954 O   0  0  0  0  0  0  0  0  0  0  0  0
    8.3581   14.7253   25.5389 H   0  0  0  0  0  0  0  0  0  0  0  0
    7.8743   14.1619   27.1335 H   0  0  0  0  0  0  0  0  0  0  0  0
    5.3970   12.5478   24.3065 H   0  0  0  0  0  0  0  0  0  0  0  0
    5.6005   14.1839   23.6754 H   0  0  0  0  0  0  0  0  0  0  0  0
    9.5890   12.7369   26.0149 H   0  0  0  0  0  0  0  0  0  0  0  0
    8.1590   11.8304   26.4501 H   0  0  0  0  0  0  0  0  0  0  0  0
    7.0789   12.4443   22.5617 H   0  0  0  0  0  0  0  0  0  0  0  0
    7.8615   13.9023   23.1438 H   0  0  0  0  0  0  0  0  0  0  0  0
   10.4280    8.7932   23.6743 H   0  0  0  0  0  0  0  0  0  0  0  0
   10.5812    9.9742   24.9911 H   0  0  0  0  0  0  0  0  0  0  0  0
   11.2990   11.0196   22.8227 H   0  0  0  0  0  0  0  0  0  0  0  0
    9.7354   10.5910   22.1279 H   0  0  0  0  0  0  0  0  0  0  0  0
   11.5383   15.6644   23.6121 H   0  0  0  0  0  0  0  0  0  0  0  0
   13.1055   15.0794   23.0090 H   0  0  0  0  0  0  0  0  0  0  0  0
   12.3320   16.5117   22.2961 H   0  0  0  0  0  0  0  0  0  0  0  0
   11.7440   13.7924   19.7252 H   0  0  0  0  0  0  0  0  0  0  0  0
   13.2009   13.9105   20.6962 H   0  0  0  0  0  0  0  0  0  0  0  0
   12.5095   15.3780   19.9693 H   0  0  0  0  0  0  0  0  0  0  0  0
    9.5316   14.5955   20.6144 H   0  0  0  0  0  0  0  0  0  0  0  0
    9.4183   15.3493   22.2195 H   0  0  0  0  0  0  0  0  0  0  0  0
   10.1782   16.2085   20.8605 H   0  0  0  0  0  0  0  0  0  0  0  0
    8.3138    8.6886   24.6210 H   0  0  0  0  0  0  0  0  0  0  0  0
  1  4  1  0  0  0  0
  1  5  1  0  0  0  0
  1 17  2  0  0  0  0
  2 10  1  0  0  0  0
  2 15  1  0  0  0  0
  2 18  2  0  0  0  0
  3 16  1  0  0  0  0
  3 19  2  0  0  0  0
  3 20  1  0  0  0  0
  4  6  1  0  0  0  0
  5  7  1  0  0  0  0
  6 10  1  0  0  0  0
  7 10  1  0  0  0  0
  8  9  1  0  0  0  0
  8 15  1  0  0  0  0
  9 16  1  0  0  0  0
 10 16  1  0  0  0  0
 11 14  1  0  0  0  0
 12 14  1  0  0  0  0
 13 14  1  0  0  0  0
 14 20  1  0  0  0  0
  4 21  1  0  0  0  0
  4 22  1  0  0  0  0
  5 23  1  0  0  0  0
  5 24  1  0  0  0  0
  6 25  1  0  0  0  0
  6 26  1  0  0  0  0
  7 27  1  0  0  0  0
  7 28  1  0  0  0  0
  8 29  1  0  0  0  0
  8 30  1  0  0  0  0
  9 31  1  0  0  0  0
  9 32  1  0  0  0  0
 11 33  1  0  0  0  0
 11 34  1  0  0  0  0
 11 35  1  0  0  0  0
 12 36  1  0  0  0  0
 12 37  1  0  0  0  0
 12 38  1  0  0  0  0
 13 39  1  0  0  0  0
 13 40  1  0  0  0  0
 13 41  1  0  0  0  0
 15 42  1  0  0  0  0
M  END
> <id>
EN300-33050554

> <smiles>
CC(C)(C)OC(=O)N1CCNC(=O)C21CCC(=O)CC2

> <IUPAC Name>
tert-butyl 5,9-dioxo-1,4-diazaspiro[5.5]undecane-1-carboxylate

> <CAS>
2694722-54-6

> <URL>
https://www.enaminestore.com/catalog/EN300-33050554

> <ROCS_ShapeQuery>
A71EV2A-x0451_0A_A71EV2A-x0310_0A_A71EV2A-x0416_0A_peptide

> <ROCS_TanimotoCombo>
0.476 

> <ROCS_ShapeTanimoto>
0.326 

> <ROCS_ColorTanimoto>
0.150 

> <ROCS_RefTversky>
0.288 

> <ROCS_RefColorTversky>
0.166 

> <ROCS_RefTverskyCombo>
0.455 

> <ROCS_FitTversky>
1.664 

> <ROCS_FitColorTversky>
0.615 

> <ROCS_FitTverskyCombo>
2.279 

> <ROCS_ColorScore>
-5.063

> <ROCS_Overlap>
2002.198

> <ROCS_Rank>
438                 

$$$$
untitled-dbase-45431_3
  -OEChem-11132313473D

 33 34  0     0  0  0  0  0  0999 V2000
    6.9649   12.0294   25.7966 C   0  0  0  0  0  0  0  0  0  0  0  0
    8.0262   12.7954   25.2702 C   0  0  0  0  0  0  0  0  0  0  0  0
    8.6425   11.9685   24.3546 C   0  0  0  0  0  0  0  0  0  0  0  0
   10.4117   13.3185   23.4109 C   0  0  0  0  0  0  0  0  0  0  0  0
    9.6604    9.6052   23.1706 C   0  0  0  0  0  0  0  0  0  0  0  0
    8.1977    9.6296   23.5923 C   0  0  0  0  0  0  0  0  0  0  0  0
   10.0918   10.9590   22.6059 C   0  0  0  0  0  0  0  0  0  0  0  0
   13.1892   13.6384   22.7751 C   0  0  0  0  0  0  0  0  0  0  0  0
   12.3924   14.5106   20.5584 C   0  0  0  0  0  0  0  0  0  0  0  0
   11.7906   15.7283   22.6710 C   0  0  0  0  0  0  0  0  0  0  0  0
   12.0610   14.3624   22.0418 C   0  0  0  0  0  0  0  0  0  0  0  0
    6.8980   10.8068   25.2660 N   0  0  0  0  0  0  0  0  0  0  0  0
    7.9278   10.7978   24.4045 N   0  0  0  0  0  0  0  0  0  0  0  0
    9.7324   12.0901   23.4864 N   0  0  0  0  0  0  0  0  0  0  0  0
   10.5907   14.1048   24.3379 O   0  0  0  0  0  0  0  0  0  0  0  0
   10.8711   13.5708   22.1412 O   0  0  0  0  0  0  0  0  0  0  0  0
    8.1863   14.7664   25.8326 I   0  0  0  0  0  0  0  0  0  0  0  0
    6.2196   12.3075   26.5293 H   0  0  0  0  0  0  0  0  0  0  0  0
   10.2890    9.3649   24.0379 H   0  0  0  0  0  0  0  0  0  0  0  0
    9.8235    8.8166   22.4280 H   0  0  0  0  0  0  0  0  0  0  0  0
    7.5341    9.6880   22.7228 H   0  0  0  0  0  0  0  0  0  0  0  0
    7.9479    8.7369   24.1746 H   0  0  0  0  0  0  0  0  0  0  0  0
   11.1737   10.9377   22.4324 H   0  0  0  0  0  0  0  0  0  0  0  0
    9.6022   11.1411   21.6413 H   0  0  0  0  0  0  0  0  0  0  0  0
   12.9551   13.5301   23.8402 H   0  0  0  0  0  0  0  0  0  0  0  0
   13.3695   12.6432   22.3557 H   0  0  0  0  0  0  0  0  0  0  0  0
   14.1220   14.2113   22.7204 H   0  0  0  0  0  0  0  0  0  0  0  0
   11.5856   15.0295   20.0283 H   0  0  0  0  0  0  0  0  0  0  0  0
   12.4940   13.5291   20.0813 H   0  0  0  0  0  0  0  0  0  0  0  0
   13.3222   15.0681   20.4059 H   0  0  0  0  0  0  0  0  0  0  0  0
   10.9814   16.2478   22.1452 H   0  0  0  0  0  0  0  0  0  0  0  0
   11.5150   15.6386   23.7268 H   0  0  0  0  0  0  0  0  0  0  0  0
   12.6731   16.3738   22.5952 H   0  0  0  0  0  0  0  0  0  0  0  0
  1  2  1  0  0  0  0
  1 12  2  0  0  0  0
  2  3  2  0  0  0  0
  2 17  1  0  0  0  0
  3 13  1  0  0  0  0
  3 14  1  0  0  0  0
  4 14  1  0  0  0  0
  4 15  2  0  0  0  0
  4 16  1  0  0  0  0
  5  6  1  0  0  0  0
  5  7  1  0  0  0  0
  6 13  1  0  0  0  0
  7 14  1  0  0  0  0
  8 11  1  0  0  0  0
  9 11  1  0  0  0  0
 10 11  1  0  0  0  0
 11 16  1  0  0  0  0
 12 13  1  0  0  0  0
  1 18  1  0  0  0  0
  5 19  1  0  0  0  0
  5 20  1  0  0  0  0
  6 21  1  0  0  0  0
  6 22  1  0  0  0  0
  7 23  1  0  0  0  0
  7 24  1  0  0  0  0
  8 25  1  0  0  0  0
  8 26  1  0  0  0  0
  8 27  1  0  0  0  0
  9 28  1  0  0  0  0
  9 29  1  0  0  0  0
  9 30  1  0  0  0  0
 10 31  1  0  0  0  0
 10 32  1  0  0  0  0
 10 33  1  0  0  0  0
M  END
> <id>
EN300-28298333

> <smiles>
CC(C)(C)OC(=O)N1CCCN2N=CC(I)=C12

> <IUPAC Name>
tert-butyl 3-iodo-4H,5H,6H,7H-pyrazolo[1,5-a]pyrimidine-4-carboxylate

> <CAS>
2680864-84-8

> <URL>
https://www.enaminestore.com/catalog/EN300-28298333

> <ROCS_ShapeQuery>
A71EV2A-x0451_0A_A71EV2A-x0310_0A_A71EV2A-x0416_0A_peptide

> <ROCS_TanimotoCombo>
0.476 

> <ROCS_ShapeTanimoto>
0.322 

> <ROCS_ColorTanimoto>
0.154 

> <ROCS_RefTversky>
0.282 

> <ROCS_RefColorTversky>
0.166 

> <ROCS_RefTverskyCombo>
0.447 

> <ROCS_FitTversky>
1.806 

> <ROCS_FitColorTversky>
0.690 

> <ROCS_FitTverskyCombo>
2.496 

> <ROCS_ColorScore>
-5.039

> <ROCS_Overlap>
1953.343

> <ROCS_Rank>
439                 

$$$$
untitled-dbase-30089_212
  -OEChem-11132313473D

 39 40  0     1  0  0  0  0  0999 V2000
    5.9772   13.2690   25.6476 C   0  0  0  0  0  0  0  0  0  0  0  0
   10.3626   13.2093   23.5864 C   0  0  0  0  0  0  0  0  0  0  0  0
    6.7069   13.2327   24.3015 C   0  0  0  0  0  0  0  0  0  0  0  0
   10.1255   10.7146   23.6670 C   0  0  0  0  0  0  0  0  0  0  0  0
    8.8498   12.1908   25.2683 C   0  0  0  0  0  0  0  0  0  0  0  0
    9.2963    9.5747   24.2614 C   0  0  0  0  0  0  0  0  0  0  0  0
    7.3285   10.8617   23.6497 C   0  0  0  0  0  0  0  0  0  0  0  0
    6.3282   11.7762   25.9605 C   0  0  0  0  0  0  0  0  0  0  0  0
    7.4110   11.9119   24.7716 C   0  0  2  0  0  0  0  0  0  0  0  0
   12.5806   14.5034   22.3246 C   0  0  0  0  0  0  0  0  0  0  0  0
   11.5532   13.7489   20.1602 C   0  0  0  0  0  0  0  0  0  0  0  0
   10.2988   15.3289   21.6563 C   0  0  0  0  0  0  0  0  0  0  0  0
   11.2776   14.1566   21.6059 C   0  0  0  0  0  0  0  0  0  0  0  0
    9.7855   12.0639   24.1507 N   0  0  0  0  0  0  0  0  0  0  0  0
    5.3556   14.1345   26.2281 O   0  0  0  0  0  0  0  0  0  0  0  0
   10.5700   14.2573   24.1946 O   0  0  0  0  0  0  0  0  0  0  0  0
    7.8905    9.6116   24.0329 O   0  0  0  0  0  0  0  0  0  0  0  0
   10.6790   13.0342   22.2640 O   0  0  0  0  0  0  0  0  0  0  0  0
    6.9187   11.5966   27.6607 Cl  0  0  0  0  0  0  0  0  0  0  0  0
    4.8636   10.7376   25.7110 Cl  0  0  0  0  0  0  0  0  0  0  0  0
    6.0455   13.1560   23.4287 H   0  0  0  0  0  0  0  0  0  0  0  0
    7.3571   14.1086   24.1620 H   0  0  0  0  0  0  0  0  0  0  0  0
   11.1798   10.5608   23.8906 H   0  0  0  0  0  0  0  0  0  0  0  0
    9.9957   10.7113   22.5863 H   0  0  0  0  0  0  0  0  0  0  0  0
    8.9447   13.1885   25.6954 H   0  0  0  0  0  0  0  0  0  0  0  0
    9.1195   11.4831   26.0508 H   0  0  0  0  0  0  0  0  0  0  0  0
    9.7224    8.5666   23.9971 H   0  0  0  0  0  0  0  0  0  0  0  0
    9.4223    9.6135   25.3724 H   0  0  0  0  0  0  0  0  0  0  0  0
    6.2827   10.6583   23.3856 H   0  0  0  0  0  0  0  0  0  0  0  0
    7.8089   11.2174   22.7273 H   0  0  0  0  0  0  0  0  0  0  0  0
   12.3870   14.7965   23.3626 H   0  0  0  0  0  0  0  0  0  0  0  0
   13.2777   13.6590   22.3259 H   0  0  0  0  0  0  0  0  0  0  0  0
   13.0739   15.3587   21.8487 H   0  0  0  0  0  0  0  0  0  0  0  0
   10.6210   13.4992   19.6408 H   0  0  0  0  0  0  0  0  0  0  0  0
   12.1789   12.8500   20.1207 H   0  0  0  0  0  0  0  0  0  0  0  0
   12.0568   14.5466   19.6045 H   0  0  0  0  0  0  0  0  0  0  0  0
    9.3640   15.0803   21.1409 H   0  0  0  0  0  0  0  0  0  0  0  0
   10.0606   15.6114   22.6869 H   0  0  0  0  0  0  0  0  0  0  0  0
   10.7122   16.2040   21.1421 H   0  0  0  0  0  0  0  0  0  0  0  0
  1  3  1  0  0  0  0
  1  8  1  0  0  0  0
  1 15  2  0  0  0  0
  2 14  1  0  0  0  0
  2 16  2  0  0  0  0
  2 18  1  0  0  0  0
  3  9  1  0  0  0  0
  4  6  1  0  0  0  0
  4 14  1  0  0  0  0
  5  9  1  0  0  0  0
  5 14  1  0  0  0  0
  6 17  1  0  0  0  0
  7  9  1  0  0  0  0
  7 17  1  0  0  0  0
  8  9  1  0  0  0  0
  8 19  1  0  0  0  0
  8 20  1  0  0  0  0
 10 13  1  0  0  0  0
 11 13  1  0  0  0  0
 12 13  1  0  0  0  0
 13 18  1  0  0  0  0
  3 21  1  0  0  0  0
  3 22  1  0  0  0  0
  4 23  1  0  0  0  0
  4 24  1  0  0  0  0
  5 25  1  0  0  0  0
  5 26  1  0  0  0  0
  6 27  1  0  0  0  0
  6 28  1  0  0  0  0
  7 29  1  0  0  0  0
  7 30  1  0  0  0  0
 10 31  1  0  0  0  0
 10 32  1  0  0  0  0
 10 33  1  0  0  0  0
 11 34  1  0  0  0  0
 11 35  1  0  0  0  0
 11 36  1  0  0  0  0
 12 37  1  0  0  0  0
 12 38  1  0  0  0  0
 12 39  1  0  0  0  0
M  END
> <id>
EN300-37430147

> <smiles>
CC(C)(C)OC(=O)N1CCOCC2(CC(=O)C2(Cl)Cl)C1

> <IUPAC Name>
tert-butyl 1,1-dichloro-2-oxo-6-oxa-9-azaspiro[3.6]decane-9-carboxylate

> <Purity>
75

> <URL>
https://www.enaminestore.com/catalog/EN300-37430147

> <ROCS_ShapeQuery>
A71EV2A-x0451_0A_A71EV2A-x0310_0A_A71EV2A-x0416_0A_peptide

> <ROCS_TanimotoCombo>
0.476 

> <ROCS_ShapeTanimoto>
0.317 

> <ROCS_ColorTanimoto>
0.159 

> <ROCS_RefTversky>
0.282 

> <ROCS_RefColorTversky>
0.170 

> <ROCS_RefTverskyCombo>
0.452 

> <ROCS_FitTversky>
1.663 

> <ROCS_FitColorTversky>
0.710 

> <ROCS_FitTverskyCombo>
2.373 

> <ROCS_ColorScore>
-5.175

> <ROCS_Overlap>
1954.468

> <ROCS_Rank>
440                 

$$$$
untitled-dbase-44808_11
  -OEChem-11132313473D

 33 34  0     0  0  0  0  0  0999 V2000
    6.9480   10.1273   25.0655 C   0  0  0  0  0  0  0  0  0  0  0  0
    6.3051   11.0174   25.9310 C   0  0  0  0  0  0  0  0  0  0  0  0
    7.8711   12.7863   25.3558 C   0  0  0  0  0  0  0  0  0  0  0  0
    8.0649   10.5751   24.3383 C   0  0  0  0  0  0  0  0  0  0  0  0
    8.5108   11.8872   24.4889 C   0  0  0  0  0  0  0  0  0  0  0  0
    6.7612   12.3257   26.0725 C   0  0  0  0  0  0  0  0  0  0  0  0
    8.9477   10.0052   23.4047 C   0  0  0  0  0  0  0  0  0  0  0  0
   10.4169   13.1300   23.4332 C   0  0  0  0  0  0  0  0  0  0  0  0
    8.9371    8.6287   22.8778 C   0  0  0  0  0  0  0  0  0  0  0  0
   12.1755   15.1335   22.4655 C   0  0  0  0  0  0  0  0  0  0  0  0
   11.7160   14.1751   20.1896 C   0  0  0  0  0  0  0  0  0  0  0  0
    9.8379   15.1629   21.5331 C   0  0  0  0  0  0  0  0  0  0  0  0
   11.1589   14.3974   21.5940 C   0  0  0  0  0  0  0  0  0  0  0  0
    9.8795   10.8576   22.9847 N   0  0  0  0  0  0  0  0  0  0  0  0
    9.6101   12.0098   23.6495 N   0  0  0  0  0  0  0  0  0  0  0  0
   10.5965   13.9590   24.3101 O   0  0  0  0  0  0  0  0  0  0  0  0
   10.9135   13.1105   22.1690 O   0  0  0  0  0  0  0  0  0  0  0  0
    5.7766   13.6222   27.3731 I   0  0  0  0  0  0  0  0  0  0  0  0
    6.5848    9.1090   24.9635 H   0  0  0  0  0  0  0  0  0  0  0  0
    5.4416   10.6615   26.4888 H   0  0  0  0  0  0  0  0  0  0  0  0
    8.2253   13.8056   25.4656 H   0  0  0  0  0  0  0  0  0  0  0  0
    8.3164    8.5536   21.9690 H   0  0  0  0  0  0  0  0  0  0  0  0
    9.9505    8.2744   22.6196 H   0  0  0  0  0  0  0  0  0  0  0  0
    8.5415    7.9053   23.6124 H   0  0  0  0  0  0  0  0  0  0  0  0
   11.7794   15.2949   23.4744 H   0  0  0  0  0  0  0  0  0  0  0  0
   13.1154   14.5776   22.5458 H   0  0  0  0  0  0  0  0  0  0  0  0
   12.3945   16.1265   22.0568 H   0  0  0  0  0  0  0  0  0  0  0  0
   10.9899   13.6472   19.5609 H   0  0  0  0  0  0  0  0  0  0  0  0
   12.6127   13.5456   20.2205 H   0  0  0  0  0  0  0  0  0  0  0  0
   11.9732   15.1212   19.7026 H   0  0  0  0  0  0  0  0  0  0  0  0
    9.1085   14.6351   20.9081 H   0  0  0  0  0  0  0  0  0  0  0  0
    9.4047   15.2996   22.5293 H   0  0  0  0  0  0  0  0  0  0  0  0
    9.9798   16.1493   21.0768 H   0  0  0  0  0  0  0  0  0  0  0  0
  1  2  1  0  0  0  0
  1  4  2  0  0  0  0
  2  6  2  0  0  0  0
  3  5  2  0  0  0  0
  3  6  1  0  0  0  0
  4  5  1  0  0  0  0
  4  7  1  0  0  0  0
  5 15  1  0  0  0  0
  6 18  1  0  0  0  0
  7  9  1  0  0  0  0
  7 14  2  0  0  0  0
  8 15  1  0  0  0  0
  8 16  2  0  0  0  0
  8 17  1  0  0  0  0
 10 13  1  0  0  0  0
 11 13  1  0  0  0  0
 12 13  1  0  0  0  0
 13 17  1  0  0  0  0
 14 15  1  0  0  0  0
  1 19  1  0  0  0  0
  2 20  1  0  0  0  0
  3 21  1  0  0  0  0
  9 22  1  0  0  0  0
  9 23  1  0  0  0  0
  9 24  1  0  0  0  0
 10 25  1  0  0  0  0
 10 26  1  0  0  0  0
 10 27  1  0  0  0  0
 11 28  1  0  0  0  0
 11 29  1  0  0  0  0
 11 30  1  0  0  0  0
 12 31  1  0  0  0  0
 12 32  1  0  0  0  0
 12 33  1  0  0  0  0
M  END
> <id>
EN300-28262895

> <smiles>
CC1=NN(C(=O)OC(C)(C)C)C=2C=C(I)C=CC12

> <IUPAC Name>
tert-butyl 6-iodo-3-methyl-1H-indazole-1-carboxylate

> <CAS>
2680858-48-2

> <URL>
https://www.enaminestore.com/catalog/EN300-28262895

> <ROCS_ShapeQuery>
A71EV2A-x0451_0A_A71EV2A-x0310_0A_A71EV2A-x0416_0A_peptide

> <ROCS_TanimotoCombo>
0.476 

> <ROCS_ShapeTanimoto>
0.345 

> <ROCS_ColorTanimoto>
0.131 

> <ROCS_RefTversky>
0.299 

> <ROCS_RefColorTversky>
0.144 

> <ROCS_RefTverskyCombo>
0.442 

> <ROCS_FitTversky>
1.832 

> <ROCS_FitColorTversky>
0.598 

> <ROCS_FitTverskyCombo>
2.431 

> <ROCS_ColorScore>
-4.368

> <ROCS_Overlap>
2070.756

> <ROCS_Rank>
441                 

$$$$
untitled-dbase-14624_103
  -OEChem-11132313473D

 45 46  0     1  0  0  0  0  0999 V2000
   10.6775   13.3245   23.4485 C   0  0  0  0  0  0  0  0  0  0  0  0
    8.6122   10.4296   22.3705 C   0  0  0  0  0  0  0  0  0  0  0  0
    9.9845   11.0605   22.5893 C   0  0  0  0  0  0  0  0  0  0  0  0
    6.2750   12.7233   25.7548 C   0  0  0  0  0  0  0  0  0  0  0  0
    7.3865   10.6918   26.0713 C   0  0  0  0  0  0  0  0  0  0  0  0
    9.2982   11.8268   24.8637 C   0  0  0  0  0  0  0  0  0  0  0  0
    6.7730   12.2386   24.3800 C   0  0  2  0  0  0  0  0  0  0  0  0
    7.9482   10.0312   23.6861 C   0  0  2  0  0  0  0  0  0  0  0  0
    7.8879   11.2002   24.7027 C   0  0  2  0  0  0  0  0  0  0  0  0
    7.1084   13.4250   23.4833 C   0  0  0  0  0  0  0  0  0  0  0  0
   12.3698   15.5239   22.7481 C   0  0  0  0  0  0  0  0  0  0  0  0
   12.4531   14.4911   20.4600 C   0  0  0  0  0  0  0  0  0  0  0  0
   10.2611   15.2836   21.3953 C   0  0  0  0  0  0  0  0  0  0  0  0
   11.6200   14.6691   21.7275 C   0  0  0  0  0  0  0  0  0  0  0  0
    6.9435   11.8988   26.7590 N   0  0  0  0  0  0  0  0  0  0  0  0
    9.9520   12.1327   23.5872 N   0  0  0  0  0  0  0  0  0  0  0  0
   10.6691   14.2403   24.2693 O   0  0  0  0  0  0  0  0  0  0  0  0
    8.7097    8.9435   24.2215 O   0  0  0  0  0  0  0  0  0  0  0  0
   11.4074   13.3692   22.2901 O   0  0  0  0  0  0  0  0  0  0  0  0
    7.9654   11.1321   21.8269 H   0  0  0  0  0  0  0  0  0  0  0  0
    8.7052    9.5544   21.7117 H   0  0  0  0  0  0  0  0  0  0  0  0
   10.7084   10.2848   22.8774 H   0  0  0  0  0  0  0  0  0  0  0  0
   10.3525   11.5049   21.6515 H   0  0  0  0  0  0  0  0  0  0  0  0
    6.5234   13.7788   25.9164 H   0  0  0  0  0  0  0  0  0  0  0  0
    5.1869   12.6240   25.8313 H   0  0  0  0  0  0  0  0  0  0  0  0
    6.5309   10.0266   25.9600 H   0  0  0  0  0  0  0  0  0  0  0  0
    8.1482   10.1688   26.6441 H   0  0  0  0  0  0  0  0  0  0  0  0
    9.2312   12.7909   25.4042 H   0  0  0  0  0  0  0  0  0  0  0  0
    9.9501   11.1913   25.4899 H   0  0  0  0  0  0  0  0  0  0  0  0
    5.9148   11.7207   23.9122 H   0  0  0  0  0  0  0  0  0  0  0  0
    6.9491    9.6562   23.4849 H   0  0  0  0  0  0  0  0  0  0  0  0
    7.9527   13.9784   23.8954 H   0  0  0  0  0  0  0  0  0  0  0  0
    6.2500   14.0935   23.4111 H   0  0  0  0  0  0  0  0  0  0  0  0
    7.3692   13.0762   22.4836 H   0  0  0  0  0  0  0  0  0  0  0  0
   11.7751   15.6540   23.6594 H   0  0  0  0  0  0  0  0  0  0  0  0
   13.3309   15.0761   23.0211 H   0  0  0  0  0  0  0  0  0  0  0  0
   12.5560   16.5297   22.3544 H   0  0  0  0  0  0  0  0  0  0  0  0
   11.9190   13.8783   19.7249 H   0  0  0  0  0  0  0  0  0  0  0  0
   13.3892   13.9646   20.6789 H   0  0  0  0  0  0  0  0  0  0  0  0
   12.6964   15.4534   19.9980 H   0  0  0  0  0  0  0  0  0  0  0  0
    9.7231   14.6706   20.6632 H   0  0  0  0  0  0  0  0  0  0  0  0
    9.6352   15.3848   22.2879 H   0  0  0  0  0  0  0  0  0  0  0  0
   10.3818   16.2736   20.9406 H   0  0  0  0  0  0  0  0  0  0  0  0
    7.7560   12.4045   27.1099 H   0  0  0  0  0  0  0  0  0  0  0  0
    8.6742    8.2310   23.5644 H   0  0  0  0  0  0  0  0  0  0  0  0
  1 16  1  0  0  0  0
  1 17  2  0  0  0  0
  1 19  1  0  0  0  0
  2  3  1  0  0  0  0
  2  8  1  0  0  0  0
  3 16  1  0  0  0  0
  4  7  1  0  0  0  0
  4 15  1  0  0  0  0
  5  9  1  0  0  0  0
  5 15  1  0  0  0  0
  6  9  1  0  0  0  0
  6 16  1  0  0  0  0
  7  9  1  0  0  0  0
  7 10  1  0  0  0  0
  8  9  1  0  0  0  0
  8 18  1  0  0  0  0
 11 14  1  0  0  0  0
 12 14  1  0  0  0  0
 13 14  1  0  0  0  0
 14 19  1  0  0  0  0
  2 20  1  0  0  0  0
  2 21  1  0  0  0  0
  3 22  1  0  0  0  0
  3 23  1  0  0  0  0
  4 24  1  0  0  0  0
  4 25  1  0  0  0  0
  5 26  1  0  0  0  0
  5 27  1  0  0  0  0
  6 28  1  0  0  0  0
  6 29  1  0  0  0  0
  7 30  1  0  0  0  0
  8 31  1  0  0  0  0
 10 32  1  0  0  0  0
 10 33  1  0  0  0  0
 10 34  1  0  0  0  0
 11 35  1  0  0  0  0
 11 36  1  0  0  0  0
 11 37  1  0  0  0  0
 12 38  1  0  0  0  0
 12 39  1  0  0  0  0
 12 40  1  0  0  0  0
 13 41  1  0  0  0  0
 13 42  1  0  0  0  0
 13 43  1  0  0  0  0
 15 44  1  0  0  0  0
 18 45  1  0  0  0  0
M  END
> <id>
EN300-1085431

> <smiles>
CC1CNCC21CN(CCC2O)C(=O)OC(C)(C)C

> <IUPAC Name>
tert-butyl 10-hydroxy-4-methyl-2,7-diazaspiro[4.5]decane-7-carboxylate

> <CAS>
2138242-06-3

> <URL>
https://www.enaminestore.com/catalog/EN300-1085431

> <ROCS_ShapeQuery>
A71EV2A-x0451_0A_A71EV2A-x0310_0A_A71EV2A-x0416_0A_peptide

> <ROCS_TanimotoCombo>
0.476 

> <ROCS_ShapeTanimoto>
0.325 

> <ROCS_ColorTanimoto>
0.151 

> <ROCS_RefTversky>
0.286 

> <ROCS_RefColorTversky>
0.171 

> <ROCS_RefTverskyCombo>
0.457 

> <ROCS_FitTversky>
1.726 

> <ROCS_FitColorTversky>
0.568 

> <ROCS_FitTverskyCombo>
2.294 

> <ROCS_ColorScore>
-5.214

> <ROCS_Overlap>
1984.024

> <ROCS_Rank>
442                 

$$$$
untitled-dbase-24023_13
  -OEChem-11132313473D

 31 32  0     0  0  0  0  0  0999 V2000
    6.6143   12.4708   25.7498 C   0  0  0  0  0  0  0  0  0  0  0  0
    7.8126   12.8015   25.1041 C   0  0  0  0  0  0  0  0  0  0  0  0
    6.1548   11.1412   25.7953 C   0  0  0  0  0  0  0  0  0  0  0  0
    8.5302   11.7788   24.5121 C   0  0  0  0  0  0  0  0  0  0  0  0
    8.0609   10.4674   24.5668 C   0  0  0  0  0  0  0  0  0  0  0  0
    6.8849   10.1148   25.1961 C   0  0  0  0  0  0  0  0  0  0  0  0
   10.0326   10.4139   23.4028 C   0  0  0  0  0  0  0  0  0  0  0  0
   10.5196   12.9347   23.5411 C   0  0  0  0  0  0  0  0  0  0  0  0
   12.2933   14.9587   22.5648 C   0  0  0  0  0  0  0  0  0  0  0  0
   12.2586   13.6848   20.4003 C   0  0  0  0  0  0  0  0  0  0  0  0
   10.1358   14.6823   21.2985 C   0  0  0  0  0  0  0  0  0  0  0  0
   11.4734   14.0388   21.6614 C   0  0  0  0  0  0  0  0  0  0  0  0
    8.9565    9.6375   23.9030 N   0  0  0  0  0  0  0  0  0  0  0  0
    9.7554   11.7883   23.7961 N   0  0  0  0  0  0  0  0  0  0  0  0
   10.9901    9.9900   22.7698 O   0  0  0  0  0  0  0  0  0  0  0  0
   10.5793   13.9305   24.2570 O   0  0  0  0  0  0  0  0  0  0  0  0
   11.2161   12.8188   22.3662 O   0  0  0  0  0  0  0  0  0  0  0  0
    6.2662    8.3363   25.2592 Br  0  0  0  0  0  0  0  0  0  0  0  0
    6.0277   13.2537   26.2240 H   0  0  0  0  0  0  0  0  0  0  0  0
    8.1373   13.8342   25.0873 H   0  0  0  0  0  0  0  0  0  0  0  0
    5.2181   10.9315   26.3067 H   0  0  0  0  0  0  0  0  0  0  0  0
   11.7331   15.2151   23.4711 H   0  0  0  0  0  0  0  0  0  0  0  0
   13.2397   14.4945   22.8607 H   0  0  0  0  0  0  0  0  0  0  0  0
   12.5153   15.9060   22.0602 H   0  0  0  0  0  0  0  0  0  0  0  0
   11.6741   13.0248   19.7491 H   0  0  0  0  0  0  0  0  0  0  0  0
   13.1747   13.1380   20.6516 H   0  0  0  0  0  0  0  0  0  0  0  0
   12.5335   14.5787   19.8312 H   0  0  0  0  0  0  0  0  0  0  0  0
    9.5475   14.0227   20.6504 H   0  0  0  0  0  0  0  0  0  0  0  0
    9.5426   14.9096   22.1901 H   0  0  0  0  0  0  0  0  0  0  0  0
   10.2898   15.6107   20.7367 H   0  0  0  0  0  0  0  0  0  0  0  0
    8.8470    8.6361   23.7994 H   0  0  0  0  0  0  0  0  0  0  0  0
  1  2  1  0  0  0  0
  1  3  2  0  0  0  0
  2  4  2  0  0  0  0
  3  6  1  0  0  0  0
  4  5  1  0  0  0  0
  4 14  1  0  0  0  0
  5  6  2  0  0  0  0
  5 13  1  0  0  0  0
  6 18  1  0  0  0  0
  7 13  1  0  0  0  0
  7 14  1  0  0  0  0
  7 15  2  0  0  0  0
  8 14  1  0  0  0  0
  8 16  2  0  0  0  0
  8 17  1  0  0  0  0
  9 12  1  0  0  0  0
 10 12  1  0  0  0  0
 11 12  1  0  0  0  0
 12 17  1  0  0  0  0
  1 19  1  0  0  0  0
  2 20  1  0  0  0  0
  3 21  1  0  0  0  0
  9 22  1  0  0  0  0
  9 23  1  0  0  0  0
  9 24  1  0  0  0  0
 10 25  1  0  0  0  0
 10 26  1  0  0  0  0
 10 27  1  0  0  0  0
 11 28  1  0  0  0  0
 11 29  1  0  0  0  0
 11 30  1  0  0  0  0
 13 31  1  0  0  0  0
M  END
> <id>
EN300-37323770

> <smiles>
CC(C)(C)OC(=O)N1C(=O)NC=2C(Br)=CC=CC12

> <IUPAC Name>
tert-butyl 4-bromo-2-oxo-2,3-dihydro-1H-1,3-benzodiazole-1-carboxylate

> <CAS>
2743438-55-1

> <URL>
https://www.enaminestore.com/catalog/EN300-37323770

> <ROCS_ShapeQuery>
A71EV2A-x0451_0A_A71EV2A-x0310_0A_A71EV2A-x0416_0A_peptide

> <ROCS_TanimotoCombo>
0.476 

> <ROCS_ShapeTanimoto>
0.336 

> <ROCS_ColorTanimoto>
0.140 

> <ROCS_RefTversky>
0.293 

> <ROCS_RefColorTversky>
0.160 

> <ROCS_RefTverskyCombo>
0.453 

> <ROCS_FitTversky>
1.791 

> <ROCS_FitColorTversky>
0.529 

> <ROCS_FitTverskyCombo>
2.320 

> <ROCS_ColorScore>
-4.873

> <ROCS_Overlap>
2032.018

> <ROCS_Rank>
443                 

$$$$
untitled-dbase-30776_22
  -OEChem-11132313473D

 33 34  0     0  0  0  0  0  0999 V2000
    6.1084   11.4158   25.5305 C   0  0  0  0  0  0  0  0  0  0  0  0
    6.6638   12.6383   25.4701 C   0  0  0  0  0  0  0  0  0  0  0  0
    6.8176   10.2519   24.9376 C   0  0  0  0  0  0  0  0  0  0  0  0
    8.5007   11.9168   24.3687 C   0  0  0  0  0  0  0  0  0  0  0  0
   10.5527   13.0714   23.5115 C   0  0  0  0  0  0  0  0  0  0  0  0
    8.9487    9.7078   23.7163 C   0  0  0  0  0  0  0  0  0  0  0  0
   10.1020   10.5987   23.2793 C   0  0  0  0  0  0  0  0  0  0  0  0
   12.4090   15.0748   22.6672 C   0  0  0  0  0  0  0  0  0  0  0  0
   12.4559   13.8467   20.4766 C   0  0  0  0  0  0  0  0  0  0  0  0
   10.3110   14.8674   21.2925 C   0  0  0  0  0  0  0  0  0  0  0  0
   11.6170   14.1902   21.7056 C   0  0  0  0  0  0  0  0  0  0  0  0
    7.8796   12.9261   24.8857 N   0  0  0  0  0  0  0  0  0  0  0  0
    8.0222   10.6046   24.3718 N   0  0  0  0  0  0  0  0  0  0  0  0
    9.7516   11.9465   23.7179 N   0  0  0  0  0  0  0  0  0  0  0  0
    6.3343    9.1263   24.9785 O   0  0  0  0  0  0  0  0  0  0  0  0
   10.5868   14.0467   24.2582 O   0  0  0  0  0  0  0  0  0  0  0  0
    5.9730   13.6970   26.0343 O   0  0  0  0  0  0  0  0  0  0  0  0
   11.3029   12.9615   22.3706 O   0  0  0  0  0  0  0  0  0  0  0  0
    5.1482   11.2394   26.0015 H   0  0  0  0  0  0  0  0  0  0  0  0
    8.4424    9.2292   22.8721 H   0  0  0  0  0  0  0  0  0  0  0  0
    9.2581    8.9345   24.4265 H   0  0  0  0  0  0  0  0  0  0  0  0
   11.0487   10.3079   23.7465 H   0  0  0  0  0  0  0  0  0  0  0  0
   10.2321   10.6021   22.1920 H   0  0  0  0  0  0  0  0  0  0  0  0
   11.8103   15.3236   23.5507 H   0  0  0  0  0  0  0  0  0  0  0  0
   13.3311   14.5860   22.9984 H   0  0  0  0  0  0  0  0  0  0  0  0
   12.6731   16.0278   22.1944 H   0  0  0  0  0  0  0  0  0  0  0  0
   11.8915   13.2121   19.7839 H   0  0  0  0  0  0  0  0  0  0  0  0
   13.3482   13.2769   20.7600 H   0  0  0  0  0  0  0  0  0  0  0  0
   12.7749   14.7466   19.9408 H   0  0  0  0  0  0  0  0  0  0  0  0
    9.7427   14.2330   20.6028 H   0  0  0  0  0  0  0  0  0  0  0  0
    9.6794   15.0880   22.1592 H   0  0  0  0  0  0  0  0  0  0  0  0
   10.5095   15.8039   20.7589 H   0  0  0  0  0  0  0  0  0  0  0  0
    6.4776   14.5072   25.9224 H   0  0  0  0  0  0  0  0  0  0  0  0
  1  2  2  0  0  0  0
  1  3  1  0  0  0  0
  2 12  1  0  0  0  0
  2 17  1  0  0  0  0
  3 13  1  0  0  0  0
  3 15  2  0  0  0  0
  4 12  2  0  0  0  0
  4 13  1  0  0  0  0
  4 14  1  0  0  0  0
  5 14  1  0  0  0  0
  5 16  2  0  0  0  0
  5 18  1  0  0  0  0
  6  7  1  0  0  0  0
  6 13  1  0  0  0  0
  7 14  1  0  0  0  0
  8 11  1  0  0  0  0
  9 11  1  0  0  0  0
 10 11  1  0  0  0  0
 11 18  1  0  0  0  0
  1 19  1  0  0  0  0
  6 20  1  0  0  0  0
  6 21  1  0  0  0  0
  7 22  1  0  0  0  0
  7 23  1  0  0  0  0
  8 24  1  0  0  0  0
  8 25  1  0  0  0  0
  8 26  1  0  0  0  0
  9 27  1  0  0  0  0
  9 28  1  0  0  0  0
  9 29  1  0  0  0  0
 10 30  1  0  0  0  0
 10 31  1  0  0  0  0
 10 32  1  0  0  0  0
 17 33  1  0  0  0  0
M  END
> <id>
EN300-26665369

> <smiles>
CC(C)(C)OC(=O)N1CCN2C1=NC(O)=CC2=O

> <IUPAC Name>
tert-butyl 7-hydroxy-5-oxo-1H,2H,3H,5H-imidazo[1,2-a]pyrimidine-1-carboxylate

> <CAS>
2413866-84-7

> <URL>
https://www.enaminestore.com/catalog/EN300-26665369

> <ROCS_ShapeQuery>
A71EV2A-x0451_0A_A71EV2A-x0310_0A_A71EV2A-x0416_0A_peptide

> <ROCS_TanimotoCombo>
0.476 

> <ROCS_ShapeTanimoto>
0.339 

> <ROCS_ColorTanimoto>
0.137 

> <ROCS_RefTversky>
0.295 

> <ROCS_RefColorTversky>
0.157 

> <ROCS_RefTverskyCombo>
0.452 

> <ROCS_FitTversky>
1.783 

> <ROCS_FitColorTversky>
0.520 

> <ROCS_FitTverskyCombo>
2.303 

> <ROCS_ColorScore>
-4.789

> <ROCS_Overlap>
2047.970

> <ROCS_Rank>
444                 

$$$$
untitled-dbase-11913_2
  -OEChem-11132313473D

 37 38  0     0  0  0  0  0  0999 V2000
    7.8990   13.2039   25.1206 C   0  0  0  0  0  0  0  0  0  0  0  0
    6.7435   13.2102   25.9076 C   0  0  0  0  0  0  0  0  0  0  0  0
    6.5112   10.8389   25.5895 C   0  0  0  0  0  0  0  0  0  0  0  0
    7.6622   10.8270   24.7867 C   0  0  0  0  0  0  0  0  0  0  0  0
    8.3654   12.0180   24.5284 C   0  0  0  0  0  0  0  0  0  0  0  0
    6.0468   12.0300   26.1379 C   0  0  0  0  0  0  0  0  0  0  0  0
    9.9092   10.8326   22.9974 C   0  0  0  0  0  0  0  0  0  0  0  0
   10.3126   13.1454   23.5275 C   0  0  0  0  0  0  0  0  0  0  0  0
    8.1989    9.5212   24.2822 C   0  0  0  0  0  0  0  0  0  0  0  0
    8.8681    9.7360   22.9445 C   0  0  0  0  0  0  0  0  0  0  0  0
   12.6605   14.7140   22.7392 C   0  0  0  0  0  0  0  0  0  0  0  0
   11.7281   14.5524   20.4124 C   0  0  0  0  0  0  0  0  0  0  0  0
   10.4370   15.7608   22.1959 C   0  0  0  0  0  0  0  0  0  0  0  0
   11.3882   14.6020   21.9004 C   0  0  0  0  0  0  0  0  0  0  0  0
    9.5700   11.9745   23.7387 N   0  0  0  0  0  0  0  0  0  0  0  0
    4.8710   12.0410   26.9152 N   0  0  0  0  0  0  0  0  0  0  0  0
   10.9393   10.7151   22.3281 O   0  0  0  0  0  0  0  0  0  0  0  0
   10.5111   14.0009   24.3901 O   0  0  0  0  0  0  0  0  0  0  0  0
   10.7258   13.3686   22.2353 O   0  0  0  0  0  0  0  0  0  0  0  0
    8.3950   14.1567   24.9666 H   0  0  0  0  0  0  0  0  0  0  0  0
    6.3960   14.1489   26.3326 H   0  0  0  0  0  0  0  0  0  0  0  0
    5.9759    9.9109   25.7798 H   0  0  0  0  0  0  0  0  0  0  0  0
    8.9116    9.1213   25.0192 H   0  0  0  0  0  0  0  0  0  0  0  0
    7.3907    8.7844   24.1671 H   0  0  0  0  0  0  0  0  0  0  0  0
    8.1343   10.0026   22.1644 H   0  0  0  0  0  0  0  0  0  0  0  0
    9.3537    8.8014   22.6199 H   0  0  0  0  0  0  0  0  0  0  0  0
   12.4207   14.7499   23.8079 H   0  0  0  0  0  0  0  0  0  0  0  0
   13.3357   13.8705   22.5624 H   0  0  0  0  0  0  0  0  0  0  0  0
   13.1984   15.6415   22.5117 H   0  0  0  0  0  0  0  0  0  0  0  0
   10.8182   14.4720   19.8068 H   0  0  0  0  0  0  0  0  0  0  0  0
   12.3330   13.6685   20.1795 H   0  0  0  0  0  0  0  0  0  0  0  0
   12.2790   15.4432   20.0939 H   0  0  0  0  0  0  0  0  0  0  0  0
    9.5243   15.6807   21.5944 H   0  0  0  0  0  0  0  0  0  0  0  0
   10.1528   15.7898   23.2528 H   0  0  0  0  0  0  0  0  0  0  0  0
   10.8976   16.7198   21.9326 H   0  0  0  0  0  0  0  0  0  0  0  0
    4.5717   12.8975   27.3367 H   0  0  0  0  0  0  0  0  0  0  0  0
    4.4069   11.1767   27.1113 H   0  0  0  0  0  0  0  0  0  0  0  0
  1  2  1  0  0  0  0
  1  5  2  0  0  0  0
  2  6  2  0  0  0  0
  3  4  2  0  0  0  0
  3  6  1  0  0  0  0
  4  5  1  0  0  0  0
  4  9  1  0  0  0  0
  5 15  1  0  0  0  0
  6 16  1  0  0  0  0
  7 10  1  0  0  0  0
  7 15  1  0  0  0  0
  7 17  2  0  0  0  0
  8 15  1  0  0  0  0
  8 18  2  0  0  0  0
  8 19  1  0  0  0  0
  9 10  1  0  0  0  0
 11 14  1  0  0  0  0
 12 14  1  0  0  0  0
 13 14  1  0  0  0  0
 14 19  1  0  0  0  0
  1 20  1  0  0  0  0
  2 21  1  0  0  0  0
  3 22  1  0  0  0  0
  9 23  1  0  0  0  0
  9 24  1  0  0  0  0
 10 25  1  0  0  0  0
 10 26  1  0  0  0  0
 11 27  1  0  0  0  0
 11 28  1  0  0  0  0
 11 29  1  0  0  0  0
 12 30  1  0  0  0  0
 12 31  1  0  0  0  0
 12 32  1  0  0  0  0
 13 33  1  0  0  0  0
 13 34  1  0  0  0  0
 13 35  1  0  0  0  0
 16 36  1  0  0  0  0
 16 37  1  0  0  0  0
M  END
> <id>
EN300-200785

> <smiles>
CC(C)(C)OC(=O)N1C(=O)CCC=2C=C(N)C=CC12

> <MDLNUMBER>
MFCD28405275

> <IUPAC Name>
tert-butyl 6-amino-2-oxo-1,2,3,4-tetrahydroquinoline-1-carboxylate

> <CAS>
1788054-94-3

> <Purity>
95

> <URL>
https://www.enaminestore.com/catalog/EN300-200785

> <ROCS_ShapeQuery>
A71EV2A-x0451_0A_A71EV2A-x0310_0A_A71EV2A-x0416_0A_peptide

> <ROCS_TanimotoCombo>
0.476 

> <ROCS_ShapeTanimoto>
0.352 

> <ROCS_ColorTanimoto>
0.124 

> <ROCS_RefTversky>
0.305 

> <ROCS_RefColorTversky>
0.140 

> <ROCS_RefTverskyCombo>
0.445 

> <ROCS_FitTversky>
1.795 

> <ROCS_FitColorTversky>
0.517 

> <ROCS_FitTverskyCombo>
2.312 

> <ROCS_ColorScore>
-4.260

> <ROCS_Overlap>
2115.402

> <ROCS_Rank>
445                 

$$$$
untitled-dbase-34360_35
  -OEChem-11132313473D

 44 45  0     1  0  0  0  0  0999 V2000
    6.5761   10.9913   26.6096 C   0  0  0  0  0  0  0  0  0  0  0  0
    7.4865   10.1312   25.9949 C   0  0  0  0  0  0  0  0  0  0  0  0
    6.9805   12.6179   24.8876 C   0  0  0  0  0  0  0  0  0  0  0  0
    7.9135   11.7655   24.2647 C   0  0  0  0  0  0  0  0  0  0  0  0
    6.3181   12.2345   26.0510 C   0  0  0  0  0  0  0  0  0  0  0  0
    8.1618   10.4866   24.8092 C   0  0  0  0  0  0  0  0  0  0  0  0
   10.9216   13.0400   23.5151 C   0  0  0  0  0  0  0  0  0  0  0  0
    8.6154   12.2787   23.0281 C   0  0  0  0  0  0  0  0  0  0  0  0
    9.5080    9.5774   22.8899 C   0  0  0  0  0  0  0  0  0  0  0  0
   10.5361   10.6931   22.6595 C   0  0  1  0  0  0  0  0  0  0  0  0
    5.3405   13.1574   26.6955 C   0  0  0  0  0  0  0  0  0  0  0  0
   10.9570   10.7227   21.1873 C   0  0  0  0  0  0  0  0  0  0  0  0
   12.5894   15.3267   23.0924 C   0  0  0  0  0  0  0  0  0  0  0  0
   13.9627   13.8229   21.6221 C   0  0  0  0  0  0  0  0  0  0  0  0
   11.5717   14.3098   21.0272 C   0  0  0  0  0  0  0  0  0  0  0  0
   12.5662   14.1089   22.1698 C   0  0  0  0  0  0  0  0  0  0  0  0
    9.0231    9.5488   24.2558 N   0  0  0  0  0  0  0  0  0  0  0  0
   10.0569   12.0260   23.0746 N   0  0  0  0  0  0  0  0  0  0  0  0
   10.6149   13.9052   24.3334 O   0  0  0  0  0  0  0  0  0  0  0  0
   12.1597   12.9671   22.9325 O   0  0  0  0  0  0  0  0  0  0  0  0
    6.0718   10.6763   27.5191 H   0  0  0  0  0  0  0  0  0  0  0  0
    7.6615    9.1567   26.4485 H   0  0  0  0  0  0  0  0  0  0  0  0
    6.7773   13.5994   24.4625 H   0  0  0  0  0  0  0  0  0  0  0  0
    8.1862   11.8314   22.1248 H   0  0  0  0  0  0  0  0  0  0  0  0
    8.4616   13.3603   22.9350 H   0  0  0  0  0  0  0  0  0  0  0  0
    8.6671    9.6358   22.1880 H   0  0  0  0  0  0  0  0  0  0  0  0
    9.9918    8.6139   22.6865 H   0  0  0  0  0  0  0  0  0  0  0  0
   11.4277   10.4556   23.2533 H   0  0  0  0  0  0  0  0  0  0  0  0
    5.8470   13.8039   27.4229 H   0  0  0  0  0  0  0  0  0  0  0  0
    4.8429   13.7940   25.9522 H   0  0  0  0  0  0  0  0  0  0  0  0
    4.5501   12.6009   27.2164 H   0  0  0  0  0  0  0  0  0  0  0  0
   10.0955   10.9560   20.5662 H   0  0  0  0  0  0  0  0  0  0  0  0
   11.3542    9.7517   20.9018 H   0  0  0  0  0  0  0  0  0  0  0  0
   11.7219   11.4817   21.0418 H   0  0  0  0  0  0  0  0  0  0  0  0
   11.5888   15.5353   23.4876 H   0  0  0  0  0  0  0  0  0  0  0  0
   13.2729   15.1812   23.9353 H   0  0  0  0  0  0  0  0  0  0  0  0
   12.8996   16.2250   22.5464 H   0  0  0  0  0  0  0  0  0  0  0  0
   13.9507   12.9498   20.9596 H   0  0  0  0  0  0  0  0  0  0  0  0
   14.6592   13.5846   22.4341 H   0  0  0  0  0  0  0  0  0  0  0  0
   14.3603   14.6764   21.0636 H   0  0  0  0  0  0  0  0  0  0  0  0
   11.5548   13.4364   20.3653 H   0  0  0  0  0  0  0  0  0  0  0  0
   10.5568   14.4797   21.4011 H   0  0  0  0  0  0  0  0  0  0  0  0
   11.8610   15.1641   20.4046 H   0  0  0  0  0  0  0  0  0  0  0  0
    9.1809    8.6953   24.7815 H   0  0  0  0  0  0  0  0  0  0  0  0
  1  2  1  0  0  0  0
  1  5  2  0  0  0  0
  2  6  2  0  0  0  0
  3  4  2  0  0  0  0
  3  5  1  0  0  0  0
  4  6  1  0  0  0  0
  4  8  1  0  0  0  0
  5 11  1  0  0  0  0
  6 17  1  0  0  0  0
  7 18  1  0  0  0  0
  7 19  2  0  0  0  0
  7 20  1  0  0  0  0
  8 18  1  0  0  0  0
  9 10  1  0  0  0  0
  9 17  1  0  0  0  0
 10 12  1  0  0  0  0
 10 18  1  0  0  0  0
 13 16  1  0  0  0  0
 14 16  1  0  0  0  0
 15 16  1  0  0  0  0
 16 20  1  0  0  0  0
  1 21  1  0  0  0  0
  2 22  1  0  0  0  0
  3 23  1  0  0  0  0
  8 24  1  0  0  0  0
  8 25  1  0  0  0  0
  9 26  1  0  0  0  0
  9 27  1  0  0  0  0
 10 28  1  0  0  0  0
 11 29  1  0  0  0  0
 11 30  1  0  0  0  0
 11 31  1  0  0  0  0
 12 32  1  0  0  0  0
 12 33  1  0  0  0  0
 12 34  1  0  0  0  0
 13 35  1  0  0  0  0
 13 36  1  0  0  0  0
 13 37  1  0  0  0  0
 14 38  1  0  0  0  0
 14 39  1  0  0  0  0
 14 40  1  0  0  0  0
 15 41  1  0  0  0  0
 15 42  1  0  0  0  0
 15 43  1  0  0  0  0
 17 44  1  0  0  0  0
M  END
> <id>
EN300-97879

> <smiles>
CC1CNC=2C=CC(C)=CC2CN1C(=O)OC(C)(C)C

> <MDLNUMBER>
MFCD21334170

> <IUPAC Name>
tert-butyl 3,7-dimethyl-2,3,4,5-tetrahydro-1H-1,4-benzodiazepine-4-carboxylate

> <CAS>
1375472-45-9

> <URL>
https://www.enaminestore.com/catalog/EN300-97879

> <ROCS_ShapeQuery>
A71EV2A-x0451_0A_A71EV2A-x0310_0A_A71EV2A-x0416_0A_peptide

> <ROCS_TanimotoCombo>
0.476 

> <ROCS_ShapeTanimoto>
0.328 

> <ROCS_ColorTanimoto>
0.148 

> <ROCS_RefTversky>
0.290 

> <ROCS_RefColorTversky>
0.156 

> <ROCS_RefTverskyCombo>
0.446 

> <ROCS_FitTversky>
1.671 

> <ROCS_FitColorTversky>
0.749 

> <ROCS_FitTverskyCombo>
2.419 

> <ROCS_ColorScore>
-4.745

> <ROCS_Overlap>
2009.482

> <ROCS_Rank>
446                 

$$$$
untitled-dbase-9951_79
  -OEChem-11132313473D

 40 41  0     0  0  0  0  0  0999 V2000
    6.3462   12.5547   26.3196 C   0  0  0  0  0  0  0  0  0  0  0  0
    7.0286   12.9273   25.1596 C   0  0  0  0  0  0  0  0  0  0  0  0
    6.3255   11.2207   26.7217 C   0  0  0  0  0  0  0  0  0  0  0  0
    7.7081   11.9710   24.3922 C   0  0  0  0  0  0  0  0  0  0  0  0
    6.9949   10.2572   25.9705 C   0  0  0  0  0  0  0  0  0  0  0  0
    7.6989   10.6352   24.8246 C   0  0  0  0  0  0  0  0  0  0  0  0
   10.8095   12.9967   23.5102 C   0  0  0  0  0  0  0  0  0  0  0  0
    8.3964   12.3803   23.1157 C   0  0  0  0  0  0  0  0  0  0  0  0
   10.1905   10.6650   22.9272 C   0  0  0  0  0  0  0  0  0  0  0  0
    9.7411    9.7952   24.0959 C   0  0  0  0  0  0  0  0  0  0  0  0
    6.9541    8.8325   26.4173 C   0  0  0  0  0  0  0  0  0  0  0  0
   12.6728   15.0855   22.9134 C   0  0  0  0  0  0  0  0  0  0  0  0
   13.8171   13.3944   21.4505 C   0  0  0  0  0  0  0  0  0  0  0  0
   11.4598   14.0965   20.9423 C   0  0  0  0  0  0  0  0  0  0  0  0
   12.4841   13.8411   22.0470 C   0  0  0  0  0  0  0  0  0  0  0  0
    9.8279   12.0662   23.1462 N   0  0  0  0  0  0  0  0  0  0  0  0
   10.6304   13.9197   24.3027 O   0  0  0  0  0  0  0  0  0  0  0  0
    8.3168    9.6365   24.1145 O   0  0  0  0  0  0  0  0  0  0  0  0
   12.0043   12.7767   22.8765 O   0  0  0  0  0  0  0  0  0  0  0  0
    5.8225   13.3056   26.9043 H   0  0  0  0  0  0  0  0  0  0  0  0
    7.0183   13.9712   24.8558 H   0  0  0  0  0  0  0  0  0  0  0  0
    5.7823   10.9420   27.6208 H   0  0  0  0  0  0  0  0  0  0  0  0
    7.9391   11.8611   22.2646 H   0  0  0  0  0  0  0  0  0  0  0  0
    8.2574   13.4509   22.9314 H   0  0  0  0  0  0  0  0  0  0  0  0
   11.2751   10.5796   22.8073 H   0  0  0  0  0  0  0  0  0  0  0  0
    9.7187   10.3414   21.9927 H   0  0  0  0  0  0  0  0  0  0  0  0
   10.1577    8.7905   23.9609 H   0  0  0  0  0  0  0  0  0  0  0  0
   10.1247   10.1633   25.0574 H   0  0  0  0  0  0  0  0  0  0  0  0
    6.0956    8.3187   25.9696 H   0  0  0  0  0  0  0  0  0  0  0  0
    7.8692    8.3006   26.1293 H   0  0  0  0  0  0  0  0  0  0  0  0
    6.8737    8.7619   27.5091 H   0  0  0  0  0  0  0  0  0  0  0  0
   11.7182   15.4093   23.3434 H   0  0  0  0  0  0  0  0  0  0  0  0
   13.3788   14.9049   23.7305 H   0  0  0  0  0  0  0  0  0  0  0  0
   13.0433   15.9259   22.3153 H   0  0  0  0  0  0  0  0  0  0  0  0
   13.6865   12.5017   20.8281 H   0  0  0  0  0  0  0  0  0  0  0  0
   14.5254   13.1190   22.2403 H   0  0  0  0  0  0  0  0  0  0  0  0
   14.2695   14.1809   20.8380 H   0  0  0  0  0  0  0  0  0  0  0  0
   11.3243   13.2040   20.3207 H   0  0  0  0  0  0  0  0  0  0  0  0
   10.4862   14.3824   21.3533 H   0  0  0  0  0  0  0  0  0  0  0  0
   11.8015   14.8922   20.2705 H   0  0  0  0  0  0  0  0  0  0  0  0
  1  2  2  0  0  0  0
  1  3  1  0  0  0  0
  2  4  1  0  0  0  0
  3  5  2  0  0  0  0
  4  6  2  0  0  0  0
  4  8  1  0  0  0  0
  5  6  1  0  0  0  0
  5 11  1  0  0  0  0
  6 18  1  0  0  0  0
  7 16  1  0  0  0  0
  7 17  2  0  0  0  0
  7 19  1  0  0  0  0
  8 16  1  0  0  0  0
  9 10  1  0  0  0  0
  9 16  1  0  0  0  0
 10 18  1  0  0  0  0
 12 15  1  0  0  0  0
 13 15  1  0  0  0  0
 14 15  1  0  0  0  0
 15 19  1  0  0  0  0
  1 20  1  0  0  0  0
  2 21  1  0  0  0  0
  3 22  1  0  0  0  0
  8 23  1  0  0  0  0
  8 24  1  0  0  0  0
  9 25  1  0  0  0  0
  9 26  1  0  0  0  0
 10 27  1  0  0  0  0
 10 28  1  0  0  0  0
 11 29  1  0  0  0  0
 11 30  1  0  0  0  0
 11 31  1  0  0  0  0
 12 32  1  0  0  0  0
 12 33  1  0  0  0  0
 12 34  1  0  0  0  0
 13 35  1  0  0  0  0
 13 36  1  0  0  0  0
 13 37  1  0  0  0  0
 14 38  1  0  0  0  0
 14 39  1  0  0  0  0
 14 40  1  0  0  0  0
M  END
> <id>
EN300-336164

> <smiles>
CC=1C=CC=C2CN(CCOC12)C(=O)OC(C)(C)C

> <MDLNUMBER>
MFCD30498187

> <IUPAC Name>
tert-butyl 9-methyl-2,3,4,5-tetrahydro-1,4-benzoxazepine-4-carboxylate

> <CAS>
2059942-75-3

> <URL>
https://www.enaminestore.com/catalog/EN300-336164

> <ROCS_ShapeQuery>
A71EV2A-x0451_0A_A71EV2A-x0310_0A_A71EV2A-x0416_0A_peptide

> <ROCS_TanimotoCombo>
0.476 

> <ROCS_ShapeTanimoto>
0.320 

> <ROCS_ColorTanimoto>
0.156 

> <ROCS_RefTversky>
0.283 

> <ROCS_RefColorTversky>
0.163 

> <ROCS_RefTverskyCombo>
0.446 

> <ROCS_FitTversky>
1.683 

> <ROCS_FitColorTversky>
0.781 

> <ROCS_FitTverskyCombo>
2.463 

> <ROCS_ColorScore>
-4.947

> <ROCS_Overlap>
1966.472

> <ROCS_Rank>
447                 

$$$$
untitled-dbase-37422_5
  -OEChem-11132313473D

 24 25  0     0  0  0  0  0  0999 V2000
    9.3630   10.1457   23.2050 C   0  0  0  0  0  0  0  0  0  0  0  0
    8.3448   10.5526   24.0800 C   0  0  0  0  0  0  0  0  0  0  0  0
    8.5595   11.9101   24.2522 C   0  0  0  0  0  0  0  0  0  0  0  0
    7.2702    9.9843   24.7567 C   0  0  0  0  0  0  0  0  0  0  0  0
    6.8154   12.0792   25.6203 C   0  0  0  0  0  0  0  0  0  0  0  0
   10.2677   13.4813   23.3430 C   0  0  0  0  0  0  0  0  0  0  0  0
    5.9337   12.9074   26.4954 C   0  0  0  0  0  0  0  0  0  0  0  0
   10.8413   15.1292   21.7659 C   0  0  0  0  0  0  0  0  0  0  0  0
   10.1662   11.1489   22.8441 N   0  0  0  0  0  0  0  0  0  0  0  0
    7.8245   12.7396   25.0157 N   0  0  0  0  0  0  0  0  0  0  0  0
    6.4941   10.7678   25.5408 N   0  0  0  0  0  0  0  0  0  0  0  0
    9.6653   12.2324   23.4922 N   0  0  0  0  0  0  0  0  0  0  0  0
    6.9853    8.6127   24.6344 N   0  0  0  0  0  0  0  0  0  0  0  0
   10.7206   14.0768   24.3070 O   0  0  0  0  0  0  0  0  0  0  0  0
   10.2472   13.8569   22.0389 O   0  0  0  0  0  0  0  0  0  0  0  0
    9.5600    9.1588   22.8109 H   0  0  0  0  0  0  0  0  0  0  0  0
    5.0983   13.3167   25.9153 H   0  0  0  0  0  0  0  0  0  0  0  0
    5.5264   12.3141   27.3235 H   0  0  0  0  0  0  0  0  0  0  0  0
    6.4894   13.7409   26.9434 H   0  0  0  0  0  0  0  0  0  0  0  0
   10.7760   15.3407   20.6958 H   0  0  0  0  0  0  0  0  0  0  0  0
   11.8872   15.1195   22.0831 H   0  0  0  0  0  0  0  0  0  0  0  0
   10.3015   15.9001   22.3209 H   0  0  0  0  0  0  0  0  0  0  0  0
    6.2354    8.2165   25.1678 H   0  0  0  0  0  0  0  0  0  0  0  0
    7.5927    8.0310   24.0897 H   0  0  0  0  0  0  0  0  0  0  0  0
  1  2  1  0  0  0  0
  1  9  2  0  0  0  0
  2  3  1  0  0  0  0
  2  4  2  0  0  0  0
  3 10  2  0  0  0  0
  3 12  1  0  0  0  0
  4 11  1  0  0  0  0
  4 13  1  0  0  0  0
  5  7  1  0  0  0  0
  5 10  1  0  0  0  0
  5 11  2  0  0  0  0
  6 12  1  0  0  0  0
  6 14  2  0  0  0  0
  6 15  1  0  0  0  0
  8 15  1  0  0  0  0
  9 12  1  0  0  0  0
  1 16  1  0  0  0  0
  7 17  1  0  0  0  0
  7 18  1  0  0  0  0
  7 19  1  0  0  0  0
  8 20  1  0  0  0  0
  8 21  1  0  0  0  0
  8 22  1  0  0  0  0
 13 23  1  0  0  0  0
 13 24  1  0  0  0  0
M  END
> <id>
EN300-1647861

> <smiles>
COC(=O)N1N=CC=2C(N)=NC(C)=NC12

> <IUPAC Name>
methyl 4-amino-6-methyl-1H-pyrazolo[3,4-d]pyrimidine-1-carboxylate

> <CAS>
2171970-38-8

> <URL>
https://www.enaminestore.com/catalog/EN300-1647861

> <ROCS_ShapeQuery>
A71EV2A-x0451_0A_A71EV2A-x0310_0A_A71EV2A-x0416_0A_peptide

> <ROCS_TanimotoCombo>
0.476 

> <ROCS_ShapeTanimoto>
0.304 

> <ROCS_ColorTanimoto>
0.172 

> <ROCS_RefTversky>
0.268 

> <ROCS_RefColorTversky>
0.191 

> <ROCS_RefTverskyCombo>
0.459 

> <ROCS_FitTversky>
1.800 

> <ROCS_FitColorTversky>
0.631 

> <ROCS_FitTverskyCombo>
2.432 

> <ROCS_ColorScore>
-5.821

> <ROCS_Overlap>
1858.066

> <ROCS_Rank>
448                 

$$$$
untitled-dbase-45865_112
  -OEChem-11132313473D

 48 49  0     0  0  0  0  0  0999 V2000
    7.8373   10.6639   24.4442 C   0  0  0  0  0  0  0  0  0  0  0  0
    8.3277   11.9503   24.4079 C   0  0  0  0  0  0  0  0  0  0  0  0
    8.8439    9.8896   23.8508 C   0  0  0  0  0  0  0  0  0  0  0  0
   10.4908   12.9231   23.6179 C   0  0  0  0  0  0  0  0  0  0  0  0
    5.2014   11.2982   26.9216 C   0  0  0  0  0  0  0  0  0  0  0  0
    6.5154   10.2956   25.0044 C   0  0  0  0  0  0  0  0  0  0  0  0
    7.6125   13.1431   24.9334 C   0  0  0  0  0  0  0  0  0  0  0  0
    6.1314   12.7868   25.1564 C   0  0  0  0  0  0  0  0  0  0  0  0
   13.1802   13.7911   23.3865 C   0  0  0  0  0  0  0  0  0  0  0  0
   12.9768   13.1688   20.9615 C   0  0  0  0  0  0  0  0  0  0  0  0
   11.5044   14.9638   21.9198 C   0  0  0  0  0  0  0  0  0  0  0  0
    3.3295    9.8063   28.4907 C   0  0  0  0  0  0  0  0  0  0  0  0
    5.3414    8.6618   29.4662 C   0  0  0  0  0  0  0  0  0  0  0  0
    5.0345   11.1347   29.7803 C   0  0  0  0  0  0  0  0  0  0  0  0
   12.2255   13.6465   22.2023 C   0  0  0  0  0  0  0  0  0  0  0  0
    4.8097    9.9500   28.8418 C   0  0  0  0  0  0  0  0  0  0  0  0
    9.8985   10.6171   23.4752 N   0  0  0  0  0  0  0  0  0  0  0  0
    9.5798   11.8895   23.8368 N   0  0  0  0  0  0  0  0  0  0  0  0
    5.9609   11.4469   25.7549 N   0  0  0  0  0  0  0  0  0  0  0  0
   10.5330   13.8937   24.3559 O   0  0  0  0  0  0  0  0  0  0  0  0
    4.3177   12.0755   27.2780 O   0  0  0  0  0  0  0  0  0  0  0  0
   11.2484   12.6523   22.5240 O   0  0  0  0  0  0  0  0  0  0  0  0
    5.5445   10.1793   27.6339 O   0  0  0  0  0  0  0  0  0  0  0  0
    8.7794    7.8432   23.5608 I   0  0  0  0  0  0  0  0  0  0  0  0
    5.8286    9.9938   24.2093 H   0  0  0  0  0  0  0  0  0  0  0  0
    6.6147    9.4671   25.7140 H   0  0  0  0  0  0  0  0  0  0  0  0
    8.0444   13.4805   25.8809 H   0  0  0  0  0  0  0  0  0  0  0  0
    7.6898   13.9620   24.2089 H   0  0  0  0  0  0  0  0  0  0  0  0
    5.6746   13.4979   25.8564 H   0  0  0  0  0  0  0  0  0  0  0  0
    5.5848   12.8676   24.2115 H   0  0  0  0  0  0  0  0  0  0  0  0
   12.6447   14.1339   24.2792 H   0  0  0  0  0  0  0  0  0  0  0  0
   13.6776   12.8445   23.6215 H   0  0  0  0  0  0  0  0  0  0  0  0
   13.9492   14.5440   23.1792 H   0  0  0  0  0  0  0  0  0  0  0  0
   12.2956   13.0637   20.1094 H   0  0  0  0  0  0  0  0  0  0  0  0
   13.4169   12.1791   21.1288 H   0  0  0  0  0  0  0  0  0  0  0  0
   13.7772   13.8615   20.6822 H   0  0  0  0  0  0  0  0  0  0  0  0
   10.8195   14.8603   21.0704 H   0  0  0  0  0  0  0  0  0  0  0  0
   10.9297   15.3031   22.7877 H   0  0  0  0  0  0  0  0  0  0  0  0
   12.2191   15.7485   21.6469 H   0  0  0  0  0  0  0  0  0  0  0  0
    2.9441   10.7290   28.0422 H   0  0  0  0  0  0  0  0  0  0  0  0
    3.1592    8.9819   27.7907 H   0  0  0  0  0  0  0  0  0  0  0  0
    2.7300    9.6260   29.3903 H   0  0  0  0  0  0  0  0  0  0  0  0
    6.4031    8.7604   29.7198 H   0  0  0  0  0  0  0  0  0  0  0  0
    5.2689    7.8268   28.7599 H   0  0  0  0  0  0  0  0  0  0  0  0
    4.7912    8.3961   30.3747 H   0  0  0  0  0  0  0  0  0  0  0  0
    6.0962   11.2380   30.0323 H   0  0  0  0  0  0  0  0  0  0  0  0
    4.6925   12.0738   29.3335 H   0  0  0  0  0  0  0  0  0  0  0  0
    4.5047   10.9868   30.7283 H   0  0  0  0  0  0  0  0  0  0  0  0
  1  2  2  0  0  0  0
  1  3  1  0  0  0  0
  1  6  1  0  0  0  0
  2  7  1  0  0  0  0
  2 18  1  0  0  0  0
  3 17  2  0  0  0  0
  3 24  1  0  0  0  0
  4 18  1  0  0  0  0
  4 20  2  0  0  0  0
  4 22  1  0  0  0  0
  5 19  1  0  0  0  0
  5 21  2  0  0  0  0
  5 23  1  0  0  0  0
  6 19  1  0  0  0  0
  7  8  1  0  0  0  0
  8 19  1  0  0  0  0
  9 15  1  0  0  0  0
 10 15  1  0  0  0  0
 11 15  1  0  0  0  0
 12 16  1  0  0  0  0
 13 16  1  0  0  0  0
 14 16  1  0  0  0  0
 15 22  1  0  0  0  0
 16 23  1  0  0  0  0
 17 18  1  0  0  0  0
  6 25  1  0  0  0  0
  6 26  1  0  0  0  0
  7 27  1  0  0  0  0
  7 28  1  0  0  0  0
  8 29  1  0  0  0  0
  8 30  1  0  0  0  0
  9 31  1  0  0  0  0
  9 32  1  0  0  0  0
  9 33  1  0  0  0  0
 10 34  1  0  0  0  0
 10 35  1  0  0  0  0
 10 36  1  0  0  0  0
 11 37  1  0  0  0  0
 11 38  1  0  0  0  0
 11 39  1  0  0  0  0
 12 40  1  0  0  0  0
 12 41  1  0  0  0  0
 12 42  1  0  0  0  0
 13 43  1  0  0  0  0
 13 44  1  0  0  0  0
 13 45  1  0  0  0  0
 14 46  1  0  0  0  0
 14 47  1  0  0  0  0
 14 48  1  0  0  0  0
M  END
> <id>
EN300-28262886

> <smiles>
CC(C)(C)OC(=O)N1CCC2=C(C1)C(I)=NN2C(=O)OC(C)(C)C

> <IUPAC Name>
1,5-di-tert-butyl 3-iodo-1H,4H,5H,6H,7H-pyrazolo[4,3-c]pyridine-1,5-dicarboxylate

> <CAS>
2680786-22-3

> <URL>
https://www.enaminestore.com/catalog/EN300-28262886

> <ROCS_ShapeQuery>
A71EV2A-x0451_0A_A71EV2A-x0310_0A_A71EV2A-x0416_0A_peptide

> <ROCS_TanimotoCombo>
0.476 

> <ROCS_ShapeTanimoto>
0.332 

> <ROCS_ColorTanimoto>
0.144 

> <ROCS_RefTversky>
0.299 

> <ROCS_RefColorTversky>
0.163 

> <ROCS_RefTverskyCombo>
0.462 

> <ROCS_FitTversky>
1.508 

> <ROCS_FitColorTversky>
0.542 

> <ROCS_FitTverskyCombo>
2.050 

> <ROCS_ColorScore>
-4.990

> <ROCS_Overlap>
2076.518

> <ROCS_Rank>
449                 

$$$$
untitled-dbase-19685_6
  -OEChem-11132313473D

 41 43  0     1  0  0  0  0  0999 V2000
   10.2403   13.1782   23.5225 C   0  0  0  0  0  0  0  0  0  0  0  0
    6.7207   13.2726   26.9014 C   0  0  0  0  0  0  0  0  0  0  0  0
    7.6931   12.1255   27.1536 C   0  0  0  0  0  0  0  0  0  0  0  0
    6.1313   13.2145   25.4966 C   0  0  0  0  0  0  0  0  0  0  0  0
    8.8089   12.0995   26.1076 C   0  0  0  0  0  0  0  0  0  0  0  0
    7.2181   13.1550   24.4192 C   0  0  0  0  0  0  0  0  0  0  0  0
    9.3761   10.9595   22.7387 C   0  0  0  0  0  0  0  0  0  0  0  0
    8.3140   10.0499   23.2317 C   0  0  2  0  0  0  0  0  0  0  0  0
    7.6379   10.6749   24.3923 C   0  0  2  0  0  0  0  0  0  0  0  0
    8.2582   12.0381   24.6668 C   0  0  0  0  0  0  0  0  0  0  0  0
   12.8112   14.1883   22.7758 C   0  0  0  0  0  0  0  0  0  0  0  0
   11.8223   14.4950   20.4873 C   0  0  0  0  0  0  0  0  0  0  0  0
   10.8721   15.7572   22.4397 C   0  0  0  0  0  0  0  0  0  0  0  0
   11.5308   14.4554   21.9858 C   0  0  0  0  0  0  0  0  0  0  0  0
    9.3515   12.1110   23.6497 N   0  0  0  0  0  0  0  0  0  0  0  0
   10.6470   13.8707   24.4521 O   0  0  0  0  0  0  0  0  0  0  0  0
    8.5080    9.5423   24.5537 O   0  0  0  0  0  0  0  0  0  0  0  0
   10.6180   13.3769   22.2194 O   0  0  0  0  0  0  0  0  0  0  0  0
    5.9127   13.2406   27.6410 H   0  0  0  0  0  0  0  0  0  0  0  0
    7.2405   14.2288   27.0392 H   0  0  0  0  0  0  0  0  0  0  0  0
    8.1326   12.2320   28.1520 H   0  0  0  0  0  0  0  0  0  0  0  0
    7.1510   11.1724   27.1465 H   0  0  0  0  0  0  0  0  0  0  0  0
    5.4721   12.3429   25.4133 H   0  0  0  0  0  0  0  0  0  0  0  0
    5.5011   14.0955   25.3278 H   0  0  0  0  0  0  0  0  0  0  0  0
    9.4139   13.0022   26.2487 H   0  0  0  0  0  0  0  0  0  0  0  0
    9.4675   11.2465   26.3114 H   0  0  0  0  0  0  0  0  0  0  0  0
    6.7393   13.0220   23.4409 H   0  0  0  0  0  0  0  0  0  0  0  0
    7.7127   14.1333   24.3990 H   0  0  0  0  0  0  0  0  0  0  0  0
   10.3670   10.4951   22.7608 H   0  0  0  0  0  0  0  0  0  0  0  0
    9.1648   11.3157   21.7253 H   0  0  0  0  0  0  0  0  0  0  0  0
    7.7765    9.4682   22.5032 H   0  0  0  0  0  0  0  0  0  0  0  0
    6.5836   10.5419   24.5636 H   0  0  0  0  0  0  0  0  0  0  0  0
   12.6062   14.1591   23.8519 H   0  0  0  0  0  0  0  0  0  0  0  0
   13.2748   13.2402   22.4842 H   0  0  0  0  0  0  0  0  0  0  0  0
   13.5405   14.9919   22.6217 H   0  0  0  0  0  0  0  0  0  0  0  0
   10.9064   14.6864   19.9166 H   0  0  0  0  0  0  0  0  0  0  0  0
   12.2071   13.5297   20.1388 H   0  0  0  0  0  0  0  0  0  0  0  0
   12.5542   15.2703   20.2384 H   0  0  0  0  0  0  0  0  0  0  0  0
    9.9536   15.9490   21.8732 H   0  0  0  0  0  0  0  0  0  0  0  0
   10.6221   15.7325   23.5053 H   0  0  0  0  0  0  0  0  0  0  0  0
   11.5325   16.6125   22.2567 H   0  0  0  0  0  0  0  0  0  0  0  0
  1 15  1  0  0  0  0
  1 16  2  0  0  0  0
  1 18  1  0  0  0  0
  2  3  1  0  0  0  0
  2  4  1  0  0  0  0
  3  5  1  0  0  0  0
  4  6  1  0  0  0  0
  5 10  1  0  0  0  0
  6 10  1  0  0  0  0
  7  8  1  0  0  0  0
  7 15  1  0  0  0  0
  8  9  1  0  0  0  0
  8 17  1  0  0  0  0
  9 10  1  0  0  0  0
  9 17  1  0  0  0  0
 10 15  1  0  0  0  0
 11 14  1  0  0  0  0
 12 14  1  0  0  0  0
 13 14  1  0  0  0  0
 14 18  1  0  0  0  0
  2 19  1  0  0  0  0
  2 20  1  0  0  0  0
  3 21  1  0  0  0  0
  3 22  1  0  0  0  0
  4 23  1  0  0  0  0
  4 24  1  0  0  0  0
  5 25  1  0  0  0  0
  5 26  1  0  0  0  0
  6 27  1  0  0  0  0
  6 28  1  0  0  0  0
  7 29  1  0  0  0  0
  7 30  1  0  0  0  0
  8 31  1  0  0  0  0
  9 32  1  0  0  0  0
 11 33  1  0  0  0  0
 11 34  1  0  0  0  0
 11 35  1  0  0  0  0
 12 36  1  0  0  0  0
 12 37  1  0  0  0  0
 12 38  1  0  0  0  0
 13 39  1  0  0  0  0
 13 40  1  0  0  0  0
 13 41  1  0  0  0  0
M  END
> <id>
EN300-1708408

> <smiles>
CC(C)(C)OC(=O)N1CC2OC2C31CCCCC3

> <IUPAC Name>
tert-butyl 6-oxa-3-azaspiro[bicyclo[3.1.0]hexane-2,1'-cyclohexane]-3-carboxylate

> <CAS>
2219408-65-6

> <URL>
https://www.enaminestore.com/catalog/EN300-1708408

> <ROCS_ShapeQuery>
A71EV2A-x0451_0A_A71EV2A-x0310_0A_A71EV2A-x0416_0A_peptide

> <ROCS_TanimotoCombo>
0.476 

> <ROCS_ShapeTanimoto>
0.306 

> <ROCS_ColorTanimoto>
0.170 

> <ROCS_RefTversky>
0.273 

> <ROCS_RefColorTversky>
0.188 

> <ROCS_RefTverskyCombo>
0.460 

> <ROCS_FitTversky>
1.680 

> <ROCS_FitColorTversky>
0.635 

> <ROCS_FitTverskyCombo>
2.316 

> <ROCS_ColorScore>
-5.732

> <ROCS_Overlap>
1890.239

> <ROCS_Rank>
450                 

$$$$
untitled-dbase-51173_25
  -OEChem-11132313473D

 32 33  0     0  0  0  0  0  0999 V2000
    8.8531    9.7316   23.4420 C   0  0  0  0  0  0  0  0  0  0  0  0
   10.4201   13.1772   23.4664 C   0  0  0  0  0  0  0  0  0  0  0  0
    9.8570   10.8131   23.0682 C   0  0  0  0  0  0  0  0  0  0  0  0
    8.2993   11.0010   25.6449 C   0  0  0  0  0  0  0  0  0  0  0  0
    7.0907   11.5605   24.0072 C   0  0  0  0  0  0  0  0  0  0  0  0
    7.7355   10.2031   24.4279 C   0  0  0  0  0  0  0  0  0  0  0  0
    8.3684   12.1874   24.6388 C   0  0  0  0  0  0  0  0  0  0  0  0
   12.2837   15.1152   22.4923 C   0  0  0  0  0  0  0  0  0  0  0  0
   11.9006   14.0776   20.2371 C   0  0  0  0  0  0  0  0  0  0  0  0
    9.9927   15.1699   21.4516 C   0  0  0  0  0  0  0  0  0  0  0  0
   11.2868   14.3720   21.6042 C   0  0  0  0  0  0  0  0  0  0  0  0
    9.5652   12.0974   23.7252 N   0  0  0  0  0  0  0  0  0  0  0  0
    8.9548    8.5937   22.9789 O   0  0  0  0  0  0  0  0  0  0  0  0
   10.6478   14.0827   24.2666 O   0  0  0  0  0  0  0  0  0  0  0  0
   10.9781   13.1155   22.2181 O   0  0  0  0  0  0  0  0  0  0  0  0
   10.8596   10.4962   23.3715 H   0  0  0  0  0  0  0  0  0  0  0  0
    9.8311   10.9717   21.9855 H   0  0  0  0  0  0  0  0  0  0  0  0
    7.5897   11.1390   26.4692 H   0  0  0  0  0  0  0  0  0  0  0  0
    9.2522   10.6552   26.0555 H   0  0  0  0  0  0  0  0  0  0  0  0
    6.9489   11.7215   22.9347 H   0  0  0  0  0  0  0  0  0  0  0  0
    6.1559   11.8028   24.5265 H   0  0  0  0  0  0  0  0  0  0  0  0
    7.0245    9.4121   24.6824 H   0  0  0  0  0  0  0  0  0  0  0  0
    8.2189   13.1731   25.0857 H   0  0  0  0  0  0  0  0  0  0  0  0
   11.8469   15.3283   23.4746 H   0  0  0  0  0  0  0  0  0  0  0  0
   13.2025   14.5378   22.6382 H   0  0  0  0  0  0  0  0  0  0  0  0
   12.5497   16.0845   22.0554 H   0  0  0  0  0  0  0  0  0  0  0  0
   11.1888   13.5445   19.5965 H   0  0  0  0  0  0  0  0  0  0  0  0
   12.7763   13.4259   20.3346 H   0  0  0  0  0  0  0  0  0  0  0  0
   12.2069   14.9958   19.7256 H   0  0  0  0  0  0  0  0  0  0  0  0
    9.2775   14.6371   20.8146 H   0  0  0  0  0  0  0  0  0  0  0  0
    9.5188   15.3588   22.4203 H   0  0  0  0  0  0  0  0  0  0  0  0
   10.1837   16.1326   20.9638 H   0  0  0  0  0  0  0  0  0  0  0  0
  1  3  1  0  0  0  0
  1  6  1  0  0  0  0
  1 13  2  0  0  0  0
  2 12  1  0  0  0  0
  2 14  2  0  0  0  0
  2 15  1  0  0  0  0
  3 12  1  0  0  0  0
  4  6  1  1  0  0  0
  4  7  1  1  0  0  0
  5  6  1  0  0  0  0
  5  7  1  0  0  0  0
  7 12  1  0  0  0  0
  8 11  1  0  0  0  0
  9 11  1  0  0  0  0
 10 11  1  0  0  0  0
 11 15  1  0  0  0  0
  3 16  1  0  0  0  0
  3 17  1  0  0  0  0
  4 18  1  0  0  0  0
  4 19  1  0  0  0  0
  5 20  1  0  0  0  0
  5 21  1  0  0  0  0
  6 22  1  0  0  0  0
  7 23  1  0  0  0  0
  8 24  1  0  0  0  0
  8 25  1  0  0  0  0
  8 26  1  0  0  0  0
  9 27  1  0  0  0  0
  9 28  1  0  0  0  0
  9 29  1  0  0  0  0
 10 30  1  0  0  0  0
 10 31  1  0  0  0  0
 10 32  1  0  0  0  0
M  END
> <id>
EN300-37367421

> <smiles>
CC(C)(C)OC(=O)N1CC(=O)[C@H]2C[C@@H]1C2

> <IUPAC Name>
tert-butyl (1s,5s)-4-oxo-2-azabicyclo[3.1.1]heptane-2-carboxylate

> <CAS>
2731010-29-8

> <URL>
https://www.enaminestore.com/catalog/EN300-37367421

> <ROCS_ShapeQuery>
A71EV2A-x0451_0A_A71EV2A-x0310_0A_A71EV2A-x0416_0A_peptide

> <ROCS_TanimotoCombo>
0.476 

> <ROCS_ShapeTanimoto>
0.292 

> <ROCS_ColorTanimoto>
0.184 

> <ROCS_RefTversky>
0.258 

> <ROCS_RefColorTversky>
0.207 

> <ROCS_RefTverskyCombo>
0.465 

> <ROCS_FitTversky>
1.808 

> <ROCS_FitColorTversky>
0.622 

> <ROCS_FitTverskyCombo>
2.431 

> <ROCS_ColorScore>
-6.329

> <ROCS_Overlap>
1789.660

> <ROCS_Rank>
451                 

$$$$
untitled-dbase-19195_25
  -OEChem-11132313473D

 32 33  0     0  0  0  0  0  0999 V2000
    8.8515    9.7317   23.4421 C   0  0  0  0  0  0  0  0  0  0  0  0
   10.4200   13.1766   23.4674 C   0  0  0  0  0  0  0  0  0  0  0  0
    9.8575   10.8121   23.0708 C   0  0  0  0  0  0  0  0  0  0  0  0
    7.0903   11.5616   24.0078 C   0  0  0  0  0  0  0  0  0  0  0  0
    8.2981   11.0003   25.6455 C   0  0  0  0  0  0  0  0  0  0  0  0
    7.7341   10.2035   24.4280 C   0  0  0  0  0  0  0  0  0  0  0  0
    8.3683   12.1872   24.6401 C   0  0  0  0  0  0  0  0  0  0  0  0
   12.2844   15.1137   22.4928 C   0  0  0  0  0  0  0  0  0  0  0  0
   11.9028   14.0740   20.2383 C   0  0  0  0  0  0  0  0  0  0  0  0
    9.9942   15.1677   21.4505 C   0  0  0  0  0  0  0  0  0  0  0  0
   11.2881   14.3697   21.6047 C   0  0  0  0  0  0  0  0  0  0  0  0
    9.5652   12.0969   23.7267 N   0  0  0  0  0  0  0  0  0  0  0  0
    8.9522    8.5942   22.9778 O   0  0  0  0  0  0  0  0  0  0  0  0
   10.6472   14.0828   24.2671 O   0  0  0  0  0  0  0  0  0  0  0  0
   10.9789   13.1139   22.2196 O   0  0  0  0  0  0  0  0  0  0  0  0
   10.8590   10.4944   23.3775 H   0  0  0  0  0  0  0  0  0  0  0  0
    9.8352   10.9706   21.9880 H   0  0  0  0  0  0  0  0  0  0  0  0
    6.9490   11.7231   22.9355 H   0  0  0  0  0  0  0  0  0  0  0  0
    6.1553   11.8037   24.5269 H   0  0  0  0  0  0  0  0  0  0  0  0
    7.5882   11.1378   26.4698 H   0  0  0  0  0  0  0  0  0  0  0  0
    9.2505   10.6536   26.0563 H   0  0  0  0  0  0  0  0  0  0  0  0
    7.0223    9.4128   24.6820 H   0  0  0  0  0  0  0  0  0  0  0  0
    8.2193   13.1725   25.0876 H   0  0  0  0  0  0  0  0  0  0  0  0
   11.8470   15.3278   23.4745 H   0  0  0  0  0  0  0  0  0  0  0  0
   13.2031   14.5364   22.6399 H   0  0  0  0  0  0  0  0  0  0  0  0
   12.5509   16.0825   22.0551 H   0  0  0  0  0  0  0  0  0  0  0  0
   11.1914   13.5403   19.5978 H   0  0  0  0  0  0  0  0  0  0  0  0
   12.7784   13.4222   20.3370 H   0  0  0  0  0  0  0  0  0  0  0  0
   12.2096   14.9917   19.7262 H   0  0  0  0  0  0  0  0  0  0  0  0
    9.2794   14.6343   20.8135 H   0  0  0  0  0  0  0  0  0  0  0  0
    9.5196   15.3575   22.4187 H   0  0  0  0  0  0  0  0  0  0  0  0
   10.1857   16.1299   20.9619 H   0  0  0  0  0  0  0  0  0  0  0  0
  1  3  1  0  0  0  0
  1  6  1  0  0  0  0
  1 13  2  0  0  0  0
  2 12  1  0  0  0  0
  2 14  2  0  0  0  0
  2 15  1  0  0  0  0
  3 12  1  0  0  0  0
  4  6  1  0  0  0  0
  4  7  1  0  0  0  0
  5  6  1  0  0  0  0
  5  7  1  0  0  0  0
  7 12  1  0  0  0  0
  8 11  1  0  0  0  0
  9 11  1  0  0  0  0
 10 11  1  0  0  0  0
 11 15  1  0  0  0  0
  3 16  1  0  0  0  0
  3 17  1  0  0  0  0
  4 18  1  0  0  0  0
  4 19  1  0  0  0  0
  5 20  1  0  0  0  0
  5 21  1  0  0  0  0
  6 22  1  0  0  0  0
  7 23  1  0  0  0  0
  8 24  1  0  0  0  0
  8 25  1  0  0  0  0
  8 26  1  0  0  0  0
  9 27  1  0  0  0  0
  9 28  1  0  0  0  0
  9 29  1  0  0  0  0
 10 30  1  0  0  0  0
 10 31  1  0  0  0  0
 10 32  1  0  0  0  0
M  END
> <id>
EN300-7463323

> <smiles>
CC(C)(C)OC(=O)N1CC(=O)C2CC1C2

> <MDLNUMBER>
MFCD34562773

> <IUPAC Name>
tert-butyl 4-oxo-2-azabicyclo[3.1.1]heptane-2-carboxylate

> <CAS>
2731010-29-8

> <URL>
https://www.enaminestore.com/catalog/EN300-7463323

> <ROCS_ShapeQuery>
A71EV2A-x0451_0A_A71EV2A-x0310_0A_A71EV2A-x0416_0A_peptide

> <ROCS_TanimotoCombo>
0.476 

> <ROCS_ShapeTanimoto>
0.292 

> <ROCS_ColorTanimoto>
0.184 

> <ROCS_RefTversky>
0.258 

> <ROCS_RefColorTversky>
0.207 

> <ROCS_RefTverskyCombo>
0.465 

> <ROCS_FitTversky>
1.808 

> <ROCS_FitColorTversky>
0.622 

> <ROCS_FitTverskyCombo>
2.430 

> <ROCS_ColorScore>
-6.328

> <ROCS_Overlap>
1789.633

> <ROCS_Rank>
452                 

$$$$
untitled-dbase-2254_0
  -OEChem-11132313473D

 34 38  0     1  0  0  0  0  0999 V2000
    8.7692   10.7787   22.3668 C   0  0  0  0  0  0  0  0  0  0  0  0
    9.2349    9.7388   23.0743 C   0  0  0  0  0  0  0  0  0  0  0  0
   11.2361   11.1823   24.6823 C   0  0  0  0  0  0  0  0  0  0  0  0
   11.5699   12.2070   23.8914 C   0  0  0  0  0  0  0  0  0  0  0  0
   10.6979   15.3492   23.1789 C   0  0  0  0  0  0  0  0  0  0  0  0
    9.9168   14.7121   22.0631 C   0  0  0  0  0  0  0  0  0  0  0  0
    5.7442   10.7676   25.7271 C   0  0  0  0  0  0  0  0  0  0  0  0
    5.3143   10.3658   24.3438 C   0  0  0  0  0  0  0  0  0  0  0  0
    8.1251   11.7415   23.3452 C   0  0  2  0  0  0  0  0  0  0  0  0
    9.7851   11.1990   25.0434 C   0  0  1  0  0  0  0  0  0  0  0  0
    9.2108   12.4260   24.2362 C   0  0  1  0  0  0  0  0  0  0  0  0
    8.9110   10.0280   24.5189 C   0  0  1  0  0  0  0  0  0  0  0  0
   10.4226   13.1262   23.5842 C   0  0  0  0  0  0  0  0  0  0  0  0
    7.5407   10.7067   24.3450 C   0  0  0  0  0  0  0  0  0  0  0  0
   10.6268   14.3925   24.2364 O   0  0  0  0  0  0  0  0  0  0  0  0
   10.2450   13.3296   22.1823 O   0  0  0  0  0  0  0  0  0  0  0  0
    7.0375   11.3349   25.5280 O   0  0  0  0  0  0  0  0  0  0  0  0
    6.5236    9.8873   23.7615 O   0  0  0  0  0  0  0  0  0  0  0  0
   13.2516   12.5363   23.2092 Br  0  0  0  0  0  0  0  0  0  0  0  0
    8.9063    8.4815   25.6224 Br  0  0  0  0  0  0  0  0  0  0  0  0
    8.8678   10.9248   21.3031 H   0  0  0  0  0  0  0  0  0  0  0  0
    9.7827    8.8975   22.6797 H   0  0  0  0  0  0  0  0  0  0  0  0
   11.9204   10.4180   25.0243 H   0  0  0  0  0  0  0  0  0  0  0  0
   11.7507   15.4800   22.9083 H   0  0  0  0  0  0  0  0  0  0  0  0
   10.2889   16.3103   23.4999 H   0  0  0  0  0  0  0  0  0  0  0  0
    8.8372   14.8222   22.2127 H   0  0  0  0  0  0  0  0  0  0  0  0
   10.1852   15.0911   21.0739 H   0  0  0  0  0  0  0  0  0  0  0  0
    5.0727   11.4897   26.1978 H   0  0  0  0  0  0  0  0  0  0  0  0
    5.8534    9.8969   26.3823 H   0  0  0  0  0  0  0  0  0  0  0  0
    4.5450    9.5897   24.3364 H   0  0  0  0  0  0  0  0  0  0  0  0
    4.9685   11.2262   23.7605 H   0  0  0  0  0  0  0  0  0  0  0  0
    7.3918   12.4155   22.8990 H   0  0  0  0  0  0  0  0  0  0  0  0
    9.6660   11.3598   26.1220 H   0  0  0  0  0  0  0  0  0  0  0  0
    8.7161   13.1107   24.9393 H   0  0  0  0  0  0  0  0  0  0  0  0
  1  2  2  0  0  0  0
  1  9  1  0  0  0  0
  2 12  1  0  0  0  0
  3  4  2  0  0  0  0
  3 10  1  0  0  0  0
  4 13  1  0  0  0  0
  4 19  1  0  0  0  0
  5  6  1  0  0  0  0
  5 15  1  0  0  0  0
  6 16  1  0  0  0  0
  7  8  1  0  0  0  0
  7 17  1  0  0  0  0
  8 18  1  0  0  0  0
  9 11  1  0  0  0  0
  9 14  1  0  0  0  0
 10 11  1  0  0  0  0
 10 12  1  0  0  0  0
 11 13  1  0  0  0  0
 12 14  1  0  0  0  0
 12 20  1  0  0  0  0
 13 15  1  0  0  0  0
 13 16  1  0  0  0  0
 14 17  1  0  0  0  0
 14 18  1  0  0  0  0
  1 21  1  0  0  0  0
  2 22  1  0  0  0  0
  3 23  1  0  0  0  0
  5 24  1  0  0  0  0
  5 25  1  0  0  0  0
  6 26  1  0  0  0  0
  6 27  1  0  0  0  0
  7 28  1  0  0  0  0
  7 29  1  0  0  0  0
  8 30  1  0  0  0  0
  8 31  1  0  0  0  0
  9 32  1  0  0  0  0
 10 33  1  0  0  0  0
 11 34  1  0  0  0  0
M  END
> <id>
EN300-51317

> <smiles>
BrC1=CC2C(C3C=CC2(Br)C43OCCO4)C51OCCO5

> <IUPAC Name>
4',7'-dibromodispiro[1,3-dioxolane-2,3'-tricyclo[5.2.1.0,2,6]decane-10',2''-[1,3]dioxolane]-4',8'-diene

> <CAS>
485318-53-4

> <Purity>
95

> <URL>
https://www.enaminestore.com/catalog/EN300-51317

> <ROCS_ShapeQuery>
A71EV2A-x0451_0A_A71EV2A-x0310_0A_A71EV2A-x0416_0A_peptide

> <ROCS_TanimotoCombo>
0.476 

> <ROCS_ShapeTanimoto>
0.309 

> <ROCS_ColorTanimoto>
0.167 

> <ROCS_RefTversky>
0.279 

> <ROCS_RefColorTversky>
0.218 

> <ROCS_RefTverskyCombo>
0.497 

> <ROCS_FitTversky>
1.540 

> <ROCS_FitColorTversky>
0.414 

> <ROCS_FitTverskyCombo>
1.954 

> <ROCS_ColorScore>
-6.740

> <ROCS_Overlap>
1936.541

> <ROCS_Rank>
453                 

$$$$
untitled-dbase-30509_97
  -OEChem-11132313473D

 43 44  0     1  0  0  0  0  0999 V2000
   10.3632   13.5168   23.3671 C   0  0  0  0  0  0  0  0  0  0  0  0
    6.1448   11.2824   25.9519 C   0  0  0  0  0  0  0  0  0  0  0  0
    6.3565   12.7350   25.5400 C   0  0  0  0  0  0  0  0  0  0  0  0
    7.4677   10.5683   26.2263 C   0  0  0  0  0  0  0  0  0  0  0  0
    7.3297   12.8626   24.3694 C   0  0  0  0  0  0  0  0  0  0  0  0
    8.6783   10.3003   22.5370 C   0  0  0  0  0  0  0  0  0  0  0  0
    9.9085   11.1733   22.7328 C   0  0  0  0  0  0  0  0  0  0  0  0
    8.4786   10.6979   25.0705 C   0  0  2  0  0  0  0  0  0  0  0  0
    8.6715   12.1790   24.6874 C   0  0  1  0  0  0  0  0  0  0  0  0
    8.0913    9.8141   23.8644 C   0  0  2  0  0  0  0  0  0  0  0  0
   12.7749   14.8500   22.5947 C   0  0  0  0  0  0  0  0  0  0  0  0
   11.8226   14.8308   20.2704 C   0  0  0  0  0  0  0  0  0  0  0  0
   10.6329   16.0752   22.0992 C   0  0  0  0  0  0  0  0  0  0  0  0
   11.4940   14.8589   21.7616 C   0  0  0  0  0  0  0  0  0  0  0  0
    9.6342   12.3371   23.5769 N   0  0  0  0  0  0  0  0  0  0  0  0
   10.6316   14.3308   24.2489 O   0  0  0  0  0  0  0  0  0  0  0  0
    8.5704    8.4863   24.0968 O   0  0  0  0  0  0  0  0  0  0  0  0
   10.7472   13.6742   22.0612 O   0  0  0  0  0  0  0  0  0  0  0  0
    5.5188   11.2466   26.8531 H   0  0  0  0  0  0  0  0  0  0  0  0
    5.5897   10.7520   25.1670 H   0  0  0  0  0  0  0  0  0  0  0  0
    5.3935   13.1848   25.2679 H   0  0  0  0  0  0  0  0  0  0  0  0
    6.7405   13.3057   26.3963 H   0  0  0  0  0  0  0  0  0  0  0  0
    7.9157   11.0106   27.1262 H   0  0  0  0  0  0  0  0  0  0  0  0
    7.2777    9.5186   26.4722 H   0  0  0  0  0  0  0  0  0  0  0  0
    6.8701   12.4201   23.4813 H   0  0  0  0  0  0  0  0  0  0  0  0
    7.4923   13.9232   24.1563 H   0  0  0  0  0  0  0  0  0  0  0  0
    7.9117   10.8539   21.9767 H   0  0  0  0  0  0  0  0  0  0  0  0
    8.9310    9.4364   21.9041 H   0  0  0  0  0  0  0  0  0  0  0  0
   10.7176   10.5734   23.1609 H   0  0  0  0  0  0  0  0  0  0  0  0
   10.2664   11.5481   21.7677 H   0  0  0  0  0  0  0  0  0  0  0  0
    9.4302   10.3130   25.4617 H   0  0  0  0  0  0  0  0  0  0  0  0
    9.0804   12.6768   25.5754 H   0  0  0  0  0  0  0  0  0  0  0  0
    6.9920    9.7382   23.7698 H   0  0  0  0  0  0  0  0  0  0  0  0
   12.5433   14.8701   23.6656 H   0  0  0  0  0  0  0  0  0  0  0  0
   13.3848   13.9647   22.3873 H   0  0  0  0  0  0  0  0  0  0  0  0
   13.3792   15.7417   22.3923 H   0  0  0  0  0  0  0  0  0  0  0  0
   10.9064   14.8371   19.6689 H   0  0  0  0  0  0  0  0  0  0  0  0
   12.3590   13.9123   20.0062 H   0  0  0  0  0  0  0  0  0  0  0  0
   12.4367   15.6880   19.9758 H   0  0  0  0  0  0  0  0  0  0  0  0
    9.7141   16.0818   21.5018 H   0  0  0  0  0  0  0  0  0  0  0  0
   10.3565   16.0922   23.1584 H   0  0  0  0  0  0  0  0  0  0  0  0
   11.1623   17.0052   21.8625 H   0  0  0  0  0  0  0  0  0  0  0  0
    8.1878    8.1982   24.9400 H   0  0  0  0  0  0  0  0  0  0  0  0
  1 15  1  0  0  0  0
  1 16  2  0  0  0  0
  1 18  1  0  0  0  0
  2  3  1  0  0  0  0
  2  4  1  0  0  0  0
  3  5  1  0  0  0  0
  4  8  1  0  0  0  0
  5  9  1  0  0  0  0
  6  7  1  0  0  0  0
  6 10  1  0  0  0  0
  7 15  1  0  0  0  0
  8  9  1  0  0  0  0
  8 10  1  0  0  0  0
  9 15  1  0  0  0  0
 10 17  1  0  0  0  0
 11 14  1  0  0  0  0
 12 14  1  0  0  0  0
 13 14  1  0  0  0  0
 14 18  1  0  0  0  0
  2 19  1  0  0  0  0
  2 20  1  0  0  0  0
  3 21  1  0  0  0  0
  3 22  1  0  0  0  0
  4 23  1  0  0  0  0
  4 24  1  0  0  0  0
  5 25  1  0  0  0  0
  5 26  1  0  0  0  0
  6 27  1  0  0  0  0
  6 28  1  0  0  0  0
  7 29  1  0  0  0  0
  7 30  1  0  0  0  0
  8 31  1  0  0  0  0
  9 32  1  0  0  0  0
 10 33  1  0  0  0  0
 11 34  1  0  0  0  0
 11 35  1  0  0  0  0
 11 36  1  0  0  0  0
 12 37  1  0  0  0  0
 12 38  1  0  0  0  0
 12 39  1  0  0  0  0
 13 40  1  0  0  0  0
 13 41  1  0  0  0  0
 13 42  1  0  0  0  0
 17 43  1  0  0  0  0
M  END
> <id>
EN300-6899449

> <smiles>
CC(C)(C)OC(=O)N1CCC(O)C2CCCCC21

> <IUPAC Name>
tert-butyl 4-hydroxy-decahydroquinoline-1-carboxylate

> <CAS>
1296171-00-0

> <Purity>
95

> <URL>
https://www.enaminestore.com/catalog/EN300-6899449

> <ROCS_ShapeQuery>
A71EV2A-x0451_0A_A71EV2A-x0310_0A_A71EV2A-x0416_0A_peptide

> <ROCS_TanimotoCombo>
0.476 

> <ROCS_ShapeTanimoto>
0.320 

> <ROCS_ColorTanimoto>
0.156 

> <ROCS_RefTversky>
0.281 

> <ROCS_RefColorTversky>
0.167 

> <ROCS_RefTverskyCombo>
0.448 

> <ROCS_FitTversky>
1.769 

> <ROCS_FitColorTversky>
0.696 

> <ROCS_FitTverskyCombo>
2.465 

> <ROCS_ColorScore>
-5.077

> <ROCS_Overlap>
1949.405

> <ROCS_Rank>
454                 

$$$$
untitled-dbase-11720_3
  -OEChem-11132313473D

 35 36  0     0  0  0  0  0  0999 V2000
    8.6109    8.5727   23.1012 C   0  0  0  0  0  0  0  0  0  0  0  0
    8.4854    7.4303   22.7533 C   0  0  0  0  0  0  0  0  0  0  0  0
    6.2773   11.2563   26.0675 C   0  0  0  0  0  0  0  0  0  0  0  0
    6.8070   12.5384   26.1411 C   0  0  0  0  0  0  0  0  0  0  0  0
    6.8495   10.3029   25.2230 C   0  0  0  0  0  0  0  0  0  0  0  0
    7.9192   12.9029   25.3752 C   0  0  0  0  0  0  0  0  0  0  0  0
    9.7346   10.7770   23.0495 C   0  0  0  0  0  0  0  0  0  0  0  0
    8.7603    9.9285   23.5121 C   0  0  0  0  0  0  0  0  0  0  0  0
    7.9718   10.6474   24.4409 C   0  0  0  0  0  0  0  0  0  0  0  0
    8.4982   11.9438   24.5221 C   0  0  0  0  0  0  0  0  0  0  0  0
   10.4091   13.1352   23.4269 C   0  0  0  0  0  0  0  0  0  0  0  0
   12.9471   14.2087   22.7505 C   0  0  0  0  0  0  0  0  0  0  0  0
   12.1898   14.0025   20.3645 C   0  0  0  0  0  0  0  0  0  0  0  0
   10.9442   15.5036   21.9467 C   0  0  0  0  0  0  0  0  0  0  0  0
   11.7427   14.2080   21.8102 C   0  0  0  0  0  0  0  0  0  0  0  0
    9.5927   12.0142   23.6536 N   0  0  0  0  0  0  0  0  0  0  0  0
    8.3359    6.0627   22.3367 N   0  0  0  0  0  0  0  0  0  0  0  0
   10.6066   13.9685   24.2958 O   0  0  0  0  0  0  0  0  0  0  0  0
   10.8935   13.1106   22.1589 O   0  0  0  0  0  0  0  0  0  0  0  0
    5.4130   10.9918   26.6700 H   0  0  0  0  0  0  0  0  0  0  0  0
    6.3520   13.2704   26.8033 H   0  0  0  0  0  0  0  0  0  0  0  0
    6.4251    9.3034   25.1757 H   0  0  0  0  0  0  0  0  0  0  0  0
    8.3092   13.9115   25.4548 H   0  0  0  0  0  0  0  0  0  0  0  0
   10.5248   10.5951   22.3318 H   0  0  0  0  0  0  0  0  0  0  0  0
   12.6304   14.3560   23.7893 H   0  0  0  0  0  0  0  0  0  0  0  0
   13.5084   13.2707   22.6878 H   0  0  0  0  0  0  0  0  0  0  0  0
   13.6270   15.0353   22.5145 H   0  0  0  0  0  0  0  0  0  0  0  0
   11.3288   14.0014   19.6863 H   0  0  0  0  0  0  0  0  0  0  0  0
   12.6804   13.0301   20.2421 H   0  0  0  0  0  0  0  0  0  0  0  0
   12.8845   14.7845   20.0414 H   0  0  0  0  0  0  0  0  0  0  0  0
   10.0802   15.5034   21.2723 H   0  0  0  0  0  0  0  0  0  0  0  0
   10.5837   15.6492   22.9702 H   0  0  0  0  0  0  0  0  0  0  0  0
   11.5551   16.3693   21.6662 H   0  0  0  0  0  0  0  0  0  0  0  0
    7.4121    5.6656   22.2415 H   0  0  0  0  0  0  0  0  0  0  0  0
    9.1554    5.5052   22.1422 H   0  0  0  0  0  0  0  0  0  0  0  0
  1  2  3  0  0  0  0
  1  8  1  0  0  0  0
  2 17  1  0  0  0  0
  3  4  2  0  0  0  0
  3  5  1  0  0  0  0
  4  6  1  0  0  0  0
  5  9  2  0  0  0  0
  6 10  2  0  0  0  0
  7  8  2  0  0  0  0
  7 16  1  0  0  0  0
  8  9  1  0  0  0  0
  9 10  1  0  0  0  0
 10 16  1  0  0  0  0
 11 16  1  0  0  0  0
 11 18  2  0  0  0  0
 11 19  1  0  0  0  0
 12 15  1  0  0  0  0
 13 15  1  0  0  0  0
 14 15  1  0  0  0  0
 15 19  1  0  0  0  0
  3 20  1  0  0  0  0
  4 21  1  0  0  0  0
  5 22  1  0  0  0  0
  6 23  1  0  0  0  0
  7 24  1  0  0  0  0
 12 25  1  0  0  0  0
 12 26  1  0  0  0  0
 12 27  1  0  0  0  0
 13 28  1  0  0  0  0
 13 29  1  0  0  0  0
 13 30  1  0  0  0  0
 14 31  1  0  0  0  0
 14 32  1  0  0  0  0
 14 33  1  0  0  0  0
 17 34  1  0  0  0  0
 17 35  1  0  0  0  0
M  END
> <id>
EN300-624588

> <smiles>
CC(C)(C)OC(=O)N1C=C(C#CN)C=2C=CC=CC12

> <MDLNUMBER>
MFCD30752584

> <IUPAC Name>
tert-butyl 3-(2-aminoethynyl)-1H-indole-1-carboxylate

> <CAS>
2137743-13-4

> <URL>
https://www.enaminestore.com/catalog/EN300-624588

> <ROCS_ShapeQuery>
A71EV2A-x0451_0A_A71EV2A-x0310_0A_A71EV2A-x0416_0A_peptide

> <ROCS_TanimotoCombo>
0.476 

> <ROCS_ShapeTanimoto>
0.342 

> <ROCS_ColorTanimoto>
0.133 

> <ROCS_RefTversky>
0.298 

> <ROCS_RefColorTversky>
0.146 

> <ROCS_RefTverskyCombo>
0.444 

> <ROCS_FitTversky>
1.757 

> <ROCS_FitColorTversky>
0.608 

> <ROCS_FitTverskyCombo>
2.365 

> <ROCS_ColorScore>
-4.441

> <ROCS_Overlap>
2069.650

> <ROCS_Rank>
455                 

$$$$
untitled-dbase-49976_21
  -OEChem-11132313473D

 35 36  0     0  0  0  0  0  0999 V2000
   10.6968   12.9981   23.6784 C   0  0  0  0  0  0  0  0  0  0  0  0
    7.2385   10.4850   23.3904 C   0  0  0  0  0  0  0  0  0  0  0  0
    7.9009   10.4214   25.4017 C   0  0  0  0  0  0  0  0  0  0  0  0
    8.3094   12.6726   24.2037 C   0  0  0  0  0  0  0  0  0  0  0  0
    9.8005   10.6569   23.6569 C   0  0  0  0  0  0  0  0  0  0  0  0
    7.3141   11.5619   24.5137 C   0  0  0  0  0  0  0  0  0  0  0  0
    8.5287    9.9556   24.0633 C   0  0  0  0  0  0  0  0  0  0  0  0
   13.0856   14.4165   22.9999 C   0  0  0  0  0  0  0  0  0  0  0  0
   13.3037   12.7760   21.1103 C   0  0  0  0  0  0  0  0  0  0  0  0
   11.3199   14.3132   21.2093 C   0  0  0  0  0  0  0  0  0  0  0  0
   12.3297   13.5109   22.0287 C   0  0  0  0  0  0  0  0  0  0  0  0
    9.6292   12.1088   23.8680 N   0  0  0  0  0  0  0  0  0  0  0  0
    8.5586    8.5038   24.0029 N   0  0  0  0  0  0  0  0  0  0  0  0
   10.7983   14.0851   24.2445 O   0  0  0  0  0  0  0  0  0  0  0  0
   11.6208   12.5227   22.7850 O   0  0  0  0  0  0  0  0  0  0  0  0
    6.3521    9.8411   23.4559 H   0  0  0  0  0  0  0  0  0  0  0  0
    7.3302   10.8471   22.3621 H   0  0  0  0  0  0  0  0  0  0  0  0
    8.5935   10.7250   26.1921 H   0  0  0  0  0  0  0  0  0  0  0  0
    7.1379    9.7645   25.8389 H   0  0  0  0  0  0  0  0  0  0  0  0
    7.9736   13.2783   23.3544 H   0  0  0  0  0  0  0  0  0  0  0  0
    8.4311   13.3415   25.0631 H   0  0  0  0  0  0  0  0  0  0  0  0
   10.6576   10.3246   24.2541 H   0  0  0  0  0  0  0  0  0  0  0  0
   10.0374   10.4962   22.5990 H   0  0  0  0  0  0  0  0  0  0  0  0
    6.3436   11.9488   24.8406 H   0  0  0  0  0  0  0  0  0  0  0  0
   12.3900   14.9457   23.6609 H   0  0  0  0  0  0  0  0  0  0  0  0
   13.7881   13.8479   23.6179 H   0  0  0  0  0  0  0  0  0  0  0  0
   13.6461   15.1879   22.4595 H   0  0  0  0  0  0  0  0  0  0  0  0
   12.7656   12.1250   20.4117 H   0  0  0  0  0  0  0  0  0  0  0  0
   13.9695   12.1250   21.6883 H   0  0  0  0  0  0  0  0  0  0  0  0
   13.9175   13.4735   20.5313 H   0  0  0  0  0  0  0  0  0  0  0  0
   10.7775   13.6638   20.5126 H   0  0  0  0  0  0  0  0  0  0  0  0
   10.5901   14.8178   21.8507 H   0  0  0  0  0  0  0  0  0  0  0  0
   11.8267   15.0682   20.5975 H   0  0  0  0  0  0  0  0  0  0  0  0
    7.7614    8.1510   24.4809 H   0  0  0  0  0  0  0  0  0  0  0  0
    8.5408    8.2273   23.0481 H   0  0  0  0  0  0  0  0  0  0  0  0
  1 12  1  0  0  0  0
  1 14  2  0  0  0  0
  1 15  1  0  0  0  0
  2  6  1  0  0  0  0
  2  7  1  0  0  0  0
  3  6  1  0  0  0  0
  3  7  1  0  0  0  0
  4  6  1  1  0  0  0
  4 12  1  0  0  0  0
  5  7  1  0  0  0  0
  5 12  1  0  0  0  0
  7 13  1  6  0  0  0
  8 11  1  0  0  0  0
  9 11  1  0  0  0  0
 10 11  1  0  0  0  0
 11 15  1  0  0  0  0
  2 16  1  0  0  0  0
  2 17  1  0  0  0  0
  3 18  1  0  0  0  0
  3 19  1  0  0  0  0
  4 20  1  0  0  0  0
  4 21  1  0  0  0  0
  5 22  1  0  0  0  0
  5 23  1  0  0  0  0
  6 24  1  0  0  0  0
  8 25  1  0  0  0  0
  8 26  1  0  0  0  0
  8 27  1  0  0  0  0
  9 28  1  0  0  0  0
  9 29  1  0  0  0  0
  9 30  1  0  0  0  0
 10 31  1  0  0  0  0
 10 32  1  0  0  0  0
 10 33  1  0  0  0  0
 13 34  1  0  0  0  0
 13 35  1  0  0  0  0
M  END
> <id>
EN300-37375164

> <smiles>
CC(C)(C)OC(=O)N1C[C@H]2C[C@](N)(C2)C1

> <IUPAC Name>
tert-butyl (1r)-1-amino-3-azabicyclo[3.1.1]heptane-3-carboxylate

> <CAS>
1784306-64-4

> <URL>
https://www.enaminestore.com/catalog/EN300-37375164

> <ROCS_ShapeQuery>
A71EV2A-x0451_0A_A71EV2A-x0310_0A_A71EV2A-x0416_0A_peptide

> <ROCS_TanimotoCombo>
0.476 

> <ROCS_ShapeTanimoto>
0.274 

> <ROCS_ColorTanimoto>
0.202 

> <ROCS_RefTversky>
0.246 

> <ROCS_RefColorTversky>
0.229 

> <ROCS_RefTverskyCombo>
0.475 

> <ROCS_FitTversky>
1.717 

> <ROCS_FitColorTversky>
0.627 

> <ROCS_FitTverskyCombo>
2.344 

> <ROCS_ColorScore>
-7.023

> <ROCS_Overlap>
1702.796

> <ROCS_Rank>
456                 

$$$$
untitled-dbase-30472_68
  -OEChem-11132313473D

 35 36  0     1  0  0  0  0  0999 V2000
   10.2191   13.2394   23.4166 C   0  0  0  0  0  0  0  0  0  0  0  0
    9.6379   10.8340   23.1363 C   0  0  0  0  0  0  0  0  0  0  0  0
    6.9541   10.5167   25.6676 C   0  0  0  0  0  0  0  0  0  0  0  0
    7.2869   12.6406   24.7803 C   0  0  0  0  0  0  0  0  0  0  0  0
    8.3760   10.5349   25.1552 C   0  0  2  0  0  0  0  0  0  0  0  0
    8.6610   12.0154   24.9897 C   0  0  1  0  0  0  0  0  0  0  0  0
    8.5261    9.9815   23.7295 C   0  0  2  0  0  0  0  0  0  0  0  0
   12.5288   14.4342   22.2308 C   0  0  0  0  0  0  0  0  0  0  0  0
   11.3100   14.1854   20.0486 C   0  0  0  0  0  0  0  0  0  0  0  0
   10.3507   15.6390   21.8583 C   0  0  0  0  0  0  0  0  0  0  0  0
   11.1590   14.3780   21.5560 C   0  0  0  0  0  0  0  0  0  0  0  0
    9.5270   12.1101   23.8217 N   0  0  0  0  0  0  0  0  0  0  0  0
   10.5893   14.1314   24.1767 O   0  0  0  0  0  0  0  0  0  0  0  0
    6.2999   11.6370   25.0615 O   0  0  0  0  0  0  0  0  0  0  0  0
    8.9043    8.6173   23.7508 O   0  0  0  0  0  0  0  0  0  0  0  0
   10.4458   13.2461   22.0662 O   0  0  0  0  0  0  0  0  0  0  0  0
   10.6369   10.4026   23.2757 H   0  0  0  0  0  0  0  0  0  0  0  0
    9.4722   11.0248   22.0679 H   0  0  0  0  0  0  0  0  0  0  0  0
    6.4016    9.6098   25.4274 H   0  0  0  0  0  0  0  0  0  0  0  0
    6.9295   10.6627   26.7483 H   0  0  0  0  0  0  0  0  0  0  0  0
    7.1304   13.4731   25.4861 H   0  0  0  0  0  0  0  0  0  0  0  0
    7.1258   13.0396   23.7674 H   0  0  0  0  0  0  0  0  0  0  0  0
    9.0588   10.0582   25.8472 H   0  0  0  0  0  0  0  0  0  0  0  0
    9.1925   12.4720   25.8412 H   0  0  0  0  0  0  0  0  0  0  0  0
    7.5909   10.0704   23.1433 H   0  0  0  0  0  0  0  0  0  0  0  0
   12.4248   14.5723   23.3129 H   0  0  0  0  0  0  0  0  0  0  0  0
   13.1049   13.5207   22.0507 H   0  0  0  0  0  0  0  0  0  0  0  0
   13.1104   15.2880   21.8646 H   0  0  0  0  0  0  0  0  0  0  0  0
   10.3296   14.1446   19.5604 H   0  0  0  0  0  0  0  0  0  0  0  0
   11.8063   13.2343   19.8244 H   0  0  0  0  0  0  0  0  0  0  0  0
   11.8902   14.9949   19.5940 H   0  0  0  0  0  0  0  0  0  0  0  0
    9.3681   15.5990   21.3745 H   0  0  0  0  0  0  0  0  0  0  0  0
   10.2007   15.7736   22.9345 H   0  0  0  0  0  0  0  0  0  0  0  0
   10.8540   16.5287   21.4629 H   0  0  0  0  0  0  0  0  0  0  0  0
    9.0715    8.3624   22.8301 H   0  0  0  0  0  0  0  0  0  0  0  0
  1 12  1  0  0  0  0
  1 13  2  0  0  0  0
  1 16  1  0  0  0  0
  2  7  1  0  0  0  0
  2 12  1  0  0  0  0
  3  5  1  6  0  0  0
  3 14  1  0  0  0  0
  4  6  1  6  0  0  0
  4 14  1  0  0  0  0
  5  6  1  0  0  0  0
  5  7  1  0  0  0  0
  6 12  1  0  0  0  0
  7 15  1  1  0  0  0
  8 11  1  0  0  0  0
  9 11  1  0  0  0  0
 10 11  1  0  0  0  0
 11 16  1  0  0  0  0
  2 17  1  0  0  0  0
  2 18  1  0  0  0  0
  3 19  1  0  0  0  0
  3 20  1  0  0  0  0
  4 21  1  0  0  0  0
  4 22  1  0  0  0  0
  5 23  1  0  0  0  0
  6 24  1  0  0  0  0
  7 25  1  0  0  0  0
  8 26  1  0  0  0  0
  8 27  1  0  0  0  0
  8 28  1  0  0  0  0
  9 29  1  0  0  0  0
  9 30  1  0  0  0  0
  9 31  1  0  0  0  0
 10 32  1  0  0  0  0
 10 33  1  0  0  0  0
 10 34  1  0  0  0  0
 15 35  1  0  0  0  0
M  END
> <id>
EN300-6732214

> <smiles>
CC(C)(C)OC(=O)N1C[C@@H](O)[C@@H]2COC[C@@H]21 |&1:9,11,15,r|

> <IUPAC Name>
rac-tert-butyl (3R,3aR,6aS)-3-hydroxy-hexahydro-1H-furo[3,4-b]pyrrole-1-carboxylate

> <CAS>
2165718-76-1

> <URL>
https://www.enaminestore.com/catalog/EN300-6732214

> <ROCS_ShapeQuery>
A71EV2A-x0451_0A_A71EV2A-x0310_0A_A71EV2A-x0416_0A_peptide

> <ROCS_TanimotoCombo>
0.476 

> <ROCS_ShapeTanimoto>
0.307 

> <ROCS_ColorTanimoto>
0.168 

> <ROCS_RefTversky>
0.270 

> <ROCS_RefColorTversky>
0.184 

> <ROCS_RefTverskyCombo>
0.454 

> <ROCS_FitTversky>
1.801 

> <ROCS_FitColorTversky>
0.670 

> <ROCS_FitTverskyCombo>
2.471 

> <ROCS_ColorScore>
-5.594

> <ROCS_Overlap>
1873.311

> <ROCS_Rank>
457                 

$$$$
untitled-dbase-48261_92
  -OEChem-11132313473D

 41 43  0     0  0  0  0  0  0999 V2000
    6.7872   10.1973   25.3751 C   0  0  0  0  0  0  0  0  0  0  0  0
    6.0369   11.2805   25.8314 C   0  0  0  0  0  0  0  0  0  0  0  0
    7.6266   12.8336   24.8515 C   0  0  0  0  0  0  0  0  0  0  0  0
    8.3837   11.7591   24.3923 C   0  0  0  0  0  0  0  0  0  0  0  0
    7.9584   10.4517   24.6792 C   0  0  0  0  0  0  0  0  0  0  0  0
    6.4556   12.5919   25.5741 C   0  0  0  0  0  0  0  0  0  0  0  0
   10.7693   14.7103   22.4065 C   0  0  0  0  0  0  0  0  0  0  0  0
    9.9865   10.1731   23.5524 C   0  0  0  0  0  0  0  0  0  0  0  0
    9.7247   12.3881   22.1672 C   0  0  0  0  0  0  0  0  0  0  0  0
   10.8974   12.6060   23.9429 C   0  0  0  0  0  0  0  0  0  0  0  0
    9.7035   11.7027   23.5550 C   0  0  0  0  0  0  0  0  0  0  0  0
   12.9857   14.4714   20.5005 C   0  0  0  0  0  0  0  0  0  0  0  0
   11.4771   15.7108   18.9203 C   0  0  0  0  0  0  0  0  0  0  0  0
   12.2702   16.8264   21.0261 C   0  0  0  0  0  0  0  0  0  0  0  0
   11.8633   15.5015   20.3829 C   0  0  0  0  0  0  0  0  0  0  0  0
    8.8081    9.5021   24.1091 N   0  0  0  0  0  0  0  0  0  0  0  0
   10.5757   13.3998   22.7723 N   0  0  0  0  0  0  0  0  0  0  0  0
    5.6923   13.6776   26.0556 N   0  0  0  0  0  0  0  0  0  0  0  0
   11.0486   15.5960   23.2141 O   0  0  0  0  0  0  0  0  0  0  0  0
   10.7058   14.9967   21.0683 O   0  0  0  0  0  0  0  0  0  0  0  0
    6.4532    9.1818   25.5618 H   0  0  0  0  0  0  0  0  0  0  0  0
    5.1248   11.0956   26.3939 H   0  0  0  0  0  0  0  0  0  0  0  0
    7.9540   13.8498   24.6508 H   0  0  0  0  0  0  0  0  0  0  0  0
   10.1405    9.8067   22.5293 H   0  0  0  0  0  0  0  0  0  0  0  0
   10.8742    9.9137   24.1411 H   0  0  0  0  0  0  0  0  0  0  0  0
   10.2074   11.8352   21.3581 H   0  0  0  0  0  0  0  0  0  0  0  0
    8.7747   12.8035   21.8194 H   0  0  0  0  0  0  0  0  0  0  0  0
   10.7890   13.1776   24.8714 H   0  0  0  0  0  0  0  0  0  0  0  0
   11.8896   12.1452   23.9088 H   0  0  0  0  0  0  0  0  0  0  0  0
   13.2658   14.3183   21.5489 H   0  0  0  0  0  0  0  0  0  0  0  0
   12.6936   13.5061   20.0741 H   0  0  0  0  0  0  0  0  0  0  0  0
   13.8896   14.8175   19.9864 H   0  0  0  0  0  0  0  0  0  0  0  0
   10.6720   16.4492   18.8312 H   0  0  0  0  0  0  0  0  0  0  0  0
   11.0944   14.7825   18.4809 H   0  0  0  0  0  0  0  0  0  0  0  0
   12.3283   16.0522   18.3225 H   0  0  0  0  0  0  0  0  0  0  0  0
   11.4653   17.5655   20.9419 H   0  0  0  0  0  0  0  0  0  0  0  0
   12.5154   16.7018   22.0858 H   0  0  0  0  0  0  0  0  0  0  0  0
   13.1396   17.2566   20.5158 H   0  0  0  0  0  0  0  0  0  0  0  0
    8.8017    8.5302   24.3868 H   0  0  0  0  0  0  0  0  0  0  0  0
    4.8350   13.4948   26.5352 H   0  0  0  0  0  0  0  0  0  0  0  0
    5.9734   14.6089   25.8267 H   0  0  0  0  0  0  0  0  0  0  0  0
  1  2  1  0  0  0  0
  1  5  2  0  0  0  0
  2  6  2  0  0  0  0
  3  4  2  0  0  0  0
  3  6  1  0  0  0  0
  4  5  1  0  0  0  0
  4 11  1  0  0  0  0
  5 16  1  0  0  0  0
  6 18  1  0  0  0  0
  7 17  1  0  0  0  0
  7 19  2  0  0  0  0
  7 20  1  0  0  0  0
  8 11  1  0  0  0  0
  8 16  1  0  0  0  0
  9 11  1  0  0  0  0
  9 17  1  0  0  0  0
 10 11  1  0  0  0  0
 10 17  1  0  0  0  0
 12 15  1  0  0  0  0
 13 15  1  0  0  0  0
 14 15  1  0  0  0  0
 15 20  1  0  0  0  0
  1 21  1  0  0  0  0
  2 22  1  0  0  0  0
  3 23  1  0  0  0  0
  8 24  1  0  0  0  0
  8 25  1  0  0  0  0
  9 26  1  0  0  0  0
  9 27  1  0  0  0  0
 10 28  1  0  0  0  0
 10 29  1  0  0  0  0
 12 30  1  0  0  0  0
 12 31  1  0  0  0  0
 12 32  1  0  0  0  0
 13 33  1  0  0  0  0
 13 34  1  0  0  0  0
 13 35  1  0  0  0  0
 14 36  1  0  0  0  0
 14 37  1  0  0  0  0
 14 38  1  0  0  0  0
 16 39  1  0  0  0  0
 18 40  1  0  0  0  0
 18 41  1  0  0  0  0
M  END
> <id>
EN300-338932

> <smiles>
CC(C)(C)OC(=O)N1CC2(C1)CNC=3C=CC(N)=CC32

> <MDLNUMBER>
MFCD30499973

> <IUPAC Name>
tert-butyl 5'-amino-1',2'-dihydrospiro[azetidine-3,3'-indole]-1-carboxylate

> <CAS>
2059994-61-3

> <URL>
https://www.enaminestore.com/catalog/EN300-338932

> <ROCS_ShapeQuery>
A71EV2A-x0451_0A_A71EV2A-x0310_0A_A71EV2A-x0416_0A_peptide

> <ROCS_TanimotoCombo>
0.475 

> <ROCS_ShapeTanimoto>
0.343 

> <ROCS_ColorTanimoto>
0.133 

> <ROCS_RefTversky>
0.300 

> <ROCS_RefColorTversky>
0.153 

> <ROCS_RefTverskyCombo>
0.453 

> <ROCS_FitTversky>
1.704 

> <ROCS_FitColorTversky>
0.506 

> <ROCS_FitTverskyCombo>
2.210 

> <ROCS_ColorScore>
-4.657

> <ROCS_Overlap>
2083.310

> <ROCS_Rank>
458                 

$$$$
untitled-dbase-34613_3
  -OEChem-11132313473D

 35 36  0     1  0  0  0  0  0999 V2000
   10.3561   12.8640   23.5584 C   0  0  0  0  0  0  0  0  0  0  0  0
    7.1283   11.8865   24.2782 C   0  0  0  0  0  0  0  0  0  0  0  0
    7.4184   11.1387   22.9514 C   0  0  0  0  0  0  0  0  0  0  0  0
    8.7847   10.4470   25.4621 C   0  0  0  0  0  0  0  0  0  0  0  0
    8.5000   11.8821   24.9739 C   0  0  1  0  0  0  0  0  0  0  0  0
    8.9162   10.7949   23.0720 C   0  0  2  0  0  0  0  0  0  0  0  0
    9.1492    9.7046   24.1427 C   0  0  2  0  0  0  0  0  0  0  0  0
   12.5292   14.4328   22.5692 C   0  0  0  0  0  0  0  0  0  0  0  0
   12.1428   13.2548   20.3847 C   0  0  0  0  0  0  0  0  0  0  0  0
   10.3369   14.7009   21.3624 C   0  0  0  0  0  0  0  0  0  0  0  0
   11.4940   13.7529   21.6743 C   0  0  0  0  0  0  0  0  0  0  0  0
    9.3701   11.9511   23.8219 N   0  0  0  0  0  0  0  0  0  0  0  0
    8.3855    8.4854   23.9440 N   0  0  0  0  0  0  0  0  0  0  0  0
   10.6512   13.7960   24.3020 O   0  0  0  0  0  0  0  0  0  0  0  0
   10.9744   12.6111   22.3647 O   0  0  0  0  0  0  0  0  0  0  0  0
    6.7990   12.9096   24.0643 H   0  0  0  0  0  0  0  0  0  0  0  0
    6.3510   11.3872   24.8652 H   0  0  0  0  0  0  0  0  0  0  0  0
    6.7737   10.2643   22.8262 H   0  0  0  0  0  0  0  0  0  0  0  0
    7.2446   11.8126   22.1043 H   0  0  0  0  0  0  0  0  0  0  0  0
    9.6428   10.4264   26.1441 H   0  0  0  0  0  0  0  0  0  0  0  0
    7.9262   10.0083   25.9824 H   0  0  0  0  0  0  0  0  0  0  0  0
    8.6472   12.6654   25.7196 H   0  0  0  0  0  0  0  0  0  0  0  0
    9.4257   10.6237   22.1216 H   0  0  0  0  0  0  0  0  0  0  0  0
   10.2168    9.4482   24.1697 H   0  0  0  0  0  0  0  0  0  0  0  0
   12.0674   14.7917   23.4960 H   0  0  0  0  0  0  0  0  0  0  0  0
   13.3468   13.7525   22.8289 H   0  0  0  0  0  0  0  0  0  0  0  0
   12.9553   15.3133   22.0750 H   0  0  0  0  0  0  0  0  0  0  0  0
   11.4036   12.7663   19.7395 H   0  0  0  0  0  0  0  0  0  0  0  0
   12.9104   12.5025   20.5992 H   0  0  0  0  0  0  0  0  0  0  0  0
   12.6061   14.0727   19.8235 H   0  0  0  0  0  0  0  0  0  0  0  0
    9.5942   14.2135   20.7204 H   0  0  0  0  0  0  0  0  0  0  0  0
    9.8358   15.0396   22.2749 H   0  0  0  0  0  0  0  0  0  0  0  0
   10.6911   15.5804   20.8126 H   0  0  0  0  0  0  0  0  0  0  0  0
    8.6636    8.0719   23.0827 H   0  0  0  0  0  0  0  0  0  0  0  0
    8.5726    7.8660   24.7000 H   0  0  0  0  0  0  0  0  0  0  0  0
  1 12  1  0  0  0  0
  1 14  2  0  0  0  0
  1 15  1  0  0  0  0
  2  3  1  0  0  0  0
  2  5  1  0  0  0  0
  3  6  1  0  0  0  0
  4  5  1  0  0  0  0
  4  7  1  0  0  0  0
  5 12  1  0  0  0  0
  6  7  1  0  0  0  0
  6 12  1  0  0  0  0
  7 13  1  1  0  0  0
  8 11  1  0  0  0  0
  9 11  1  0  0  0  0
 10 11  1  0  0  0  0
 11 15  1  0  0  0  0
  2 16  1  0  0  0  0
  2 17  1  0  0  0  0
  3 18  1  0  0  0  0
  3 19  1  0  0  0  0
  4 20  1  0  0  0  0
  4 21  1  0  0  0  0
  5 22  1  0  0  0  0
  6 23  1  0  0  0  0
  7 24  1  0  0  0  0
  8 25  1  0  0  0  0
  8 26  1  0  0  0  0
  8 27  1  0  0  0  0
  9 28  1  0  0  0  0
  9 29  1  0  0  0  0
  9 30  1  0  0  0  0
 10 31  1  0  0  0  0
 10 32  1  0  0  0  0
 10 33  1  0  0  0  0
 13 34  1  0  0  0  0
 13 35  1  0  0  0  0
M  END
> <id>
EN300-90624

> <smiles>
CC(C)(C)OC(=O)N1C2CCC1[C@H](N)C2

> <MDLNUMBER>
MFCD20441708

> <IUPAC Name>
tert-butyl (2R)-2-amino-7-azabicyclo[2.2.1]heptane-7-carboxylate

> <CAS>
1354973-35-5

> <URL>
https://www.enaminestore.com/catalog/EN300-90624

> <ROCS_ShapeQuery>
A71EV2A-x0451_0A_A71EV2A-x0310_0A_A71EV2A-x0416_0A_peptide

> <ROCS_TanimotoCombo>
0.475 

> <ROCS_ShapeTanimoto>
0.268 

> <ROCS_ColorTanimoto>
0.207 

> <ROCS_RefTversky>
0.242 

> <ROCS_RefColorTversky>
0.236 

> <ROCS_RefTverskyCombo>
0.478 

> <ROCS_FitTversky>
1.679 

> <ROCS_FitColorTversky>
0.632 

> <ROCS_FitTverskyCombo>
2.312 

> <ROCS_ColorScore>
-7.225

> <ROCS_Overlap>
1674.884

> <ROCS_Rank>
459                 

$$$$
untitled-dbase-28230_42
  -OEChem-11132313473D

 38 39  0     1  0  0  0  0  0999 V2000
   10.4902   13.1085   23.4618 C   0  0  0  0  0  0  0  0  0  0  0  0
    8.6136    9.8476   22.7775 C   0  0  0  0  0  0  0  0  0  0  0  0
    9.6015   10.9747   22.5065 C   0  0  0  0  0  0  0  0  0  0  0  0
    7.0566   10.2826   25.7221 C   0  0  0  0  0  0  0  0  0  0  0  0
    7.3851   12.5234   24.3628 C   0  0  0  0  0  0  0  0  0  0  0  0
    8.4801   10.4054   25.1418 C   0  0  2  0  0  0  0  0  0  0  0  0
    8.7270   11.8667   24.6865 C   0  0  1  0  0  0  0  0  0  0  0  0
   12.3851   15.1500   22.8106 C   0  0  0  0  0  0  0  0  0  0  0  0
   12.3419   14.1929   20.4887 C   0  0  0  0  0  0  0  0  0  0  0  0
   10.2490   15.1654   21.4797 C   0  0  0  0  0  0  0  0  0  0  0  0
   11.5437   14.4087   21.7726 C   0  0  0  0  0  0  0  0  0  0  0  0
    8.7529    9.3700   24.1424 N   0  0  0  0  0  0  0  0  0  0  0  0
    9.6556   11.9882   23.5624 N   0  0  0  0  0  0  0  0  0  0  0  0
   10.5766   13.9893   24.3151 O   0  0  0  0  0  0  0  0  0  0  0  0
    4.9633   11.7086   24.9797 O   0  0  0  0  0  0  0  0  0  0  0  0
    6.4681   12.5992   26.8169 O   0  0  0  0  0  0  0  0  0  0  0  0
   11.2093   13.1179   22.2948 O   0  0  0  0  0  0  0  0  0  0  0  0
    6.2706   11.8728   25.5792 S   0  0  0  0  0  0  0  0  0  0  0  0
    7.5960   10.2127   22.6271 H   0  0  0  0  0  0  0  0  0  0  0  0
    8.7686    9.0285   22.0710 H   0  0  0  0  0  0  0  0  0  0  0  0
   10.6006   10.5449   22.3378 H   0  0  0  0  0  0  0  0  0  0  0  0
    9.3334   11.5012   21.5757 H   0  0  0  0  0  0  0  0  0  0  0  0
    6.4489    9.5159   25.2203 H   0  0  0  0  0  0  0  0  0  0  0  0
    7.1102   10.0352   26.7930 H   0  0  0  0  0  0  0  0  0  0  0  0
    7.4244   13.6111   24.4469 H   0  0  0  0  0  0  0  0  0  0  0  0
    7.0012   12.2417   23.3792 H   0  0  0  0  0  0  0  0  0  0  0  0
    9.1927   10.1769   26.0237 H   0  0  0  0  0  0  0  0  0  0  0  0
    9.1684   12.4161   25.5483 H   0  0  0  0  0  0  0  0  0  0  0  0
   11.8157   15.3069   23.7337 H   0  0  0  0  0  0  0  0  0  0  0  0
   13.2999   14.6005   23.0554 H   0  0  0  0  0  0  0  0  0  0  0  0
   12.6659   16.1454   22.4477 H   0  0  0  0  0  0  0  0  0  0  0  0
   11.7421   13.6613   19.7411 H   0  0  0  0  0  0  0  0  0  0  0  0
   13.2234   13.5695   20.6772 H   0  0  0  0  0  0  0  0  0  0  0  0
   12.6745   15.1417   20.0554 H   0  0  0  0  0  0  0  0  0  0  0  0
    9.6453   14.6338   20.7352 H   0  0  0  0  0  0  0  0  0  0  0  0
    9.6455   15.2972   22.3836 H   0  0  0  0  0  0  0  0  0  0  0  0
   10.4624   16.1535   21.0563 H   0  0  0  0  0  0  0  0  0  0  0  0
    8.1167    8.5701   24.2896 H   0  0  0  0  0  0  0  0  0  0  0  0
  1 13  1  0  0  0  0
  1 14  2  0  0  0  0
  1 17  1  0  0  0  0
  2  3  1  0  0  0  0
  2 12  1  0  0  0  0
  3 13  1  0  0  0  0
  4  6  1  6  0  0  0
  4 18  1  0  0  0  0
  5  7  1  6  0  0  0
  5 18  1  0  0  0  0
  6  7  1  0  0  0  0
  6 12  1  0  0  0  0
  7 13  1  0  0  0  0
  8 11  1  0  0  0  0
  9 11  1  0  0  0  0
 10 11  1  0  0  0  0
 11 17  1  0  0  0  0
 15 18  2  0  0  0  0
 16 18  2  0  0  0  0
  2 19  1  0  0  0  0
  2 20  1  0  0  0  0
  3 21  1  0  0  0  0
  3 22  1  0  0  0  0
  4 23  1  0  0  0  0
  4 24  1  0  0  0  0
  5 25  1  0  0  0  0
  5 26  1  0  0  0  0
  6 27  1  0  0  0  0
  7 28  1  0  0  0  0
  8 29  1  0  0  0  0
  8 30  1  0  0  0  0
  8 31  1  0  0  0  0
  9 32  1  0  0  0  0
  9 33  1  0  0  0  0
  9 34  1  0  0  0  0
 10 35  1  0  0  0  0
 10 36  1  0  0  0  0
 10 37  1  0  0  0  0
 12 38  1  0  0  0  0
M  END
> <id>
EN300-702832

> <smiles>
CC(C)(C)OC(=O)N1CCN[C@@H]2CS(=O)(=O)C[C@@H]21 |&1:11,17,r|

> <MDLNUMBER>
MFCD31629884

> <IUPAC Name>
rac-tert-butyl (4aR,7aS)-6,6-dioxo-octahydro-6lambda6-thieno[3,4-b]piperazine-1-carboxylate

> <CAS>
1314399-42-2

> <Purity>
95

> <URL>
https://www.enaminestore.com/catalog/EN300-702832

> <ROCS_ShapeQuery>
A71EV2A-x0451_0A_A71EV2A-x0310_0A_A71EV2A-x0416_0A_peptide

> <ROCS_TanimotoCombo>
0.475 

> <ROCS_ShapeTanimoto>
0.318 

> <ROCS_ColorTanimoto>
0.157 

> <ROCS_RefTversky>
0.280 

> <ROCS_RefColorTversky>
0.176 

> <ROCS_RefTverskyCombo>
0.456 

> <ROCS_FitTversky>
1.768 

> <ROCS_FitColorTversky>
0.584 

> <ROCS_FitTverskyCombo>
2.352 

> <ROCS_ColorScore>
-5.387

> <ROCS_Overlap>
1939.920

> <ROCS_Rank>
460                 

$$$$
untitled-dbase-9949_75
  -OEChem-11132313473D

 37 38  0     0  0  0  0  0  0999 V2000
    6.9960   10.2536   25.9703 C   0  0  0  0  0  0  0  0  0  0  0  0
    6.3260   11.2167   26.7213 C   0  0  0  0  0  0  0  0  0  0  0  0
    7.0279   12.9236   25.1591 C   0  0  0  0  0  0  0  0  0  0  0  0
    7.7081   11.9677   24.3918 C   0  0  0  0  0  0  0  0  0  0  0  0
    7.6998   10.6319   24.8243 C   0  0  0  0  0  0  0  0  0  0  0  0
    6.3458   12.5507   26.3192 C   0  0  0  0  0  0  0  0  0  0  0  0
   10.8088   12.9955   23.5097 C   0  0  0  0  0  0  0  0  0  0  0  0
    8.3962   12.3774   23.1152 C   0  0  0  0  0  0  0  0  0  0  0  0
   10.1914   10.6632   22.9270 C   0  0  0  0  0  0  0  0  0  0  0  0
    9.7426    9.7933   24.0958 C   0  0  0  0  0  0  0  0  0  0  0  0
   12.6707   15.0854   22.9128 C   0  0  0  0  0  0  0  0  0  0  0  0
   13.8162   13.3950   21.4502 C   0  0  0  0  0  0  0  0  0  0  0  0
   11.4585   14.0954   20.9418 C   0  0  0  0  0  0  0  0  0  0  0  0
   12.4829   13.8408   22.0465 C   0  0  0  0  0  0  0  0  0  0  0  0
    9.8279   12.0643   23.1458 N   0  0  0  0  0  0  0  0  0  0  0  0
   10.6291   13.9184   24.3022 O   0  0  0  0  0  0  0  0  0  0  0  0
    8.3184    9.6336   24.1144 O   0  0  0  0  0  0  0  0  0  0  0  0
   12.0038   12.7762   22.8761 O   0  0  0  0  0  0  0  0  0  0  0  0
    5.4326   13.8564   27.3367 Br  0  0  0  0  0  0  0  0  0  0  0  0
    6.9744    9.2142   26.2861 H   0  0  0  0  0  0  0  0  0  0  0  0
    5.7906   10.9111   27.6165 H   0  0  0  0  0  0  0  0  0  0  0  0
    7.0269   13.9641   24.8406 H   0  0  0  0  0  0  0  0  0  0  0  0
    7.9389   11.8583   22.2641 H   0  0  0  0  0  0  0  0  0  0  0  0
    8.2568   13.4479   22.9309 H   0  0  0  0  0  0  0  0  0  0  0  0
   11.2761   10.5781   22.8069 H   0  0  0  0  0  0  0  0  0  0  0  0
    9.7195   10.3391   21.9927 H   0  0  0  0  0  0  0  0  0  0  0  0
   10.1599    8.7889   23.9611 H   0  0  0  0  0  0  0  0  0  0  0  0
   10.1259   10.1617   25.0572 H   0  0  0  0  0  0  0  0  0  0  0  0
   11.7159   15.4086   23.3428 H   0  0  0  0  0  0  0  0  0  0  0  0
   13.3768   14.9054   23.7300 H   0  0  0  0  0  0  0  0  0  0  0  0
   13.0407   15.9260   22.3146 H   0  0  0  0  0  0  0  0  0  0  0  0
   13.6862   12.5022   20.8278 H   0  0  0  0  0  0  0  0  0  0  0  0
   14.5247   13.1201   22.2400 H   0  0  0  0  0  0  0  0  0  0  0  0
   14.2681   14.1818   20.8375 H   0  0  0  0  0  0  0  0  0  0  0  0
   11.3236   13.2028   20.3203 H   0  0  0  0  0  0  0  0  0  0  0  0
   10.4846   14.3807   21.3528 H   0  0  0  0  0  0  0  0  0  0  0  0
   11.7996   14.8913   20.2699 H   0  0  0  0  0  0  0  0  0  0  0  0
  1  2  1  0  0  0  0
  1  5  2  0  0  0  0
  2  6  2  0  0  0  0
  3  4  2  0  0  0  0
  3  6  1  0  0  0  0
  4  5  1  0  0  0  0
  4  8  1  0  0  0  0
  5 17  1  0  0  0  0
  6 19  1  0  0  0  0
  7 15  1  0  0  0  0
  7 16  2  0  0  0  0
  7 18  1  0  0  0  0
  8 15  1  0  0  0  0
  9 10  1  0  0  0  0
  9 15  1  0  0  0  0
 10 17  1  0  0  0  0
 11 14  1  0  0  0  0
 12 14  1  0  0  0  0
 13 14  1  0  0  0  0
 14 18  1  0  0  0  0
  1 20  1  0  0  0  0
  2 21  1  0  0  0  0
  3 22  1  0  0  0  0
  8 23  1  0  0  0  0
  8 24  1  0  0  0  0
  9 25  1  0  0  0  0
  9 26  1  0  0  0  0
 10 27  1  0  0  0  0
 10 28  1  0  0  0  0
 11 29  1  0  0  0  0
 11 30  1  0  0  0  0
 11 31  1  0  0  0  0
 12 32  1  0  0  0  0
 12 33  1  0  0  0  0
 12 34  1  0  0  0  0
 13 35  1  0  0  0  0
 13 36  1  0  0  0  0
 13 37  1  0  0  0  0
M  END
> <id>
EN300-336162

> <smiles>
CC(C)(C)OC(=O)N1CCOC=2C=CC(Br)=CC2C1

> <MDLNUMBER>
MFCD12028392

> <IUPAC Name>
tert-butyl 7-bromo-2,3,4,5-tetrahydro-1,4-benzoxazepine-4-carboxylate

> <CAS>
740842-73-3

> <URL>
https://www.enaminestore.com/catalog/EN300-336162

> <ROCS_ShapeQuery>
A71EV2A-x0451_0A_A71EV2A-x0310_0A_A71EV2A-x0416_0A_peptide

> <ROCS_TanimotoCombo>
0.475 

> <ROCS_ShapeTanimoto>
0.324 

> <ROCS_ColorTanimoto>
0.151 

> <ROCS_RefTversky>
0.286 

> <ROCS_RefColorTversky>
0.163 

> <ROCS_RefTverskyCombo>
0.448 

> <ROCS_FitTversky>
1.712 

> <ROCS_FitColorTversky>
0.679 

> <ROCS_FitTverskyCombo>
2.391 

> <ROCS_ColorScore>
-4.947

> <ROCS_Overlap>
1980.813

> <ROCS_Rank>
461                 

$$$$
untitled-dbase-47092_80
  -OEChem-11132313473D

 37 38  0     0  0  0  0  0  0999 V2000
    6.3461   12.5528   26.3187 C   0  0  0  0  0  0  0  0  0  0  0  0
    7.0287   12.9254   25.1588 C   0  0  0  0  0  0  0  0  0  0  0  0
    6.3257   11.2189   26.7209 C   0  0  0  0  0  0  0  0  0  0  0  0
    7.7088   11.9693   24.3918 C   0  0  0  0  0  0  0  0  0  0  0  0
    7.6998   10.6334   24.8243 C   0  0  0  0  0  0  0  0  0  0  0  0
    6.9956   10.2555   25.9701 C   0  0  0  0  0  0  0  0  0  0  0  0
   10.8101   12.9957   23.5105 C   0  0  0  0  0  0  0  0  0  0  0  0
    8.3973   12.3786   23.1154 C   0  0  0  0  0  0  0  0  0  0  0  0
   10.1920   10.6637   22.9277 C   0  0  0  0  0  0  0  0  0  0  0  0
    9.7425    9.7940   24.0964 C   0  0  0  0  0  0  0  0  0  0  0  0
   12.6729   15.0850   22.9140 C   0  0  0  0  0  0  0  0  0  0  0  0
   13.8182   13.3940   21.4517 C   0  0  0  0  0  0  0  0  0  0  0  0
   11.4609   14.0953   20.9427 C   0  0  0  0  0  0  0  0  0  0  0  0
   12.4849   13.8404   22.0477 C   0  0  0  0  0  0  0  0  0  0  0  0
    9.8289   12.0649   23.1464 N   0  0  0  0  0  0  0  0  0  0  0  0
   10.6305   13.9188   24.3028 O   0  0  0  0  0  0  0  0  0  0  0  0
    8.3182    9.6348   24.1146 O   0  0  0  0  0  0  0  0  0  0  0  0
   12.0052   12.7760   22.8772 O   0  0  0  0  0  0  0  0  0  0  0  0
    6.9403    8.6117   26.4966 Cl  0  0  0  0  0  0  0  0  0  0  0  0
    5.8224   13.3035   26.9033 H   0  0  0  0  0  0  0  0  0  0  0  0
    7.0177   13.9692   24.8547 H   0  0  0  0  0  0  0  0  0  0  0  0
    5.7799   10.9465   27.6207 H   0  0  0  0  0  0  0  0  0  0  0  0
    7.9402   11.8592   22.2643 H   0  0  0  0  0  0  0  0  0  0  0  0
    8.2581   13.4491   22.9307 H   0  0  0  0  0  0  0  0  0  0  0  0
   11.2767   10.5782   22.8079 H   0  0  0  0  0  0  0  0  0  0  0  0
    9.7202   10.3397   21.9934 H   0  0  0  0  0  0  0  0  0  0  0  0
   10.1593    8.7893   23.9620 H   0  0  0  0  0  0  0  0  0  0  0  0
   10.1256   10.1623   25.0579 H   0  0  0  0  0  0  0  0  0  0  0  0
   11.7181   15.4086   23.3436 H   0  0  0  0  0  0  0  0  0  0  0  0
   13.3788   14.9047   23.7313 H   0  0  0  0  0  0  0  0  0  0  0  0
   13.0434   15.9254   22.3159 H   0  0  0  0  0  0  0  0  0  0  0  0
   13.6880   12.5013   20.8294 H   0  0  0  0  0  0  0  0  0  0  0  0
   14.5263   13.1189   22.2418 H   0  0  0  0  0  0  0  0  0  0  0  0
   14.2705   14.1806   20.8392 H   0  0  0  0  0  0  0  0  0  0  0  0
   11.3258   13.2027   20.3212 H   0  0  0  0  0  0  0  0  0  0  0  0
   10.4870   14.3810   21.3534 H   0  0  0  0  0  0  0  0  0  0  0  0
   11.8025   14.8911   20.2709 H   0  0  0  0  0  0  0  0  0  0  0  0
  1  2  1  0  0  0  0
  1  3  2  0  0  0  0
  2  4  2  0  0  0  0
  3  6  1  0  0  0  0
  4  5  1  0  0  0  0
  4  8  1  0  0  0  0
  5  6  2  0  0  0  0
  5 17  1  0  0  0  0
  6 19  1  0  0  0  0
  7 15  1  0  0  0  0
  7 16  2  0  0  0  0
  7 18  1  0  0  0  0
  8 15  1  0  0  0  0
  9 10  1  0  0  0  0
  9 15  1  0  0  0  0
 10 17  1  0  0  0  0
 11 14  1  0  0  0  0
 12 14  1  0  0  0  0
 13 14  1  0  0  0  0
 14 18  1  0  0  0  0
  1 20  1  0  0  0  0
  2 21  1  0  0  0  0
  3 22  1  0  0  0  0
  8 23  1  0  0  0  0
  8 24  1  0  0  0  0
  9 25  1  0  0  0  0
  9 26  1  0  0  0  0
 10 27  1  0  0  0  0
 10 28  1  0  0  0  0
 11 29  1  0  0  0  0
 11 30  1  0  0  0  0
 11 31  1  0  0  0  0
 12 32  1  0  0  0  0
 12 33  1  0  0  0  0
 12 34  1  0  0  0  0
 13 35  1  0  0  0  0
 13 36  1  0  0  0  0
 13 37  1  0  0  0  0
M  END
> <id>
EN300-33050368

> <smiles>
CC(C)(C)OC(=O)N1CCOC=2C(Cl)=CC=CC2C1

> <IUPAC Name>
tert-butyl 9-chloro-2,3,4,5-tetrahydro-1,4-benzoxazepine-4-carboxylate

> <CAS>
2694732-05-1

> <URL>
https://www.enaminestore.com/catalog/EN300-33050368

> <ROCS_ShapeQuery>
A71EV2A-x0451_0A_A71EV2A-x0310_0A_A71EV2A-x0416_0A_peptide

> <ROCS_TanimotoCombo>
0.475 

> <ROCS_ShapeTanimoto>
0.319 

> <ROCS_ColorTanimoto>
0.156 

> <ROCS_RefTversky>
0.282 

> <ROCS_RefColorTversky>
0.163 

> <ROCS_RefTverskyCombo>
0.445 

> <ROCS_FitTversky>
1.687 

> <ROCS_FitColorTversky>
0.781 

> <ROCS_FitTverskyCombo>
2.467 

> <ROCS_ColorScore>
-4.947

> <ROCS_Overlap>
1959.851

> <ROCS_Rank>
462                 

$$$$
untitled-dbase-28110_126
  -OEChem-11132313473D

 36 37  0     0  0  0  0  0  0999 V2000
    8.5568   12.0768   24.3619 C   0  0  0  0  0  0  0  0  0  0  0  0
    9.0673   10.8471   23.9617 C   0  0  0  0  0  0  0  0  0  0  0  0
    7.3005   12.0414   24.9453 C   0  0  0  0  0  0  0  0  0  0  0  0
    7.1766    9.7896   24.6848 C   0  0  0  0  0  0  0  0  0  0  0  0
   11.2178   14.2771   22.8359 C   0  0  0  0  0  0  0  0  0  0  0  0
    9.3105   13.3620   24.2013 C   0  0  0  0  0  0  0  0  0  0  0  0
   10.4127   10.7724   23.2943 C   0  0  0  0  0  0  0  0  0  0  0  0
   11.3019   11.9477   23.6844 C   0  0  0  0  0  0  0  0  0  0  0  0
   12.7250   16.0597   21.1808 C   0  0  0  0  0  0  0  0  0  0  0  0
   12.9513   14.1138   19.6088 C   0  0  0  0  0  0  0  0  0  0  0  0
   10.6770   15.0454   20.1265 C   0  0  0  0  0  0  0  0  0  0  0  0
   12.0771   14.7720   20.6740 C   0  0  0  0  0  0  0  0  0  0  0  0
    8.3879    9.6863   24.1063 N   0  0  0  0  0  0  0  0  0  0  0  0
    6.5821   10.9139   25.1216 N   0  0  0  0  0  0  0  0  0  0  0  0
   10.5966   13.2166   23.5055 N   0  0  0  0  0  0  0  0  0  0  0  0
   11.1078   15.4596   23.1542 O   0  0  0  0  0  0  0  0  0  0  0  0
    6.7173   13.2023   25.3819 O   0  0  0  0  0  0  0  0  0  0  0  0
   11.9675   13.8554   21.7691 O   0  0  0  0  0  0  0  0  0  0  0  0
    6.2635    8.2742   24.8925 S   0  0  0  0  0  0  0  0  0  0  0  0
    8.7155   14.0650   23.6064 H   0  0  0  0  0  0  0  0  0  0  0  0
    9.4857   13.8068   25.1867 H   0  0  0  0  0  0  0  0  0  0  0  0
   10.8915    9.8294   23.5841 H   0  0  0  0  0  0  0  0  0  0  0  0
   10.2847   10.7591   22.2060 H   0  0  0  0  0  0  0  0  0  0  0  0
   11.6420   11.8322   24.7183 H   0  0  0  0  0  0  0  0  0  0  0  0
   12.1953   11.9863   23.0483 H   0  0  0  0  0  0  0  0  0  0  0  0
   12.1006   16.5353   21.9456 H   0  0  0  0  0  0  0  0  0  0  0  0
   13.7154   15.8719   21.6080 H   0  0  0  0  0  0  0  0  0  0  0  0
   12.8305   16.7897   20.3701 H   0  0  0  0  0  0  0  0  0  0  0  0
   12.4902   13.1894   19.2423 H   0  0  0  0  0  0  0  0  0  0  0  0
   13.9250   13.8295   20.0240 H   0  0  0  0  0  0  0  0  0  0  0  0
   13.1190   14.7793   18.7559 H   0  0  0  0  0  0  0  0  0  0  0  0
   10.2121   14.1219   19.7629 H   0  0  0  0  0  0  0  0  0  0  0  0
   10.0245   15.4841   20.8884 H   0  0  0  0  0  0  0  0  0  0  0  0
   10.7200   15.7279   19.2700 H   0  0  0  0  0  0  0  0  0  0  0  0
    5.8488   13.0092   25.7615 H   0  0  0  0  0  0  0  0  0  0  0  0
    7.1733    7.4501   24.3510 H   0  0  0  0  0  0  0  0  0  0  0  0
  1  2  1  0  0  0  0
  1  3  2  0  0  0  0
  1  6  1  0  0  0  0
  2  7  1  0  0  0  0
  2 13  2  0  0  0  0
  3 14  1  0  0  0  0
  3 17  1  0  0  0  0
  4 13  1  0  0  0  0
  4 14  2  0  0  0  0
  4 19  1  0  0  0  0
  5 15  1  0  0  0  0
  5 16  2  0  0  0  0
  5 18  1  0  0  0  0
  6 15  1  0  0  0  0
  7  8  1  0  0  0  0
  8 15  1  0  0  0  0
  9 12  1  0  0  0  0
 10 12  1  0  0  0  0
 11 12  1  0  0  0  0
 12 18  1  0  0  0  0
  6 20  1  0  0  0  0
  6 21  1  0  0  0  0
  7 22  1  0  0  0  0
  7 23  1  0  0  0  0
  8 24  1  0  0  0  0
  8 25  1  0  0  0  0
  9 26  1  0  0  0  0
  9 27  1  0  0  0  0
  9 28  1  0  0  0  0
 10 29  1  0  0  0  0
 10 30  1  0  0  0  0
 10 31  1  0  0  0  0
 11 32  1  0  0  0  0
 11 33  1  0  0  0  0
 11 34  1  0  0  0  0
 17 35  1  0  0  0  0
 19 36  1  0  0  0  0
M  END
> <id>
EN300-1722627

> <smiles>
CC(C)(C)OC(=O)N1CCC=2N=C(S)N=C(O)C2C1

> <MDLNUMBER>
MFCD27974924

> <IUPAC Name>
tert-butyl 4-hydroxy-2-sulfanyl-5H,6H,7H,8H-pyrido[4,3-d]pyrimidine-6-carboxylate

> <CAS>
1708178-91-9

> <Purity>
91

> <URL>
https://www.enaminestore.com/catalog/EN300-1722627

> <ROCS_ShapeQuery>
A71EV2A-x0451_0A_A71EV2A-x0310_0A_A71EV2A-x0416_0A_peptide

> <ROCS_TanimotoCombo>
0.475 

> <ROCS_ShapeTanimoto>
0.332 

> <ROCS_ColorTanimoto>
0.143 

> <ROCS_RefTversky>
0.291 

> <ROCS_RefColorTversky>
0.167 

> <ROCS_RefTverskyCombo>
0.458 

> <ROCS_FitTversky>
1.730 

> <ROCS_FitColorTversky>
0.502 

> <ROCS_FitTverskyCombo>
2.231 

> <ROCS_ColorScore>
-5.093

> <ROCS_Overlap>
2019.839

> <ROCS_Rank>
463                 

$$$$
untitled-dbase-45073_12
  -OEChem-11132313473D

 32 33  0     0  0  0  0  0  0999 V2000
    7.9667   12.9538   25.2664 C   0  0  0  0  0  0  0  0  0  0  0  0
    6.3654   11.2699   25.8625 C   0  0  0  0  0  0  0  0  0  0  0  0
    8.5601   12.0070   24.4534 C   0  0  0  0  0  0  0  0  0  0  0  0
    6.8379   12.5747   25.9914 C   0  0  0  0  0  0  0  0  0  0  0  0
    8.0150   10.7330   24.3925 C   0  0  0  0  0  0  0  0  0  0  0  0
   10.4818   13.2167   23.4299 C   0  0  0  0  0  0  0  0  0  0  0  0
    8.7896    9.8464   23.4612 C   0  0  0  0  0  0  0  0  0  0  0  0
    9.8945   10.7892   22.9695 C   0  0  0  0  0  0  0  0  0  0  0  0
   12.2610   15.2649   22.5168 C   0  0  0  0  0  0  0  0  0  0  0  0
   11.8929   14.3071   20.2242 C   0  0  0  0  0  0  0  0  0  0  0  0
    9.9583   15.2745   21.5008 C   0  0  0  0  0  0  0  0  0  0  0  0
   11.2834   14.5212   21.6080 C   0  0  0  0  0  0  0  0  0  0  0  0
    6.9294   10.3259   25.0731 N   0  0  0  0  0  0  0  0  0  0  0  0
    9.6864   12.0971   23.6208 N   0  0  0  0  0  0  0  0  0  0  0  0
   10.6891   14.0995   24.2577 O   0  0  0  0  0  0  0  0  0  0  0  0
   11.0293   13.2294   22.1721 O   0  0  0  0  0  0  0  0  0  0  0  0
    5.9656   13.8035   27.1246 Br  0  0  0  0  0  0  0  0  0  0  0  0
    8.3546   13.9623   25.3483 H   0  0  0  0  0  0  0  0  0  0  0  0
    5.4892   10.9302   26.4074 H   0  0  0  0  0  0  0  0  0  0  0  0
    9.2035    8.9893   23.9999 H   0  0  0  0  0  0  0  0  0  0  0  0
    8.1557    9.5060   22.6371 H   0  0  0  0  0  0  0  0  0  0  0  0
   10.8917   10.4173   23.2313 H   0  0  0  0  0  0  0  0  0  0  0  0
    9.8597   10.9244   21.8822 H   0  0  0  0  0  0  0  0  0  0  0  0
   11.8272   15.4205   23.5111 H   0  0  0  0  0  0  0  0  0  0  0  0
   13.2026   14.7177   22.6300 H   0  0  0  0  0  0  0  0  0  0  0  0
   12.4852   16.2609   22.1181 H   0  0  0  0  0  0  0  0  0  0  0  0
   11.1949   13.7738   19.5687 H   0  0  0  0  0  0  0  0  0  0  0  0
   12.7938   13.6860   20.2863 H   0  0  0  0  0  0  0  0  0  0  0  0
   12.1585   15.2567   19.7484 H   0  0  0  0  0  0  0  0  0  0  0  0
    9.2569   14.7412   20.8489 H   0  0  0  0  0  0  0  0  0  0  0  0
    9.4882   15.4049   22.4809 H   0  0  0  0  0  0  0  0  0  0  0  0
   10.1073   16.2631   21.0517 H   0  0  0  0  0  0  0  0  0  0  0  0
  1  3  2  0  0  0  0
  1  4  1  0  0  0  0
  2  4  2  0  0  0  0
  2 13  1  0  0  0  0
  3  5  1  0  0  0  0
  3 14  1  0  0  0  0
  4 17  1  0  0  0  0
  5  7  1  0  0  0  0
  5 13  2  0  0  0  0
  6 14  1  0  0  0  0
  6 15  2  0  0  0  0
  6 16  1  0  0  0  0
  7  8  1  0  0  0  0
  8 14  1  0  0  0  0
  9 12  1  0  0  0  0
 10 12  1  0  0  0  0
 11 12  1  0  0  0  0
 12 16  1  0  0  0  0
  1 18  1  0  0  0  0
  2 19  1  0  0  0  0
  7 20  1  0  0  0  0
  7 21  1  0  0  0  0
  8 22  1  0  0  0  0
  8 23  1  0  0  0  0
  9 24  1  0  0  0  0
  9 25  1  0  0  0  0
  9 26  1  0  0  0  0
 10 27  1  0  0  0  0
 10 28  1  0  0  0  0
 10 29  1  0  0  0  0
 11 30  1  0  0  0  0
 11 31  1  0  0  0  0
 11 32  1  0  0  0  0
M  END
> <id>
EN300-22010135

> <smiles>
CC(C)(C)OC(=O)N1CCC=2N=CC(Br)=CC12

> <MDLNUMBER>
MFCD30002846

> <IUPAC Name>
tert-butyl 6-bromo-1H,2H,3H-pyrrolo[3,2-b]pyridine-1-carboxylate

> <CAS>
2092500-80-4

> <URL>
https://www.enaminestore.com/catalog/EN300-22010135

> <ROCS_ShapeQuery>
A71EV2A-x0451_0A_A71EV2A-x0310_0A_A71EV2A-x0416_0A_peptide

> <ROCS_TanimotoCombo>
0.475 

> <ROCS_ShapeTanimoto>
0.322 

> <ROCS_ColorTanimoto>
0.153 

> <ROCS_RefTversky>
0.282 

> <ROCS_RefColorTversky>
0.164 

> <ROCS_RefTverskyCombo>
0.446 

> <ROCS_FitTversky>
1.805 

> <ROCS_FitColorTversky>
0.684 

> <ROCS_FitTverskyCombo>
2.489 

> <ROCS_ColorScore>
-4.995

> <ROCS_Overlap>
1953.105

> <ROCS_Rank>
464                 

$$$$
untitled-dbase-42926_86
  -OEChem-11132313473D

 40 41  0     1  0  0  0  0  0999 V2000
   10.2081   13.3105   23.3897 C   0  0  0  0  0  0  0  0  0  0  0  0
    8.5762   10.0025   23.1255 C   0  0  0  0  0  0  0  0  0  0  0  0
    9.6788   10.9675   22.7061 C   0  0  0  0  0  0  0  0  0  0  0  0
    8.3448   10.2740   24.6157 C   0  0  1  0  0  0  0  0  0  0  0  0
    8.8371   11.7244   24.8435 C   0  0  2  0  0  0  0  0  0  0  0  0
    6.9494   10.6948   25.1396 C   0  0  1  0  0  0  0  0  0  0  0  0
    7.3535   12.1965   24.9651 C   0  0  0  0  0  0  0  0  0  0  0  0
    6.7311   12.9023   23.7577 C   0  0  0  0  0  0  0  0  0  0  0  0
    7.1142   13.0184   26.2360 C   0  0  0  0  0  0  0  0  0  0  0  0
   12.7334   13.6204   22.0883 C   0  0  0  0  0  0  0  0  0  0  0  0
   11.4144   14.5116   20.1453 C   0  0  0  0  0  0  0  0  0  0  0  0
   11.3633   15.7155   22.3490 C   0  0  0  0  0  0  0  0  0  0  0  0
   11.4618   14.3534   21.6635 C   0  0  0  0  0  0  0  0  0  0  0  0
    9.5810   12.0972   23.6231 N   0  0  0  0  0  0  0  0  0  0  0  0
   10.6066   14.0665   24.2722 O   0  0  0  0  0  0  0  0  0  0  0  0
    5.8088   10.2340   24.3924 O   0  0  0  0  0  0  0  0  0  0  0  0
   10.3309   13.5655   22.0506 O   0  0  0  0  0  0  0  0  0  0  0  0
    7.6678   10.1292   22.5355 H   0  0  0  0  0  0  0  0  0  0  0  0
    8.9281    8.9750   22.9966 H   0  0  0  0  0  0  0  0  0  0  0  0
   10.6759   10.5149   22.7458 H   0  0  0  0  0  0  0  0  0  0  0  0
    9.5169   11.3531   21.6925 H   0  0  0  0  0  0  0  0  0  0  0  0
    8.8267    9.5283   25.2627 H   0  0  0  0  0  0  0  0  0  0  0  0
    9.4532   11.8442   25.7455 H   0  0  0  0  0  0  0  0  0  0  0  0
    6.8106   10.4107   26.1941 H   0  0  0  0  0  0  0  0  0  0  0  0
    5.7010   13.1741   23.9808 H   0  0  0  0  0  0  0  0  0  0  0  0
    6.7466   12.2387   22.8951 H   0  0  0  0  0  0  0  0  0  0  0  0
    7.2964   13.8032   23.5261 H   0  0  0  0  0  0  0  0  0  0  0  0
    6.0728   13.3238   26.2778 H   0  0  0  0  0  0  0  0  0  0  0  0
    7.7502   13.8987   26.2218 H   0  0  0  0  0  0  0  0  0  0  0  0
    7.3504   12.4138   27.1068 H   0  0  0  0  0  0  0  0  0  0  0  0
   12.7712   13.5049   23.1775 H   0  0  0  0  0  0  0  0  0  0  0  0
   12.7987   12.6278   21.6309 H   0  0  0  0  0  0  0  0  0  0  0  0
   13.6260   14.1907   21.8068 H   0  0  0  0  0  0  0  0  0  0  0  0
   10.5036   15.0370   19.8361 H   0  0  0  0  0  0  0  0  0  0  0  0
   11.3891   13.5334   19.6516 H   0  0  0  0  0  0  0  0  0  0  0  0
   12.2797   15.0672   19.7698 H   0  0  0  0  0  0  0  0  0  0  0  0
   10.4512   16.2415   22.0444 H   0  0  0  0  0  0  0  0  0  0  0  0
   11.3586   15.6188   23.4395 H   0  0  0  0  0  0  0  0  0  0  0  0
   12.2023   16.3588   22.0600 H   0  0  0  0  0  0  0  0  0  0  0  0
    5.0370   10.5844   24.8541 H   0  0  0  0  0  0  0  0  0  0  0  0
  1 14  1  0  0  0  0
  1 15  2  0  0  0  0
  1 17  1  0  0  0  0
  2  3  1  0  0  0  0
  2  4  1  6  0  0  0
  3 14  1  0  0  0  0
  4  5  1  0  0  0  0
  4  6  1  0  0  0  0
  5  7  1  0  0  0  0
  5 14  1  6  0  0  0
  6  7  1  0  0  0  0
  6 16  1  6  0  0  0
  7  8  1  0  0  0  0
  7  9  1  0  0  0  0
 10 13  1  0  0  0  0
 11 13  1  0  0  0  0
 12 13  1  0  0  0  0
 13 17  1  0  0  0  0
  2 18  1  0  0  0  0
  2 19  1  0  0  0  0
  3 20  1  0  0  0  0
  3 21  1  0  0  0  0
  4 22  1  0  0  0  0
  5 23  1  0  0  0  0
  6 24  1  0  0  0  0
  8 25  1  0  0  0  0
  8 26  1  0  0  0  0
  8 27  1  0  0  0  0
  9 28  1  0  0  0  0
  9 29  1  0  0  0  0
  9 30  1  0  0  0  0
 10 31  1  0  0  0  0
 10 32  1  0  0  0  0
 10 33  1  0  0  0  0
 11 34  1  0  0  0  0
 11 35  1  0  0  0  0
 11 36  1  0  0  0  0
 12 37  1  0  0  0  0
 12 38  1  0  0  0  0
 12 39  1  0  0  0  0
 16 40  1  0  0  0  0
M  END
> <id>
EN300-26980890

> <smiles>
CC(C)(C)OC(=O)N1CC[C@@H]2[C@H](O)C(C)(C)[C@@H]21 |&1:10,11,16,r|

> <IUPAC Name>
rac-tert-butyl (1R,5S,6S)-6-hydroxy-7,7-dimethyl-2-azabicyclo[3.2.0]heptane-2-carboxylate

> <CAS>
2580099-66-5

> <URL>
https://www.enaminestore.com/catalog/EN300-26980890

> <ROCS_ShapeQuery>
A71EV2A-x0451_0A_A71EV2A-x0310_0A_A71EV2A-x0416_0A_peptide

> <ROCS_TanimotoCombo>
0.475 

> <ROCS_ShapeTanimoto>
0.300 

> <ROCS_ColorTanimoto>
0.175 

> <ROCS_RefTversky>
0.266 

> <ROCS_RefColorTversky>
0.204 

> <ROCS_RefTverskyCombo>
0.471 

> <ROCS_FitTversky>
1.725 

> <ROCS_FitColorTversky>
0.548 

> <ROCS_FitTverskyCombo>
2.273 

> <ROCS_ColorScore>
-6.262

> <ROCS_Overlap>
1846.210

> <ROCS_Rank>
465                 

$$$$
untitled-dbase-45699_22
  -OEChem-11132313473D

 34 35  0     0  0  0  0  0  0999 V2000
    6.4373   11.7709   26.2735 C   0  0  0  0  0  0  0  0  0  0  0  0
    6.8521   10.6710   25.5388 C   0  0  0  0  0  0  0  0  0  0  0  0
    7.1095   12.9595   26.0768 C   0  0  0  0  0  0  0  0  0  0  0  0
    7.9121   10.8006   24.6357 C   0  0  0  0  0  0  0  0  0  0  0  0
    8.5326   12.0430   24.4734 C   0  0  0  0  0  0  0  0  0  0  0  0
    8.3909    9.6027   23.9164 C   0  0  0  0  0  0  0  0  0  0  0  0
   10.2691   13.4355   23.3866 C   0  0  0  0  0  0  0  0  0  0  0  0
    9.6924    9.7395   23.1821 C   0  0  0  0  0  0  0  0  0  0  0  0
    9.8058   11.1129   22.5541 C   0  0  0  0  0  0  0  0  0  0  0  0
   12.9585   13.7410   22.4425 C   0  0  0  0  0  0  0  0  0  0  0  0
   11.9251   14.7211   20.3735 C   0  0  0  0  0  0  0  0  0  0  0  0
   11.5995   15.8542   22.5912 C   0  0  0  0  0  0  0  0  0  0  0  0
   11.7668   14.5132   21.8781 C   0  0  0  0  0  0  0  0  0  0  0  0
    8.1333   13.1145   25.2070 N   0  0  0  0  0  0  0  0  0  0  0  0
    9.5832   12.2102   23.5037 N   0  0  0  0  0  0  0  0  0  0  0  0
    7.7865    8.5378   23.9786 O   0  0  0  0  0  0  0  0  0  0  0  0
   10.5709   14.1774   24.3195 O   0  0  0  0  0  0  0  0  0  0  0  0
   10.5811   13.7360   22.0841 O   0  0  0  0  0  0  0  0  0  0  0  0
    5.6094   11.7010   26.9692 H   0  0  0  0  0  0  0  0  0  0  0  0
    6.3313    9.7262   25.6687 H   0  0  0  0  0  0  0  0  0  0  0  0
    6.8393   13.8510   26.6328 H   0  0  0  0  0  0  0  0  0  0  0  0
   10.5129    9.5981   23.8937 H   0  0  0  0  0  0  0  0  0  0  0  0
    9.7529    8.9496   22.4256 H   0  0  0  0  0  0  0  0  0  0  0  0
   10.8094   11.2629   22.1356 H   0  0  0  0  0  0  0  0  0  0  0  0
    9.0992   11.1742   21.7206 H   0  0  0  0  0  0  0  0  0  0  0  0
   12.8487   13.5897   23.5223 H   0  0  0  0  0  0  0  0  0  0  0  0
   13.0685   12.7626   21.9636 H   0  0  0  0  0  0  0  0  0  0  0  0
   13.8897   14.3017   22.3020 H   0  0  0  0  0  0  0  0  0  0  0  0
   11.0722   15.2748   19.9643 H   0  0  0  0  0  0  0  0  0  0  0  0
   11.9503   13.7601   19.8472 H   0  0  0  0  0  0  0  0  0  0  0  0
   12.8415   15.2708   20.1357 H   0  0  0  0  0  0  0  0  0  0  0  0
   10.7448   16.4083   22.1866 H   0  0  0  0  0  0  0  0  0  0  0  0
   11.4478   15.7226   23.6674 H   0  0  0  0  0  0  0  0  0  0  0  0
   12.4797   16.4892   22.4387 H   0  0  0  0  0  0  0  0  0  0  0  0
  1  2  1  0  0  0  0
  1  3  2  0  0  0  0
  2  4  2  0  0  0  0
  3 14  1  0  0  0  0
  4  5  1  0  0  0  0
  4  6  1  0  0  0  0
  5 14  2  0  0  0  0
  5 15  1  0  0  0  0
  6  8  1  0  0  0  0
  6 16  2  0  0  0  0
  7 15  1  0  0  0  0
  7 17  2  0  0  0  0
  7 18  1  0  0  0  0
  8  9  1  0  0  0  0
  9 15  1  0  0  0  0
 10 13  1  0  0  0  0
 11 13  1  0  0  0  0
 12 13  1  0  0  0  0
 13 18  1  0  0  0  0
  1 19  1  0  0  0  0
  2 20  1  0  0  0  0
  3 21  1  0  0  0  0
  8 22  1  0  0  0  0
  8 23  1  0  0  0  0
  9 24  1  0  0  0  0
  9 25  1  0  0  0  0
 10 26  1  0  0  0  0
 10 27  1  0  0  0  0
 10 28  1  0  0  0  0
 11 29  1  0  0  0  0
 11 30  1  0  0  0  0
 11 31  1  0  0  0  0
 12 32  1  0  0  0  0
 12 33  1  0  0  0  0
 12 34  1  0  0  0  0
M  END
> <id>
EN300-6748827

> <smiles>
CC(C)(C)OC(=O)N1CCC(=O)C=2C=CC=NC12

> <IUPAC Name>
tert-butyl 4-oxo-1,2,3,4-tetrahydro-1,8-naphthyridine-1-carboxylate

> <CAS>
2680783-34-8

> <URL>
https://www.enaminestore.com/catalog/EN300-6748827

> <ROCS_ShapeQuery>
A71EV2A-x0451_0A_A71EV2A-x0310_0A_A71EV2A-x0416_0A_peptide

> <ROCS_TanimotoCombo>
0.475 

> <ROCS_ShapeTanimoto>
0.346 

> <ROCS_ColorTanimoto>
0.129 

> <ROCS_RefTversky>
0.299 

> <ROCS_RefColorTversky>
0.142 

> <ROCS_RefTverskyCombo>
0.441 

> <ROCS_FitTversky>
1.822 

> <ROCS_FitColorTversky>
0.591 

> <ROCS_FitTverskyCombo>
2.413 

> <ROCS_ColorScore>
-4.310

> <ROCS_Overlap>
2074.409

> <ROCS_Rank>
466                 

$$$$
untitled-dbase-12096_26
  -OEChem-11132313473D

 51 53  0     1  0  0  0  0  0999 V2000
   10.4010   13.2204   23.9966 C   0  0  0  0  0  0  0  0  0  0  0  0
   11.0810    8.6596   22.7461 C   0  0  0  0  0  0  0  0  0  0  0  0
   10.2993    8.8568   21.4480 C   0  0  0  0  0  0  0  0  0  0  0  0
    6.4927   11.9606   26.2088 C   0  0  0  0  0  0  0  0  0  0  0  0
    7.4752   13.1265   26.0429 C   0  0  0  0  0  0  0  0  0  0  0  0
    6.3537   11.0442   24.9916 C   0  0  0  0  0  0  0  0  0  0  0  0
   10.5217    9.6642   23.7583 C   0  0  0  0  0  0  0  0  0  0  0  0
    9.5451   10.1702   21.6184 C   0  0  0  0  0  0  0  0  0  0  0  0
    8.9508   12.7132   25.9330 C   0  0  0  0  0  0  0  0  0  0  0  0
    7.7087   10.4834   24.6036 C   0  0  2  0  0  0  0  0  0  0  0  0
    8.5637   11.4763   23.7432 C   0  0  2  0  0  0  0  0  0  0  0  0
    7.8271    9.5111   23.4085 C   0  0  1  0  0  0  0  0  0  0  0  0
    9.2303   10.1883   23.1173 C   0  0  0  0  0  0  0  0  0  0  0  0
   13.1757   13.7080   23.4950 C   0  0  0  0  0  0  0  0  0  0  0  0
   12.8528   12.3191   21.4271 C   0  0  0  0  0  0  0  0  0  0  0  0
   11.5826   14.4685   21.7010 C   0  0  0  0  0  0  0  0  0  0  0  0
   12.1820   13.2626   22.4231 C   0  0  0  0  0  0  0  0  0  0  0  0
    9.3745   12.4378   24.5506 N   0  0  0  0  0  0  0  0  0  0  0  0
    7.9642    8.1430   23.8941 N   0  0  0  0  0  0  0  0  0  0  0  0
   10.6302   14.3902   24.2971 O   0  0  0  0  0  0  0  0  0  0  0  0
   11.1220   12.5378   23.0574 O   0  0  0  0  0  0  0  0  0  0  0  0
   10.9412    7.6220   23.1173 H   0  0  0  0  0  0  0  0  0  0  0  0
   12.1725    8.7914   22.5962 H   0  0  0  0  0  0  0  0  0  0  0  0
   11.0012    8.9242   20.6010 H   0  0  0  0  0  0  0  0  0  0  0  0
    9.6230    8.0138   21.2391 H   0  0  0  0  0  0  0  0  0  0  0  0
    6.7941   11.3647   27.0796 H   0  0  0  0  0  0  0  0  0  0  0  0
    5.5028   12.3706   26.4432 H   0  0  0  0  0  0  0  0  0  0  0  0
    7.1851   13.7571   25.1936 H   0  0  0  0  0  0  0  0  0  0  0  0
    7.3768   13.7582   26.9357 H   0  0  0  0  0  0  0  0  0  0  0  0
    5.6743   10.2230   25.2476 H   0  0  0  0  0  0  0  0  0  0  0  0
    5.8947   11.5890   24.1587 H   0  0  0  0  0  0  0  0  0  0  0  0
   10.3944    9.2143   24.7508 H   0  0  0  0  0  0  0  0  0  0  0  0
   11.2579   10.4727   23.8756 H   0  0  0  0  0  0  0  0  0  0  0  0
   10.1375   11.0187   21.2906 H   0  0  0  0  0  0  0  0  0  0  0  0
    8.6319   10.1339   21.0255 H   0  0  0  0  0  0  0  0  0  0  0  0
    9.5588   13.5310   26.3343 H   0  0  0  0  0  0  0  0  0  0  0  0
    9.1768   11.8343   26.5456 H   0  0  0  0  0  0  0  0  0  0  0  0
    8.2314   10.1033   25.4981 H   0  0  0  0  0  0  0  0  0  0  0  0
    7.9599   12.0387   23.0169 H   0  0  0  0  0  0  0  0  0  0  0  0
    7.0675    9.6419   22.6329 H   0  0  0  0  0  0  0  0  0  0  0  0
   12.6981   14.3854   24.2118 H   0  0  0  0  0  0  0  0  0  0  0  0
   13.5866   12.8544   24.0438 H   0  0  0  0  0  0  0  0  0  0  0  0
   14.0074   14.2658   23.0495 H   0  0  0  0  0  0  0  0  0  0  0  0
   12.1434   11.9970   20.6563 H   0  0  0  0  0  0  0  0  0  0  0  0
   13.2008   11.4077   21.9265 H   0  0  0  0  0  0  0  0  0  0  0  0
   13.7082   12.7930   20.9349 H   0  0  0  0  0  0  0  0  0  0  0  0
   10.8697   14.1493   20.9321 H   0  0  0  0  0  0  0  0  0  0  0  0
   11.0650   15.1381   22.3955 H   0  0  0  0  0  0  0  0  0  0  0  0
   12.3617   15.0390   21.1826 H   0  0  0  0  0  0  0  0  0  0  0  0
    7.0931    7.8566   24.2767 H   0  0  0  0  0  0  0  0  0  0  0  0
    8.2159    7.5622   23.1282 H   0  0  0  0  0  0  0  0  0  0  0  0
  1 18  1  0  0  0  0
  1 20  2  0  0  0  0
  1 21  1  0  0  0  0
  2  3  1  0  0  0  0
  2  7  1  0  0  0  0
  3  8  1  0  0  0  0
  4  5  1  0  0  0  0
  4  6  1  0  0  0  0
  5  9  1  0  0  0  0
  6 10  1  0  0  0  0
  7 13  1  0  0  0  0
  8 13  1  0  0  0  0
  9 18  1  0  0  0  0
 10 11  1  0  0  0  0
 10 12  1  0  0  0  0
 11 13  1  0  0  0  0
 11 18  1  0  0  0  0
 12 13  1  0  0  0  0
 12 19  1  0  0  0  0
 14 17  1  0  0  0  0
 15 17  1  0  0  0  0
 16 17  1  0  0  0  0
 17 21  1  0  0  0  0
  2 22  1  0  0  0  0
  2 23  1  0  0  0  0
  3 24  1  0  0  0  0
  3 25  1  0  0  0  0
  4 26  1  0  0  0  0
  4 27  1  0  0  0  0
  5 28  1  0  0  0  0
  5 29  1  0  0  0  0
  6 30  1  0  0  0  0
  6 31  1  0  0  0  0
  7 32  1  0  0  0  0
  7 33  1  0  0  0  0
  8 34  1  0  0  0  0
  8 35  1  0  0  0  0
  9 36  1  0  0  0  0
  9 37  1  0  0  0  0
 10 38  1  0  0  0  0
 11 39  1  0  0  0  0
 12 40  1  0  0  0  0
 14 41  1  0  0  0  0
 14 42  1  0  0  0  0
 14 43  1  0  0  0  0
 15 44  1  0  0  0  0
 15 45  1  0  0  0  0
 15 46  1  0  0  0  0
 16 47  1  0  0  0  0
 16 48  1  0  0  0  0
 16 49  1  0  0  0  0
 19 50  1  0  0  0  0
 19 51  1  0  0  0  0
M  END
> <id>
EN300-701141

> <smiles>
CC(C)(C)OC(=O)N1CCCCC2C(N)C3(CCCC3)C21

> <IUPAC Name>
tert-butyl 9-amino-6-azaspiro[bicyclo[5.2.0]nonane-8,1'-cyclopentane]-6-carboxylate

> <CAS>
2137735-28-3

> <URL>
https://www.enaminestore.com/catalog/EN300-701141

> <ROCS_ShapeQuery>
A71EV2A-x0451_0A_A71EV2A-x0310_0A_A71EV2A-x0416_0A_peptide

> <ROCS_TanimotoCombo>
0.475 

> <ROCS_ShapeTanimoto>
0.331 

> <ROCS_ColorTanimoto>
0.144 

> <ROCS_RefTversky>
0.293 

> <ROCS_RefColorTversky>
0.160 

> <ROCS_RefTverskyCombo>
0.453 

> <ROCS_FitTversky>
1.648 

> <ROCS_FitColorTversky>
0.589 

> <ROCS_FitTverskyCombo>
2.236 

> <ROCS_ColorScore>
-4.863

> <ROCS_Overlap>
2033.864

> <ROCS_Rank>
467                 

$$$$
untitled-dbase-45655_354
  -OEChem-11132313473D

 45 47  0     0  0  0  0  0  0999 V2000
    6.5378   13.1294   25.4345 C   0  0  0  0  0  0  0  0  0  0  0  0
    7.4553   13.3472   24.4112 C   0  0  0  0  0  0  0  0  0  0  0  0
    6.4119   11.8426   25.9346 C   0  0  0  0  0  0  0  0  0  0  0  0
    8.2146   12.2860   23.9308 C   0  0  0  0  0  0  0  0  0  0  0  0
    7.9974   11.0379   24.4880 C   0  0  0  0  0  0  0  0  0  0  0  0
    8.7218    9.8778   23.9576 C   0  0  0  0  0  0  0  0  0  0  0  0
   11.9822   15.1654   22.3392 C   0  0  0  0  0  0  0  0  0  0  0  0
    9.5884   10.1377   22.7541 C   0  0  0  0  0  0  0  0  0  0  0  0
   11.2343   11.7615   23.8647 C   0  0  0  0  0  0  0  0  0  0  0  0
   10.7972   11.8607   21.3874 C   0  0  0  0  0  0  0  0  0  0  0  0
   11.7456   13.2043   23.8877 C   0  0  0  0  0  0  0  0  0  0  0  0
   11.9618   12.8566   21.4349 C   0  0  0  0  0  0  0  0  0  0  0  0
   10.1598   11.5640   22.7712 C   0  0  0  0  0  0  0  0  0  0  0  0
   14.4075   15.7263   21.5118 C   0  0  0  0  0  0  0  0  0  0  0  0
   13.5451   15.7669   19.1530 C   0  0  0  0  0  0  0  0  0  0  0  0
   13.0233   17.6687   20.7083 C   0  0  0  0  0  0  0  0  0  0  0  0
   13.2616   16.1633   20.6003 C   0  0  0  0  0  0  0  0  0  0  0  0
    7.1196   10.7833   25.4835 N   0  0  0  0  0  0  0  0  0  0  0  0
   11.8589   13.7889   22.5497 N   0  0  0  0  0  0  0  0  0  0  0  0
    8.5652    8.7633   24.4407 O   0  0  0  0  0  0  0  0  0  0  0  0
   12.0075   16.0069   23.2350 O   0  0  0  0  0  0  0  0  0  0  0  0
    9.1075   12.5413   22.9342 O   0  0  0  0  0  0  0  0  0  0  0  0
   12.0696   15.4825   21.0086 O   0  0  0  0  0  0  0  0  0  0  0  0
    5.9408   13.9432   25.8303 H   0  0  0  0  0  0  0  0  0  0  0  0
    7.5787   14.3459   24.0019 H   0  0  0  0  0  0  0  0  0  0  0  0
    5.7118   11.6238   26.7342 H   0  0  0  0  0  0  0  0  0  0  0  0
   10.3975    9.3976   22.7324 H   0  0  0  0  0  0  0  0  0  0  0  0
    8.9536    9.9809   21.8721 H   0  0  0  0  0  0  0  0  0  0  0  0
   12.0776   11.0884   23.6860 H   0  0  0  0  0  0  0  0  0  0  0  0
   10.8382   11.5315   24.8560 H   0  0  0  0  0  0  0  0  0  0  0  0
   10.0312   12.2694   20.7073 H   0  0  0  0  0  0  0  0  0  0  0  0
   11.1519   10.9212   20.9301 H   0  0  0  0  0  0  0  0  0  0  0  0
   11.0632   13.8486   24.4658 H   0  0  0  0  0  0  0  0  0  0  0  0
   12.7173   13.2402   24.4046 H   0  0  0  0  0  0  0  0  0  0  0  0
   12.9089   12.2967   21.4649 H   0  0  0  0  0  0  0  0  0  0  0  0
   11.9903   13.4574   20.5105 H   0  0  0  0  0  0  0  0  0  0  0  0
   14.2078   16.0090   22.5516 H   0  0  0  0  0  0  0  0  0  0  0  0
   14.5658   14.6437   21.4701 H   0  0  0  0  0  0  0  0  0  0  0  0
   15.3426   16.2239   21.2303 H   0  0  0  0  0  0  0  0  0  0  0  0
   12.7255   16.0785   18.4955 H   0  0  0  0  0  0  0  0  0  0  0  0
   13.6229   14.6781   19.0547 H   0  0  0  0  0  0  0  0  0  0  0  0
   14.4739   16.2154   18.7858 H   0  0  0  0  0  0  0  0  0  0  0  0
   12.2014   17.9824   20.0546 H   0  0  0  0  0  0  0  0  0  0  0  0
   12.7820   17.9663   21.7339 H   0  0  0  0  0  0  0  0  0  0  0  0
   13.9081   18.2276   20.3826 H   0  0  0  0  0  0  0  0  0  0  0  0
  1  2  1  0  0  0  0
  1  3  2  0  0  0  0
  2  4  2  0  0  0  0
  3 18  1  0  0  0  0
  4  5  1  0  0  0  0
  4 22  1  0  0  0  0
  5  6  1  0  0  0  0
  5 18  2  0  0  0  0
  6  8  1  0  0  0  0
  6 20  2  0  0  0  0
  7 19  1  0  0  0  0
  7 21  2  0  0  0  0
  7 23  1  0  0  0  0
  8 13  1  0  0  0  0
  9 11  1  0  0  0  0
  9 13  1  0  0  0  0
 10 12  1  0  0  0  0
 10 13  1  0  0  0  0
 11 19  1  0  0  0  0
 12 19  1  0  0  0  0
 13 22  1  0  0  0  0
 14 17  1  0  0  0  0
 15 17  1  0  0  0  0
 16 17  1  0  0  0  0
 17 23  1  0  0  0  0
  1 24  1  0  0  0  0
  2 25  1  0  0  0  0
  3 26  1  0  0  0  0
  8 27  1  0  0  0  0
  8 28  1  0  0  0  0
  9 29  1  0  0  0  0
  9 30  1  0  0  0  0
 10 31  1  0  0  0  0
 10 32  1  0  0  0  0
 11 33  1  0  0  0  0
 11 34  1  0  0  0  0
 12 35  1  0  0  0  0
 12 36  1  0  0  0  0
 14 37  1  0  0  0  0
 14 38  1  0  0  0  0
 14 39  1  0  0  0  0
 15 40  1  0  0  0  0
 15 41  1  0  0  0  0
 15 42  1  0  0  0  0
 16 43  1  0  0  0  0
 16 44  1  0  0  0  0
 16 45  1  0  0  0  0
M  END
> <id>
EN300-6496398

> <smiles>
CC(C)(C)OC(=O)N1CCC2(CC1)CC(=O)C=3N=CC=CC3O2

> <MDLNUMBER>
MFCD16660828

> <IUPAC Name>
tert-butyl 4'-oxo-3',4'-dihydrospiro[piperidine-4,2'-pyrano[3,2-b]pyridine]-1-carboxylate

> <CAS>
1051383-43-7

> <URL>
https://www.enaminestore.com/catalog/EN300-6496398

> <ROCS_ShapeQuery>
A71EV2A-x0451_0A_A71EV2A-x0310_0A_A71EV2A-x0416_0A_peptide

> <ROCS_TanimotoCombo>
0.475 

> <ROCS_ShapeTanimoto>
0.357 

> <ROCS_ColorTanimoto>
0.118 

> <ROCS_RefTversky>
0.314 

> <ROCS_RefColorTversky>
0.137 

> <ROCS_RefTverskyCombo>
0.452 

> <ROCS_FitTversky>
1.605 

> <ROCS_FitColorTversky>
0.456 

> <ROCS_FitTverskyCombo>
2.061 

> <ROCS_ColorScore>
-4.196

> <ROCS_Overlap>
2183.999

> <ROCS_Rank>
468                 

$$$$
untitled-dbase-12197_24
  -OEChem-11132313473D

 40 41  0     0  0  0  0  0  0999 V2000
    8.7729    8.5701   22.9327 C   0  0  0  0  0  0  0  0  0  0  0  0
    8.6931    7.4371   22.5421 C   0  0  0  0  0  0  0  0  0  0  0  0
    6.8274   12.3770   26.0995 C   0  0  0  0  0  0  0  0  0  0  0  0
    6.3383   11.0821   25.9834 C   0  0  0  0  0  0  0  0  0  0  0  0
    7.9296   12.8002   25.3497 C   0  0  0  0  0  0  0  0  0  0  0  0
    9.8169   10.8069   22.9644 C   0  0  0  0  0  0  0  0  0  0  0  0
    8.8683    9.9141   23.3964 C   0  0  0  0  0  0  0  0  0  0  0  0
    8.0553   10.5782   24.3446 C   0  0  0  0  0  0  0  0  0  0  0  0
    6.9422   10.1742   25.1112 C   0  0  0  0  0  0  0  0  0  0  0  0
    8.5406   11.8872   24.4687 C   0  0  0  0  0  0  0  0  0  0  0  0
   10.4162   13.1718   23.4188 C   0  0  0  0  0  0  0  0  0  0  0  0
    6.3628    8.7950   25.0387 C   0  0  0  0  0  0  0  0  0  0  0  0
   13.1987   13.1378   22.8636 C   0  0  0  0  0  0  0  0  0  0  0  0
   12.5499   13.7882   20.5259 C   0  0  0  0  0  0  0  0  0  0  0  0
   12.0098   15.3162   22.4447 C   0  0  0  0  0  0  0  0  0  0  0  0
    8.5937    6.0581   22.0657 C   0  0  0  0  0  0  0  0  0  0  0  0
   12.1654   13.8620   22.0020 C   0  0  0  0  0  0  0  0  0  0  0  0
    9.6347   12.0193   23.6069 N   0  0  0  0  0  0  0  0  0  0  0  0
   10.5853   13.9828   24.3143 O   0  0  0  0  0  0  0  0  0  0  0  0
    9.8653    5.4303   22.1474 O   0  0  0  0  0  0  0  0  0  0  0  0
   10.9046   13.2026   22.1525 O   0  0  0  0  0  0  0  0  0  0  0  0
    6.3483   13.0734   26.7829 H   0  0  0  0  0  0  0  0  0  0  0  0
    5.4801   10.7834   26.5802 H   0  0  0  0  0  0  0  0  0  0  0  0
    8.2878   13.8174   25.4627 H   0  0  0  0  0  0  0  0  0  0  0  0
   10.6139   10.6726   22.2439 H   0  0  0  0  0  0  0  0  0  0  0  0
    5.5872    8.7535   24.2673 H   0  0  0  0  0  0  0  0  0  0  0  0
    7.1365    8.0566   24.8017 H   0  0  0  0  0  0  0  0  0  0  0  0
    5.9221    8.5040   25.9986 H   0  0  0  0  0  0  0  0  0  0  0  0
   12.9263   13.1885   23.9239 H   0  0  0  0  0  0  0  0  0  0  0  0
   13.2945   12.0848   22.5792 H   0  0  0  0  0  0  0  0  0  0  0  0
   14.1832   13.6112   22.7744 H   0  0  0  0  0  0  0  0  0  0  0  0
   11.8112   14.3066   19.9039 H   0  0  0  0  0  0  0  0  0  0  0  0
   12.5701   12.7486   20.1793 H   0  0  0  0  0  0  0  0  0  0  0  0
   13.5325   14.2343   20.3415 H   0  0  0  0  0  0  0  0  0  0  0  0
   11.2686   15.8359   21.8267 H   0  0  0  0  0  0  0  0  0  0  0  0
   11.6981   15.3879   23.4917 H   0  0  0  0  0  0  0  0  0  0  0  0
   12.9517   15.8633   22.3235 H   0  0  0  0  0  0  0  0  0  0  0  0
    7.8855    5.4882   22.6747 H   0  0  0  0  0  0  0  0  0  0  0  0
    8.2601    6.0317   21.0239 H   0  0  0  0  0  0  0  0  0  0  0  0
   10.4688    5.9441   21.5865 H   0  0  0  0  0  0  0  0  0  0  0  0
  1  2  3  0  0  0  0
  1  7  1  0  0  0  0
  2 16  1  0  0  0  0
  3  4  1  0  0  0  0
  3  5  2  0  0  0  0
  4  9  2  0  0  0  0
  5 10  1  0  0  0  0
  6  7  2  0  0  0  0
  6 18  1  0  0  0  0
  7  8  1  0  0  0  0
  8  9  1  0  0  0  0
  8 10  2  0  0  0  0
  9 12  1  0  0  0  0
 10 18  1  0  0  0  0
 11 18  1  0  0  0  0
 11 19  2  0  0  0  0
 11 21  1  0  0  0  0
 13 17  1  0  0  0  0
 14 17  1  0  0  0  0
 15 17  1  0  0  0  0
 16 20  1  0  0  0  0
 17 21  1  0  0  0  0
  3 22  1  0  0  0  0
  4 23  1  0  0  0  0
  5 24  1  0  0  0  0
  6 25  1  0  0  0  0
 12 26  1  0  0  0  0
 12 27  1  0  0  0  0
 12 28  1  0  0  0  0
 13 29  1  0  0  0  0
 13 30  1  0  0  0  0
 13 31  1  0  0  0  0
 14 32  1  0  0  0  0
 14 33  1  0  0  0  0
 14 34  1  0  0  0  0
 15 35  1  0  0  0  0
 15 36  1  0  0  0  0
 15 37  1  0  0  0  0
 16 38  1  0  0  0  0
 16 39  1  0  0  0  0
 20 40  1  0  0  0  0
M  END
> <id>
EN300-697692

> <smiles>
CC=1C=CC=C2N(C=C(C#CCO)C12)C(=O)OC(C)(C)C

> <MDLNUMBER>
MFCD31431493

> <IUPAC Name>
tert-butyl 3-(3-hydroxyprop-1-yn-1-yl)-4-methyl-1H-indole-1-carboxylate

> <CAS>
2137730-38-0

> <URL>
https://www.enaminestore.com/catalog/EN300-697692

> <ROCS_ShapeQuery>
A71EV2A-x0451_0A_A71EV2A-x0310_0A_A71EV2A-x0416_0A_peptide

> <ROCS_TanimotoCombo>
0.475 

> <ROCS_ShapeTanimoto>
0.344 

> <ROCS_ColorTanimoto>
0.131 

> <ROCS_RefTversky>
0.302 

> <ROCS_RefColorTversky>
0.143 

> <ROCS_RefTverskyCombo>
0.446 

> <ROCS_FitTversky>
1.668 

> <ROCS_FitColorTversky>
0.598 

> <ROCS_FitTverskyCombo>
2.266 

> <ROCS_ColorScore>
-4.365

> <ROCS_Overlap>
2098.138

> <ROCS_Rank>
469                 

$$$$
untitled-dbase-22614_14
  -OEChem-11132313473D

 31 32  0     0  0  0  0  0  0999 V2000
    6.8193   12.3849   26.0812 C   0  0  0  0  0  0  0  0  0  0  0  0
    7.9281   12.8023   25.3377 C   0  0  0  0  0  0  0  0  0  0  0  0
    6.3274   11.0909   25.9662 C   0  0  0  0  0  0  0  0  0  0  0  0
    9.8264   10.7953   22.9729 C   0  0  0  0  0  0  0  0  0  0  0  0
    8.0545   10.5764   24.3413 C   0  0  0  0  0  0  0  0  0  0  0  0
    8.5426   11.8845   24.4643 C   0  0  0  0  0  0  0  0  0  0  0  0
    6.9349   10.1783   25.1015 C   0  0  0  0  0  0  0  0  0  0  0  0
    8.8723    9.9067   23.4013 C   0  0  0  0  0  0  0  0  0  0  0  0
   10.4293   13.1600   23.4232 C   0  0  0  0  0  0  0  0  0  0  0  0
   12.1443   15.2270   22.5077 C   0  0  0  0  0  0  0  0  0  0  0  0
   11.7069   14.3153   20.2084 C   0  0  0  0  0  0  0  0  0  0  0  0
    9.8071   15.2288   21.5738 C   0  0  0  0  0  0  0  0  0  0  0  0
   11.1444   14.4908   21.6173 C   0  0  0  0  0  0  0  0  0  0  0  0
    9.6432   12.0104   23.6098 N   0  0  0  0  0  0  0  0  0  0  0  0
   10.5943   13.9737   24.3170 O   0  0  0  0  0  0  0  0  0  0  0  0
   10.9266   13.1850   22.1602 O   0  0  0  0  0  0  0  0  0  0  0  0
    6.4377    8.9371   25.0128 F   0  0  0  0  0  0  0  0  0  0  0  0
    8.7270    7.9681   22.7448 I   0  0  0  0  0  0  0  0  0  0  0  0
    6.3366   13.0851   26.7582 H   0  0  0  0  0  0  0  0  0  0  0  0
    8.2881   13.8190   25.4495 H   0  0  0  0  0  0  0  0  0  0  0  0
    5.4650   10.7853   26.5519 H   0  0  0  0  0  0  0  0  0  0  0  0
   10.6287   10.6585   22.2589 H   0  0  0  0  0  0  0  0  0  0  0  0
   11.7442   15.3550   23.5199 H   0  0  0  0  0  0  0  0  0  0  0  0
   13.0960   14.6899   22.5753 H   0  0  0  0  0  0  0  0  0  0  0  0
   12.3419   16.2344   22.1238 H   0  0  0  0  0  0  0  0  0  0  0  0
   10.9928   13.7875   19.5661 H   0  0  0  0  0  0  0  0  0  0  0  0
   12.6171   13.7049   20.2248 H   0  0  0  0  0  0  0  0  0  0  0  0
   11.9438   15.2785   19.7451 H   0  0  0  0  0  0  0  0  0  0  0  0
    9.0897   14.7009   20.9352 H   0  0  0  0  0  0  0  0  0  0  0  0
    9.3704   15.3314   22.5725 H   0  0  0  0  0  0  0  0  0  0  0  0
    9.9278   16.2289   21.1421 H   0  0  0  0  0  0  0  0  0  0  0  0
  1  2  1  0  0  0  0
  1  3  2  0  0  0  0
  2  6  2  0  0  0  0
  3  7  1  0  0  0  0
  4  8  2  0  0  0  0
  4 14  1  0  0  0  0
  5  6  1  0  0  0  0
  5  7  2  0  0  0  0
  5  8  1  0  0  0  0
  6 14  1  0  0  0  0
  7 17  1  0  0  0  0
  8 18  1  0  0  0  0
  9 14  1  0  0  0  0
  9 15  2  0  0  0  0
  9 16  1  0  0  0  0
 10 13  1  0  0  0  0
 11 13  1  0  0  0  0
 12 13  1  0  0  0  0
 13 16  1  0  0  0  0
  1 19  1  0  0  0  0
  2 20  1  0  0  0  0
  3 21  1  0  0  0  0
  4 22  1  0  0  0  0
 10 23  1  0  0  0  0
 10 24  1  0  0  0  0
 10 25  1  0  0  0  0
 11 26  1  0  0  0  0
 11 27  1  0  0  0  0
 11 28  1  0  0  0  0
 12 29  1  0  0  0  0
 12 30  1  0  0  0  0
 12 31  1  0  0  0  0
M  END
> <id>
EN300-7354327

> <smiles>
CC(C)(C)OC(=O)N1C=C(I)C=2C(F)=CC=CC12

> <MDLNUMBER>
MFCD31807447

> <IUPAC Name>
tert-butyl 4-fluoro-3-iodo-1H-indole-1-carboxylate

> <CAS>
2408965-77-3

> <Purity>
95

> <URL>
https://www.enaminestore.com/catalog/EN300-7354327

> <ROCS_ShapeQuery>
A71EV2A-x0451_0A_A71EV2A-x0310_0A_A71EV2A-x0416_0A_peptide

> <ROCS_TanimotoCombo>
0.475 

> <ROCS_ShapeTanimoto>
0.340 

> <ROCS_ColorTanimoto>
0.135 

> <ROCS_RefTversky>
0.295 

> <ROCS_RefColorTversky>
0.144 

> <ROCS_RefTverskyCombo>
0.439 

> <ROCS_FitTversky>
1.811 

> <ROCS_FitColorTversky>
0.687 

> <ROCS_FitTverskyCombo>
2.498 

> <ROCS_ColorScore>
-4.364

> <ROCS_Overlap>
2045.748

> <ROCS_Rank>
470                 

$$$$
untitled-dbase-45197_77
  -OEChem-11132313473D

 36 37  0     0  0  0  0  0  0999 V2000
    6.9751   10.2719   25.9487 C   0  0  0  0  0  0  0  0  0  0  0  0
    7.0021   12.8804   25.1437 C   0  0  0  0  0  0  0  0  0  0  0  0
    7.7059   11.9609   24.3717 C   0  0  0  0  0  0  0  0  0  0  0  0
    7.6952   10.6336   24.8136 C   0  0  0  0  0  0  0  0  0  0  0  0
    6.3138   11.2737   26.6377 C   0  0  0  0  0  0  0  0  0  0  0  0
   10.8140   12.9950   23.5107 C   0  0  0  0  0  0  0  0  0  0  0  0
    8.4008   12.3830   23.1085 C   0  0  0  0  0  0  0  0  0  0  0  0
   10.1921   10.6638   22.9290 C   0  0  0  0  0  0  0  0  0  0  0  0
    9.7476    9.7993   24.1036 C   0  0  0  0  0  0  0  0  0  0  0  0
   12.6839   15.0795   22.9192 C   0  0  0  0  0  0  0  0  0  0  0  0
   13.8295   13.3850   21.4613 C   0  0  0  0  0  0  0  0  0  0  0  0
   11.4756   14.0921   20.9445 C   0  0  0  0  0  0  0  0  0  0  0  0
   12.4955   13.8350   22.0529 C   0  0  0  0  0  0  0  0  0  0  0  0
    6.3132   12.5726   26.2674 N   0  0  0  0  0  0  0  0  0  0  0  0
    9.8315   12.0663   23.1440 N   0  0  0  0  0  0  0  0  0  0  0  0
   10.6342   13.9188   24.3022 O   0  0  0  0  0  0  0  0  0  0  0  0
    8.3248    9.6291   24.1243 O   0  0  0  0  0  0  0  0  0  0  0  0
   12.0105   12.7723   22.8812 O   0  0  0  0  0  0  0  0  0  0  0  0
    5.4139   10.9287   28.0571 Cl  0  0  0  0  0  0  0  0  0  0  0  0
    6.9448    9.2395   26.2818 H   0  0  0  0  0  0  0  0  0  0  0  0
    6.9622   13.9304   24.8687 H   0  0  0  0  0  0  0  0  0  0  0  0
    7.9488   11.8745   22.2481 H   0  0  0  0  0  0  0  0  0  0  0  0
    8.2638   13.4559   22.9370 H   0  0  0  0  0  0  0  0  0  0  0  0
   11.2763   10.5777   22.8054 H   0  0  0  0  0  0  0  0  0  0  0  0
    9.7164   10.3363   21.9977 H   0  0  0  0  0  0  0  0  0  0  0  0
   10.1716    8.7968   23.9759 H   0  0  0  0  0  0  0  0  0  0  0  0
   10.1279   10.1764   25.0629 H   0  0  0  0  0  0  0  0  0  0  0  0
   11.7285   15.4057   23.3457 H   0  0  0  0  0  0  0  0  0  0  0  0
   13.3866   14.8978   23.7389 H   0  0  0  0  0  0  0  0  0  0  0  0
   13.0583   15.9187   22.3219 H   0  0  0  0  0  0  0  0  0  0  0  0
   13.6991   12.4924   20.8390 H   0  0  0  0  0  0  0  0  0  0  0  0
   14.5344   13.1085   22.2537 H   0  0  0  0  0  0  0  0  0  0  0  0
   14.2858   14.1703   20.8499 H   0  0  0  0  0  0  0  0  0  0  0  0
   11.3403   13.1995   20.3229 H   0  0  0  0  0  0  0  0  0  0  0  0
   10.5012   14.3804   21.3519 H   0  0  0  0  0  0  0  0  0  0  0  0
   11.8214   14.8867   20.2734 H   0  0  0  0  0  0  0  0  0  0  0  0
  1  4  2  0  0  0  0
  1  5  1  0  0  0  0
  2  3  2  0  0  0  0
  2 14  1  0  0  0  0
  3  4  1  0  0  0  0
  3  7  1  0  0  0  0
  4 17  1  0  0  0  0
  5 14  2  0  0  0  0
  5 19  1  0  0  0  0
  6 15  1  0  0  0  0
  6 16  2  0  0  0  0
  6 18  1  0  0  0  0
  7 15  1  0  0  0  0
  8  9  1  0  0  0  0
  8 15  1  0  0  0  0
  9 17  1  0  0  0  0
 10 13  1  0  0  0  0
 11 13  1  0  0  0  0
 12 13  1  0  0  0  0
 13 18  1  0  0  0  0
  1 20  1  0  0  0  0
  2 21  1  0  0  0  0
  7 22  1  0  0  0  0
  7 23  1  0  0  0  0
  8 24  1  0  0  0  0
  8 25  1  0  0  0  0
  9 26  1  0  0  0  0
  9 27  1  0  0  0  0
 10 28  1  0  0  0  0
 10 29  1  0  0  0  0
 10 30  1  0  0  0  0
 11 31  1  0  0  0  0
 11 32  1  0  0  0  0
 11 33  1  0  0  0  0
 12 34  1  0  0  0  0
 12 35  1  0  0  0  0
 12 36  1  0  0  0  0
M  END
> <id>
EN300-28286911

> <smiles>
CC(C)(C)OC(=O)N1CCOC=2C=C(Cl)N=CC2C1

> <IUPAC Name>
tert-butyl 8-chloro-2H,3H,4H,5H-pyrido[3,4-f][1,4]oxazepine-4-carboxylate

> <CAS>
2680765-50-6

> <URL>
https://www.enaminestore.com/catalog/EN300-28286911

> <ROCS_ShapeQuery>
A71EV2A-x0451_0A_A71EV2A-x0310_0A_A71EV2A-x0416_0A_peptide

> <ROCS_TanimotoCombo>
0.475 

> <ROCS_ShapeTanimoto>
0.323 

> <ROCS_ColorTanimoto>
0.152 

> <ROCS_RefTversky>
0.285 

> <ROCS_RefColorTversky>
0.163 

> <ROCS_RefTverskyCombo>
0.448 

> <ROCS_FitTversky>
1.697 

> <ROCS_FitColorTversky>
0.682 

> <ROCS_FitTverskyCombo>
2.378 

> <ROCS_ColorScore>
-4.968

> <ROCS_Overlap>
1978.011

> <ROCS_Rank>
471                 

$$$$
untitled-dbase-31631_419
  -OEChem-11132313473D

 44 45  0     0  0  0  0  0  0999 V2000
   10.6899   12.9644   23.6568 C   0  0  0  0  0  0  0  0  0  0  0  0
    6.5118   13.4655   24.5447 C   0  0  0  0  0  0  0  0  0  0  0  0
    5.7631   11.8711   26.3521 C   0  0  0  0  0  0  0  0  0  0  0  0
    6.9346   12.1664   23.8552 C   0  0  0  0  0  0  0  0  0  0  0  0
    6.8562   10.8539   26.0205 C   0  0  0  0  0  0  0  0  0  0  0  0
   10.1591   10.5591   23.3441 C   0  0  0  0  0  0  0  0  0  0  0  0
    9.0833   11.7582   25.1976 C   0  0  0  0  0  0  0  0  0  0  0  0
    8.8009    9.9864   22.9712 C   0  0  0  0  0  0  0  0  0  0  0  0
    6.1829   13.2967   26.0281 C   0  0  0  0  0  0  0  0  0  0  0  0
    7.7098   11.1944   24.7693 C   0  0  0  0  0  0  0  0  0  0  0  0
   13.1630   14.3445   23.2463 C   0  0  0  0  0  0  0  0  0  0  0  0
   13.0961   13.3903   20.9237 C   0  0  0  0  0  0  0  0  0  0  0  0
   11.2875   14.9584   21.6842 C   0  0  0  0  0  0  0  0  0  0  0  0
   12.2604   13.8607   22.1122 C   0  0  0  0  0  0  0  0  0  0  0  0
    9.9930   11.8221   24.0518 N   0  0  0  0  0  0  0  0  0  0  0  0
   10.5956   14.0588   24.2094 O   0  0  0  0  0  0  0  0  0  0  0  0
    7.9289    9.9311   24.1012 O   0  0  0  0  0  0  0  0  0  0  0  0
    5.1378   14.2018   26.3704 O   0  0  0  0  0  0  0  0  0  0  0  0
   11.5041   12.7379   22.5792 O   0  0  0  0  0  0  0  0  0  0  0  0
    7.3090   14.2227   24.4311 H   0  0  0  0  0  0  0  0  0  0  0  0
    5.6420   13.9052   24.0212 H   0  0  0  0  0  0  0  0  0  0  0  0
    4.8356   11.6194   25.8131 H   0  0  0  0  0  0  0  0  0  0  0  0
    5.5009   11.7960   27.4190 H   0  0  0  0  0  0  0  0  0  0  0  0
    6.0222   11.6749   23.4729 H   0  0  0  0  0  0  0  0  0  0  0  0
    7.5454   12.4157   22.9689 H   0  0  0  0  0  0  0  0  0  0  0  0
    7.5255   10.7547   26.9001 H   0  0  0  0  0  0  0  0  0  0  0  0
    6.3794    9.8600   25.9171 H   0  0  0  0  0  0  0  0  0  0  0  0
   10.7301    9.8408   23.9395 H   0  0  0  0  0  0  0  0  0  0  0  0
   10.7348   10.7824   22.4384 H   0  0  0  0  0  0  0  0  0  0  0  0
    8.9755   12.7907   25.5494 H   0  0  0  0  0  0  0  0  0  0  0  0
    9.5050   11.1733   26.0185 H   0  0  0  0  0  0  0  0  0  0  0  0
    8.3249   10.6317   22.2253 H   0  0  0  0  0  0  0  0  0  0  0  0
    8.8925    8.9945   22.5166 H   0  0  0  0  0  0  0  0  0  0  0  0
    7.0660   13.5706   26.6247 H   0  0  0  0  0  0  0  0  0  0  0  0
   12.5669   14.6830   24.1013 H   0  0  0  0  0  0  0  0  0  0  0  0
   13.8417   13.5555   23.5862 H   0  0  0  0  0  0  0  0  0  0  0  0
   13.7635   15.2044   22.9283 H   0  0  0  0  0  0  0  0  0  0  0  0
   12.4525   13.0423   20.1076 H   0  0  0  0  0  0  0  0  0  0  0  0
   13.7277   12.5393   21.2031 H   0  0  0  0  0  0  0  0  0  0  0  0
   13.7398   14.1889   20.5411 H   0  0  0  0  0  0  0  0  0  0  0  0
   10.6400   14.6117   20.8707 H   0  0  0  0  0  0  0  0  0  0  0  0
   10.6538   15.2826   22.5160 H   0  0  0  0  0  0  0  0  0  0  0  0
   11.8287   15.8300   21.2984 H   0  0  0  0  0  0  0  0  0  0  0  0
    4.9538   14.0699   27.3139 H   0  0  0  0  0  0  0  0  0  0  0  0
  1 15  1  0  0  0  0
  1 16  2  0  0  0  0
  1 19  1  0  0  0  0
  2  4  1  0  0  0  0
  2  9  1  0  0  0  0
  3  5  1  0  0  0  0
  3  9  1  0  0  0  0
  4 10  1  6  0  0  0
  5 10  1  0  0  0  0
  6  8  1  0  0  0  0
  6 15  1  0  0  0  0
  7 10  1  0  0  0  0
  7 15  1  0  0  0  0
  8 17  1  0  0  0  0
  9 18  1  1  0  0  0
 10 17  1  0  0  0  0
 11 14  1  0  0  0  0
 12 14  1  0  0  0  0
 13 14  1  0  0  0  0
 14 19  1  0  0  0  0
  2 20  1  0  0  0  0
  2 21  1  0  0  0  0
  3 22  1  0  0  0  0
  3 23  1  0  0  0  0
  4 24  1  0  0  0  0
  4 25  1  0  0  0  0
  5 26  1  0  0  0  0
  5 27  1  0  0  0  0
  6 28  1  0  0  0  0
  6 29  1  0  0  0  0
  7 30  1  0  0  0  0
  7 31  1  0  0  0  0
  8 32  1  0  0  0  0
  8 33  1  0  0  0  0
  9 34  1  0  0  0  0
 11 35  1  0  0  0  0
 11 36  1  0  0  0  0
 11 37  1  0  0  0  0
 12 38  1  0  0  0  0
 12 39  1  0  0  0  0
 12 40  1  0  0  0  0
 13 41  1  0  0  0  0
 13 42  1  0  0  0  0
 13 43  1  0  0  0  0
 18 44  1  0  0  0  0
M  END
> <id>
EN300-7562847

> <smiles>
CC(C)(C)OC(=O)N1CCO[C@]2(CC[C@@H](O)CC2)C1

> <IUPAC Name>
tert-butyl (6s,9s)-9-hydroxy-1-oxa-4-azaspiro[5.5]undecane-4-carboxylate

> <CAS>
2413900-56-6

> <URL>
https://www.enaminestore.com/catalog/EN300-7562847

> <ROCS_ShapeQuery>
A71EV2A-x0451_0A_A71EV2A-x0310_0A_A71EV2A-x0416_0A_peptide

> <ROCS_TanimotoCombo>
0.475 

> <ROCS_ShapeTanimoto>
0.313 

> <ROCS_ColorTanimoto>
0.161 

> <ROCS_RefTversky>
0.278 

> <ROCS_RefColorTversky>
0.176 

> <ROCS_RefTverskyCombo>
0.455 

> <ROCS_FitTversky>
1.677 

> <ROCS_FitColorTversky>
0.653 

> <ROCS_FitTverskyCombo>
2.330 

> <ROCS_ColorScore>
-5.377

> <ROCS_Overlap>
1929.288

> <ROCS_Rank>
472                 

$$$$
untitled-dbase-42474_23
  -OEChem-11132313473D

 38 39  0     1  0  0  0  0  0999 V2000
   10.4090   13.1822   23.4535 C   0  0  0  0  0  0  0  0  0  0  0  0
    7.2859   12.5630   24.4879 C   0  0  0  0  0  0  0  0  0  0  0  0
    7.0403   10.6538   26.0092 C   0  0  0  0  0  0  0  0  0  0  0  0
    9.4576   11.0620   22.6110 C   0  0  0  0  0  0  0  0  0  0  0  0
    9.1998    9.6798   23.1844 C   0  0  0  0  0  0  0  0  0  0  0  0
    8.6605   11.9708   24.7962 C   0  0  1  0  0  0  0  0  0  0  0  0
    8.3320   10.5312   25.1961 C   0  0  2  0  0  0  0  0  0  0  0  0
    6.3899   11.9757   25.5757 C   0  0  2  0  0  0  0  0  0  0  0  0
   12.2524   15.1930   22.5893 C   0  0  0  0  0  0  0  0  0  0  0  0
   11.9945   14.1850   20.3031 C   0  0  0  0  0  0  0  0  0  0  0  0
   10.0058   15.1985   21.4546 C   0  0  0  0  0  0  0  0  0  0  0  0
   11.3161   14.4366   21.6479 C   0  0  0  0  0  0  0  0  0  0  0  0
    9.5827   12.0707   23.6622 N   0  0  0  0  0  0  0  0  0  0  0  0
   10.5796   14.0820   24.2741 O   0  0  0  0  0  0  0  0  0  0  0  0
    8.0684    9.7183   24.0506 O   0  0  0  0  0  0  0  0  0  0  0  0
    5.0835   11.7661   25.0664 O   0  0  0  0  0  0  0  0  0  0  0  0
   11.0205   13.1608   22.2275 O   0  0  0  0  0  0  0  0  0  0  0  0
    7.3257   13.6492   24.5573 H   0  0  0  0  0  0  0  0  0  0  0  0
    6.9291   12.2950   23.4947 H   0  0  0  0  0  0  0  0  0  0  0  0
    6.3734    9.7930   25.8498 H   0  0  0  0  0  0  0  0  0  0  0  0
    7.2915   10.7082   27.0803 H   0  0  0  0  0  0  0  0  0  0  0  0
   10.3505   11.0552   21.9775 H   0  0  0  0  0  0  0  0  0  0  0  0
    8.6107   11.3719   21.9871 H   0  0  0  0  0  0  0  0  0  0  0  0
    8.9756    8.9780   22.3750 H   0  0  0  0  0  0  0  0  0  0  0  0
   10.0732    9.2956   23.7246 H   0  0  0  0  0  0  0  0  0  0  0  0
    9.0736   12.4868   25.6607 H   0  0  0  0  0  0  0  0  0  0  0  0
    9.1282   10.0614   25.7875 H   0  0  0  0  0  0  0  0  0  0  0  0
    6.3017   12.6710   26.4359 H   0  0  0  0  0  0  0  0  0  0  0  0
   11.7691   15.3756   23.5557 H   0  0  0  0  0  0  0  0  0  0  0  0
   13.1814   14.6406   22.7639 H   0  0  0  0  0  0  0  0  0  0  0  0
   12.5067   16.1774   22.1800 H   0  0  0  0  0  0  0  0  0  0  0  0
   11.3264   13.6425   19.6245 H   0  0  0  0  0  0  0  0  0  0  0  0
   12.8849   13.5578   20.4263 H   0  0  0  0  0  0  0  0  0  0  0  0
   12.2938   15.1208   19.8202 H   0  0  0  0  0  0  0  0  0  0  0  0
    9.3341   14.6561   20.7794 H   0  0  0  0  0  0  0  0  0  0  0  0
    9.4867   15.3559   22.4056 H   0  0  0  0  0  0  0  0  0  0  0  0
   10.1876   16.1750   20.9912 H   0  0  0  0  0  0  0  0  0  0  0  0
    4.5587   11.3945   25.7928 H   0  0  0  0  0  0  0  0  0  0  0  0
  1 13  1  0  0  0  0
  1 14  2  0  0  0  0
  1 17  1  0  0  0  0
  2  6  1  6  0  0  0
  2  8  1  0  0  0  0
  3  7  1  6  0  0  0
  3  8  1  0  0  0  0
  4  5  1  0  0  0  0
  4 13  1  0  0  0  0
  5 15  1  0  0  0  0
  6  7  1  0  0  0  0
  6 13  1  0  0  0  0
  7 15  1  0  0  0  0
  8 16  1  6  0  0  0
  9 12  1  0  0  0  0
 10 12  1  0  0  0  0
 11 12  1  0  0  0  0
 12 17  1  0  0  0  0
  2 18  1  0  0  0  0
  2 19  1  0  0  0  0
  3 20  1  0  0  0  0
  3 21  1  0  0  0  0
  4 22  1  0  0  0  0
  4 23  1  0  0  0  0
  5 24  1  0  0  0  0
  5 25  1  0  0  0  0
  6 26  1  0  0  0  0
  7 27  1  0  0  0  0
  8 28  1  0  0  0  0
  9 29  1  0  0  0  0
  9 30  1  0  0  0  0
  9 31  1  0  0  0  0
 10 32  1  0  0  0  0
 10 33  1  0  0  0  0
 10 34  1  0  0  0  0
 11 35  1  0  0  0  0
 11 36  1  0  0  0  0
 11 37  1  0  0  0  0
 16 38  1  0  0  0  0
M  END
> <id>
EN300-27718384

> <smiles>
CC(C)(C)OC(=O)N1CCO[C@@H]2C[C@H](O)C[C@@H]21 |&1:11,13,16,r|

> <IUPAC Name>
rac-tert-butyl (4aR,6S,7aS)-6-hydroxy-octahydrocyclopenta[b][1,4]oxazine-4-carboxylate

> <CAS>
2580099-17-6

> <URL>
https://www.enaminestore.com/catalog/EN300-27718384

> <ROCS_ShapeQuery>
A71EV2A-x0451_0A_A71EV2A-x0310_0A_A71EV2A-x0416_0A_peptide

> <ROCS_TanimotoCombo>
0.474 

> <ROCS_ShapeTanimoto>
0.314 

> <ROCS_ColorTanimoto>
0.161 

> <ROCS_RefTversky>
0.276 

> <ROCS_RefColorTversky>
0.176 

> <ROCS_RefTverskyCombo>
0.452 

> <ROCS_FitTversky>
1.776 

> <ROCS_FitColorTversky>
0.649 

> <ROCS_FitTverskyCombo>
2.425 

> <ROCS_ColorScore>
-5.368

> <ROCS_Overlap>
1912.585

> <ROCS_Rank>
473                 

$$$$
untitled-dbase-34338_175
  -OEChem-11132313473D

 48 50  0     1  0  0  0  0  0999 V2000
    6.4575   11.8904   25.6977 C   0  0  0  0  0  0  0  0  0  0  0  0
    7.8289   10.8638   24.4552 C   0  0  0  0  0  0  0  0  0  0  0  0
    8.2426   12.1756   24.4445 C   0  0  0  0  0  0  0  0  0  0  0  0
   12.9469   13.4008   24.0400 C   0  0  0  0  0  0  0  0  0  0  0  0
    8.5372    9.8096   23.7028 C   0  0  0  0  0  0  0  0  0  0  0  0
    9.0228   13.9561   22.8640 C   0  0  0  0  0  0  0  0  0  0  0  0
    9.9568   10.3003   23.3499 C   0  0  0  0  0  0  0  0  0  0  0  0
   11.2445   15.0819   23.3746 C   0  0  0  0  0  0  0  0  0  0  0  0
   10.5259   13.1490   24.7353 C   0  0  0  0  0  0  0  0  0  0  0  0
   10.1772   14.8175   22.3053 C   0  0  1  0  0  0  0  0  0  0  0  0
    9.4390   12.7256   23.7208 C   0  0  1  0  0  0  0  0  0  0  0  0
   10.7921   14.2564   21.0217 C   0  0  0  0  0  0  0  0  0  0  0  0
   13.6356   12.4798   26.3989 C   0  0  0  0  0  0  0  0  0  0  0  0
   13.1675   10.1534   25.5755 C   0  0  0  0  0  0  0  0  0  0  0  0
   15.2356   11.3575   24.8130 C   0  0  0  0  0  0  0  0  0  0  0  0
   13.7723   11.5112   25.2251 C   0  0  0  0  0  0  0  0  0  0  0  0
    6.7163   10.6874   25.2270 N   0  0  0  0  0  0  0  0  0  0  0  0
    7.3589   12.8263   25.2577 N   0  0  0  0  0  0  0  0  0  0  0  0
    9.9701   11.6725   22.8028 N   0  0  0  0  0  0  0  0  0  0  0  0
   11.6252   13.8532   24.0662 N   0  0  0  0  0  0  0  0  0  0  0  0
   13.9291   14.1355   23.9529 O   0  0  0  0  0  0  0  0  0  0  0  0
   13.0383   12.0363   24.1132 O   0  0  0  0  0  0  0  0  0  0  0  0
    5.6421   12.1517   26.3572 H   0  0  0  0  0  0  0  0  0  0  0  0
    8.6021    8.9111   24.3246 H   0  0  0  0  0  0  0  0  0  0  0  0
    7.9940    9.5531   22.7900 H   0  0  0  0  0  0  0  0  0  0  0  0
    8.3395   14.6148   23.4387 H   0  0  0  0  0  0  0  0  0  0  0  0
    8.4166   13.5988   22.0047 H   0  0  0  0  0  0  0  0  0  0  0  0
   10.5816   10.2721   24.2510 H   0  0  0  0  0  0  0  0  0  0  0  0
   10.4278    9.6140   22.6346 H   0  0  0  0  0  0  0  0  0  0  0  0
   12.1565   15.4914   22.9206 H   0  0  0  0  0  0  0  0  0  0  0  0
   10.8799   15.8280   24.0904 H   0  0  0  0  0  0  0  0  0  0  0  0
   10.0971   13.7570   25.5325 H   0  0  0  0  0  0  0  0  0  0  0  0
   10.9769   12.2692   25.2037 H   0  0  0  0  0  0  0  0  0  0  0  0
    9.7457   15.8218   22.0264 H   0  0  0  0  0  0  0  0  0  0  0  0
   11.2303   13.2804   21.2204 H   0  0  0  0  0  0  0  0  0  0  0  0
   11.5669   14.9298   20.6607 H   0  0  0  0  0  0  0  0  0  0  0  0
   10.0222   14.1548   20.2594 H   0  0  0  0  0  0  0  0  0  0  0  0
   14.0685   13.4556   26.1513 H   0  0  0  0  0  0  0  0  0  0  0  0
   12.5880   12.6258   26.6816 H   0  0  0  0  0  0  0  0  0  0  0  0
   14.1824   12.1123   27.2748 H   0  0  0  0  0  0  0  0  0  0  0  0
   13.2634    9.4552   24.7361 H   0  0  0  0  0  0  0  0  0  0  0  0
   12.0946   10.2450   25.7798 H   0  0  0  0  0  0  0  0  0  0  0  0
   13.6508    9.7100   26.4521 H   0  0  0  0  0  0  0  0  0  0  0  0
   15.3339   10.6627   23.9711 H   0  0  0  0  0  0  0  0  0  0  0  0
   15.6758   12.3169   24.5226 H   0  0  0  0  0  0  0  0  0  0  0  0
   15.8289   10.9360   25.6326 H   0  0  0  0  0  0  0  0  0  0  0  0
    7.3612   13.8086   25.4922 H   0  0  0  0  0  0  0  0  0  0  0  0
   10.9360   11.9026   22.5543 H   0  0  0  0  0  0  0  0  0  0  0  0
  1 17  2  0  0  0  0
  1 18  1  0  0  0  0
  2  3  2  0  0  0  0
  2  5  1  0  0  0  0
  2 17  1  0  0  0  0
  3 11  1  0  0  0  0
  3 18  1  0  0  0  0
  4 20  1  0  0  0  0
  4 21  2  0  0  0  0
  4 22  1  0  0  0  0
  5  7  1  0  0  0  0
  6 10  1  0  0  0  0
  6 11  1  0  0  0  0
  7 19  1  0  0  0  0
  8 10  1  0  0  0  0
  8 20  1  0  0  0  0
  9 11  1  0  0  0  0
  9 20  1  0  0  0  0
 10 12  1  0  0  0  0
 11 19  1  0  0  0  0
 13 16  1  0  0  0  0
 14 16  1  0  0  0  0
 15 16  1  0  0  0  0
 16 22  1  0  0  0  0
  1 23  1  0  0  0  0
  5 24  1  0  0  0  0
  5 25  1  0  0  0  0
  6 26  1  0  0  0  0
  6 27  1  0  0  0  0
  7 28  1  0  0  0  0
  7 29  1  0  0  0  0
  8 30  1  0  0  0  0
  8 31  1  0  0  0  0
  9 32  1  0  0  0  0
  9 33  1  0  0  0  0
 10 34  1  0  0  0  0
 12 35  1  0  0  0  0
 12 36  1  0  0  0  0
 12 37  1  0  0  0  0
 13 38  1  0  0  0  0
 13 39  1  0  0  0  0
 13 40  1  0  0  0  0
 14 41  1  0  0  0  0
 14 42  1  0  0  0  0
 14 43  1  0  0  0  0
 15 44  1  0  0  0  0
 15 45  1  0  0  0  0
 15 46  1  0  0  0  0
 18 47  1  0  0  0  0
 19 48  1  0  0  0  0
M  END
> <id>
EN300-1076139

> <smiles>
CC1CN(CC2(C1)NCCC=3N=CNC32)C(=O)OC(C)(C)C

> <IUPAC Name>
tert-butyl 5'-methyl-3,5,6,7-tetrahydrospiro[imidazo[4,5-c]pyridine-4,3'-piperidine]-1'-carboxylate

> <CAS>
1999292-32-8

> <URL>
https://www.enaminestore.com/catalog/EN300-1076139

> <ROCS_ShapeQuery>
A71EV2A-x0451_0A_A71EV2A-x0310_0A_A71EV2A-x0416_0A_peptide

> <ROCS_TanimotoCombo>
0.474 

> <ROCS_ShapeTanimoto>
0.326 

> <ROCS_ColorTanimoto>
0.148 

> <ROCS_RefTversky>
0.292 

> <ROCS_RefColorTversky>
0.176 

> <ROCS_RefTverskyCombo>
0.468 

> <ROCS_FitTversky>
1.552 

> <ROCS_FitColorTversky>
0.486 

> <ROCS_FitTverskyCombo>
2.038 

> <ROCS_ColorScore>
-5.393

> <ROCS_Overlap>
2029.109

> <ROCS_Rank>
474                 

$$$$
untitled-dbase-44509_94
  -OEChem-11132313473D

 39 40  0     1  0  0  0  0  0999 V2000
   10.3730   13.2059   23.4411 C   0  0  0  0  0  0  0  0  0  0  0  0
    8.4827   12.1098   25.8376 C   0  0  0  0  0  0  0  0  0  0  0  0
    6.4298   10.8951   25.2599 C   0  0  0  0  0  0  0  0  0  0  0  0
    9.7757   10.8955   22.7762 C   0  0  0  0  0  0  0  0  0  0  0  0
    9.4644    9.6533   23.5928 C   0  0  0  0  0  0  0  0  0  0  0  0
    8.2834   12.1209   24.3204 C   0  0  2  0  0  0  0  0  0  0  0  0
    7.0834   11.7597   26.3554 C   0  0  1  0  0  0  0  0  0  0  0  0
    7.4324   10.8660   24.1008 C   0  0  1  0  0  0  0  0  0  0  0  0
   12.9788   14.2958   22.9837 C   0  0  0  0  0  0  0  0  0  0  0  0
   12.3393   14.3215   20.5548 C   0  0  0  0  0  0  0  0  0  0  0  0
   11.0441   15.7041   22.2037 C   0  0  0  0  0  0  0  0  0  0  0  0
   11.8237   14.4075   21.9897 C   0  0  0  0  0  0  0  0  0  0  0  0
    9.5274   12.0993   23.5584 N   0  0  0  0  0  0  0  0  0  0  0  0
    7.1343   11.0937   27.6475 N   0  0  0  0  0  0  0  0  0  0  0  0
   10.5982   14.0064   24.3467 O   0  0  0  0  0  0  0  0  0  0  0  0
    8.1875    9.6587   24.2266 O   0  0  0  0  0  0  0  0  0  0  0  0
   10.9364   13.3027   22.1961 O   0  0  0  0  0  0  0  0  0  0  0  0
    9.2154   11.3451   26.1364 H   0  0  0  0  0  0  0  0  0  0  0  0
    8.8292   13.0778   26.2226 H   0  0  0  0  0  0  0  0  0  0  0  0
    6.2023    9.8846   25.6175 H   0  0  0  0  0  0  0  0  0  0  0  0
    5.4847   11.3562   24.9534 H   0  0  0  0  0  0  0  0  0  0  0  0
   10.8356   10.9130   22.5073 H   0  0  0  0  0  0  0  0  0  0  0  0
    9.1899   10.9054   21.8553 H   0  0  0  0  0  0  0  0  0  0  0  0
    9.5660    8.7253   22.9735 H   0  0  0  0  0  0  0  0  0  0  0  0
   10.2287    9.5386   24.3978 H   0  0  0  0  0  0  0  0  0  0  0  0
    7.6963   12.9917   24.0432 H   0  0  0  0  0  0  0  0  0  0  0  0
    6.5064   12.6824   26.4719 H   0  0  0  0  0  0  0  0  0  0  0  0
    6.9235   10.8712   23.1356 H   0  0  0  0  0  0  0  0  0  0  0  0
   12.6128   14.3570   24.0148 H   0  0  0  0  0  0  0  0  0  0  0  0
   13.5245   13.3542   22.8637 H   0  0  0  0  0  0  0  0  0  0  0  0
   13.6853   15.1240   22.8568 H   0  0  0  0  0  0  0  0  0  0  0  0
   11.5139   14.4012   19.8381 H   0  0  0  0  0  0  0  0  0  0  0  0
   12.8169   13.3527   20.3690 H   0  0  0  0  0  0  0  0  0  0  0  0
   13.0643   15.1127   20.3379 H   0  0  0  0  0  0  0  0  0  0  0  0
   10.2155   15.7844   21.4909 H   0  0  0  0  0  0  0  0  0  0  0  0
   10.6351   15.7661   23.2174 H   0  0  0  0  0  0  0  0  0  0  0  0
   11.6848   16.5767   22.0328 H   0  0  0  0  0  0  0  0  0  0  0  0
    7.5737   11.7017   28.3003 H   0  0  0  0  0  0  0  0  0  0  0  0
    6.2043   10.8906   27.9355 H   0  0  0  0  0  0  0  0  0  0  0  0
  1 13  1  0  0  0  0
  1 15  2  0  0  0  0
  1 17  1  0  0  0  0
  2  6  1  0  0  0  0
  2  7  1  0  0  0  0
  3  7  1  0  0  0  0
  3  8  1  0  0  0  0
  4  5  1  0  0  0  0
  4 13  1  0  0  0  0
  5 16  1  0  0  0  0
  6  8  1  0  0  0  0
  6 13  1  0  0  0  0
  7 14  1  0  0  0  0
  8 16  1  0  0  0  0
  9 12  1  0  0  0  0
 10 12  1  0  0  0  0
 11 12  1  0  0  0  0
 12 17  1  0  0  0  0
  2 18  1  0  0  0  0
  2 19  1  0  0  0  0
  3 20  1  0  0  0  0
  3 21  1  0  0  0  0
  4 22  1  0  0  0  0
  4 23  1  0  0  0  0
  5 24  1  0  0  0  0
  5 25  1  0  0  0  0
  6 26  1  0  0  0  0
  7 27  1  0  0  0  0
  8 28  1  0  0  0  0
  9 29  1  0  0  0  0
  9 30  1  0  0  0  0
  9 31  1  0  0  0  0
 10 32  1  0  0  0  0
 10 33  1  0  0  0  0
 10 34  1  0  0  0  0
 11 35  1  0  0  0  0
 11 36  1  0  0  0  0
 11 37  1  0  0  0  0
 14 38  1  0  0  0  0
 14 39  1  0  0  0  0
M  END
> <id>
EN300-27752371

> <smiles>
CC(C)(C)OC(=O)N1CCOC2CC(N)CC21

> <MDLNUMBER>
MFCD33550869

> <IUPAC Name>
tert-butyl 6-amino-octahydrocyclopenta[b][1,4]oxazine-4-carboxylate

> <CAS>
2624122-02-5

> <Purity>
95

> <URL>
https://www.enaminestore.com/catalog/EN300-27752371

> <ROCS_ShapeQuery>
A71EV2A-x0451_0A_A71EV2A-x0310_0A_A71EV2A-x0416_0A_peptide

> <ROCS_TanimotoCombo>
0.474 

> <ROCS_ShapeTanimoto>
0.313 

> <ROCS_ColorTanimoto>
0.162 

> <ROCS_RefTversky>
0.275 

> <ROCS_RefColorTversky>
0.177 

> <ROCS_RefTverskyCombo>
0.452 

> <ROCS_FitTversky>
1.777 

> <ROCS_FitColorTversky>
0.653 

> <ROCS_FitTverskyCombo>
2.430 

> <ROCS_ColorScore>
-5.397

> <ROCS_Overlap>
1906.705

> <ROCS_Rank>
475                 

$$$$
untitled-dbase-14558_222
  -OEChem-11132313473D

 48 50  0     1  0  0  0  0  0999 V2000
    7.6508   12.2074   24.5994 C   0  0  0  0  0  0  0  0  0  0  0  0
    6.7419   12.4830   25.5993 C   0  0  0  0  0  0  0  0  0  0  0  0
    7.8162   10.7976   24.5757 C   0  0  0  0  0  0  0  0  0  0  0  0
    6.9831   10.3386   25.5749 C   0  0  0  0  0  0  0  0  0  0  0  0
   10.9939   13.4983   23.2443 C   0  0  0  0  0  0  0  0  0  0  0  0
    6.7486    8.9378   25.9658 C   0  0  0  0  0  0  0  0  0  0  0  0
    9.0467   11.3445   21.5545 C   0  0  0  0  0  0  0  0  0  0  0  0
    8.4774   10.0859   22.2080 C   0  0  0  0  0  0  0  0  0  0  0  0
   10.1637    9.8610   24.1390 C   0  0  0  0  0  0  0  0  0  0  0  0
    7.8638    8.0826   25.3445 C   0  0  0  0  0  0  0  0  0  0  0  0
   10.5349   11.5598   21.7845 C   0  0  0  0  0  0  0  0  0  0  0  0
   10.8851   11.2076   24.2486 C   0  0  0  0  0  0  0  0  0  0  0  0
    8.6654    9.8681   23.7369 C   0  0  1  0  0  0  0  0  0  0  0  0
   12.7487   15.7569   23.3455 C   0  0  0  0  0  0  0  0  0  0  0  0
   12.4288   15.8840   20.8574 C   0  0  0  0  0  0  0  0  0  0  0  0
   10.4603   16.1831   22.3883 C   0  0  0  0  0  0  0  0  0  0  0  0
   11.7969   15.4710   22.1848 C   0  0  0  0  0  0  0  0  0  0  0  0
    8.1506    8.4585   23.9452 N   0  0  0  0  0  0  0  0  0  0  0  0
   10.7911   12.1151   23.1081 N   0  0  0  0  0  0  0  0  0  0  0  0
   10.7017   14.1474   24.2472 O   0  0  0  0  0  0  0  0  0  0  0  0
    6.3250   11.3377   26.2015 O   0  0  0  0  0  0  0  0  0  0  0  0
   11.5578   14.0601   22.1284 O   0  0  0  0  0  0  0  0  0  0  0  0
    8.1375   12.9395   23.9663 H   0  0  0  0  0  0  0  0  0  0  0  0
    6.3142   13.3960   25.9862 H   0  0  0  0  0  0  0  0  0  0  0  0
    6.7450    8.8253   27.0550 H   0  0  0  0  0  0  0  0  0  0  0  0
    5.7718    8.6154   25.5861 H   0  0  0  0  0  0  0  0  0  0  0  0
    8.8204   11.3512   20.4795 H   0  0  0  0  0  0  0  0  0  0  0  0
    8.5088   12.2078   21.9716 H   0  0  0  0  0  0  0  0  0  0  0  0
    7.3969   10.0514   21.9725 H   0  0  0  0  0  0  0  0  0  0  0  0
    8.9003    9.2183   21.6660 H   0  0  0  0  0  0  0  0  0  0  0  0
   10.7399    9.2584   23.4207 H   0  0  0  0  0  0  0  0  0  0  0  0
   10.2733    9.3282   25.0951 H   0  0  0  0  0  0  0  0  0  0  0  0
    8.7808    8.1539   25.9455 H   0  0  0  0  0  0  0  0  0  0  0  0
    7.5589    7.0286   25.3727 H   0  0  0  0  0  0  0  0  0  0  0  0
   11.0496   10.5953   21.6947 H   0  0  0  0  0  0  0  0  0  0  0  0
   10.9758   12.2144   21.0221 H   0  0  0  0  0  0  0  0  0  0  0  0
   10.4931   11.7561   25.1200 H   0  0  0  0  0  0  0  0  0  0  0  0
   11.9477   11.0250   24.4730 H   0  0  0  0  0  0  0  0  0  0  0  0
   12.2987   15.4618   24.3002 H   0  0  0  0  0  0  0  0  0  0  0  0
   13.6981   15.2241   23.2291 H   0  0  0  0  0  0  0  0  0  0  0  0
   12.9608   16.8294   23.4221 H   0  0  0  0  0  0  0  0  0  0  0  0
   11.7493   15.6807   20.0218 H   0  0  0  0  0  0  0  0  0  0  0  0
   13.3395   15.3063   20.6622 H   0  0  0  0  0  0  0  0  0  0  0  0
   12.6843   16.9485   20.8454 H   0  0  0  0  0  0  0  0  0  0  0  0
    9.7774   15.9783   21.5559 H   0  0  0  0  0  0  0  0  0  0  0  0
    9.9746   15.8712   23.3185 H   0  0  0  0  0  0  0  0  0  0  0  0
   10.5981   17.2701   22.4148 H   0  0  0  0  0  0  0  0  0  0  0  0
    8.8175    7.7995   23.5472 H   0  0  0  0  0  0  0  0  0  0  0  0
  1  2  2  0  0  0  0
  1  3  1  0  0  0  0
  2 21  1  0  0  0  0
  3  4  2  0  0  0  0
  3 13  1  0  0  0  0
  4  6  1  0  0  0  0
  4 21  1  0  0  0  0
  5 19  1  0  0  0  0
  5 20  2  0  0  0  0
  5 22  1  0  0  0  0
  6 10  1  0  0  0  0
  7  8  1  0  0  0  0
  7 11  1  0  0  0  0
  8 13  1  0  0  0  0
  9 12  1  0  0  0  0
  9 13  1  0  0  0  0
 10 18  1  0  0  0  0
 11 19  1  0  0  0  0
 12 19  1  0  0  0  0
 13 18  1  0  0  0  0
 14 17  1  0  0  0  0
 15 17  1  0  0  0  0
 16 17  1  0  0  0  0
 17 22  1  0  0  0  0
  1 23  1  0  0  0  0
  2 24  1  0  0  0  0
  6 25  1  0  0  0  0
  6 26  1  0  0  0  0
  7 27  1  0  0  0  0
  7 28  1  0  0  0  0
  8 29  1  0  0  0  0
  8 30  1  0  0  0  0
  9 31  1  0  0  0  0
  9 32  1  0  0  0  0
 10 33  1  0  0  0  0
 10 34  1  0  0  0  0
 11 35  1  0  0  0  0
 11 36  1  0  0  0  0
 12 37  1  0  0  0  0
 12 38  1  0  0  0  0
 14 39  1  0  0  0  0
 14 40  1  0  0  0  0
 14 41  1  0  0  0  0
 15 42  1  0  0  0  0
 15 43  1  0  0  0  0
 15 44  1  0  0  0  0
 16 45  1  0  0  0  0
 16 46  1  0  0  0  0
 16 47  1  0  0  0  0
 18 48  1  0  0  0  0
M  END
> <id>
EN300-1076906

> <smiles>
CC(C)(C)OC(=O)N1CCCC2(CC1)NCCC=3OC=CC32

> <IUPAC Name>
tert-butyl 6',7'-dihydro-5'H-spiro[azepane-4,4'-furo[3,2-c]pyridine]-1-carboxylate

> <CAS>
2138140-81-3

> <URL>
https://www.enaminestore.com/catalog/EN300-1076906

> <ROCS_ShapeQuery>
A71EV2A-x0451_0A_A71EV2A-x0310_0A_A71EV2A-x0416_0A_peptide

> <ROCS_TanimotoCombo>
0.474 

> <ROCS_ShapeTanimoto>
0.344 

> <ROCS_ColorTanimoto>
0.130 

> <ROCS_RefTversky>
0.304 

> <ROCS_RefColorTversky>
0.150 

> <ROCS_RefTverskyCombo>
0.454 

> <ROCS_FitTversky>
1.623 

> <ROCS_FitColorTversky>
0.497 

> <ROCS_FitTverskyCombo>
2.120 

> <ROCS_ColorScore>
-4.573

> <ROCS_Overlap>
2111.596

> <ROCS_Rank>
476                 

$$$$
untitled-dbase-12237_121
  -OEChem-11132313473D

 45 46  0     1  0  0  0  0  0999 V2000
   10.1662   13.3139   23.4120 C   0  0  0  0  0  0  0  0  0  0  0  0
   10.9543    7.9118   22.1889 C   0  0  0  0  0  0  0  0  0  0  0  0
   11.4100    8.9794   23.1795 C   0  0  0  0  0  0  0  0  0  0  0  0
    9.6405    8.2799   21.4974 C   0  0  0  0  0  0  0  0  0  0  0  0
   10.3071    9.3711   24.1617 C   0  0  0  0  0  0  0  0  0  0  0  0
    8.4187   12.2416   24.7814 C   0  0  0  0  0  0  0  0  0  0  0  0
    9.1433   11.1125   22.6977 C   0  0  0  0  0  0  0  0  0  0  0  0
    7.3738   11.1463   24.6805 C   0  0  0  0  0  0  0  0  0  0  0  0
    8.5250    8.6532   22.4895 C   0  0  2  0  0  0  0  0  0  0  0  0
    8.9818    9.7744   23.4707 C   0  0  1  0  0  0  0  0  0  0  0  0
   12.6555   14.3381   22.4449 C   0  0  0  0  0  0  0  0  0  0  0  0
   11.4418   14.7295   20.2809 C   0  0  0  0  0  0  0  0  0  0  0  0
   10.7048   15.9263   22.3624 C   0  0  0  0  0  0  0  0  0  0  0  0
   11.3037   14.6384   21.7991 C   0  0  0  0  0  0  0  0  0  0  0  0
    9.2866   12.2482   23.6114 N   0  0  0  0  0  0  0  0  0  0  0  0
    8.0756    7.4505   23.2077 N   0  0  0  0  0  0  0  0  0  0  0  0
   10.6687   13.9694   24.3233 O   0  0  0  0  0  0  0  0  0  0  0  0
    7.9858    9.8726   24.5124 O   0  0  0  0  0  0  0  0  0  0  0  0
   10.4108   13.5564   22.0869 O   0  0  0  0  0  0  0  0  0  0  0  0
   11.7345    7.7655   21.4285 H   0  0  0  0  0  0  0  0  0  0  0  0
   10.8399    6.9513   22.7083 H   0  0  0  0  0  0  0  0  0  0  0  0
   12.2903    8.6166   23.7314 H   0  0  0  0  0  0  0  0  0  0  0  0
   11.7403    9.8707   22.6258 H   0  0  0  0  0  0  0  0  0  0  0  0
    9.8322    9.1200   20.8088 H   0  0  0  0  0  0  0  0  0  0  0  0
    9.3224    7.4359   20.8616 H   0  0  0  0  0  0  0  0  0  0  0  0
   10.1580    8.5319   24.8579 H   0  0  0  0  0  0  0  0  0  0  0  0
   10.6662   10.2091   24.7827 H   0  0  0  0  0  0  0  0  0  0  0  0
    7.9310   13.2277   24.8129 H   0  0  0  0  0  0  0  0  0  0  0  0
    9.0015   12.1346   25.7067 H   0  0  0  0  0  0  0  0  0  0  0  0
    9.9814   11.0499   21.9926 H   0  0  0  0  0  0  0  0  0  0  0  0
    8.2461   11.3416   22.1083 H   0  0  0  0  0  0  0  0  0  0  0  0
    6.7133   11.1377   25.5511 H   0  0  0  0  0  0  0  0  0  0  0  0
    6.7432   11.3231   23.8048 H   0  0  0  0  0  0  0  0  0  0  0  0
    7.6639    9.0338   21.9141 H   0  0  0  0  0  0  0  0  0  0  0  0
   12.5606   14.2719   23.5347 H   0  0  0  0  0  0  0  0  0  0  0  0
   13.0795   13.3988   22.0751 H   0  0  0  0  0  0  0  0  0  0  0  0
   13.3717   15.1434   22.2454 H   0  0  0  0  0  0  0  0  0  0  0  0
   10.4742   14.9448   19.8134 H   0  0  0  0  0  0  0  0  0  0  0  0
   11.7815   13.7754   19.8620 H   0  0  0  0  0  0  0  0  0  0  0  0
   12.1507   15.5098   19.9859 H   0  0  0  0  0  0  0  0  0  0  0  0
    9.7351   16.1419   21.8993 H   0  0  0  0  0  0  0  0  0  0  0  0
   10.5641   15.8652   23.4465 H   0  0  0  0  0  0  0  0  0  0  0  0
   11.3500   16.7847   22.1428 H   0  0  0  0  0  0  0  0  0  0  0  0
    8.6343    6.6907   22.9060 H   0  0  0  0  0  0  0  0  0  0  0  0
    8.1924    7.6156   24.1771 H   0  0  0  0  0  0  0  0  0  0  0  0
  1 15  1  0  0  0  0
  1 17  2  0  0  0  0
  1 19  1  0  0  0  0
  2  3  1  0  0  0  0
  2  4  1  0  0  0  0
  3  5  1  0  0  0  0
  4  9  1  0  0  0  0
  5 10  1  0  0  0  0
  6  8  1  0  0  0  0
  6 15  1  0  0  0  0
  7 10  1  0  0  0  0
  7 15  1  0  0  0  0
  8 18  1  0  0  0  0
  9 10  1  0  0  0  0
  9 16  1  0  0  0  0
 10 18  1  0  0  0  0
 11 14  1  0  0  0  0
 12 14  1  0  0  0  0
 13 14  1  0  0  0  0
 14 19  1  0  0  0  0
  2 20  1  0  0  0  0
  2 21  1  0  0  0  0
  3 22  1  0  0  0  0
  3 23  1  0  0  0  0
  4 24  1  0  0  0  0
  4 25  1  0  0  0  0
  5 26  1  0  0  0  0
  5 27  1  0  0  0  0
  6 28  1  0  0  0  0
  6 29  1  0  0  0  0
  7 30  1  0  0  0  0
  7 31  1  0  0  0  0
  8 32  1  0  0  0  0
  8 33  1  0  0  0  0
  9 34  1  0  0  0  0
 11 35  1  0  0  0  0
 11 36  1  0  0  0  0
 11 37  1  0  0  0  0
 12 38  1  0  0  0  0
 12 39  1  0  0  0  0
 12 40  1  0  0  0  0
 13 41  1  0  0  0  0
 13 42  1  0  0  0  0
 13 43  1  0  0  0  0
 16 44  1  0  0  0  0
 16 45  1  0  0  0  0
M  END
> <id>
EN300-717825

> <smiles>
CC(C)(C)OC(=O)N1CCOC2(CCCCC2N)C1

> <MDLNUMBER>
MFCD30203720

> <IUPAC Name>
tert-butyl 7-amino-1-oxa-4-azaspiro[5.5]undecane-4-carboxylate

> <CAS>
1934279-32-9

> <URL>
https://www.enaminestore.com/catalog/EN300-717825

> <ROCS_ShapeQuery>
A71EV2A-x0451_0A_A71EV2A-x0310_0A_A71EV2A-x0416_0A_peptide

> <ROCS_TanimotoCombo>
0.474 

> <ROCS_ShapeTanimoto>
0.309 

> <ROCS_ColorTanimoto>
0.165 

> <ROCS_RefTversky>
0.275 

> <ROCS_RefColorTversky>
0.180 

> <ROCS_RefTverskyCombo>
0.455 

> <ROCS_FitTversky>
1.662 

> <ROCS_FitColorTversky>
0.666 

> <ROCS_FitTverskyCombo>
2.328 

> <ROCS_ColorScore>
-5.483

> <ROCS_Overlap>
1909.869

> <ROCS_Rank>
477                 

$$$$
untitled-dbase-27976_95
  -OEChem-11132313473D

 39 40  0     0  0  0  0  0  0999 V2000
    7.7961   10.8399   24.6907 C   0  0  0  0  0  0  0  0  0  0  0  0
    7.7916   12.1151   24.1585 C   0  0  0  0  0  0  0  0  0  0  0  0
    6.5191   11.9899   25.9562 C   0  0  0  0  0  0  0  0  0  0  0  0
   10.8671   13.1482   23.4887 C   0  0  0  0  0  0  0  0  0  0  0  0
    8.5172    9.6434   24.1862 C   0  0  0  0  0  0  0  0  0  0  0  0
    8.4858   12.6834   22.9789 C   0  0  0  0  0  0  0  0  0  0  0  0
    9.9854    9.9053   23.8339 C   0  0  0  0  0  0  0  0  0  0  0  0
   10.1857   10.8659   22.6546 C   0  0  0  0  0  0  0  0  0  0  0  0
    5.6066   12.4574   27.0163 C   0  0  0  0  0  0  0  0  0  0  0  0
   12.8067   15.2297   23.1817 C   0  0  0  0  0  0  0  0  0  0  0  0
   13.9943   13.6425   21.6392 C   0  0  0  0  0  0  0  0  0  0  0  0
   11.6855   14.4494   21.0677 C   0  0  0  0  0  0  0  0  0  0  0  0
   12.6399   14.0711   22.1995 C   0  0  0  0  0  0  0  0  0  0  0  0
    6.9981   10.7750   25.8094 N   0  0  0  0  0  0  0  0  0  0  0  0
    6.9684   12.8360   24.9814 N   0  0  0  0  0  0  0  0  0  0  0  0
    9.8904   12.2647   23.0061 N   0  0  0  0  0  0  0  0  0  0  0  0
   10.6636   14.0032   24.3489 O   0  0  0  0  0  0  0  0  0  0  0  0
   12.0907   12.9518   22.9041 O   0  0  0  0  0  0  0  0  0  0  0  0
    8.4533    8.8457   24.9363 H   0  0  0  0  0  0  0  0  0  0  0  0
    8.0069    9.2713   23.2894 H   0  0  0  0  0  0  0  0  0  0  0  0
    8.0146   12.3426   22.0508 H   0  0  0  0  0  0  0  0  0  0  0  0
    8.4452   13.7780   22.9910 H   0  0  0  0  0  0  0  0  0  0  0  0
   10.4672   10.3489   24.7142 H   0  0  0  0  0  0  0  0  0  0  0  0
   10.5068    8.9596   23.6389 H   0  0  0  0  0  0  0  0  0  0  0  0
   11.2096   10.8094   22.2678 H   0  0  0  0  0  0  0  0  0  0  0  0
    9.5251   10.5578   21.8370 H   0  0  0  0  0  0  0  0  0  0  0  0
    6.1678   12.8314   27.8888 H   0  0  0  0  0  0  0  0  0  0  0  0
    4.9486   13.2723   26.6679 H   0  0  0  0  0  0  0  0  0  0  0  0
    4.9353   11.6552   27.3695 H   0  0  0  0  0  0  0  0  0  0  0  0
   11.8367   15.5403   23.5861 H   0  0  0  0  0  0  0  0  0  0  0  0
   13.4612   14.9596   24.0168 H   0  0  0  0  0  0  0  0  0  0  0  0
   13.2288   16.1088   22.6814 H   0  0  0  0  0  0  0  0  0  0  0  0
   13.8795   12.8114   20.9339 H   0  0  0  0  0  0  0  0  0  0  0  0
   14.6506   13.2803   22.4388 H   0  0  0  0  0  0  0  0  0  0  0  0
   14.4978   14.4671   21.1242 H   0  0  0  0  0  0  0  0  0  0  0  0
   11.5658   13.6185   20.3631 H   0  0  0  0  0  0  0  0  0  0  0  0
   10.6968   14.7244   21.4489 H   0  0  0  0  0  0  0  0  0  0  0  0
   12.0821   15.2912   20.4886 H   0  0  0  0  0  0  0  0  0  0  0  0
    6.7344   13.8154   24.8836 H   0  0  0  0  0  0  0  0  0  0  0  0
  1  2  2  0  0  0  0
  1  5  1  0  0  0  0
  1 14  1  0  0  0  0
  2  6  1  0  0  0  0
  2 15  1  0  0  0  0
  3  9  1  0  0  0  0
  3 14  2  0  0  0  0
  3 15  1  0  0  0  0
  4 16  1  0  0  0  0
  4 17  2  0  0  0  0
  4 18  1  0  0  0  0
  5  7  1  0  0  0  0
  6 16  1  0  0  0  0
  7  8  1  0  0  0  0
  8 16  1  0  0  0  0
 10 13  1  0  0  0  0
 11 13  1  0  0  0  0
 12 13  1  0  0  0  0
 13 18  1  0  0  0  0
  5 19  1  0  0  0  0
  5 20  1  0  0  0  0
  6 21  1  0  0  0  0
  6 22  1  0  0  0  0
  7 23  1  0  0  0  0
  7 24  1  0  0  0  0
  8 25  1  0  0  0  0
  8 26  1  0  0  0  0
  9 27  1  0  0  0  0
  9 28  1  0  0  0  0
  9 29  1  0  0  0  0
 10 30  1  0  0  0  0
 10 31  1  0  0  0  0
 10 32  1  0  0  0  0
 11 33  1  0  0  0  0
 11 34  1  0  0  0  0
 11 35  1  0  0  0  0
 12 36  1  0  0  0  0
 12 37  1  0  0  0  0
 12 38  1  0  0  0  0
 15 39  1  0  0  0  0
M  END
> <id>
EN300-1165264

> <smiles>
CC1=NC=2CCCN(CC2N1)C(=O)OC(C)(C)C

> <IUPAC Name>
tert-butyl 2-methyl-3H,4H,5H,6H,7H,8H-imidazo[4,5-c]azepine-5-carboxylate

> <CAS>
2137541-40-1

> <URL>
https://www.enaminestore.com/catalog/EN300-1165264

> <ROCS_ShapeQuery>
A71EV2A-x0451_0A_A71EV2A-x0310_0A_A71EV2A-x0416_0A_peptide

> <ROCS_TanimotoCombo>
0.474 

> <ROCS_ShapeTanimoto>
0.314 

> <ROCS_ColorTanimoto>
0.160 

> <ROCS_RefTversky>
0.278 

> <ROCS_RefColorTversky>
0.175 

> <ROCS_RefTverskyCombo>
0.453 

> <ROCS_FitTversky>
1.710 

> <ROCS_FitColorTversky>
0.648 

> <ROCS_FitTverskyCombo>
2.359 

> <ROCS_ColorScore>
-5.345

> <ROCS_Overlap>
1926.643

> <ROCS_Rank>
478                 

$$$$
untitled-dbase-24434_3
  -OEChem-11132313473D

 49 51  0     1  0  0  0  0  0999 V2000
   10.1424   13.3934   23.7936 C   0  0  0  0  0  0  0  0  0  0  0  0
    6.5458   11.9266   26.2570 C   0  0  0  0  0  0  0  0  0  0  0  0
    7.5206   13.0998   26.0834 C   0  0  0  0  0  0  0  0  0  0  0  0
    6.3616   11.0301   25.0288 C   0  0  0  0  0  0  0  0  0  0  0  0
   10.4925    9.6519   23.7900 C   0  0  0  0  0  0  0  0  0  0  0  0
    8.9884   12.6983   25.8680 C   0  0  0  0  0  0  0  0  0  0  0  0
   11.5715   10.2504   22.9122 C   0  0  0  0  0  0  0  0  0  0  0  0
    9.6074   10.1917   21.6495 C   0  0  0  0  0  0  0  0  0  0  0  0
    7.7000   10.4620   24.5982 C   0  0  2  0  0  0  0  0  0  0  0  0
    8.5231   11.4491   23.7063 C   0  0  2  0  0  0  0  0  0  0  0  0
    7.8116    9.4860   23.3988 C   0  0  1  0  0  0  0  0  0  0  0  0
    9.2206   10.1522   23.1224 C   0  0  2  0  0  0  0  0  0  0  0  0
   12.5453   14.0055   22.3627 C   0  0  0  0  0  0  0  0  0  0  0  0
   11.2484   13.4019   20.2980 C   0  0  0  0  0  0  0  0  0  0  0  0
   10.5103   15.3384   21.7169 C   0  0  0  0  0  0  0  0  0  0  0  0
   11.1606   13.9557   21.7185 C   0  0  0  0  0  0  0  0  0  0  0  0
    9.3079   12.4730   24.4506 N   0  0  0  0  0  0  0  0  0  0  0  0
    7.9479    8.1195   23.8872 N   0  0  0  0  0  0  0  0  0  0  0  0
   10.6365   14.3901   24.3164 O   0  0  0  0  0  0  0  0  0  0  0  0
   11.0373   10.3165   21.5847 O   0  0  0  0  0  0  0  0  0  0  0  0
   10.3363   13.0651   22.4785 O   0  0  0  0  0  0  0  0  0  0  0  0
    6.8753   11.3139   27.1079 H   0  0  0  0  0  0  0  0  0  0  0  0
    5.5624   12.3301   26.5345 H   0  0  0  0  0  0  0  0  0  0  0  0
    7.1800   13.7689   25.2820 H   0  0  0  0  0  0  0  0  0  0  0  0
    7.4748   13.6927   27.0076 H   0  0  0  0  0  0  0  0  0  0  0  0
    5.6804   10.2142   25.2915 H   0  0  0  0  0  0  0  0  0  0  0  0
    5.8889   11.5944   24.2185 H   0  0  0  0  0  0  0  0  0  0  0  0
   10.5797    8.5661   23.8907 H   0  0  0  0  0  0  0  0  0  0  0  0
   10.5964   10.0791   24.7943 H   0  0  0  0  0  0  0  0  0  0  0  0
    9.6151   13.5055   26.2508 H   0  0  0  0  0  0  0  0  0  0  0  0
    9.2519   11.8004   26.4282 H   0  0  0  0  0  0  0  0  0  0  0  0
   11.8701   11.2619   23.2410 H   0  0  0  0  0  0  0  0  0  0  0  0
   12.4838    9.6248   22.8913 H   0  0  0  0  0  0  0  0  0  0  0  0
    9.3351    9.2673   21.1198 H   0  0  0  0  0  0  0  0  0  0  0  0
    9.1595   11.0304   21.1020 H   0  0  0  0  0  0  0  0  0  0  0  0
    8.2650   10.0984   25.4784 H   0  0  0  0  0  0  0  0  0  0  0  0
    7.8991   11.9581   22.9461 H   0  0  0  0  0  0  0  0  0  0  0  0
    7.0610    9.6235   22.6234 H   0  0  0  0  0  0  0  0  0  0  0  0
   12.4866   14.4024   23.3825 H   0  0  0  0  0  0  0  0  0  0  0  0
   13.0080   13.0140   22.4016 H   0  0  0  0  0  0  0  0  0  0  0  0
   13.2108   14.6765   21.8076 H   0  0  0  0  0  0  0  0  0  0  0  0
   10.2571   13.3644   19.8319 H   0  0  0  0  0  0  0  0  0  0  0  0
   11.6263   12.3731   20.3028 H   0  0  0  0  0  0  0  0  0  0  0  0
   11.9052   14.0096   19.6673 H   0  0  0  0  0  0  0  0  0  0  0  0
    9.5171   15.3029   21.2549 H   0  0  0  0  0  0  0  0  0  0  0  0
   10.4054   15.7359   22.7316 H   0  0  0  0  0  0  0  0  0  0  0  0
   11.1016   16.0464   21.1250 H   0  0  0  0  0  0  0  0  0  0  0  0
    7.0755    7.8330   24.2667 H   0  0  0  0  0  0  0  0  0  0  0  0
    8.2033    7.5375   23.1234 H   0  0  0  0  0  0  0  0  0  0  0  0
  1 17  1  0  0  0  0
  1 19  2  0  0  0  0
  1 21  1  0  0  0  0
  2  3  1  0  0  0  0
  2  4  1  0  0  0  0
  3  6  1  0  0  0  0
  4  9  1  0  0  0  0
  5  7  1  0  0  0  0
  5 12  1  0  0  0  0
  6 17  1  0  0  0  0
  7 20  1  0  0  0  0
  8 12  1  0  0  0  0
  8 20  1  0  0  0  0
  9 10  1  0  0  0  0
  9 11  1  0  0  0  0
 10 12  1  0  0  0  0
 10 17  1  0  0  0  0
 11 12  1  0  0  0  0
 11 18  1  0  0  0  0
 13 16  1  0  0  0  0
 14 16  1  0  0  0  0
 15 16  1  0  0  0  0
 16 21  1  0  0  0  0
  2 22  1  0  0  0  0
  2 23  1  0  0  0  0
  3 24  1  0  0  0  0
  3 25  1  0  0  0  0
  4 26  1  0  0  0  0
  4 27  1  0  0  0  0
  5 28  1  0  0  0  0
  5 29  1  0  0  0  0
  6 30  1  0  0  0  0
  6 31  1  0  0  0  0
  7 32  1  0  0  0  0
  7 33  1  0  0  0  0
  8 34  1  0  0  0  0
  8 35  1  0  0  0  0
  9 36  1  0  0  0  0
 10 37  1  0  0  0  0
 11 38  1  0  0  0  0
 13 39  1  0  0  0  0
 13 40  1  0  0  0  0
 13 41  1  0  0  0  0
 14 42  1  0  0  0  0
 14 43  1  0  0  0  0
 14 44  1  0  0  0  0
 15 45  1  0  0  0  0
 15 46  1  0  0  0  0
 15 47  1  0  0  0  0
 18 48  1  0  0  0  0
 18 49  1  0  0  0  0
M  END
> <id>
EN300-701144

> <smiles>
CC(C)(C)OC(=O)N1CCCCC2C(N)C3(CCOC3)C21

> <IUPAC Name>
tert-butyl 9-amino-6-azaspiro[bicyclo[5.2.0]nonane-8,3'-oxolane]-6-carboxylate

> <CAS>
2137810-96-7

> <URL>
https://www.enaminestore.com/catalog/EN300-701144

> <ROCS_ShapeQuery>
A71EV2A-x0451_0A_A71EV2A-x0310_0A_A71EV2A-x0416_0A_peptide

> <ROCS_TanimotoCombo>
0.474 

> <ROCS_ShapeTanimoto>
0.336 

> <ROCS_ColorTanimoto>
0.138 

> <ROCS_RefTversky>
0.296 

> <ROCS_RefColorTversky>
0.158 

> <ROCS_RefTverskyCombo>
0.455 

> <ROCS_FitTversky>
1.655 

> <ROCS_FitColorTversky>
0.524 

> <ROCS_FitTverskyCombo>
2.179 

> <ROCS_ColorScore>
-4.830

> <ROCS_Overlap>
2057.433

> <ROCS_Rank>
479                 

$$$$
untitled-dbase-15224_130
  -OEChem-11132313473D

 45 47  0     1  0  0  0  0  0999 V2000
   10.2990   13.3386   23.3836 C   0  0  0  0  0  0  0  0  0  0  0  0
    6.2499   12.2279   25.2554 C   0  0  0  0  0  0  0  0  0  0  0  0
    6.7796   11.5610   26.5250 C   0  0  0  0  0  0  0  0  0  0  0  0
    6.2262   11.2624   24.0769 C   0  0  0  0  0  0  0  0  0  0  0  0
    7.6782   10.3483   26.2587 C   0  0  0  0  0  0  0  0  0  0  0  0
    7.5492    9.3753   22.9967 C   0  0  0  0  0  0  0  0  0  0  0  0
    9.1994    9.1423   24.6209 C   0  0  0  0  0  0  0  0  0  0  0  0
    8.4404   11.7636   22.8939 C   0  0  0  0  0  0  0  0  0  0  0  0
    9.5210   11.6238   25.0539 C   0  0  0  0  0  0  0  0  0  0  0  0
    7.6339   10.7401   23.7182 C   0  0  1  0  0  0  0  0  0  0  0  0
    8.5165   10.4700   24.9703 C   0  0  2  0  0  0  0  0  0  0  0  0
   12.7331   14.2626   22.2047 C   0  0  0  0  0  0  0  0  0  0  0  0
   11.4760   14.2325   20.0302 C   0  0  0  0  0  0  0  0  0  0  0  0
   10.7235   15.7448   21.8890 C   0  0  0  0  0  0  0  0  0  0  0  0
   11.3622   14.4002   21.5438 C   0  0  0  0  0  0  0  0  0  0  0  0
    8.1477    8.4083   23.9209 N   0  0  0  0  0  0  0  0  0  0  0  0
    9.4707   12.2940   23.7670 N   0  0  0  0  0  0  0  0  0  0  0  0
   10.7859   14.1549   24.1628 O   0  0  0  0  0  0  0  0  0  0  0  0
   10.5144   13.3543   22.0312 O   0  0  0  0  0  0  0  0  0  0  0  0
    5.2437   12.6289   25.4415 H   0  0  0  0  0  0  0  0  0  0  0  0
    6.8842   13.0906   25.0079 H   0  0  0  0  0  0  0  0  0  0  0  0
    7.3250   12.3069   27.1348 H   0  0  0  0  0  0  0  0  0  0  0  0
    5.9245   11.2440   27.1524 H   0  0  0  0  0  0  0  0  0  0  0  0
    5.5651   10.4244   24.2993 H   0  0  0  0  0  0  0  0  0  0  0  0
    5.7971   11.7880   23.2211 H   0  0  0  0  0  0  0  0  0  0  0  0
    8.3403   10.1944   27.1183 H   0  0  0  0  0  0  0  0  0  0  0  0
    7.0306    9.4646   26.2150 H   0  0  0  0  0  0  0  0  0  0  0  0
    6.5199    9.0873   22.7958 H   0  0  0  0  0  0  0  0  0  0  0  0
    8.0867    9.3864   22.0512 H   0  0  0  0  0  0  0  0  0  0  0  0
   10.0558    9.2695   23.9557 H   0  0  0  0  0  0  0  0  0  0  0  0
    9.5434    8.6009   25.5032 H   0  0  0  0  0  0  0  0  0  0  0  0
    8.9529   11.3114   22.0252 H   0  0  0  0  0  0  0  0  0  0  0  0
    7.8243   12.5891   22.4929 H   0  0  0  0  0  0  0  0  0  0  0  0
    9.2528   12.3684   25.8174 H   0  0  0  0  0  0  0  0  0  0  0  0
   10.5461   11.2847   25.2666 H   0  0  0  0  0  0  0  0  0  0  0  0
   12.6556   14.3824   23.2912 H   0  0  0  0  0  0  0  0  0  0  0  0
   13.1867   13.2887   21.9936 H   0  0  0  0  0  0  0  0  0  0  0  0
   13.4159   15.0455   21.8553 H   0  0  0  0  0  0  0  0  0  0  0  0
   10.4948   14.3305   19.5519 H   0  0  0  0  0  0  0  0  0  0  0  0
   11.8454   13.2327   19.7750 H   0  0  0  0  0  0  0  0  0  0  0  0
   12.1513   14.9741   19.5912 H   0  0  0  0  0  0  0  0  0  0  0  0
    9.7402   15.8437   21.4151 H   0  0  0  0  0  0  0  0  0  0  0  0
   10.6001   15.8670   22.9699 H   0  0  0  0  0  0  0  0  0  0  0  0
   11.3332   16.5739   21.5122 H   0  0  0  0  0  0  0  0  0  0  0  0
    7.4461    8.1183   24.5880 H   0  0  0  0  0  0  0  0  0  0  0  0
  1 17  1  0  0  0  0
  1 18  2  0  0  0  0
  1 19  1  0  0  0  0
  2  3  1  0  0  0  0
  2  4  1  0  0  0  0
  3  5  1  0  0  0  0
  4 10  1  0  0  0  0
  5 11  1  0  0  0  0
  6 10  1  0  0  0  0
  6 16  1  0  0  0  0
  7 11  1  0  0  0  0
  7 16  1  0  0  0  0
  8 10  1  0  0  0  0
  8 17  1  0  0  0  0
  9 11  1  0  0  0  0
  9 17  1  0  0  0  0
 10 11  1  0  0  0  0
 12 15  1  0  0  0  0
 13 15  1  0  0  0  0
 14 15  1  0  0  0  0
 15 19  1  0  0  0  0
  2 20  1  0  0  0  0
  2 21  1  0  0  0  0
  3 22  1  0  0  0  0
  3 23  1  0  0  0  0
  4 24  1  0  0  0  0
  4 25  1  0  0  0  0
  5 26  1  0  0  0  0
  5 27  1  0  0  0  0
  6 28  1  0  0  0  0
  6 29  1  0  0  0  0
  7 30  1  0  0  0  0
  7 31  1  0  0  0  0
  8 32  1  0  0  0  0
  8 33  1  0  0  0  0
  9 34  1  0  0  0  0
  9 35  1  0  0  0  0
 12 36  1  0  0  0  0
 12 37  1  0  0  0  0
 12 38  1  0  0  0  0
 13 39  1  0  0  0  0
 13 40  1  0  0  0  0
 13 41  1  0  0  0  0
 14 42  1  0  0  0  0
 14 43  1  0  0  0  0
 14 44  1  0  0  0  0
 16 45  1  0  0  0  0
M  END
> <id>
EN300-1266082

> <smiles>
CC(C)(C)OC(=O)N1CC23CNCC3(C1)CCCC2

> <MDLNUMBER>
MFCD31559068

> <IUPAC Name>
tert-butyl 8,11-diazatricyclo[4.3.3.0,1,6]dodecane-8-carboxylate

> <CAS>
2138076-42-1

> <Purity>
95

> <URL>
https://www.enaminestore.com/catalog/EN300-1266082

> <ROCS_ShapeQuery>
A71EV2A-x0451_0A_A71EV2A-x0310_0A_A71EV2A-x0416_0A_peptide

> <ROCS_TanimotoCombo>
0.474 

> <ROCS_ShapeTanimoto>
0.301 

> <ROCS_ColorTanimoto>
0.173 

> <ROCS_RefTversky>
0.271 

> <ROCS_RefColorTversky>
0.188 

> <ROCS_RefTverskyCombo>
0.459 

> <ROCS_FitTversky>
1.602 

> <ROCS_FitColorTversky>
0.684 

> <ROCS_FitTverskyCombo>
2.286 

> <ROCS_ColorScore>
-5.731

> <ROCS_Overlap>
1877.019

> <ROCS_Rank>
480                 

$$$$
untitled-dbase-28237_11
  -OEChem-11132313473D

 37 39  0     1  0  0  0  0  0999 V2000
    5.8403   11.7496   24.8446 C   0  0  0  0  0  0  0  0  0  0  0  0
    7.0264   11.4959   24.2059 C   0  0  0  0  0  0  0  0  0  0  0  0
    7.7563   10.6947   25.1219 C   0  0  0  0  0  0  0  0  0  0  0  0
   10.4774   13.3677   23.3486 C   0  0  0  0  0  0  0  0  0  0  0  0
    7.5767   11.8730   22.8687 C   0  0  0  0  0  0  0  0  0  0  0  0
    9.1973    9.9473   23.2775 C   0  0  0  0  0  0  0  0  0  0  0  0
   10.1313   11.3928   24.9054 C   0  0  0  0  0  0  0  0  0  0  0  0
    9.1411   10.2200   24.8019 C   0  0  1  0  0  0  0  0  0  0  0  0
    9.0548   11.3854   22.7325 C   0  0  2  0  0  0  0  0  0  0  0  0
   12.6132   14.9312   22.2713 C   0  0  0  0  0  0  0  0  0  0  0  0
   11.4121   14.7229   20.0751 C   0  0  0  0  0  0  0  0  0  0  0  0
   10.3014   15.8893   22.0022 C   0  0  0  0  0  0  0  0  0  0  0  0
   11.2538   14.7665   21.5934 C   0  0  0  0  0  0  0  0  0  0  0  0
    7.0943   10.4593   26.2539 N   0  0  0  0  0  0  0  0  0  0  0  0
    5.9304   11.1132   26.0540 N   0  0  0  0  0  0  0  0  0  0  0  0
    9.9289   12.1342   23.6514 N   0  0  0  0  0  0  0  0  0  0  0  0
   10.7437   14.2295   24.1831 O   0  0  0  0  0  0  0  0  0  0  0  0
   10.6882   13.5168   22.0042 O   0  0  0  0  0  0  0  0  0  0  0  0
    4.9586   12.3071   24.5630 H   0  0  0  0  0  0  0  0  0  0  0  0
    6.9716   11.3931   22.0903 H   0  0  0  0  0  0  0  0  0  0  0  0
    7.5137   12.9563   22.7175 H   0  0  0  0  0  0  0  0  0  0  0  0
   10.1672    9.5196   22.9955 H   0  0  0  0  0  0  0  0  0  0  0  0
    8.4037    9.2790   22.9250 H   0  0  0  0  0  0  0  0  0  0  0  0
    9.9639   12.0483   25.7660 H   0  0  0  0  0  0  0  0  0  0  0  0
   11.1696   11.0434   24.9160 H   0  0  0  0  0  0  0  0  0  0  0  0
    9.4355    9.3532   25.3993 H   0  0  0  0  0  0  0  0  0  0  0  0
    9.4029   11.4953   21.7007 H   0  0  0  0  0  0  0  0  0  0  0  0
   12.5038   14.9630   23.3613 H   0  0  0  0  0  0  0  0  0  0  0  0
   13.2941   14.1133   22.0138 H   0  0  0  0  0  0  0  0  0  0  0  0
   13.0833   15.8775   21.9801 H   0  0  0  0  0  0  0  0  0  0  0  0
   10.4392   14.6048   19.5846 H   0  0  0  0  0  0  0  0  0  0  0  0
   12.0179   13.8618   19.7704 H   0  0  0  0  0  0  0  0  0  0  0  0
   11.8854   15.6327   19.6920 H   0  0  0  0  0  0  0  0  0  0  0  0
    9.3262   15.7714   21.5161 H   0  0  0  0  0  0  0  0  0  0  0  0
   10.1468   15.9124   23.0858 H   0  0  0  0  0  0  0  0  0  0  0  0
   10.6893   16.8641   21.6849 H   0  0  0  0  0  0  0  0  0  0  0  0
    5.2355   11.0849   26.7894 H   0  0  0  0  0  0  0  0  0  0  0  0
  1  2  2  0  0  0  0
  1 15  1  0  0  0  0
  2  3  1  0  0  0  0
  2  5  1  0  0  0  0
  3  8  1  0  0  0  0
  3 14  2  0  0  0  0
  4 16  1  0  0  0  0
  4 17  2  0  0  0  0
  4 18  1  0  0  0  0
  5  9  1  0  0  0  0
  6  8  1  0  0  0  0
  6  9  1  0  0  0  0
  7  8  1  0  0  0  0
  7 16  1  0  0  0  0
  9 16  1  0  0  0  0
 10 13  1  0  0  0  0
 11 13  1  0  0  0  0
 12 13  1  0  0  0  0
 13 18  1  0  0  0  0
 14 15  1  0  0  0  0
  1 19  1  0  0  0  0
  5 20  1  0  0  0  0
  5 21  1  0  0  0  0
  6 22  1  0  0  0  0
  6 23  1  0  0  0  0
  7 24  1  0  0  0  0
  7 25  1  0  0  0  0
  8 26  1  0  0  0  0
  9 27  1  0  0  0  0
 10 28  1  0  0  0  0
 10 29  1  0  0  0  0
 10 30  1  0  0  0  0
 11 31  1  0  0  0  0
 11 32  1  0  0  0  0
 11 33  1  0  0  0  0
 12 34  1  0  0  0  0
 12 35  1  0  0  0  0
 12 36  1  0  0  0  0
 15 37  1  0  0  0  0
M  END
> <id>
EN300-7444280

> <smiles>
CC(C)(C)OC(=O)N1CC2CC1CC3=CNN=C23

> <MDLNUMBER>
MFCD32200138

> <IUPAC Name>
tert-butyl 3,4,9-triazatricyclo[6.2.1.0,2,6]undeca-2,5-diene-9-carboxylate

> <CAS>
2377034-24-5

> <Purity>
95

> <URL>
https://www.enaminestore.com/catalog/EN300-7444280

> <ROCS_ShapeQuery>
A71EV2A-x0451_0A_A71EV2A-x0310_0A_A71EV2A-x0416_0A_peptide

> <ROCS_TanimotoCombo>
0.474 

> <ROCS_ShapeTanimoto>
0.297 

> <ROCS_ColorTanimoto>
0.177 

> <ROCS_RefTversky>
0.267 

> <ROCS_RefColorTversky>
0.209 

> <ROCS_RefTverskyCombo>
0.476 

> <ROCS_FitTversky>
1.607 

> <ROCS_FitColorTversky>
0.539 

> <ROCS_FitTverskyCombo>
2.146 

> <ROCS_ColorScore>
-6.408

> <ROCS_Overlap>
1851.427

> <ROCS_Rank>
481                 

$$$$
untitled-dbase-29399_111
  -OEChem-11132313473D

 37 38  0     1  0  0  0  0  0999 V2000
    8.2757   12.9665   25.8036 C   0  0  0  0  0  0  0  0  0  0  0  0
    7.2080   12.9825   26.7072 C   0  0  0  0  0  0  0  0  0  0  0  0
    6.1516   11.2075   25.4877 C   0  0  0  0  0  0  0  0  0  0  0  0
    7.2304   11.1711   24.5866 C   0  0  0  0  0  0  0  0  0  0  0  0
    8.2926   12.0928   24.7030 C   0  0  0  0  0  0  0  0  0  0  0  0
    6.1383   12.1142   26.5410 C   0  0  0  0  0  0  0  0  0  0  0  0
   10.2707   13.1396   23.4987 C   0  0  0  0  0  0  0  0  0  0  0  0
    7.2108   10.1411   23.4887 C   0  0  0  0  0  0  0  0  0  0  0  0
    9.4934   10.9286   22.8345 C   0  0  0  0  0  0  0  0  0  0  0  0
    8.6310    9.7196   23.1553 C   0  0  1  0  0  0  0  0  0  0  0  0
   12.2849   14.9921   22.6465 C   0  0  0  0  0  0  0  0  0  0  0  0
   11.6030   14.3689   20.3107 C   0  0  0  0  0  0  0  0  0  0  0  0
    9.9462   15.4665   21.8464 C   0  0  0  0  0  0  0  0  0  0  0  0
   11.1375   14.5138   21.7580 C   0  0  0  0  0  0  0  0  0  0  0  0
    9.3640   12.0795   23.7396 N   0  0  0  0  0  0  0  0  0  0  0  0
   10.6858   13.8871   24.3860 O   0  0  0  0  0  0  0  0  0  0  0  0
    9.2126    9.0016   24.2417 O   0  0  0  0  0  0  0  0  0  0  0  0
   10.7208   13.2193   22.2090 O   0  0  0  0  0  0  0  0  0  0  0  0
    4.6692   12.1761   27.7262 Br  0  0  0  0  0  0  0  0  0  0  0  0
    9.0601   13.6905   25.9865 H   0  0  0  0  0  0  0  0  0  0  0  0
    7.2267   13.6928   27.5296 H   0  0  0  0  0  0  0  0  0  0  0  0
    5.3218   10.5181   25.3549 H   0  0  0  0  0  0  0  0  0  0  0  0
    6.6393    9.2739   23.8081 H   0  0  0  0  0  0  0  0  0  0  0  0
    6.7461   10.5888   22.6141 H   0  0  0  0  0  0  0  0  0  0  0  0
   10.5505   10.5919   22.8120 H   0  0  0  0  0  0  0  0  0  0  0  0
    9.2779   11.3010   21.8096 H   0  0  0  0  0  0  0  0  0  0  0  0
    8.6160    9.0362   22.2962 H   0  0  0  0  0  0  0  0  0  0  0  0
   11.9548   15.0974   23.6862 H   0  0  0  0  0  0  0  0  0  0  0  0
   13.1322   14.2992   22.6192 H   0  0  0  0  0  0  0  0  0  0  0  0
   12.6366   15.9815   22.3322 H   0  0  0  0  0  0  0  0  0  0  0  0
   10.7829   14.0258   19.6696 H   0  0  0  0  0  0  0  0  0  0  0  0
   12.3947   13.6153   20.2290 H   0  0  0  0  0  0  0  0  0  0  0  0
   11.9825   15.3151   19.9117 H   0  0  0  0  0  0  0  0  0  0  0  0
    9.1231   15.1236   21.2092 H   0  0  0  0  0  0  0  0  0  0  0  0
    9.5752   15.5542   22.8728 H   0  0  0  0  0  0  0  0  0  0  0  0
   10.2190   16.4658   21.4882 H   0  0  0  0  0  0  0  0  0  0  0  0
    9.2090    9.6027   25.0024 H   0  0  0  0  0  0  0  0  0  0  0  0
  1  2  1  0  0  0  0
  1  5  2  0  0  0  0
  2  6  2  0  0  0  0
  3  4  2  0  0  0  0
  3  6  1  0  0  0  0
  4  5  1  0  0  0  0
  4  8  1  0  0  0  0
  5 15  1  0  0  0  0
  6 19  1  0  0  0  0
  7 15  1  0  0  0  0
  7 16  2  0  0  0  0
  7 18  1  0  0  0  0
  8 10  1  0  0  0  0
  9 10  1  0  0  0  0
  9 15  1  0  0  0  0
 10 17  1  0  0  0  0
 11 14  1  0  0  0  0
 12 14  1  0  0  0  0
 13 14  1  0  0  0  0
 14 18  1  0  0  0  0
  1 20  1  0  0  0  0
  2 21  1  0  0  0  0
  3 22  1  0  0  0  0
  8 23  1  0  0  0  0
  8 24  1  0  0  0  0
  9 25  1  0  0  0  0
  9 26  1  0  0  0  0
 10 27  1  0  0  0  0
 11 28  1  0  0  0  0
 11 29  1  0  0  0  0
 11 30  1  0  0  0  0
 12 31  1  0  0  0  0
 12 32  1  0  0  0  0
 12 33  1  0  0  0  0
 13 34  1  0  0  0  0
 13 35  1  0  0  0  0
 13 36  1  0  0  0  0
 17 37  1  0  0  0  0
M  END
> <id>
EN300-37100372

> <smiles>
CC(C)(C)OC(=O)N1CC(O)CC=2C=C(Br)C=CC12

> <IUPAC Name>
tert-butyl 6-bromo-3-hydroxy-1,2,3,4-tetrahydroquinoline-1-carboxylate

> <CAS>
2757894-68-9

> <URL>
https://www.enaminestore.com/catalog/EN300-37100372

> <ROCS_ShapeQuery>
A71EV2A-x0451_0A_A71EV2A-x0310_0A_A71EV2A-x0416_0A_peptide

> <ROCS_TanimotoCombo>
0.474 

> <ROCS_ShapeTanimoto>
0.332 

> <ROCS_ColorTanimoto>
0.142 

> <ROCS_RefTversky>
0.291 

> <ROCS_RefColorTversky>
0.158 

> <ROCS_RefTverskyCombo>
0.449 

> <ROCS_FitTversky>
1.745 

> <ROCS_FitColorTversky>
0.584 

> <ROCS_FitTverskyCombo>
2.330 

> <ROCS_ColorScore>
-4.814

> <ROCS_Overlap>
2017.626

> <ROCS_Rank>
482                 

$$$$
untitled-dbase-12656_54
  -OEChem-11132313473D

 41 42  0     1  0  0  0  0  0999 V2000
    5.8821    9.6920   25.6300 C   0  0  0  0  0  0  0  0  0  0  0  0
    6.9732    9.2645   24.8704 C   0  0  0  0  0  0  0  0  0  0  0  0
    5.6584   11.0508   25.8315 C   0  0  0  0  0  0  0  0  0  0  0  0
    7.8632   10.1930   24.3139 C   0  0  0  0  0  0  0  0  0  0  0  0
    7.6306   11.5664   24.5211 C   0  0  0  0  0  0  0  0  0  0  0  0
    6.5249   11.9868   25.2724 C   0  0  0  0  0  0  0  0  0  0  0  0
   10.9245   13.1321   23.6098 C   0  0  0  0  0  0  0  0  0  0  0  0
    8.5316   12.5808   23.8714 C   0  0  0  0  0  0  0  0  0  0  0  0
   10.2438   10.7219   23.7986 C   0  0  0  0  0  0  0  0  0  0  0  0
    9.0536    9.8099   23.4561 C   0  0  1  0  0  0  0  0  0  0  0  0
   12.6046   14.8594   22.0676 C   0  0  0  0  0  0  0  0  0  0  0  0
   13.5328   12.7536   21.0609 C   0  0  0  0  0  0  0  0  0  0  0  0
   11.1055   13.3218   20.7548 C   0  0  0  0  0  0  0  0  0  0  0  0
    9.4975    8.3474   23.5655 C   0  0  0  0  0  0  0  0  0  0  0  0
   12.3070   13.4077   21.6949 C   0  0  0  0  0  0  0  0  0  0  0  0
    9.9283   12.1560   23.7507 N   0  0  0  0  0  0  0  0  0  0  0  0
    6.2598   13.3596   25.4804 N   0  0  0  0  0  0  0  0  0  0  0  0
   10.8525   14.2662   24.0799 O   0  0  0  0  0  0  0  0  0  0  0  0
   12.0020   12.6831   22.8921 O   0  0  0  0  0  0  0  0  0  0  0  0
   10.5801    8.1417   22.8027 F   0  0  0  0  0  0  0  0  0  0  0  0
    9.7971    8.0563   24.8389 F   0  0  0  0  0  0  0  0  0  0  0  0
    8.5109    7.5400   23.1522 F   0  0  0  0  0  0  0  0  0  0  0  0
    5.2056    8.9596   26.0638 H   0  0  0  0  0  0  0  0  0  0  0  0
    7.1230    8.1985   24.7153 H   0  0  0  0  0  0  0  0  0  0  0  0
    4.8058   11.3678   26.4259 H   0  0  0  0  0  0  0  0  0  0  0  0
    8.1840   12.7811   22.8509 H   0  0  0  0  0  0  0  0  0  0  0  0
    8.4969   13.5157   24.4408 H   0  0  0  0  0  0  0  0  0  0  0  0
   10.6612   10.4524   24.7867 H   0  0  0  0  0  0  0  0  0  0  0  0
   11.0671   10.5620   23.0753 H   0  0  0  0  0  0  0  0  0  0  0  0
    8.8128   10.0223   22.3975 H   0  0  0  0  0  0  0  0  0  0  0  0
   11.7272   15.3324   22.5230 H   0  0  0  0  0  0  0  0  0  0  0  0
   13.4422   14.9322   22.7689 H   0  0  0  0  0  0  0  0  0  0  0  0
   12.8467   15.4501   21.1767 H   0  0  0  0  0  0  0  0  0  0  0  0
   13.3238   11.7119   20.7918 H   0  0  0  0  0  0  0  0  0  0  0  0
   14.3706   12.7279   21.7670 H   0  0  0  0  0  0  0  0  0  0  0  0
   13.8546   13.2864   20.1602 H   0  0  0  0  0  0  0  0  0  0  0  0
   10.8919   12.2807   20.4873 H   0  0  0  0  0  0  0  0  0  0  0  0
   10.2072   13.7535   21.2080 H   0  0  0  0  0  0  0  0  0  0  0  0
   11.3081   13.8473   19.8145 H   0  0  0  0  0  0  0  0  0  0  0  0
    5.4370   13.6223   25.9795 H   0  0  0  0  0  0  0  0  0  0  0  0
    6.8485   14.0365   25.0441 H   0  0  0  0  0  0  0  0  0  0  0  0
  1  2  1  0  0  0  0
  1  3  2  0  0  0  0
  2  4  2  0  0  0  0
  3  6  1  0  0  0  0
  4  5  1  0  0  0  0
  4 10  1  0  0  0  0
  5  6  2  0  0  0  0
  5  8  1  0  0  0  0
  6 17  1  0  0  0  0
  7 16  1  0  0  0  0
  7 18  2  0  0  0  0
  7 19  1  0  0  0  0
  8 16  1  0  0  0  0
  9 10  1  0  0  0  0
  9 16  1  0  0  0  0
 10 14  1  0  0  0  0
 11 15  1  0  0  0  0
 12 15  1  0  0  0  0
 13 15  1  0  0  0  0
 14 20  1  0  0  0  0
 14 21  1  0  0  0  0
 14 22  1  0  0  0  0
 15 19  1  0  0  0  0
  1 23  1  0  0  0  0
  2 24  1  0  0  0  0
  3 25  1  0  0  0  0
  8 26  1  0  0  0  0
  8 27  1  0  0  0  0
  9 28  1  0  0  0  0
  9 29  1  0  0  0  0
 10 30  1  0  0  0  0
 11 31  1  0  0  0  0
 11 32  1  0  0  0  0
 11 33  1  0  0  0  0
 12 34  1  0  0  0  0
 12 35  1  0  0  0  0
 12 36  1  0  0  0  0
 13 37  1  0  0  0  0
 13 38  1  0  0  0  0
 13 39  1  0  0  0  0
 17 40  1  0  0  0  0
 17 41  1  0  0  0  0
M  END
> <id>
EN300-714004

> <smiles>
CC(C)(C)OC(=O)N1CC(C=2C=CC=C(N)C2C1)C(F)(F)F

> <MDLNUMBER>
MFCD31437326

> <IUPAC Name>
tert-butyl 8-amino-4-(trifluoromethyl)-1,2,3,4-tetrahydroisoquinoline-2-carboxylate

> <CAS>
2138156-93-9

> <URL>
https://www.enaminestore.com/catalog/EN300-714004

> <ROCS_ShapeQuery>
A71EV2A-x0451_0A_A71EV2A-x0310_0A_A71EV2A-x0416_0A_peptide

> <ROCS_TanimotoCombo>
0.474 

> <ROCS_ShapeTanimoto>
0.346 

> <ROCS_ColorTanimoto>
0.128 

> <ROCS_RefTversky>
0.306 

> <ROCS_RefColorTversky>
0.140 

> <ROCS_RefTverskyCombo>
0.446 

> <ROCS_FitTversky>
1.620 

> <ROCS_FitColorTversky>
0.585 

> <ROCS_FitTverskyCombo>
2.205 

> <ROCS_ColorScore>
-4.267

> <ROCS_Overlap>
2124.776

> <ROCS_Rank>
483                 

$$$$
untitled-dbase-30363_203
  -OEChem-11132313473D

 44 45  0     0  0  0  0  0  0999 V2000
   10.6918   12.9608   23.6592 C   0  0  0  0  0  0  0  0  0  0  0  0
    6.5172   13.4744   24.5320 C   0  0  0  0  0  0  0  0  0  0  0  0
    5.7566   11.8863   26.3396 C   0  0  0  0  0  0  0  0  0  0  0  0
    6.9398   12.1730   23.8470 C   0  0  0  0  0  0  0  0  0  0  0  0
    6.8474   10.8644   26.0144 C   0  0  0  0  0  0  0  0  0  0  0  0
   10.1615   10.5543   23.3538 C   0  0  0  0  0  0  0  0  0  0  0  0
    9.0812   11.7601   25.2000 C   0  0  0  0  0  0  0  0  0  0  0  0
    8.8032    9.9854   22.9755 C   0  0  0  0  0  0  0  0  0  0  0  0
    6.1827   13.3088   26.0151 C   0  0  0  0  0  0  0  0  0  0  0  0
    7.7077   11.2000   24.7665 C   0  0  0  0  0  0  0  0  0  0  0  0
   13.1653   14.3394   23.2456 C   0  0  0  0  0  0  0  0  0  0  0  0
   13.0992   13.3782   20.9259 C   0  0  0  0  0  0  0  0  0  0  0  0
   11.2906   14.9489   21.6808 C   0  0  0  0  0  0  0  0  0  0  0  0
   12.2631   13.8523   22.1126 C   0  0  0  0  0  0  0  0  0  0  0  0
    9.9954   11.8194   24.0576 N   0  0  0  0  0  0  0  0  0  0  0  0
   10.5974   14.0568   24.2086 O   0  0  0  0  0  0  0  0  0  0  0  0
    7.9257    9.9349   24.1014 O   0  0  0  0  0  0  0  0  0  0  0  0
    5.1318   14.2009   26.3722 O   0  0  0  0  0  0  0  0  0  0  0  0
   11.5065   12.7310   22.5827 O   0  0  0  0  0  0  0  0  0  0  0  0
    7.3187   14.2290   24.4218 H   0  0  0  0  0  0  0  0  0  0  0  0
    5.6518   13.9173   24.0023 H   0  0  0  0  0  0  0  0  0  0  0  0
    4.8328   11.6387   25.7942 H   0  0  0  0  0  0  0  0  0  0  0  0
    5.4871   11.8125   27.4036 H   0  0  0  0  0  0  0  0  0  0  0  0
    6.0354   11.6994   23.4268 H   0  0  0  0  0  0  0  0  0  0  0  0
    7.5678   12.4240   22.9712 H   0  0  0  0  0  0  0  0  0  0  0  0
    7.5064   10.7507   26.8982 H   0  0  0  0  0  0  0  0  0  0  0  0
    6.3593    9.8799   25.8739 H   0  0  0  0  0  0  0  0  0  0  0  0
   10.6732    9.8768   24.0469 H   0  0  0  0  0  0  0  0  0  0  0  0
   10.7911   10.6711   22.4673 H   0  0  0  0  0  0  0  0  0  0  0  0
    8.9694   12.7342   25.6815 H   0  0  0  0  0  0  0  0  0  0  0  0
    9.5533   11.0859   25.9237 H   0  0  0  0  0  0  0  0  0  0  0  0
    8.3405   10.5533   22.1617 H   0  0  0  0  0  0  0  0  0  0  0  0
    8.9254    8.9592   22.6130 H   0  0  0  0  0  0  0  0  0  0  0  0
    7.0630   13.5765   26.6185 H   0  0  0  0  0  0  0  0  0  0  0  0
   12.5690   14.6806   24.0993 H   0  0  0  0  0  0  0  0  0  0  0  0
   13.8438   13.5513   23.5881 H   0  0  0  0  0  0  0  0  0  0  0  0
   13.7661   15.1983   22.9252 H   0  0  0  0  0  0  0  0  0  0  0  0
   12.4559   13.0278   20.1106 H   0  0  0  0  0  0  0  0  0  0  0  0
   13.7305   12.5279   21.2081 H   0  0  0  0  0  0  0  0  0  0  0  0
   13.7432   14.1756   20.5411 H   0  0  0  0  0  0  0  0  0  0  0  0
   10.6433   14.5998   20.8682 H   0  0  0  0  0  0  0  0  0  0  0  0
   10.6566   15.2757   22.5115 H   0  0  0  0  0  0  0  0  0  0  0  0
   11.8320   15.8192   21.2927 H   0  0  0  0  0  0  0  0  0  0  0  0
    5.4545   15.0977   26.1904 H   0  0  0  0  0  0  0  0  0  0  0  0
  1 15  1  0  0  0  0
  1 16  2  0  0  0  0
  1 19  1  0  0  0  0
  2  4  1  0  0  0  0
  2  9  1  0  0  0  0
  3  5  1  0  0  0  0
  3  9  1  0  0  0  0
  4 10  1  0  0  0  0
  5 10  1  0  0  0  0
  6  8  1  0  0  0  0
  6 15  1  0  0  0  0
  7 10  1  0  0  0  0
  7 15  1  0  0  0  0
  8 17  1  0  0  0  0
  9 18  1  0  0  0  0
 10 17  1  0  0  0  0
 11 14  1  0  0  0  0
 12 14  1  0  0  0  0
 13 14  1  0  0  0  0
 14 19  1  0  0  0  0
  2 20  1  0  0  0  0
  2 21  1  0  0  0  0
  3 22  1  0  0  0  0
  3 23  1  0  0  0  0
  4 24  1  0  0  0  0
  4 25  1  0  0  0  0
  5 26  1  0  0  0  0
  5 27  1  0  0  0  0
  6 28  1  0  0  0  0
  6 29  1  0  0  0  0
  7 30  1  0  0  0  0
  7 31  1  0  0  0  0
  8 32  1  0  0  0  0
  8 33  1  0  0  0  0
  9 34  1  0  0  0  0
 11 35  1  0  0  0  0
 11 36  1  0  0  0  0
 11 37  1  0  0  0  0
 12 38  1  0  0  0  0
 12 39  1  0  0  0  0
 12 40  1  0  0  0  0
 13 41  1  0  0  0  0
 13 42  1  0  0  0  0
 13 43  1  0  0  0  0
 18 44  1  0  0  0  0
M  END
> <id>
EN300-7542658

> <smiles>
CC(C)(C)OC(=O)N1CCOC2(CCC(O)CC2)C1

> <MDLNUMBER>
MFCD32648732

> <IUPAC Name>
tert-butyl 9-hydroxy-1-oxa-4-azaspiro[5.5]undecane-4-carboxylate

> <CAS>
2411253-94-4

> <Purity>
95

> <URL>
https://www.enaminestore.com/catalog/EN300-7542658

> <ROCS_ShapeQuery>
A71EV2A-x0451_0A_A71EV2A-x0310_0A_A71EV2A-x0416_0A_peptide

> <ROCS_TanimotoCombo>
0.474 

> <ROCS_ShapeTanimoto>
0.313 

> <ROCS_ColorTanimoto>
0.161 

> <ROCS_RefTversky>
0.278 

> <ROCS_RefColorTversky>
0.176 

> <ROCS_RefTverskyCombo>
0.454 

> <ROCS_FitTversky>
1.676 

> <ROCS_FitColorTversky>
0.652 

> <ROCS_FitTverskyCombo>
2.328 

> <ROCS_ColorScore>
-5.370

> <ROCS_Overlap>
1927.774

> <ROCS_Rank>
484                 

$$$$
untitled-dbase-30701_43
  -OEChem-11132313473D

 37 38  0     1  0  0  0  0  0999 V2000
   10.3916   13.2429   23.5305 C   0  0  0  0  0  0  0  0  0  0  0  0
    8.7295    9.4472   24.0519 C   0  0  0  0  0  0  0  0  0  0  0  0
    9.4358   10.2470   25.1604 C   0  0  0  0  0  0  0  0  0  0  0  0
    6.8581   11.1127   23.9989 C   0  0  0  0  0  0  0  0  0  0  0  0
    8.8828   11.4633   22.5872 C   0  0  0  0  0  0  0  0  0  0  0  0
    7.9247   10.3981   23.1440 C   0  0  1  0  0  0  0  0  0  0  0  0
    9.0718   11.7359   25.0420 C   0  0  2  0  0  0  0  0  0  0  0  0
    7.5404   11.8768   25.1487 C   0  0  1  0  0  0  0  0  0  0  0  0
   12.4286   15.0906   22.7465 C   0  0  0  0  0  0  0  0  0  0  0  0
   12.3613   13.9352   20.5172 C   0  0  0  0  0  0  0  0  0  0  0  0
   10.3212   15.1257   21.3710 C   0  0  0  0  0  0  0  0  0  0  0  0
   11.5576   14.3158   21.7587 C   0  0  0  0  0  0  0  0  0  0  0  0
    9.4902   12.1965   23.7040 N   0  0  0  0  0  0  0  0  0  0  0  0
   10.5193   14.1871   24.3065 O   0  0  0  0  0  0  0  0  0  0  0  0
    7.1645   13.2489   25.0975 O   0  0  0  0  0  0  0  0  0  0  0  0
   11.1291   13.1011   22.3844 O   0  0  0  0  0  0  0  0  0  0  0  0
    9.4736    8.8996   23.4611 H   0  0  0  0  0  0  0  0  0  0  0  0
    8.0663    8.6968   24.4983 H   0  0  0  0  0  0  0  0  0  0  0  0
    9.1413    9.8593   26.1429 H   0  0  0  0  0  0  0  0  0  0  0  0
   10.5218   10.1144   25.0834 H   0  0  0  0  0  0  0  0  0  0  0  0
    6.2599   11.7866   23.3738 H   0  0  0  0  0  0  0  0  0  0  0  0
    6.1675   10.3688   24.4146 H   0  0  0  0  0  0  0  0  0  0  0  0
    9.6860   11.0098   21.9953 H   0  0  0  0  0  0  0  0  0  0  0  0
    8.3558   12.1811   21.9482 H   0  0  0  0  0  0  0  0  0  0  0  0
    7.4513    9.8408   22.3292 H   0  0  0  0  0  0  0  0  0  0  0  0
    9.5738   12.3267   25.8149 H   0  0  0  0  0  0  0  0  0  0  0  0
    7.1883   11.4818   26.1089 H   0  0  0  0  0  0  0  0  0  0  0  0
   11.8553   15.3656   23.6391 H   0  0  0  0  0  0  0  0  0  0  0  0
   13.3005   14.5069   23.0595 H   0  0  0  0  0  0  0  0  0  0  0  0
   12.7812   16.0293   22.3042 H   0  0  0  0  0  0  0  0  0  0  0  0
   11.7402   13.3792   19.8057 H   0  0  0  0  0  0  0  0  0  0  0  0
   13.1960   13.2753   20.7798 H   0  0  0  0  0  0  0  0  0  0  0  0
   12.7637   14.8181   20.0100 H   0  0  0  0  0  0  0  0  0  0  0  0
    9.6962   14.5702   20.6624 H   0  0  0  0  0  0  0  0  0  0  0  0
    9.7126   15.3763   22.2458 H   0  0  0  0  0  0  0  0  0  0  0  0
   10.6071   16.0563   20.8675 H   0  0  0  0  0  0  0  0  0  0  0  0
    7.4590   13.5858   24.2366 H   0  0  0  0  0  0  0  0  0  0  0  0
  1 13  1  0  0  0  0
  1 14  2  0  0  0  0
  1 16  1  0  0  0  0
  2  3  1  0  0  0  0
  2  6  1  0  0  0  0
  3  7  1  0  0  0  0
  4  6  1  0  0  0  0
  4  8  1  0  0  0  0
  5  6  1  0  0  0  0
  5 13  1  0  0  0  0
  7  8  1  0  0  0  0
  7 13  1  0  0  0  0
  8 15  1  0  0  0  0
  9 12  1  0  0  0  0
 10 12  1  0  0  0  0
 11 12  1  0  0  0  0
 12 16  1  0  0  0  0
  2 17  1  0  0  0  0
  2 18  1  0  0  0  0
  3 19  1  0  0  0  0
  3 20  1  0  0  0  0
  4 21  1  0  0  0  0
  4 22  1  0  0  0  0
  5 23  1  0  0  0  0
  5 24  1  0  0  0  0
  6 25  1  0  0  0  0
  7 26  1  0  0  0  0
  8 27  1  0  0  0  0
  9 28  1  0  0  0  0
  9 29  1  0  0  0  0
  9 30  1  0  0  0  0
 10 31  1  0  0  0  0
 10 32  1  0  0  0  0
 10 33  1  0  0  0  0
 11 34  1  0  0  0  0
 11 35  1  0  0  0  0
 11 36  1  0  0  0  0
 15 37  1  0  0  0  0
M  END
> <id>
EN300-7219335

> <smiles>
CC(C)(C)OC(=O)N1CC2CCC1C(O)C2

> <MDLNUMBER>
MFCD23106478

> <IUPAC Name>
tert-butyl 6-hydroxy-2-azabicyclo[2.2.2]octane-2-carboxylate

> <CAS>
1311391-25-9

> <URL>
https://www.enaminestore.com/catalog/EN300-7219335

> <ROCS_ShapeQuery>
A71EV2A-x0451_0A_A71EV2A-x0310_0A_A71EV2A-x0416_0A_peptide

> <ROCS_TanimotoCombo>
0.474 

> <ROCS_ShapeTanimoto>
0.282 

> <ROCS_ColorTanimoto>
0.192 

> <ROCS_RefTversky>
0.253 

> <ROCS_RefColorTversky>
0.220 

> <ROCS_RefTverskyCombo>
0.472 

> <ROCS_FitTversky>
1.694 

> <ROCS_FitColorTversky>
0.606 

> <ROCS_FitTverskyCombo>
2.300 

> <ROCS_ColorScore>
-6.732

> <ROCS_Overlap>
1750.334

> <ROCS_Rank>
485                 

$$$$
untitled-dbase-37075_64
  -OEChem-11132313473D

 35 37  0     0  0  0  0  0  0999 V2000
    6.8830   12.2531   25.5435 C   0  0  0  0  0  0  0  0  0  0  0  0
    7.9430   10.7833   24.5416 C   0  0  0  0  0  0  0  0  0  0  0  0
    8.6244    9.7233   23.8874 C   0  0  0  0  0  0  0  0  0  0  0  0
   10.8996   14.9706   22.4732 C   0  0  0  0  0  0  0  0  0  0  0  0
    9.7202   10.4161   23.0522 C   0  0  0  0  0  0  0  0  0  0  0  0
   10.7903   12.7471   23.7840 C   0  0  0  0  0  0  0  0  0  0  0  0
    9.4278   12.8975   22.1200 C   0  0  0  0  0  0  0  0  0  0  0  0
    9.5645   11.9413   23.3181 C   0  0  0  0  0  0  0  0  0  0  0  0
   13.1578   14.7843   21.1651 C   0  0  0  0  0  0  0  0  0  0  0  0
   11.8858   15.0710   19.0183 C   0  0  0  0  0  0  0  0  0  0  0  0
   12.2622   17.0469   20.5224 C   0  0  0  0  0  0  0  0  0  0  0  0
   12.0279   15.5381   20.4653 C   0  0  0  0  0  0  0  0  0  0  0  0
    6.9416   10.8820   25.3712 N   0  0  0  0  0  0  0  0  0  0  0  0
    7.7895   12.9818   24.8665 N   0  0  0  0  0  0  0  0  0  0  0  0
    8.4358   12.0009   24.2478 N   0  0  0  0  0  0  0  0  0  0  0  0
   10.4397   13.7158   22.7617 N   0  0  0  0  0  0  0  0  0  0  0  0
    8.4113    8.5245   23.9533 O   0  0  0  0  0  0  0  0  0  0  0  0
   11.3459   15.7515   23.3089 O   0  0  0  0  0  0  0  0  0  0  0  0
   10.7984   15.2420   21.1368 O   0  0  0  0  0  0  0  0  0  0  0  0
    6.1551   12.7299   26.1833 H   0  0  0  0  0  0  0  0  0  0  0  0
   10.6976   10.0507   23.3825 H   0  0  0  0  0  0  0  0  0  0  0  0
    9.5632   10.1756   21.9962 H   0  0  0  0  0  0  0  0  0  0  0  0
   10.7586   13.1484   24.8008 H   0  0  0  0  0  0  0  0  0  0  0  0
   11.7634   12.2828   23.5981 H   0  0  0  0  0  0  0  0  0  0  0  0
    9.7642   12.5035   21.1563 H   0  0  0  0  0  0  0  0  0  0  0  0
    8.4662   13.4039   21.9984 H   0  0  0  0  0  0  0  0  0  0  0  0
   13.2630   15.1167   22.2041 H   0  0  0  0  0  0  0  0  0  0  0  0
   12.9843   13.7033   21.1618 H   0  0  0  0  0  0  0  0  0  0  0  0
   14.1198   14.9819   20.6785 H   0  0  0  0  0  0  0  0  0  0  0  0
   11.0762   15.6092   18.5123 H   0  0  0  0  0  0  0  0  0  0  0  0
   11.6237   14.0077   18.9753 H   0  0  0  0  0  0  0  0  0  0  0  0
   12.8103   15.2234   18.4520 H   0  0  0  0  0  0  0  0  0  0  0  0
   11.4518   17.5878   20.0204 H   0  0  0  0  0  0  0  0  0  0  0  0
   12.3299   17.4058   21.5545 H   0  0  0  0  0  0  0  0  0  0  0  0
   13.1859   17.3179   19.9982 H   0  0  0  0  0  0  0  0  0  0  0  0
  1 13  1  0  0  0  0
  1 14  2  0  0  0  0
  2  3  1  0  0  0  0
  2 13  2  0  0  0  0
  2 15  1  0  0  0  0
  3  5  1  0  0  0  0
  3 17  2  0  0  0  0
  4 16  1  0  0  0  0
  4 18  2  0  0  0  0
  4 19  1  0  0  0  0
  5  8  1  0  0  0  0
  6  8  1  0  0  0  0
  6 16  1  0  0  0  0
  7  8  1  0  0  0  0
  7 16  1  0  0  0  0
  8 15  1  0  0  0  0
  9 12  1  0  0  0  0
 10 12  1  0  0  0  0
 11 12  1  0  0  0  0
 12 19  1  0  0  0  0
 14 15  1  0  0  0  0
  1 20  1  0  0  0  0
  5 21  1  0  0  0  0
  5 22  1  0  0  0  0
  6 23  1  0  0  0  0
  6 24  1  0  0  0  0
  7 25  1  0  0  0  0
  7 26  1  0  0  0  0
  9 27  1  0  0  0  0
  9 28  1  0  0  0  0
  9 29  1  0  0  0  0
 10 30  1  0  0  0  0
 10 31  1  0  0  0  0
 10 32  1  0  0  0  0
 11 33  1  0  0  0  0
 11 34  1  0  0  0  0
 11 35  1  0  0  0  0
M  END
> <id>
EN300-399490

> <smiles>
CC(C)(C)OC(=O)N1CC2(C1)CC(=O)C3=NC=NN32

> <MDLNUMBER>
MFCD30752492

> <IUPAC Name>
tert-butyl 7'-oxo-6',7'-dihydrospiro[azetidine-3,5'-pyrrolo[1,2-b][1,2,4]triazole]-1-carboxylate

> <CAS>
2126160-84-5

> <Purity>
95

> <URL>
https://www.enaminestore.com/catalog/EN300-399490

> <ROCS_ShapeQuery>
A71EV2A-x0451_0A_A71EV2A-x0310_0A_A71EV2A-x0416_0A_peptide

> <ROCS_TanimotoCombo>
0.474 

> <ROCS_ShapeTanimoto>
0.341 

> <ROCS_ColorTanimoto>
0.133 

> <ROCS_RefTversky>
0.299 

> <ROCS_RefColorTversky>
0.153 

> <ROCS_RefTverskyCombo>
0.451 

> <ROCS_FitTversky>
1.720 

> <ROCS_FitColorTversky>
0.504 

> <ROCS_FitTverskyCombo>
2.223 

> <ROCS_ColorScore>
-4.666

> <ROCS_Overlap>
2071.770

> <ROCS_Rank>
486                 

$$$$
untitled-dbase-14985_134
  -OEChem-11132313473D

 43 45  0     1  0  0  0  0  0999 V2000
    6.5024   11.4609   25.5711 C   0  0  0  0  0  0  0  0  0  0  0  0
    8.0923   10.5574   24.5404 C   0  0  0  0  0  0  0  0  0  0  0  0
   12.1470   14.7950   22.5721 C   0  0  0  0  0  0  0  0  0  0  0  0
   10.3982   13.0283   25.2153 C   0  0  0  0  0  0  0  0  0  0  0  0
   11.7620   13.4840   24.6962 C   0  0  0  0  0  0  0  0  0  0  0  0
   10.2519   10.3517   23.4092 C   0  0  0  0  0  0  0  0  0  0  0  0
   11.4093   12.4251   22.4966 C   0  0  0  0  0  0  0  0  0  0  0  0
   10.0767   11.8205   22.9720 C   0  0  2  0  0  0  0  0  0  0  0  0
    9.4137   12.6467   24.0986 C   0  0  1  0  0  0  0  0  0  0  0  0
   14.1669   16.4511   21.4021 C   0  0  0  0  0  0  0  0  0  0  0  0
   13.7064   15.1929   19.2775 C   0  0  0  0  0  0  0  0  0  0  0  0
   11.8912   16.5703   20.3338 C   0  0  0  0  0  0  0  0  0  0  0  0
   13.1150   15.6931   20.5936 C   0  0  0  0  0  0  0  0  0  0  0  0
    6.9580   10.2478   25.1320 N   0  0  0  0  0  0  0  0  0  0  0  0
    7.2767   12.5113   25.2885 N   0  0  0  0  0  0  0  0  0  0  0  0
    8.2813   11.9091   24.6353 N   0  0  0  0  0  0  0  0  0  0  0  0
    8.9979    9.7925   23.8937 N   0  0  0  0  0  0  0  0  0  0  0  0
   11.7738   13.6267   23.2421 N   0  0  0  0  0  0  0  0  0  0  0  0
    5.3231   11.5040   26.2431 N   0  0  0  0  0  0  0  0  0  0  0  0
   12.0009   15.9295   23.0234 O   0  0  0  0  0  0  0  0  0  0  0  0
   12.7024   14.5456   21.3450 O   0  0  0  0  0  0  0  0  0  0  0  0
   10.5442   12.1773   25.9054 H   0  0  0  0  0  0  0  0  0  0  0  0
    9.9632   13.8307   25.8372 H   0  0  0  0  0  0  0  0  0  0  0  0
   12.0253   14.4635   25.1243 H   0  0  0  0  0  0  0  0  0  0  0  0
   12.5370   12.7763   25.0235 H   0  0  0  0  0  0  0  0  0  0  0  0
   10.6042    9.7509   22.5618 H   0  0  0  0  0  0  0  0  0  0  0  0
   11.0072   10.2609   24.1997 H   0  0  0  0  0  0  0  0  0  0  0  0
   12.2012   11.6659   22.5382 H   0  0  0  0  0  0  0  0  0  0  0  0
   11.3211   12.7228   21.4410 H   0  0  0  0  0  0  0  0  0  0  0  0
    9.3950   11.8130   22.1024 H   0  0  0  0  0  0  0  0  0  0  0  0
    9.0021   13.5701   23.6558 H   0  0  0  0  0  0  0  0  0  0  0  0
   13.7463   16.8118   22.3476 H   0  0  0  0  0  0  0  0  0  0  0  0
   15.0348   15.8220   21.6252 H   0  0  0  0  0  0  0  0  0  0  0  0
   14.5129   17.3382   20.8593 H   0  0  0  0  0  0  0  0  0  0  0  0
   12.9551   14.6484   18.6942 H   0  0  0  0  0  0  0  0  0  0  0  0
   14.5254   14.4879   19.4606 H   0  0  0  0  0  0  0  0  0  0  0  0
   14.0886   16.0174   18.6671 H   0  0  0  0  0  0  0  0  0  0  0  0
   11.1365   16.0268   19.7539 H   0  0  0  0  0  0  0  0  0  0  0  0
   11.4316   16.9084   21.2682 H   0  0  0  0  0  0  0  0  0  0  0  0
   12.1620   17.4510   19.7403 H   0  0  0  0  0  0  0  0  0  0  0  0
    8.8726    8.7880   23.8120 H   0  0  0  0  0  0  0  0  0  0  0  0
    4.9569   12.3788   26.6362 H   0  0  0  0  0  0  0  0  0  0  0  0
    4.7976   10.6511   26.4669 H   0  0  0  0  0  0  0  0  0  0  0  0
  1 14  1  0  0  0  0
  1 15  2  0  0  0  0
  1 19  1  0  0  0  0
  2 14  2  0  0  0  0
  2 16  1  0  0  0  0
  2 17  1  0  0  0  0
  3 18  1  0  0  0  0
  3 20  2  0  0  0  0
  3 21  1  0  0  0  0
  4  5  1  0  0  0  0
  4  9  1  0  0  0  0
  5 18  1  0  0  0  0
  6  8  1  0  0  0  0
  6 17  1  0  0  0  0
  7  8  1  0  0  0  0
  7 18  1  0  0  0  0
  8  9  1  0  0  0  0
  9 16  1  0  0  0  0
 10 13  1  0  0  0  0
 11 13  1  0  0  0  0
 12 13  1  0  0  0  0
 13 21  1  0  0  0  0
 15 16  1  0  0  0  0
  4 22  1  0  0  0  0
  4 23  1  0  0  0  0
  5 24  1  0  0  0  0
  5 25  1  0  0  0  0
  6 26  1  0  0  0  0
  6 27  1  0  0  0  0
  7 28  1  0  0  0  0
  7 29  1  0  0  0  0
  8 30  1  0  0  0  0
  9 31  1  0  0  0  0
 10 32  1  0  0  0  0
 10 33  1  0  0  0  0
 10 34  1  0  0  0  0
 11 35  1  0  0  0  0
 11 36  1  0  0  0  0
 11 37  1  0  0  0  0
 12 38  1  0  0  0  0
 12 39  1  0  0  0  0
 12 40  1  0  0  0  0
 17 41  1  0  0  0  0
 19 42  1  0  0  0  0
 19 43  1  0  0  0  0
M  END
> <id>
EN300-1118523

> <smiles>
CC(C)(C)OC(=O)N1CCC2C(CNC3=NC(N)=NN23)C1

> <IUPAC Name>
tert-butyl 4-amino-2,3,5,7,11-pentaazatricyclo[7.4.0.0,2,6]trideca-3,5-diene-11-carboxylate

> <CAS>
1691108-25-4

> <URL>
https://www.enaminestore.com/catalog/EN300-1118523

> <ROCS_ShapeQuery>
A71EV2A-x0451_0A_A71EV2A-x0310_0A_A71EV2A-x0416_0A_peptide

> <ROCS_TanimotoCombo>
0.474 

> <ROCS_ShapeTanimoto>
0.342 

> <ROCS_ColorTanimoto>
0.131 

> <ROCS_RefTversky>
0.302 

> <ROCS_RefColorTversky>
0.158 

> <ROCS_RefTverskyCombo>
0.461 

> <ROCS_FitTversky>
1.638 

> <ROCS_FitColorTversky>
0.435 

> <ROCS_FitTverskyCombo>
2.074 

> <ROCS_ColorScore>
-4.853

> <ROCS_Overlap>
2098.358

> <ROCS_Rank>
487                 

$$$$
untitled-dbase-43701_582
  -OEChem-11132313473D

 37 37  0     1  0  0  0  0  0999 V2000
   10.2305   13.2727   23.4204 C   0  0  0  0  0  0  0  0  0  0  0  0
    7.3792   10.9935   23.1606 C   0  0  0  0  0  0  0  0  0  0  0  0
    8.6978   11.5149   22.5818 C   0  0  0  0  0  0  0  0  0  0  0  0
    9.9403   11.1454   24.7248 C   0  0  0  0  0  0  0  0  0  0  0  0
    8.9111   10.0315   24.9397 C   0  0  1  0  0  0  0  0  0  0  0  0
    7.4838   10.5084   24.6201 C   0  0  1  0  0  0  0  0  0  0  0  0
   12.8322   13.6701   22.2979 C   0  0  0  0  0  0  0  0  0  0  0  0
   11.6258   14.5781   20.2907 C   0  0  0  0  0  0  0  0  0  0  0  0
   11.3997   15.7283   22.5120 C   0  0  0  0  0  0  0  0  0  0  0  0
    7.0263   11.6052   25.5931 C   0  0  0  0  0  0  0  0  0  0  0  0
   11.5752   14.3853   21.8047 C   0  0  0  0  0  0  0  0  0  0  0  0
    9.6064   12.0328   23.6001 N   0  0  0  0  0  0  0  0  0  0  0  0
   10.5566   14.0271   24.3347 O   0  0  0  0  0  0  0  0  0  0  0  0
    9.2349    8.9243   24.0936 O   0  0  0  0  0  0  0  0  0  0  0  0
    6.5773    9.4116   24.7816 O   0  0  0  0  0  0  0  0  0  0  0  0
   10.4392   13.5639   22.0974 O   0  0  0  0  0  0  0  0  0  0  0  0
    5.7512   11.9347   25.3429 F   0  0  0  0  0  0  0  0  0  0  0  0
    7.1245   11.1655   26.8557 F   0  0  0  0  0  0  0  0  0  0  0  0
    7.7954   12.6936   25.4483 F   0  0  0  0  0  0  0  0  0  0  0  0
    6.6155   11.7901   23.0847 H   0  0  0  0  0  0  0  0  0  0  0  0
    7.0276   10.1675   22.5154 H   0  0  0  0  0  0  0  0  0  0  0  0
    9.2319   10.7072   22.0532 H   0  0  0  0  0  0  0  0  0  0  0  0
    8.4846   12.2870   21.8246 H   0  0  0  0  0  0  0  0  0  0  0  0
   10.0648   11.7138   25.6621 H   0  0  0  0  0  0  0  0  0  0  0  0
   10.9401   10.7212   24.5199 H   0  0  0  0  0  0  0  0  0  0  0  0
    8.9652    9.6841   25.9741 H   0  0  0  0  0  0  0  0  0  0  0  0
   12.7998   13.5297   23.3843 H   0  0  0  0  0  0  0  0  0  0  0  0
   12.9510   12.6902   21.8241 H   0  0  0  0  0  0  0  0  0  0  0  0
   13.7283   14.2660   22.0898 H   0  0  0  0  0  0  0  0  0  0  0  0
   10.7258   15.0909   19.9325 H   0  0  0  0  0  0  0  0  0  0  0  0
   11.6562   13.6116   19.7749 H   0  0  0  0  0  0  0  0  0  0  0  0
   12.5011   15.1611   19.9866 H   0  0  0  0  0  0  0  0  0  0  0  0
   10.4981   16.2415   22.1584 H   0  0  0  0  0  0  0  0  0  0  0  0
   11.3244   15.6058   23.5973 H   0  0  0  0  0  0  0  0  0  0  0  0
   12.2410   16.3962   22.2944 H   0  0  0  0  0  0  0  0  0  0  0  0
    8.5633    8.2447   24.2591 H   0  0  0  0  0  0  0  0  0  0  0  0
    5.6965    9.7579   24.5791 H   0  0  0  0  0  0  0  0  0  0  0  0
  1 12  1  0  0  0  0
  1 13  2  0  0  0  0
  1 16  1  0  0  0  0
  2  3  1  0  0  0  0
  2  6  1  0  0  0  0
  3 12  1  0  0  0  0
  4  5  1  0  0  0  0
  4 12  1  0  0  0  0
  5  6  1  0  0  0  0
  5 14  1  1  0  0  0
  6 10  1  0  0  0  0
  6 15  1  1  0  0  0
  7 11  1  0  0  0  0
  8 11  1  0  0  0  0
  9 11  1  0  0  0  0
 10 17  1  0  0  0  0
 10 18  1  0  0  0  0
 10 19  1  0  0  0  0
 11 16  1  0  0  0  0
  2 20  1  0  0  0  0
  2 21  1  0  0  0  0
  3 22  1  0  0  0  0
  3 23  1  0  0  0  0
  4 24  1  0  0  0  0
  4 25  1  0  0  0  0
  5 26  1  0  0  0  0
  7 27  1  0  0  0  0
  7 28  1  0  0  0  0
  7 29  1  0  0  0  0
  8 30  1  0  0  0  0
  8 31  1  0  0  0  0
  8 32  1  0  0  0  0
  9 33  1  0  0  0  0
  9 34  1  0  0  0  0
  9 35  1  0  0  0  0
 14 36  1  0  0  0  0
 15 37  1  0  0  0  0
M  END
> <id>
EN300-28228933

> <smiles>
CC(C)(C)OC(=O)N1CC[C@@](O)([C@@H](O)C1)C(F)(F)F |&1:10,12,r|

> <IUPAC Name>
rac-tert-butyl (3R,4S)-3,4-dihydroxy-4-(trifluoromethyl)piperidine-1-carboxylate

> <CAS>
2639378-93-9

> <URL>
https://www.enaminestore.com/catalog/EN300-28228933

> <ROCS_ShapeQuery>
A71EV2A-x0451_0A_A71EV2A-x0310_0A_A71EV2A-x0416_0A_peptide

> <ROCS_TanimotoCombo>
0.474 

> <ROCS_ShapeTanimoto>
0.320 

> <ROCS_ColorTanimoto>
0.154 

> <ROCS_RefTversky>
0.283 

> <ROCS_RefColorTversky>
0.170 

> <ROCS_RefTverskyCombo>
0.453 

> <ROCS_FitTversky>
1.682 

> <ROCS_FitColorTversky>
0.628 

> <ROCS_FitTverskyCombo>
2.310 

> <ROCS_ColorScore>
-5.172

> <ROCS_Overlap>
1963.562

> <ROCS_Rank>
488                 

$$$$
untitled-dbase-34549_46
  -OEChem-11132313473D

 41 42  0     1  0  0  0  0  0999 V2000
   10.5669   13.0871   23.4769 C   0  0  0  0  0  0  0  0  0  0  0  0
    6.5676   11.4277   26.3379 C   0  0  0  0  0  0  0  0  0  0  0  0
    6.3729   12.4948   25.2580 C   0  0  0  0  0  0  0  0  0  0  0  0
    7.1153   10.1354   25.7463 C   0  0  0  0  0  0  0  0  0  0  0  0
    7.4109   12.4250   24.1312 C   0  0  0  0  0  0  0  0  0  0  0  0
    9.8440    9.4910   23.2586 C   0  0  0  0  0  0  0  0  0  0  0  0
    9.9038   10.8673   22.6183 C   0  0  0  0  0  0  0  0  0  0  0  0
    8.4982   10.3328   25.0882 C   0  0  2  0  0  0  0  0  0  0  0  0
    8.7206   11.7956   24.6228 C   0  0  1  0  0  0  0  0  0  0  0  0
   12.3949   15.1849   22.8054 C   0  0  0  0  0  0  0  0  0  0  0  0
   12.5824   14.0546   20.5701 C   0  0  0  0  0  0  0  0  0  0  0  0
   10.3703   14.9737   21.3251 C   0  0  0  0  0  0  0  0  0  0  0  0
   11.6770   14.3191   21.7711 C   0  0  0  0  0  0  0  0  0  0  0  0
    8.6084    9.3395   24.0135 N   0  0  0  0  0  0  0  0  0  0  0  0
    9.7889   11.9279   23.6142 N   0  0  0  0  0  0  0  0  0  0  0  0
   10.5434   14.0351   24.2598 O   0  0  0  0  0  0  0  0  0  0  0  0
   11.3722   13.0537   22.3686 O   0  0  0  0  0  0  0  0  0  0  0  0
    7.2613   11.8064   27.0975 H   0  0  0  0  0  0  0  0  0  0  0  0
    5.6155   11.2428   26.8486 H   0  0  0  0  0  0  0  0  0  0  0  0
    5.3611   12.4005   24.8280 H   0  0  0  0  0  0  0  0  0  0  0  0
    6.4111   13.4956   25.7233 H   0  0  0  0  0  0  0  0  0  0  0  0
    7.2124    9.3909   26.5418 H   0  0  0  0  0  0  0  0  0  0  0  0
    6.4071    9.7309   25.0193 H   0  0  0  0  0  0  0  0  0  0  0  0
    6.9848   11.8538   23.3012 H   0  0  0  0  0  0  0  0  0  0  0  0
    7.5957   13.4380   23.7609 H   0  0  0  0  0  0  0  0  0  0  0  0
    9.8852    8.7248   22.4828 H   0  0  0  0  0  0  0  0  0  0  0  0
   10.7060    9.3359   23.9112 H   0  0  0  0  0  0  0  0  0  0  0  0
   10.8327   10.9750   22.0543 H   0  0  0  0  0  0  0  0  0  0  0  0
    9.0780   10.9978   21.9132 H   0  0  0  0  0  0  0  0  0  0  0  0
    9.2425   10.0743   25.8649 H   0  0  0  0  0  0  0  0  0  0  0  0
    9.0228   12.3635   25.5267 H   0  0  0  0  0  0  0  0  0  0  0  0
   11.7483   15.3770   23.6691 H   0  0  0  0  0  0  0  0  0  0  0  0
   13.3159   14.7103   23.1593 H   0  0  0  0  0  0  0  0  0  0  0  0
   12.6496   16.1648   22.3859 H   0  0  0  0  0  0  0  0  0  0  0  0
   12.0713   13.4337   19.8255 H   0  0  0  0  0  0  0  0  0  0  0  0
   13.4786   13.5002   20.8715 H   0  0  0  0  0  0  0  0  0  0  0  0
   12.8966   14.9860   20.0881 H   0  0  0  0  0  0  0  0  0  0  0  0
    9.8552   14.3529   20.5832 H   0  0  0  0  0  0  0  0  0  0  0  0
    9.6926   15.1375   22.1692 H   0  0  0  0  0  0  0  0  0  0  0  0
   10.5630   15.9380   20.8411 H   0  0  0  0  0  0  0  0  0  0  0  0
    7.8107    9.4290   23.3747 H   0  0  0  0  0  0  0  0  0  0  0  0
  1 15  1  0  0  0  0
  1 16  2  0  0  0  0
  1 17  1  0  0  0  0
  2  3  1  0  0  0  0
  2  4  1  0  0  0  0
  3  5  1  0  0  0  0
  4  8  1  0  0  0  0
  5  9  1  0  0  0  0
  6  7  1  0  0  0  0
  6 14  1  0  0  0  0
  7 15  1  0  0  0  0
  8  9  1  0  0  0  0
  8 14  1  0  0  0  0
  9 15  1  0  0  0  0
 10 13  1  0  0  0  0
 11 13  1  0  0  0  0
 12 13  1  0  0  0  0
 13 17  1  0  0  0  0
  2 18  1  0  0  0  0
  2 19  1  0  0  0  0
  3 20  1  0  0  0  0
  3 21  1  0  0  0  0
  4 22  1  0  0  0  0
  4 23  1  0  0  0  0
  5 24  1  0  0  0  0
  5 25  1  0  0  0  0
  6 26  1  0  0  0  0
  6 27  1  0  0  0  0
  7 28  1  0  0  0  0
  7 29  1  0  0  0  0
  8 30  1  0  0  0  0
  9 31  1  0  0  0  0
 10 32  1  0  0  0  0
 10 33  1  0  0  0  0
 10 34  1  0  0  0  0
 11 35  1  0  0  0  0
 11 36  1  0  0  0  0
 11 37  1  0  0  0  0
 12 38  1  0  0  0  0
 12 39  1  0  0  0  0
 12 40  1  0  0  0  0
 14 41  1  0  0  0  0
M  END
> <id>
EN300-153500

> <smiles>
CC(C)(C)OC(=O)N1CCNC2CCCCC21

> <MDLNUMBER>
MFCD08686664

> <IUPAC Name>
tert-butyl decahydroquinoxaline-1-carboxylate

> <CAS>
886780-73-0

> <Purity>
95

> <URL>
https://www.enaminestore.com/catalog/EN300-153500

> <ROCS_ShapeQuery>
A71EV2A-x0451_0A_A71EV2A-x0310_0A_A71EV2A-x0416_0A_peptide

> <ROCS_TanimotoCombo>
0.474 

> <ROCS_ShapeTanimoto>
0.322 

> <ROCS_ColorTanimoto>
0.152 

> <ROCS_RefTversky>
0.281 

> <ROCS_RefColorTversky>
0.164 

> <ROCS_RefTverskyCombo>
0.445 

> <ROCS_FitTversky>
1.830 

> <ROCS_FitColorTversky>
0.683 

> <ROCS_FitTverskyCombo>
2.512 

> <ROCS_ColorScore>
-4.981

> <ROCS_Overlap>
1946.674

> <ROCS_Rank>
489                 

$$$$
untitled-dbase-23722_1
  -OEChem-11132313473D

 27 28  0     1  0  0  0  0  0999 V2000
   10.4600   13.2664   23.3761 C   0  0  0  0  0  0  0  0  0  0  0  0
    7.3998   12.6362   24.3219 C   0  0  0  0  0  0  0  0  0  0  0  0
    9.5106   11.0981   22.4385 C   0  0  0  0  0  0  0  0  0  0  0  0
    6.4158   12.4011   25.4594 C   0  0  0  0  0  0  0  0  0  0  0  0
    9.2768    9.7069   23.0090 C   0  0  0  0  0  0  0  0  0  0  0  0
    7.4931   10.4067   26.1487 C   0  0  0  0  0  0  0  0  0  0  0  0
    8.7600   11.9972   24.6466 C   0  0  1  0  0  0  0  0  0  0  0  0
    8.5933   10.5408   25.0967 C   0  0  2  0  0  0  0  0  0  0  0  0
    9.6699   12.1109   23.4925 N   0  0  0  0  0  0  0  0  0  0  0  0
   11.1110   13.4412   22.1726 N   0  0  0  0  0  0  0  0  0  0  0  0
   10.5803   14.1052   24.2743 O   0  0  0  0  0  0  0  0  0  0  0  0
    6.2725   11.0051   25.7103 O   0  0  0  0  0  0  0  0  0  0  0  0
    8.2338    9.7218   23.9790 O   0  0  0  0  0  0  0  0  0  0  0  0
    6.9869   12.1862   23.4113 H   0  0  0  0  0  0  0  0  0  0  0  0
    7.5101   13.7107   24.1415 H   0  0  0  0  0  0  0  0  0  0  0  0
   10.3771   11.0907   21.7711 H   0  0  0  0  0  0  0  0  0  0  0  0
    8.6425   11.4083   21.8464 H   0  0  0  0  0  0  0  0  0  0  0  0
    6.7327   12.9111   26.3770 H   0  0  0  0  0  0  0  0  0  0  0  0
    5.4311   12.7940   25.1864 H   0  0  0  0  0  0  0  0  0  0  0  0
    8.9743    9.0246   22.2050 H   0  0  0  0  0  0  0  0  0  0  0  0
   10.1949    9.2972   23.4532 H   0  0  0  0  0  0  0  0  0  0  0  0
    7.2791    9.3501   26.3396 H   0  0  0  0  0  0  0  0  0  0  0  0
    7.7959   10.8672   27.0961 H   0  0  0  0  0  0  0  0  0  0  0  0
    9.1890   12.5383   25.4984 H   0  0  0  0  0  0  0  0  0  0  0  0
    9.5275   10.1585   25.5205 H   0  0  0  0  0  0  0  0  0  0  0  0
   10.9771   12.7723   21.4210 H   0  0  0  0  0  0  0  0  0  0  0  0
   11.6793   14.2466   21.9431 H   0  0  0  0  0  0  0  0  0  0  0  0
  1  9  1  0  0  0  0
  1 10  1  0  0  0  0
  1 11  2  0  0  0  0
  2  4  1  0  0  0  0
  2  7  1  6  0  0  0
  3  5  1  0  0  0  0
  3  9  1  0  0  0  0
  4 12  1  0  0  0  0
  5 13  1  0  0  0  0
  6  8  1  6  0  0  0
  6 12  1  0  0  0  0
  7  8  1  0  0  0  0
  7  9  1  0  0  0  0
  8 13  1  0  0  0  0
  2 14  1  0  0  0  0
  2 15  1  0  0  0  0
  3 16  1  0  0  0  0
  3 17  1  0  0  0  0
  4 18  1  0  0  0  0
  4 19  1  0  0  0  0
  5 20  1  0  0  0  0
  5 21  1  0  0  0  0
  6 22  1  0  0  0  0
  6 23  1  0  0  0  0
  7 24  1  0  0  0  0
  8 25  1  0  0  0  0
 10 26  1  0  0  0  0
 10 27  1  0  0  0  0
M  END
> <id>
EN300-7538620

> <smiles>
NC(=O)N1CCO[C@@H]2COCC[C@@H]21 |&1:7,12,r|

> <MDLNUMBER>
MFCD32269087

> <IUPAC Name>
rac-(4aR,8aR)-octahydropyrano[3,4-b]morpholine-1-carboxamide

> <CAS>
2408937-39-1

> <Purity>
95

> <URL>
https://www.enaminestore.com/catalog/EN300-7538620

> <ROCS_ShapeQuery>
A71EV2A-x0451_0A_A71EV2A-x0310_0A_A71EV2A-x0416_0A_peptide

> <ROCS_TanimotoCombo>
0.474 

> <ROCS_ShapeTanimoto>
0.263 

> <ROCS_ColorTanimoto>
0.211 

> <ROCS_RefTversky>
0.235 

> <ROCS_RefColorTversky>
0.216 

> <ROCS_RefTverskyCombo>
0.452 

> <ROCS_FitTversky>
1.796 

> <ROCS_FitColorTversky>
0.900 

> <ROCS_FitTverskyCombo>
2.696 

> <ROCS_ColorScore>
-6.572

> <ROCS_Overlap>
1630.740

> <ROCS_Rank>
490                 

$$$$
untitled-dbase-41296_162
  -OEChem-11132313473D

 41 42  0     0  0  0  0  0  0999 V2000
    6.4961   10.9241   26.5400 C   0  0  0  0  0  0  0  0  0  0  0  0
    6.3665   12.2286   26.0828 C   0  0  0  0  0  0  0  0  0  0  0  0
    7.3362   10.0344   25.8701 C   0  0  0  0  0  0  0  0  0  0  0  0
    7.9218   11.7510   24.2674 C   0  0  0  0  0  0  0  0  0  0  0  0
    7.0695   12.6376   24.9519 C   0  0  0  0  0  0  0  0  0  0  0  0
    8.0660   10.4264   24.7311 C   0  0  0  0  0  0  0  0  0  0  0  0
   10.8942   13.1034   23.4488 C   0  0  0  0  0  0  0  0  0  0  0  0
    8.5776   12.2294   22.9937 C   0  0  0  0  0  0  0  0  0  0  0  0
   10.3331    9.8113   23.9271 C   0  0  0  0  0  0  0  0  0  0  0  0
   10.5522   10.7504   22.7513 C   0  0  0  0  0  0  0  0  0  0  0  0
    6.8676   14.0561   24.5189 C   0  0  0  0  0  0  0  0  0  0  0  0
   12.5025   15.4231   22.9776 C   0  0  0  0  0  0  0  0  0  0  0  0
   13.8463   13.9533   21.4468 C   0  0  0  0  0  0  0  0  0  0  0  0
   11.4258   14.3992   20.9461 C   0  0  0  0  0  0  0  0  0  0  0  0
   12.4665   14.2103   22.0488 C   0  0  0  0  0  0  0  0  0  0  0  0
    8.9309    9.4959   24.1554 N   0  0  0  0  0  0  0  0  0  0  0  0
   10.0307   12.0845   23.0270 N   0  0  0  0  0  0  0  0  0  0  0  0
   10.6024   13.9578   24.2837 O   0  0  0  0  0  0  0  0  0  0  0  0
   12.1103   13.0568   22.8192 O   0  0  0  0  0  0  0  0  0  0  0  0
    5.9484   10.5976   27.4193 H   0  0  0  0  0  0  0  0  0  0  0  0
    5.7149   12.9185   26.6132 H   0  0  0  0  0  0  0  0  0  0  0  0
    7.4260    9.0213   26.2534 H   0  0  0  0  0  0  0  0  0  0  0  0
    8.2155   11.6776   22.1193 H   0  0  0  0  0  0  0  0  0  0  0  0
    8.3177   13.2782   22.8003 H   0  0  0  0  0  0  0  0  0  0  0  0
   10.8597    8.8685   23.7171 H   0  0  0  0  0  0  0  0  0  0  0  0
   10.7926   10.1942   24.8504 H   0  0  0  0  0  0  0  0  0  0  0  0
   11.6135   10.8545   22.5596 H   0  0  0  0  0  0  0  0  0  0  0  0
   10.0765   10.3485   21.8659 H   0  0  0  0  0  0  0  0  0  0  0  0
    7.6030   14.7051   25.0050 H   0  0  0  0  0  0  0  0  0  0  0  0
    6.9733   14.1539   23.4331 H   0  0  0  0  0  0  0  0  0  0  0  0
    5.8622   14.4052   24.7783 H   0  0  0  0  0  0  0  0  0  0  0  0
   11.5140   15.6109   23.4118 H   0  0  0  0  0  0  0  0  0  0  0  0
   13.2201   15.2855   23.7930 H   0  0  0  0  0  0  0  0  0  0  0  0
   12.7752   16.3301   22.4259 H   0  0  0  0  0  0  0  0  0  0  0  0
   13.8251   13.0840   20.7797 H   0  0  0  0  0  0  0  0  0  0  0  0
   14.5774   13.7234   22.2303 H   0  0  0  0  0  0  0  0  0  0  0  0
   14.2066   14.8172   20.8790 H   0  0  0  0  0  0  0  0  0  0  0  0
   11.3998   13.5294   20.2798 H   0  0  0  0  0  0  0  0  0  0  0  0
   10.4229   14.5481   21.3593 H   0  0  0  0  0  0  0  0  0  0  0  0
   11.6755   15.2622   20.3183 H   0  0  0  0  0  0  0  0  0  0  0  0
    8.6324    8.5643   24.0486 H   0  0  0  0  0  0  0  0  0  0  0  0
  1  2  1  0  0  0  0
  1  3  2  0  0  0  0
  2  5  2  0  0  0  0
  3  6  1  0  0  0  0
  4  5  1  0  0  0  0
  4  6  2  0  0  0  0
  4  8  1  0  0  0  0
  5 11  1  0  0  0  0
  6 16  1  0  0  0  0
  7 17  1  0  0  0  0
  7 18  2  0  0  0  0
  7 19  1  0  0  0  0
  8 17  1  0  0  0  0
  9 10  1  0  0  0  0
  9 16  1  0  0  0  0
 10 17  1  0  0  0  0
 12 15  1  0  0  0  0
 13 15  1  0  0  0  0
 14 15  1  0  0  0  0
 15 19  1  0  0  0  0
  1 20  1  0  0  0  0
  2 21  1  0  0  0  0
  3 22  1  0  0  0  0
  8 23  1  0  0  0  0
  8 24  1  0  0  0  0
  9 25  1  0  0  0  0
  9 26  1  0  0  0  0
 10 27  1  0  0  0  0
 10 28  1  0  0  0  0
 11 29  1  0  0  0  0
 11 30  1  0  0  0  0
 11 31  1  0  0  0  0
 12 32  1  0  0  0  0
 12 33  1  0  0  0  0
 12 34  1  0  0  0  0
 13 35  1  0  0  0  0
 13 36  1  0  0  0  0
 13 37  1  0  0  0  0
 14 38  1  0  0  0  0
 14 39  1  0  0  0  0
 14 40  1  0  0  0  0
 16 41  1  0  0  0  0
M  END
> <id>
EN300-97881

> <smiles>
CC=1C=CC=C2NCCN(CC12)C(=O)OC(C)(C)C

> <MDLNUMBER>
MFCD21334172

> <IUPAC Name>
tert-butyl 6-methyl-2,3,4,5-tetrahydro-1H-1,4-benzodiazepine-4-carboxylate

> <CAS>
1375474-56-8

> <Purity>
95

> <URL>
https://www.enaminestore.com/catalog/EN300-97881

> <ROCS_ShapeQuery>
A71EV2A-x0451_0A_A71EV2A-x0310_0A_A71EV2A-x0416_0A_peptide

> <ROCS_TanimotoCombo>
0.474 

> <ROCS_ShapeTanimoto>
0.323 

> <ROCS_ColorTanimoto>
0.150 

> <ROCS_RefTversky>
0.285 

> <ROCS_RefColorTversky>
0.158 

> <ROCS_RefTverskyCombo>
0.443 

> <ROCS_FitTversky>
1.702 

> <ROCS_FitColorTversky>
0.757 

> <ROCS_FitTverskyCombo>
2.459 

> <ROCS_ColorScore>
-4.800

> <ROCS_Overlap>
1980.211

> <ROCS_Rank>
491                 

$$$$
untitled-dbase-45838_4
  -OEChem-11132313473D

 35 36  0     0  0  0  0  0  0999 V2000
    8.1053   12.7012   24.9204 C   0  0  0  0  0  0  0  0  0  0  0  0
    7.2057   10.1383   24.8724 C   0  0  0  0  0  0  0  0  0  0  0  0
    8.3191   10.4616   24.0931 C   0  0  0  0  0  0  0  0  0  0  0  0
    8.7928   11.7892   24.1091 C   0  0  0  0  0  0  0  0  0  0  0  0
    7.0135   12.2671   25.6647 C   0  0  0  0  0  0  0  0  0  0  0  0
   10.5277   13.4420   23.3260 C   0  0  0  0  0  0  0  0  0  0  0  0
    8.9315    9.3897   23.2394 C   0  0  0  0  0  0  0  0  0  0  0  0
   10.3623    9.7371   22.8849 C   0  0  0  0  0  0  0  0  0  0  0  0
   10.4272   11.1523   22.3388 C   0  0  0  0  0  0  0  0  0  0  0  0
   12.8474   15.1023   23.0036 C   0  0  0  0  0  0  0  0  0  0  0  0
   12.1554   15.2849   20.5959 C   0  0  0  0  0  0  0  0  0  0  0  0
   10.6463   16.1637   22.4011 C   0  0  0  0  0  0  0  0  0  0  0  0
   11.6693   15.0909   22.0306 C   0  0  0  0  0  0  0  0  0  0  0  0
    6.5456   11.0060   25.6634 N   0  0  0  0  0  0  0  0  0  0  0  0
    9.9274   12.1632   23.2907 N   0  0  0  0  0  0  0  0  0  0  0  0
   10.6215   14.1783   24.3040 O   0  0  0  0  0  0  0  0  0  0  0  0
   11.0323   13.8094   22.1010 O   0  0  0  0  0  0  0  0  0  0  0  0
    6.1581   13.3450   26.6923 Cl  0  0  0  0  0  0  0  0  0  0  0  0
    8.4005   13.7370   25.0230 H   0  0  0  0  0  0  0  0  0  0  0  0
    6.8031    9.1293   24.8782 H   0  0  0  0  0  0  0  0  0  0  0  0
    8.8990    8.4417   23.7900 H   0  0  0  0  0  0  0  0  0  0  0  0
    8.3565    9.2598   22.3151 H   0  0  0  0  0  0  0  0  0  0  0  0
   10.9986    9.6453   23.7723 H   0  0  0  0  0  0  0  0  0  0  0  0
   10.7529    9.0354   22.1366 H   0  0  0  0  0  0  0  0  0  0  0  0
   11.4574   11.4305   22.0840 H   0  0  0  0  0  0  0  0  0  0  0  0
    9.8450   11.1821   21.4120 H   0  0  0  0  0  0  0  0  0  0  0  0
   12.5027   14.9633   24.0345 H   0  0  0  0  0  0  0  0  0  0  0  0
   13.5713   14.3149   22.7698 H   0  0  0  0  0  0  0  0  0  0  0  0
   13.3659   16.0676   22.9785 H   0  0  0  0  0  0  0  0  0  0  0  0
   11.3134   15.2774   19.8944 H   0  0  0  0  0  0  0  0  0  0  0  0
   12.8165   14.4647   20.2935 H   0  0  0  0  0  0  0  0  0  0  0  0
   12.6972   16.2288   20.4771 H   0  0  0  0  0  0  0  0  0  0  0  0
    9.8011   16.1557   21.7033 H   0  0  0  0  0  0  0  0  0  0  0  0
   10.2589   16.0186   23.4147 H   0  0  0  0  0  0  0  0  0  0  0  0
   11.0901   17.1638   22.3377 H   0  0  0  0  0  0  0  0  0  0  0  0
  1  4  2  0  0  0  0
  1  5  1  0  0  0  0
  2  3  2  0  0  0  0
  2 14  1  0  0  0  0
  3  4  1  0  0  0  0
  3  7  1  0  0  0  0
  4 15  1  0  0  0  0
  5 14  2  0  0  0  0
  5 18  1  0  0  0  0
  6 15  1  0  0  0  0
  6 16  2  0  0  0  0
  6 17  1  0  0  0  0
  7  8  1  0  0  0  0
  8  9  1  0  0  0  0
  9 15  1  0  0  0  0
 10 13  1  0  0  0  0
 11 13  1  0  0  0  0
 12 13  1  0  0  0  0
 13 17  1  0  0  0  0
  1 19  1  0  0  0  0
  2 20  1  0  0  0  0
  7 21  1  0  0  0  0
  7 22  1  0  0  0  0
  8 23  1  0  0  0  0
  8 24  1  0  0  0  0
  9 25  1  0  0  0  0
  9 26  1  0  0  0  0
 10 27  1  0  0  0  0
 10 28  1  0  0  0  0
 10 29  1  0  0  0  0
 11 30  1  0  0  0  0
 11 31  1  0  0  0  0
 11 32  1  0  0  0  0
 12 33  1  0  0  0  0
 12 34  1  0  0  0  0
 12 35  1  0  0  0  0
M  END
> <id>
EN300-396605

> <smiles>
CC(C)(C)OC(=O)N1CCCC=2C=NC(Cl)=CC12

> <IUPAC Name>
tert-butyl 7-chloro-1,2,3,4-tetrahydro-1,6-naphthyridine-1-carboxylate

> <CAS>
2384202-63-3

> <URL>
https://www.enaminestore.com/catalog/EN300-396605

> <ROCS_ShapeQuery>
A71EV2A-x0451_0A_A71EV2A-x0310_0A_A71EV2A-x0416_0A_peptide

> <ROCS_TanimotoCombo>
0.474 

> <ROCS_ShapeTanimoto>
0.344 

> <ROCS_ColorTanimoto>
0.130 

> <ROCS_RefTversky>
0.297 

> <ROCS_RefColorTversky>
0.139 

> <ROCS_RefTverskyCombo>
0.436 

> <ROCS_FitTversky>
1.839 

> <ROCS_FitColorTversky>
0.667 

> <ROCS_FitTverskyCombo>
2.506 

> <ROCS_ColorScore>
-4.227

> <ROCS_Overlap>
2060.176

> <ROCS_Rank>
492                 

$$$$
untitled-dbase-38007_94
  -OEChem-11132313473D

 43 44  0     1  0  0  0  0  0999 V2000
   10.5499   13.4025   23.4048 C   0  0  0  0  0  0  0  0  0  0  0  0
    8.1910   10.6914   22.8958 C   0  0  0  0  0  0  0  0  0  0  0  0
    9.4162   10.1226   25.0577 C   0  0  0  0  0  0  0  0  0  0  0  0
    5.8579    9.2802   24.3138 C   0  0  0  0  0  0  0  0  0  0  0  0
    9.5702   11.2772   22.5867 C   0  0  0  0  0  0  0  0  0  0  0  0
   10.1169   11.4810   25.0040 C   0  0  0  0  0  0  0  0  0  0  0  0
    5.8610   10.5820   25.0914 C   0  0  0  0  0  0  0  0  0  0  0  0
    7.2942    8.8320   24.4781 C   0  0  2  0  0  0  0  0  0  0  0  0
    8.0560   10.1618   24.3495 C   0  0  0  0  0  0  0  0  0  0  0  0
   12.1657   14.6929   20.2649 C   0  0  0  0  0  0  0  0  0  0  0  0
   10.5207   15.8878   21.7328 C   0  0  0  0  0  0  0  0  0  0  0  0
   12.7772   15.2582   22.6273 C   0  0  0  0  0  0  0  0  0  0  0  0
   11.6349   14.8366   21.6959 C   0  0  0  0  0  0  0  0  0  0  0  0
   10.0737   12.1061   23.6780 N   0  0  0  0  0  0  0  0  0  0  0  0
    7.6840    7.7782   23.5591 N   0  0  0  0  0  0  0  0  0  0  0  0
   11.1023   13.5682   22.1373 N   0  0  0  0  0  0  0  0  0  0  0  0
   10.4867   14.3307   24.2166 O   0  0  0  0  0  0  0  0  0  0  0  0
    7.2006   11.1045   25.0504 O   0  0  0  0  0  0  0  0  0  0  0  0
    7.4435   11.4782   22.7040 H   0  0  0  0  0  0  0  0  0  0  0  0
    7.9868    9.8817   22.1756 H   0  0  0  0  0  0  0  0  0  0  0  0
   10.0579    9.3701   24.5957 H   0  0  0  0  0  0  0  0  0  0  0  0
    9.2818    9.8547   26.1075 H   0  0  0  0  0  0  0  0  0  0  0  0
    5.1262    8.5645   24.6989 H   0  0  0  0  0  0  0  0  0  0  0  0
    5.6167    9.4728   23.2621 H   0  0  0  0  0  0  0  0  0  0  0  0
   10.2660   10.4616   22.3568 H   0  0  0  0  0  0  0  0  0  0  0  0
    9.5257   11.9125   21.6919 H   0  0  0  0  0  0  0  0  0  0  0  0
    9.6442   12.1878   25.7077 H   0  0  0  0  0  0  0  0  0  0  0  0
   11.1475   11.3349   25.3561 H   0  0  0  0  0  0  0  0  0  0  0  0
    5.1679   11.3181   24.6752 H   0  0  0  0  0  0  0  0  0  0  0  0
    5.6035   10.4161   26.1425 H   0  0  0  0  0  0  0  0  0  0  0  0
    7.4080    8.4523   25.5041 H   0  0  0  0  0  0  0  0  0  0  0  0
   12.9654   13.9449   20.2122 H   0  0  0  0  0  0  0  0  0  0  0  0
   11.3724   14.3863   19.5742 H   0  0  0  0  0  0  0  0  0  0  0  0
   12.5828   15.6392   19.9014 H   0  0  0  0  0  0  0  0  0  0  0  0
   10.1245   16.0086   22.7478 H   0  0  0  0  0  0  0  0  0  0  0  0
    9.6815   15.5971   21.0903 H   0  0  0  0  0  0  0  0  0  0  0  0
   10.8825   16.8648   21.3936 H   0  0  0  0  0  0  0  0  0  0  0  0
   12.4250   15.3687   23.6595 H   0  0  0  0  0  0  0  0  0  0  0  0
   13.5874   14.5207   22.6242 H   0  0  0  0  0  0  0  0  0  0  0  0
   13.1996   16.2234   22.3243 H   0  0  0  0  0  0  0  0  0  0  0  0
    8.6322    7.5340   23.7373 H   0  0  0  0  0  0  0  0  0  0  0  0
    7.0922    6.9918   23.7067 H   0  0  0  0  0  0  0  0  0  0  0  0
   11.1307   12.7773   21.5091 H   0  0  0  0  0  0  0  0  0  0  0  0
  1 14  1  0  0  0  0
  1 16  1  0  0  0  0
  1 17  2  0  0  0  0
  2  5  1  0  0  0  0
  2  9  1  0  0  0  0
  3  6  1  0  0  0  0
  3  9  1  0  0  0  0
  4  7  1  0  0  0  0
  4  8  1  0  0  0  0
  5 14  1  0  0  0  0
  6 14  1  0  0  0  0
  7 18  1  0  0  0  0
  8  9  1  0  0  0  0
  8 15  1  0  0  0  0
  9 18  1  0  0  0  0
 10 13  1  0  0  0  0
 11 13  1  0  0  0  0
 12 13  1  0  0  0  0
 13 16  1  0  0  0  0
  2 19  1  0  0  0  0
  2 20  1  0  0  0  0
  3 21  1  0  0  0  0
  3 22  1  0  0  0  0
  4 23  1  0  0  0  0
  4 24  1  0  0  0  0
  5 25  1  0  0  0  0
  5 26  1  0  0  0  0
  6 27  1  0  0  0  0
  6 28  1  0  0  0  0
  7 29  1  0  0  0  0
  7 30  1  0  0  0  0
  8 31  1  0  0  0  0
 10 32  1  0  0  0  0
 10 33  1  0  0  0  0
 10 34  1  0  0  0  0
 11 35  1  0  0  0  0
 11 36  1  0  0  0  0
 11 37  1  0  0  0  0
 12 38  1  0  0  0  0
 12 39  1  0  0  0  0
 12 40  1  0  0  0  0
 15 41  1  0  0  0  0
 15 42  1  0  0  0  0
 16 43  1  0  0  0  0
M  END
> <id>
EN300-840084

> <smiles>
CC(C)(C)NC(=O)N1CCC2(CC1)OCCC2N

> <IUPAC Name>
4-amino-N-tert-butyl-1-oxa-8-azaspiro[4.5]decane-8-carboxamide

> <CAS>
2137470-77-8

> <URL>
https://www.enaminestore.com/catalog/EN300-840084

> <ROCS_ShapeQuery>
A71EV2A-x0451_0A_A71EV2A-x0310_0A_A71EV2A-x0416_0A_peptide

> <ROCS_TanimotoCombo>
0.474 

> <ROCS_ShapeTanimoto>
0.284 

> <ROCS_ColorTanimoto>
0.190 

> <ROCS_RefTversky>
0.256 

> <ROCS_RefColorTversky>
0.208 

> <ROCS_RefTverskyCombo>
0.464 

> <ROCS_FitTversky>
1.606 

> <ROCS_FitColorTversky>
0.691 

> <ROCS_FitTverskyCombo>
2.296 

> <ROCS_ColorScore>
-6.345

> <ROCS_Overlap>
1776.465

> <ROCS_Rank>
493                 

$$$$
untitled-dbase-20055_149
  -OEChem-11132313473D

 42 44  0     1  0  0  0  0  0999 V2000
   10.2206   13.5146   23.3413 C   0  0  0  0  0  0  0  0  0  0  0  0
    6.8038   11.8014   25.6161 C   0  0  0  0  0  0  0  0  0  0  0  0
    6.4195   11.1917   24.2786 C   0  0  0  0  0  0  0  0  0  0  0  0
    7.8711   10.8423   26.1162 C   0  0  0  0  0  0  0  0  0  0  0  0
    7.6693    9.3842   22.9599 C   0  0  0  0  0  0  0  0  0  0  0  0
    9.0688    9.0132   24.7766 C   0  0  0  0  0  0  0  0  0  0  0  0
    8.4115   11.8386   22.8134 C   0  0  0  0  0  0  0  0  0  0  0  0
    9.8957   11.4407   24.6724 C   0  0  0  0  0  0  0  0  0  0  0  0
    7.7570   10.7421   23.6573 C   0  0  1  0  0  0  0  0  0  0  0  0
    8.7072   10.4974   24.8673 C   0  0  2  0  0  0  0  0  0  0  0  0
   12.6735   13.6301   21.8781 C   0  0  0  0  0  0  0  0  0  0  0  0
   11.3125   14.6632   20.0369 C   0  0  0  0  0  0  0  0  0  0  0  0
   11.5092   15.8299   22.2524 C   0  0  0  0  0  0  0  0  0  0  0  0
   11.4449   14.4761   21.5468 C   0  0  0  0  0  0  0  0  0  0  0  0
    7.9427    8.4287   24.0393 N   0  0  0  0  0  0  0  0  0  0  0  0
    9.5110   12.3543   23.6133 N   0  0  0  0  0  0  0  0  0  0  0  0
   10.7415   14.2227   24.2004 O   0  0  0  0  0  0  0  0  0  0  0  0
   10.2776   13.7810   21.9993 O   0  0  0  0  0  0  0  0  0  0  0  0
    7.2183   12.8055   25.4798 H   0  0  0  0  0  0  0  0  0  0  0  0
    5.9542   11.8682   26.3000 H   0  0  0  0  0  0  0  0  0  0  0  0
    5.7545   10.3351   24.4477 H   0  0  0  0  0  0  0  0  0  0  0  0
    5.8763   11.9009   23.6448 H   0  0  0  0  0  0  0  0  0  0  0  0
    8.4731   11.2810   26.9201 H   0  0  0  0  0  0  0  0  0  0  0  0
    7.3889    9.9459   26.5287 H   0  0  0  0  0  0  0  0  0  0  0  0
    6.6921    9.2017   22.5039 H   0  0  0  0  0  0  0  0  0  0  0  0
    8.4293    9.2693   22.1786 H   0  0  0  0  0  0  0  0  0  0  0  0
    9.9926    8.8456   24.2108 H   0  0  0  0  0  0  0  0  0  0  0  0
    9.1900    8.5437   25.7573 H   0  0  0  0  0  0  0  0  0  0  0  0
    8.7776   11.4901   21.8408 H   0  0  0  0  0  0  0  0  0  0  0  0
    7.7346   12.6817   22.6272 H   0  0  0  0  0  0  0  0  0  0  0  0
   10.0942   12.0520   25.5633 H   0  0  0  0  0  0  0  0  0  0  0  0
   10.8278   10.9203   24.4177 H   0  0  0  0  0  0  0  0  0  0  0  0
   12.7720   13.4935   22.9609 H   0  0  0  0  0  0  0  0  0  0  0  0
   12.6230   12.6434   21.4062 H   0  0  0  0  0  0  0  0  0  0  0  0
   13.5918   14.1267   21.5443 H   0  0  0  0  0  0  0  0  0  0  0  0
   10.4323   15.2696   19.7946 H   0  0  0  0  0  0  0  0  0  0  0  0
   11.1708   13.6992   19.5351 H   0  0  0  0  0  0  0  0  0  0  0  0
   12.1963   15.1492   19.6110 H   0  0  0  0  0  0  0  0  0  0  0  0
   10.6281   16.4369   22.0149 H   0  0  0  0  0  0  0  0  0  0  0  0
   11.5673   15.7156   23.3397 H   0  0  0  0  0  0  0  0  0  0  0  0
   12.3800   16.4039   21.9156 H   0  0  0  0  0  0  0  0  0  0  0  0
    7.1306    8.3861   24.6564 H   0  0  0  0  0  0  0  0  0  0  0  0
  1 16  1  0  0  0  0
  1 17  2  0  0  0  0
  1 18  1  0  0  0  0
  2  3  1  0  0  0  0
  2  4  1  0  0  0  0
  3  9  1  0  0  0  0
  4 10  1  0  0  0  0
  5  9  1  0  0  0  0
  5 15  1  0  0  0  0
  6 10  1  0  0  0  0
  6 15  1  0  0  0  0
  7  9  1  0  0  0  0
  7 16  1  0  0  0  0
  8 10  1  0  0  0  0
  8 16  1  0  0  0  0
  9 10  1  0  0  0  0
 11 14  1  0  0  0  0
 12 14  1  0  0  0  0
 13 14  1  0  0  0  0
 14 18  1  0  0  0  0
  2 19  1  0  0  0  0
  2 20  1  0  0  0  0
  3 21  1  0  0  0  0
  3 22  1  0  0  0  0
  4 23  1  0  0  0  0
  4 24  1  0  0  0  0
  5 25  1  0  0  0  0
  5 26  1  0  0  0  0
  6 27  1  0  0  0  0
  6 28  1  0  0  0  0
  7 29  1  0  0  0  0
  7 30  1  0  0  0  0
  8 31  1  0  0  0  0
  8 32  1  0  0  0  0
 11 33  1  0  0  0  0
 11 34  1  0  0  0  0
 11 35  1  0  0  0  0
 12 36  1  0  0  0  0
 12 37  1  0  0  0  0
 12 38  1  0  0  0  0
 13 39  1  0  0  0  0
 13 40  1  0  0  0  0
 13 41  1  0  0  0  0
 15 42  1  0  0  0  0
M  END
> <id>
EN300-1716627

> <smiles>
CC(C)(C)OC(=O)N1CC23CCCC3(CNC2)C1

> <MDLNUMBER>
MFCD31665971

> <IUPAC Name>
tert-butyl 3,7-diazatricyclo[3.3.3.0,1,5]undecane-3-carboxylate

> <CAS>
2225144-72-7

> <Purity>
95

> <URL>
https://www.enaminestore.com/catalog/EN300-1716627

> <ROCS_ShapeQuery>
A71EV2A-x0451_0A_A71EV2A-x0310_0A_A71EV2A-x0416_0A_peptide

> <ROCS_TanimotoCombo>
0.474 

> <ROCS_ShapeTanimoto>
0.293 

> <ROCS_ColorTanimoto>
0.180 

> <ROCS_RefTversky>
0.264 

> <ROCS_RefColorTversky>
0.195 

> <ROCS_RefTverskyCombo>
0.459 

> <ROCS_FitTversky>
1.612 

> <ROCS_FitColorTversky>
0.703 

> <ROCS_FitTverskyCombo>
2.315 

> <ROCS_ColorScore>
-5.952

> <ROCS_Overlap>
1830.700

> <ROCS_Rank>
494                 

$$$$
untitled-dbase-50778_110
  -OEChem-11132313473D

 37 38  0     1  0  0  0  0  0999 V2000
    6.9944   10.4316   25.6424 C   0  0  0  0  0  0  0  0  0  0  0  0
    6.3760   11.5159   26.2540 C   0  0  0  0  0  0  0  0  0  0  0  0
    8.0317   10.6296   24.7154 C   0  0  0  0  0  0  0  0  0  0  0  0
    8.5012   11.9312   24.4301 C   0  0  0  0  0  0  0  0  0  0  0  0
    6.7832   12.8041   25.9352 C   0  0  0  0  0  0  0  0  0  0  0  0
    7.8284   13.0097   25.0284 C   0  0  0  0  0  0  0  0  0  0  0  0
   10.4125   13.2658   23.4126 C   0  0  0  0  0  0  0  0  0  0  0  0
    8.6439    9.4278   24.0533 C   0  0  0  0  0  0  0  0  0  0  0  0
   10.0143   10.9771   22.6800 C   0  0  0  0  0  0  0  0  0  0  0  0
    9.0524    9.8015   22.6402 C   0  0  1  0  0  0  0  0  0  0  0  0
   12.0288   15.5403   22.7582 C   0  0  0  0  0  0  0  0  0  0  0  0
   11.6987   14.8501   20.3657 C   0  0  0  0  0  0  0  0  0  0  0  0
    9.7179   15.5109   21.7614 C   0  0  0  0  0  0  0  0  0  0  0  0
   11.0941   14.8469   21.7681 C   0  0  0  0  0  0  0  0  0  0  0  0
    9.6018   12.1111   23.5153 N   0  0  0  0  0  0  0  0  0  0  0  0
   10.5760   14.0601   24.3402 O   0  0  0  0  0  0  0  0  0  0  0  0
    9.7043    8.6993   22.0200 O   0  0  0  0  0  0  0  0  0  0  0  0
   10.9391   13.4800   22.1681 O   0  0  0  0  0  0  0  0  0  0  0  0
    6.1514   13.8554   26.4740 F   0  0  0  0  0  0  0  0  0  0  0  0
    8.0628   14.2801   24.6785 F   0  0  0  0  0  0  0  0  0  0  0  0
    6.6637    9.4276   25.8904 H   0  0  0  0  0  0  0  0  0  0  0  0
    5.5709   11.3573   26.9654 H   0  0  0  0  0  0  0  0  0  0  0  0
    9.5144    9.1030   24.6100 H   0  0  0  0  0  0  0  0  0  0  0  0
    7.8994    8.6409   24.0238 H   0  0  0  0  0  0  0  0  0  0  0  0
   10.9966   10.5972   23.0228 H   0  0  0  0  0  0  0  0  0  0  0  0
   10.1829   11.3753   21.6585 H   0  0  0  0  0  0  0  0  0  0  0  0
    8.1785   10.0438   22.0515 H   0  0  0  0  0  0  0  0  0  0  0  0
   11.5984   15.5401   23.7660 H   0  0  0  0  0  0  0  0  0  0  0  0
   13.0080   15.0522   22.7982 H   0  0  0  0  0  0  0  0  0  0  0  0
   12.1770   16.5915   22.4856 H   0  0  0  0  0  0  0  0  0  0  0  0
   11.0314   14.3536   19.6520 H   0  0  0  0  0  0  0  0  0  0  0  0
   12.6419   14.2922   20.3460 H   0  0  0  0  0  0  0  0  0  0  0  0
   11.8905   15.8679   20.0108 H   0  0  0  0  0  0  0  0  0  0  0  0
    9.0473   15.0137   21.0513 H   0  0  0  0  0  0  0  0  0  0  0  0
    9.2528   15.4849   22.7522 H   0  0  0  0  0  0  0  0  0  0  0  0
    9.7909   16.5556   21.4382 H   0  0  0  0  0  0  0  0  0  0  0  0
    9.0653    7.9702   22.0120 H   0  0  0  0  0  0  0  0  0  0  0  0
  1  2  1  0  0  0  0
  1  3  2  0  0  0  0
  2  5  2  0  0  0  0
  3  4  1  0  0  0  0
  3  8  1  0  0  0  0
  4  6  2  0  0  0  0
  4 15  1  0  0  0  0
  5  6  1  0  0  0  0
  5 19  1  0  0  0  0
  6 20  1  0  0  0  0
  7 15  1  0  0  0  0
  7 16  2  0  0  0  0
  7 18  1  0  0  0  0
  8 10  1  0  0  0  0
  9 10  1  0  0  0  0
  9 15  1  0  0  0  0
 10 17  1  0  0  0  0
 11 14  1  0  0  0  0
 12 14  1  0  0  0  0
 13 14  1  0  0  0  0
 14 18  1  0  0  0  0
  1 21  1  0  0  0  0
  2 22  1  0  0  0  0
  8 23  1  0  0  0  0
  8 24  1  0  0  0  0
  9 25  1  0  0  0  0
  9 26  1  0  0  0  0
 10 27  1  0  0  0  0
 11 28  1  0  0  0  0
 11 29  1  0  0  0  0
 11 30  1  0  0  0  0
 12 31  1  0  0  0  0
 12 32  1  0  0  0  0
 12 33  1  0  0  0  0
 13 34  1  0  0  0  0
 13 35  1  0  0  0  0
 13 36  1  0  0  0  0
 17 37  1  0  0  0  0
M  END
> <id>
EN300-37397174

> <smiles>
CC(C)(C)OC(=O)N1CC(O)CC=2C=CC(F)=C(F)C12

> <IUPAC Name>
tert-butyl 7,8-difluoro-3-hydroxy-1,2,3,4-tetrahydroquinoline-1-carboxylate

> <CAS>
2770500-31-5

> <URL>
https://www.enaminestore.com/catalog/EN300-37397174

> <ROCS_ShapeQuery>
A71EV2A-x0451_0A_A71EV2A-x0310_0A_A71EV2A-x0416_0A_peptide

> <ROCS_TanimotoCombo>
0.474 

> <ROCS_ShapeTanimoto>
0.353 

> <ROCS_ColorTanimoto>
0.121 

> <ROCS_RefTversky>
0.307 

> <ROCS_RefColorTversky>
0.133 

> <ROCS_RefTverskyCombo>
0.440 

> <ROCS_FitTversky>
1.742 

> <ROCS_FitColorTversky>
0.557 

> <ROCS_FitTverskyCombo>
2.298 

> <ROCS_ColorScore>
-4.058

> <ROCS_Overlap>
2130.521

> <ROCS_Rank>
495                 

$$$$
untitled-dbase-23026_34
  -OEChem-11132313473D

 38 39  0     1  0  0  0  0  0999 V2000
   10.1827   13.4152   23.3904 C   0  0  0  0  0  0  0  0  0  0  0  0
    7.6389   10.3211   25.7144 C   0  0  0  0  0  0  0  0  0  0  0  0
    8.2622   11.9061   22.7852 C   0  0  0  0  0  0  0  0  0  0  0  0
    9.8493   11.2353   24.5216 C   0  0  0  0  0  0  0  0  0  0  0  0
    7.5891   10.8349   23.6165 C   0  0  2  0  0  0  0  0  0  0  0  0
    6.8039   11.3211   24.8780 C   0  0  1  0  0  0  0  0  0  0  0  0
    8.6713   10.2924   24.5639 C   0  0  2  0  0  0  0  0  0  0  0  0
   12.0700   12.5025   21.4468 C   0  0  0  0  0  0  0  0  0  0  0  0
   11.2148   14.3748   20.0072 C   0  0  0  0  0  0  0  0  0  0  0  0
   12.3296   14.8906   22.1980 C   0  0  0  0  0  0  0  0  0  0  0  0
    5.3048   11.0939   24.8609 C   0  0  0  0  0  0  0  0  0  0  0  0
   11.4492   13.8987   21.4392 C   0  0  0  0  0  0  0  0  0  0  0  0
    9.4319   12.2600   23.5768 N   0  0  0  0  0  0  0  0  0  0  0  0
    8.9853    8.9098   24.2174 N   0  0  0  0  0  0  0  0  0  0  0  0
   10.7893   13.9956   24.2883 O   0  0  0  0  0  0  0  0  0  0  0  0
   10.1734   13.8336   22.0864 O   0  0  0  0  0  0  0  0  0  0  0  0
    4.7157   11.9061   23.9646 F   0  0  0  0  0  0  0  0  0  0  0  0
    5.0254    9.8202   24.5296 F   0  0  0  0  0  0  0  0  0  0  0  0
    4.7772   11.3440   26.0731 F   0  0  0  0  0  0  0  0  0  0  0  0
    8.0058   10.7132   26.6683 H   0  0  0  0  0  0  0  0  0  0  0  0
    7.1242    9.3718   25.9109 H   0  0  0  0  0  0  0  0  0  0  0  0
    8.6188   11.5082   21.8302 H   0  0  0  0  0  0  0  0  0  0  0  0
    7.6316   12.7791   22.5986 H   0  0  0  0  0  0  0  0  0  0  0  0
   10.0692   11.6919   25.4929 H   0  0  0  0  0  0  0  0  0  0  0  0
   10.7652   10.7733   24.1342 H   0  0  0  0  0  0  0  0  0  0  0  0
    7.0370   10.0950   23.0238 H   0  0  0  0  0  0  0  0  0  0  0  0
    7.0266   12.3632   25.1494 H   0  0  0  0  0  0  0  0  0  0  0  0
   12.2398   12.1571   22.4729 H   0  0  0  0  0  0  0  0  0  0  0  0
   11.4316   11.7743   20.9360 H   0  0  0  0  0  0  0  0  0  0  0  0
   13.0501   12.5077   20.9563 H   0  0  0  0  0  0  0  0  0  0  0  0
   10.7695   15.3762   19.9970 H   0  0  0  0  0  0  0  0  0  0  0  0
   10.5081   13.7173   19.4881 H   0  0  0  0  0  0  0  0  0  0  0  0
   12.1468   14.4040   19.4336 H   0  0  0  0  0  0  0  0  0  0  0  0
   11.8845   15.8921   22.1927 H   0  0  0  0  0  0  0  0  0  0  0  0
   12.4782   14.5840   23.2385 H   0  0  0  0  0  0  0  0  0  0  0  0
   13.3110   14.9859   21.7194 H   0  0  0  0  0  0  0  0  0  0  0  0
    8.7435    8.7632   23.2652 H   0  0  0  0  0  0  0  0  0  0  0  0
    9.9582    8.7662   24.3565 H   0  0  0  0  0  0  0  0  0  0  0  0
  1 13  1  0  0  0  0
  1 15  2  0  0  0  0
  1 16  1  0  0  0  0
  2  6  1  0  0  0  0
  2  7  1  0  0  0  0
  3  5  1  6  0  0  0
  3 13  1  0  0  0  0
  4  7  1  0  0  0  0
  4 13  1  0  0  0  0
  5  6  1  0  0  0  0
  5  7  1  0  0  0  0
  6 11  1  1  0  0  0
  7 14  1  1  0  0  0
  8 12  1  0  0  0  0
  9 12  1  0  0  0  0
 10 12  1  0  0  0  0
 11 17  1  0  0  0  0
 11 18  1  0  0  0  0
 11 19  1  0  0  0  0
 12 16  1  0  0  0  0
  2 20  1  0  0  0  0
  2 21  1  0  0  0  0
  3 22  1  0  0  0  0
  3 23  1  0  0  0  0
  4 24  1  0  0  0  0
  4 25  1  0  0  0  0
  5 26  1  0  0  0  0
  6 27  1  0  0  0  0
  8 28  1  0  0  0  0
  8 29  1  0  0  0  0
  8 30  1  0  0  0  0
  9 31  1  0  0  0  0
  9 32  1  0  0  0  0
  9 33  1  0  0  0  0
 10 34  1  0  0  0  0
 10 35  1  0  0  0  0
 10 36  1  0  0  0  0
 14 37  1  0  0  0  0
 14 38  1  0  0  0  0
M  END
> <id>
EN300-37099740

> <smiles>
CC(C)(C)OC(=O)N1C[C@@H]2[C@H](C[C@]2(N)C1)C(F)(F)F |&1:9,10,12,r|

> <IUPAC Name>
rac-tert-butyl (1R,5S,6S)-1-amino-6-(trifluoromethyl)-3-azabicyclo[3.2.0]heptane-3-carboxylate

> <CAS>
2732244-85-6

> <URL>
https://www.enaminestore.com/catalog/EN300-37099740

> <ROCS_ShapeQuery>
A71EV2A-x0451_0A_A71EV2A-x0310_0A_A71EV2A-x0416_0A_peptide

> <ROCS_TanimotoCombo>
0.474 

> <ROCS_ShapeTanimoto>
0.271 

> <ROCS_ColorTanimoto>
0.203 

> <ROCS_RefTversky>
0.249 

> <ROCS_RefColorTversky>
0.227 

> <ROCS_RefTverskyCombo>
0.476 

> <ROCS_FitTversky>
1.473 

> <ROCS_FitColorTversky>
0.660 

> <ROCS_FitTverskyCombo>
2.132 

> <ROCS_ColorScore>
-6.938

> <ROCS_Overlap>
1727.544

> <ROCS_Rank>
496                 

$$$$
untitled-dbase-18146_34
  -OEChem-11132313473D

 38 39  0     1  0  0  0  0  0999 V2000
   10.1827   13.4152   23.3904 C   0  0  0  0  0  0  0  0  0  0  0  0
    7.6389   10.3211   25.7144 C   0  0  0  0  0  0  0  0  0  0  0  0
    8.2622   11.9061   22.7852 C   0  0  0  0  0  0  0  0  0  0  0  0
    9.8493   11.2353   24.5216 C   0  0  0  0  0  0  0  0  0  0  0  0
    7.5891   10.8349   23.6165 C   0  0  2  0  0  0  0  0  0  0  0  0
    6.8039   11.3211   24.8780 C   0  0  1  0  0  0  0  0  0  0  0  0
    8.6713   10.2924   24.5639 C   0  0  2  0  0  0  0  0  0  0  0  0
   12.0700   12.5025   21.4468 C   0  0  0  0  0  0  0  0  0  0  0  0
   11.2148   14.3748   20.0072 C   0  0  0  0  0  0  0  0  0  0  0  0
   12.3296   14.8906   22.1980 C   0  0  0  0  0  0  0  0  0  0  0  0
    5.3048   11.0939   24.8609 C   0  0  0  0  0  0  0  0  0  0  0  0
   11.4492   13.8987   21.4392 C   0  0  0  0  0  0  0  0  0  0  0  0
    9.4319   12.2600   23.5768 N   0  0  0  0  0  0  0  0  0  0  0  0
    8.9853    8.9098   24.2174 N   0  0  0  0  0  0  0  0  0  0  0  0
   10.7893   13.9956   24.2883 O   0  0  0  0  0  0  0  0  0  0  0  0
   10.1734   13.8336   22.0864 O   0  0  0  0  0  0  0  0  0  0  0  0
    4.7157   11.9061   23.9646 F   0  0  0  0  0  0  0  0  0  0  0  0
    5.0254    9.8202   24.5296 F   0  0  0  0  0  0  0  0  0  0  0  0
    4.7772   11.3440   26.0731 F   0  0  0  0  0  0  0  0  0  0  0  0
    8.0058   10.7132   26.6683 H   0  0  0  0  0  0  0  0  0  0  0  0
    7.1242    9.3718   25.9109 H   0  0  0  0  0  0  0  0  0  0  0  0
    8.6188   11.5082   21.8302 H   0  0  0  0  0  0  0  0  0  0  0  0
    7.6316   12.7791   22.5986 H   0  0  0  0  0  0  0  0  0  0  0  0
   10.0692   11.6919   25.4929 H   0  0  0  0  0  0  0  0  0  0  0  0
   10.7652   10.7733   24.1342 H   0  0  0  0  0  0  0  0  0  0  0  0
    7.0370   10.0950   23.0238 H   0  0  0  0  0  0  0  0  0  0  0  0
    7.0266   12.3632   25.1494 H   0  0  0  0  0  0  0  0  0  0  0  0
   12.2398   12.1571   22.4729 H   0  0  0  0  0  0  0  0  0  0  0  0
   11.4316   11.7743   20.9360 H   0  0  0  0  0  0  0  0  0  0  0  0
   13.0501   12.5077   20.9563 H   0  0  0  0  0  0  0  0  0  0  0  0
   10.7695   15.3762   19.9970 H   0  0  0  0  0  0  0  0  0  0  0  0
   10.5081   13.7173   19.4881 H   0  0  0  0  0  0  0  0  0  0  0  0
   12.1468   14.4040   19.4336 H   0  0  0  0  0  0  0  0  0  0  0  0
   11.8845   15.8921   22.1927 H   0  0  0  0  0  0  0  0  0  0  0  0
   12.4782   14.5840   23.2385 H   0  0  0  0  0  0  0  0  0  0  0  0
   13.3110   14.9859   21.7194 H   0  0  0  0  0  0  0  0  0  0  0  0
    8.7435    8.7632   23.2652 H   0  0  0  0  0  0  0  0  0  0  0  0
    9.9582    8.7662   24.3565 H   0  0  0  0  0  0  0  0  0  0  0  0
  1 13  1  0  0  0  0
  1 15  2  0  0  0  0
  1 16  1  0  0  0  0
  2  6  1  0  0  0  0
  2  7  1  0  0  0  0
  3  5  1  6  0  0  0
  3 13  1  0  0  0  0
  4  7  1  0  0  0  0
  4 13  1  0  0  0  0
  5  6  1  0  0  0  0
  5  7  1  0  0  0  0
  6 11  1  1  0  0  0
  7 14  1  1  0  0  0
  8 12  1  0  0  0  0
  9 12  1  0  0  0  0
 10 12  1  0  0  0  0
 11 17  1  0  0  0  0
 11 18  1  0  0  0  0
 11 19  1  0  0  0  0
 12 16  1  0  0  0  0
  2 20  1  0  0  0  0
  2 21  1  0  0  0  0
  3 22  1  0  0  0  0
  3 23  1  0  0  0  0
  4 24  1  0  0  0  0
  4 25  1  0  0  0  0
  5 26  1  0  0  0  0
  6 27  1  0  0  0  0
  8 28  1  0  0  0  0
  8 29  1  0  0  0  0
  8 30  1  0  0  0  0
  9 31  1  0  0  0  0
  9 32  1  0  0  0  0
  9 33  1  0  0  0  0
 10 34  1  0  0  0  0
 10 35  1  0  0  0  0
 10 36  1  0  0  0  0
 14 37  1  0  0  0  0
 14 38  1  0  0  0  0
M  END
> <id>
EN300-37099739

> <smiles>
Cl.CC(C)(C)OC(=O)N1C[C@@H]2[C@H](C[C@]2(N)C1)C(F)(F)F |&1:10,11,13,r|

> <IUPAC Name>
rac-tert-butyl (1R,5S,6S)-1-amino-6-(trifluoromethyl)-3-azabicyclo[3.2.0]heptane-3-carboxylate hydrochloride

> <CAS>
2763584-24-1

> <Purity>
95

> <URL>
https://www.enaminestore.com/catalog/EN300-37099739

> <Saltdate>
Cl

> <ROCS_ShapeQuery>
A71EV2A-x0451_0A_A71EV2A-x0310_0A_A71EV2A-x0416_0A_peptide

> <ROCS_TanimotoCombo>
0.474 

> <ROCS_ShapeTanimoto>
0.271 

> <ROCS_ColorTanimoto>
0.203 

> <ROCS_RefTversky>
0.249 

> <ROCS_RefColorTversky>
0.227 

> <ROCS_RefTverskyCombo>
0.476 

> <ROCS_FitTversky>
1.473 

> <ROCS_FitColorTversky>
0.660 

> <ROCS_FitTverskyCombo>
2.132 

> <ROCS_ColorScore>
-6.938

> <ROCS_Overlap>
1727.544

> <ROCS_Rank>
497                 

$$$$
untitled-dbase-30491_98
  -OEChem-11132313473D

 37 38  0     1  0  0  0  0  0999 V2000
   10.3389   13.0847   23.4636 C   0  0  0  0  0  0  0  0  0  0  0  0
    7.0998   11.3894   26.3619 C   0  0  0  0  0  0  0  0  0  0  0  0
    6.6128   10.4760   25.2365 C   0  0  0  0  0  0  0  0  0  0  0  0
    8.4278   11.9510   25.8757 C   0  0  0  0  0  0  0  0  0  0  0  0
    9.3881   10.9006   22.7254 C   0  0  0  0  0  0  0  0  0  0  0  0
    7.3303   10.9457   23.9689 C   0  0  1  0  0  0  0  0  0  0  0  0
    8.1770   12.1556   24.3863 C   0  0  2  0  0  0  0  0  0  0  0  0
    8.3564    9.9742   23.3586 C   0  0  2  0  0  0  0  0  0  0  0  0
   12.4158   14.9203   22.7647 C   0  0  0  0  0  0  0  0  0  0  0  0
   11.8555   14.3601   20.3811 C   0  0  0  0  0  0  0  0  0  0  0  0
   10.1299   15.4426   21.8502 C   0  0  0  0  0  0  0  0  0  0  0  0
   11.3133   14.4772   21.8039 C   0  0  0  0  0  0  0  0  0  0  0  0
    9.3706   12.0979   23.5568 N   0  0  0  0  0  0  0  0  0  0  0  0
   10.6938   13.7938   24.4027 O   0  0  0  0  0  0  0  0  0  0  0  0
    8.9939    9.1780   24.3495 O   0  0  0  0  0  0  0  0  0  0  0  0
   10.8582   13.1788   22.2004 O   0  0  0  0  0  0  0  0  0  0  0  0
    6.3824   12.2056   26.5107 H   0  0  0  0  0  0  0  0  0  0  0  0
    7.1989   10.8556   27.3118 H   0  0  0  0  0  0  0  0  0  0  0  0
    6.8042    9.4254   25.4714 H   0  0  0  0  0  0  0  0  0  0  0  0
    5.5271   10.5742   25.1247 H   0  0  0  0  0  0  0  0  0  0  0  0
    8.6921   12.8808   26.3880 H   0  0  0  0  0  0  0  0  0  0  0  0
    9.2301   11.2261   26.0560 H   0  0  0  0  0  0  0  0  0  0  0  0
   10.4000   10.4857   22.6878 H   0  0  0  0  0  0  0  0  0  0  0  0
    9.0837   11.2069   21.7184 H   0  0  0  0  0  0  0  0  0  0  0  0
    6.6155   11.2450   23.1924 H   0  0  0  0  0  0  0  0  0  0  0  0
    7.6463   13.0987   24.2098 H   0  0  0  0  0  0  0  0  0  0  0  0
    7.8972    9.3070   22.6216 H   0  0  0  0  0  0  0  0  0  0  0  0
   12.0306   15.0055   23.7871 H   0  0  0  0  0  0  0  0  0  0  0  0
   13.2554   14.2176   22.7669 H   0  0  0  0  0  0  0  0  0  0  0  0
   12.7953   15.9121   22.4936 H   0  0  0  0  0  0  0  0  0  0  0  0
   11.0679   14.0424   19.6883 H   0  0  0  0  0  0  0  0  0  0  0  0
   12.6419   13.5987   20.3245 H   0  0  0  0  0  0  0  0  0  0  0  0
   12.2669   15.3105   20.0260 H   0  0  0  0  0  0  0  0  0  0  0  0
    9.3389   15.1250   21.1612 H   0  0  0  0  0  0  0  0  0  0  0  0
    9.7044   15.5111   22.8566 H   0  0  0  0  0  0  0  0  0  0  0  0
   10.4331   16.4464   21.5312 H   0  0  0  0  0  0  0  0  0  0  0  0
    9.6864    8.6702   23.8970 H   0  0  0  0  0  0  0  0  0  0  0  0
  1 13  1  0  0  0  0
  1 14  2  0  0  0  0
  1 16  1  0  0  0  0
  2  3  1  0  0  0  0
  2  4  1  0  0  0  0
  3  6  1  1  0  0  0
  4  7  1  1  0  0  0
  5  8  1  0  0  0  0
  5 13  1  0  0  0  0
  6  7  1  0  0  0  0
  6  8  1  0  0  0  0
  7 13  1  0  0  0  0
  8 15  1  1  0  0  0
  9 12  1  0  0  0  0
 10 12  1  0  0  0  0
 11 12  1  0  0  0  0
 12 16  1  0  0  0  0
  2 17  1  0  0  0  0
  2 18  1  0  0  0  0
  3 19  1  0  0  0  0
  3 20  1  0  0  0  0
  4 21  1  0  0  0  0
  4 22  1  0  0  0  0
  5 23  1  0  0  0  0
  5 24  1  0  0  0  0
  6 25  1  0  0  0  0
  7 26  1  0  0  0  0
  8 27  1  0  0  0  0
  9 28  1  0  0  0  0
  9 29  1  0  0  0  0
  9 30  1  0  0  0  0
 10 31  1  0  0  0  0
 10 32  1  0  0  0  0
 10 33  1  0  0  0  0
 11 34  1  0  0  0  0
 11 35  1  0  0  0  0
 11 36  1  0  0  0  0
 15 37  1  0  0  0  0
M  END
> <id>
EN300-26666013

> <smiles>
CC(C)(C)OC(=O)N1C[C@@H](O)[C@H]2CCC[C@H]21 |&1:9,11,15,r|

> <IUPAC Name>
rac-tert-butyl (3R,3aR,6aS)-3-hydroxy-octahydrocyclopenta[b]pyrrole-1-carboxylate

> <CAS>
2413847-03-5

> <Purity>
95

> <URL>
https://www.enaminestore.com/catalog/EN300-26666013

> <ROCS_ShapeQuery>
A71EV2A-x0451_0A_A71EV2A-x0310_0A_A71EV2A-x0416_0A_peptide

> <ROCS_TanimotoCombo>
0.474 

> <ROCS_ShapeTanimoto>
0.300 

> <ROCS_ColorTanimoto>
0.174 

> <ROCS_RefTversky>
0.265 

> <ROCS_RefColorTversky>
0.184 

> <ROCS_RefTverskyCombo>
0.449 

> <ROCS_FitTversky>
1.777 

> <ROCS_FitColorTversky>
0.761 

> <ROCS_FitTverskyCombo>
2.538 

> <ROCS_ColorScore>
-5.588

> <ROCS_Overlap>
1838.052

> <ROCS_Rank>
498                 

$$$$
untitled-dbase-41005_62
  -OEChem-11132313473D

 36 38  0     0  0  0  0  0  0999 V2000
    6.8220   12.2604   25.5927 C   0  0  0  0  0  0  0  0  0  0  0  0
    7.7596   12.9995   24.8847 C   0  0  0  0  0  0  0  0  0  0  0  0
    7.9552   10.8255   24.5380 C   0  0  0  0  0  0  0  0  0  0  0  0
    8.6395    9.7635   23.8849 C   0  0  0  0  0  0  0  0  0  0  0  0
   10.9562   14.9858   22.4511 C   0  0  0  0  0  0  0  0  0  0  0  0
    9.7328   10.4522   23.0455 C   0  0  0  0  0  0  0  0  0  0  0  0
    9.4419   12.9233   22.0963 C   0  0  0  0  0  0  0  0  0  0  0  0
   10.8079   12.7820   23.7585 C   0  0  0  0  0  0  0  0  0  0  0  0
    9.5761   11.9783   23.3043 C   0  0  0  0  0  0  0  0  0  0  0  0
   13.2363   14.7528   21.1892 C   0  0  0  0  0  0  0  0  0  0  0  0
   12.0154   15.0742   19.0177 C   0  0  0  0  0  0  0  0  0  0  0  0
   12.4049   17.0367   20.5359 C   0  0  0  0  0  0  0  0  0  0  0  0
   12.1381   15.5337   20.4689 C   0  0  0  0  0  0  0  0  0  0  0  0
    6.9510   10.8940   25.3698 N   0  0  0  0  0  0  0  0  0  0  0  0
    8.4504   12.0418   24.2350 N   0  0  0  0  0  0  0  0  0  0  0  0
   10.4624   13.7410   22.7259 N   0  0  0  0  0  0  0  0  0  0  0  0
    8.4282    8.5646   23.9560 O   0  0  0  0  0  0  0  0  0  0  0  0
   11.4024   15.7541   23.2986 O   0  0  0  0  0  0  0  0  0  0  0  0
   10.8888   15.2633   21.1140 O   0  0  0  0  0  0  0  0  0  0  0  0
    6.0570   12.6411   26.2542 H   0  0  0  0  0  0  0  0  0  0  0  0
    7.9623   14.0580   24.8084 H   0  0  0  0  0  0  0  0  0  0  0  0
   10.7108   10.0882   23.3749 H   0  0  0  0  0  0  0  0  0  0  0  0
    9.5729   10.2065   21.9911 H   0  0  0  0  0  0  0  0  0  0  0  0
    9.7720   12.5168   21.1355 H   0  0  0  0  0  0  0  0  0  0  0  0
    8.4830   13.4342   21.9724 H   0  0  0  0  0  0  0  0  0  0  0  0
   10.7834   13.1979   24.7693 H   0  0  0  0  0  0  0  0  0  0  0  0
   11.7779   12.3096   23.5762 H   0  0  0  0  0  0  0  0  0  0  0  0
   13.3275   15.0797   22.2312 H   0  0  0  0  0  0  0  0  0  0  0  0
   13.0387   13.6759   21.1786 H   0  0  0  0  0  0  0  0  0  0  0  0
   14.2122   14.9301   20.7231 H   0  0  0  0  0  0  0  0  0  0  0  0
   11.2286   15.6319   18.4970 H   0  0  0  0  0  0  0  0  0  0  0  0
   11.7305   14.0171   18.9658 H   0  0  0  0  0  0  0  0  0  0  0  0
   12.9546   15.2074   18.4710 H   0  0  0  0  0  0  0  0  0  0  0  0
   11.6173   17.5971   20.0193 H   0  0  0  0  0  0  0  0  0  0  0  0
   12.4593   17.3910   21.5704 H   0  0  0  0  0  0  0  0  0  0  0  0
   13.3450   17.2884   20.0317 H   0  0  0  0  0  0  0  0  0  0  0  0
  1  2  2  0  0  0  0
  1 14  1  0  0  0  0
  2 15  1  0  0  0  0
  3  4  1  0  0  0  0
  3 14  2  0  0  0  0
  3 15  1  0  0  0  0
  4  6  1  0  0  0  0
  4 17  2  0  0  0  0
  5 16  1  0  0  0  0
  5 18  2  0  0  0  0
  5 19  1  0  0  0  0
  6  9  1  0  0  0  0
  7  9  1  0  0  0  0
  7 16  1  0  0  0  0
  8  9  1  0  0  0  0
  8 16  1  0  0  0  0
  9 15  1  0  0  0  0
 10 13  1  0  0  0  0
 11 13  1  0  0  0  0
 12 13  1  0  0  0  0
 13 19  1  0  0  0  0
  1 20  1  0  0  0  0
  2 21  1  0  0  0  0
  6 22  1  0  0  0  0
  6 23  1  0  0  0  0
  7 24  1  0  0  0  0
  7 25  1  0  0  0  0
  8 26  1  0  0  0  0
  8 27  1  0  0  0  0
 10 28  1  0  0  0  0
 10 29  1  0  0  0  0
 10 30  1  0  0  0  0
 11 31  1  0  0  0  0
 11 32  1  0  0  0  0
 11 33  1  0  0  0  0
 12 34  1  0  0  0  0
 12 35  1  0  0  0  0
 12 36  1  0  0  0  0
M  END
> <id>
EN300-329272

> <smiles>
CC(C)(C)OC(=O)N1CC2(C1)CC(=O)C3=NC=CN32

> <MDLNUMBER>
MFCD30497737

> <IUPAC Name>
tert-butyl 7'-oxo-6',7'-dihydrospiro[azetidine-3,5'-pyrrolo[1,2-a]imidazole]-1-carboxylate

> <CAS>
2060058-30-0

> <Purity>
95

> <URL>
https://www.enaminestore.com/catalog/EN300-329272

> <ROCS_ShapeQuery>
A71EV2A-x0451_0A_A71EV2A-x0310_0A_A71EV2A-x0416_0A_peptide

> <ROCS_TanimotoCombo>
0.474 

> <ROCS_ShapeTanimoto>
0.341 

> <ROCS_ColorTanimoto>
0.133 

> <ROCS_RefTversky>
0.298 

> <ROCS_RefColorTversky>
0.153 

> <ROCS_RefTverskyCombo>
0.451 

> <ROCS_FitTversky>
1.722 

> <ROCS_FitColorTversky>
0.504 

> <ROCS_FitTverskyCombo>
2.226 

> <ROCS_ColorScore>
-4.661

> <ROCS_Overlap>
2069.619

> <ROCS_Rank>
499                 

$$$$
untitled-dbase-36205_42
  -OEChem-11132313473D

 32 33  0     1  0  0  0  0  0999 V2000
    7.2725   10.8009   25.3631 C   0  0  0  0  0  0  0  0  0  0  0  0
   10.6198   13.0200   23.5542 C   0  0  0  0  0  0  0  0  0  0  0  0
    7.9971   12.1552   25.4746 C   0  0  0  0  0  0  0  0  0  0  0  0
    9.0078    9.6985   23.7594 C   0  0  0  0  0  0  0  0  0  0  0  0
   10.0810   10.6098   23.1730 C   0  0  0  0  0  0  0  0  0  0  0  0
    7.7702   10.5797   23.9209 C   0  0  2  0  0  0  0  0  0  0  0  0
    8.2982   12.0433   23.9605 C   0  0  2  0  0  0  0  0  0  0  0  0
   12.7287   14.8896   23.0829 C   0  0  0  0  0  0  0  0  0  0  0  0
   13.0535   13.6918   20.8990 C   0  0  0  0  0  0  0  0  0  0  0  0
   10.8808   14.8586   21.3744 C   0  0  0  0  0  0  0  0  0  0  0  0
   12.0475   14.0800   21.9804 C   0  0  0  0  0  0  0  0  0  0  0  0
    9.7264   11.9618   23.5913 N   0  0  0  0  0  0  0  0  0  0  0  0
    6.5845   10.1527   26.1229 O   0  0  0  0  0  0  0  0  0  0  0  0
   10.5935   13.9773   24.3238 O   0  0  0  0  0  0  0  0  0  0  0  0
   11.5398   12.8694   22.5518 O   0  0  0  0  0  0  0  0  0  0  0  0
    7.3276   12.9775   25.7466 H   0  0  0  0  0  0  0  0  0  0  0  0
    8.8640   12.1489   26.1413 H   0  0  0  0  0  0  0  0  0  0  0  0
    8.7887    8.8936   23.0516 H   0  0  0  0  0  0  0  0  0  0  0  0
    9.3207    9.2495   24.7037 H   0  0  0  0  0  0  0  0  0  0  0  0
   11.0683   10.3870   23.5947 H   0  0  0  0  0  0  0  0  0  0  0  0
   10.1473   10.5421   22.0822 H   0  0  0  0  0  0  0  0  0  0  0  0
    6.9590   10.3791   23.2196 H   0  0  0  0  0  0  0  0  0  0  0  0
    7.7374   12.7417   23.3145 H   0  0  0  0  0  0  0  0  0  0  0  0
   12.0099   15.1701   23.8611 H   0  0  0  0  0  0  0  0  0  0  0  0
   13.5450   14.3287   23.5495 H   0  0  0  0  0  0  0  0  0  0  0  0
   13.1354   15.8265   22.6855 H   0  0  0  0  0  0  0  0  0  0  0  0
   12.5691   13.1108   20.1060 H   0  0  0  0  0  0  0  0  0  0  0  0
   13.8429   13.0530   21.3115 H   0  0  0  0  0  0  0  0  0  0  0  0
   13.5210   14.5727   20.4472 H   0  0  0  0  0  0  0  0  0  0  0  0
   10.3920   14.2781   20.5836 H   0  0  0  0  0  0  0  0  0  0  0  0
   10.1305   15.1137   22.1298 H   0  0  0  0  0  0  0  0  0  0  0  0
   11.2321   15.7850   20.9057 H   0  0  0  0  0  0  0  0  0  0  0  0
  1  3  1  0  0  0  0
  1  6  1  0  0  0  0
  1 13  2  0  0  0  0
  2 12  1  0  0  0  0
  2 14  2  0  0  0  0
  2 15  1  0  0  0  0
  3  7  1  0  0  0  0
  4  5  1  0  0  0  0
  4  6  1  0  0  0  0
  5 12  1  0  0  0  0
  6  7  1  0  0  0  0
  7 12  1  0  0  0  0
  8 11  1  0  0  0  0
  9 11  1  0  0  0  0
 10 11  1  0  0  0  0
 11 15  1  0  0  0  0
  3 16  1  0  0  0  0
  3 17  1  0  0  0  0
  4 18  1  0  0  0  0
  4 19  1  0  0  0  0
  5 20  1  0  0  0  0
  5 21  1  0  0  0  0
  6 22  1  0  0  0  0
  7 23  1  0  0  0  0
  8 24  1  0  0  0  0
  8 25  1  0  0  0  0
  8 26  1  0  0  0  0
  9 27  1  0  0  0  0
  9 28  1  0  0  0  0
  9 29  1  0  0  0  0
 10 30  1  0  0  0  0
 10 31  1  0  0  0  0
 10 32  1  0  0  0  0
M  END
> <id>
EN300-1709721

> <smiles>
CC(C)(C)OC(=O)N1CCC2C1CC2=O

> <MDLNUMBER>
MFCD29075202

> <IUPAC Name>
tert-butyl 6-oxo-2-azabicyclo[3.2.0]heptane-2-carboxylate

> <CAS>
1279816-43-1

> <Purity>
95

> <URL>
https://www.enaminestore.com/catalog/EN300-1709721

> <ROCS_ShapeQuery>
A71EV2A-x0451_0A_A71EV2A-x0310_0A_A71EV2A-x0416_0A_peptide

> <ROCS_TanimotoCombo>
0.473 

> <ROCS_ShapeTanimoto>
0.289 

> <ROCS_ColorTanimoto>
0.185 

> <ROCS_RefTversky>
0.256 

> <ROCS_RefColorTversky>
0.205 

> <ROCS_RefTverskyCombo>
0.461 

> <ROCS_FitTversky>
1.791 

> <ROCS_FitColorTversky>
0.652 

> <ROCS_FitTverskyCombo>
2.443 

> <ROCS_ColorScore>
-6.252

> <ROCS_Overlap>
1775.343

> <ROCS_Rank>
500                 

$$$$
