untitled-dbase-1151_679
  -OEChem-11132309573D

 51 53  0     0  0  0  0  0  0999 V2000
    9.7540    9.5253   23.0240 C   0  0  0  0  0  0  0  0  0  0  0  0
   10.3944   10.7661   22.9510 C   0  0  0  0  0  0  0  0  0  0  0  0
    8.5441    9.3750   23.7144 C   0  0  0  0  0  0  0  0  0  0  0  0
    9.8524   11.9017   23.5631 C   0  0  0  0  0  0  0  0  0  0  0  0
    7.9903   10.5057   24.3323 C   0  0  0  0  0  0  0  0  0  0  0  0
    8.6491   11.7243   24.2425 C   0  0  0  0  0  0  0  0  0  0  0  0
   14.8352   11.7907   24.3667 C   0  0  0  0  0  0  0  0  0  0  0  0
   14.3593   12.0802   23.1519 C   0  0  0  0  0  0  0  0  0  0  0  0
   10.5455   13.2129   23.4760 C   0  0  0  0  0  0  0  0  0  0  0  0
   13.7269   13.3998   22.8859 C   0  0  0  0  0  0  0  0  0  0  0  0
   14.2528   16.8262   18.9419 C   0  0  0  0  0  0  0  0  0  0  0  0
   13.2219   16.1512   18.0435 C   0  0  0  0  0  0  0  0  0  0  0  0
   14.7031   16.0084   20.1517 C   0  0  0  0  0  0  0  0  0  0  0  0
   11.9591   15.6587   18.7501 C   0  0  0  0  0  0  0  0  0  0  0  0
   13.6168   15.9004   21.2218 C   0  0  0  0  0  0  0  0  0  0  0  0
   12.2132   14.4226   19.6148 C   0  0  0  0  0  0  0  0  0  0  0  0
   12.6532   14.7025   21.0695 C   0  0  0  0  0  0  0  0  0  0  0  0
    8.0121   13.9791   25.1951 C   0  0  0  0  0  0  0  0  0  0  0  0
   11.4147   14.9631   21.9471 C   0  0  0  0  0  0  0  0  0  0  0  0
    6.8420   10.6624   25.0627 N   0  0  0  0  0  0  0  0  0  0  0  0
    6.7599   11.9358   25.4327 N   0  0  0  0  0  0  0  0  0  0  0  0
    7.8385   12.5696   24.9434 N   0  0  0  0  0  0  0  0  0  0  0  0
   10.7479   13.7342   22.1928 N   0  0  0  0  0  0  0  0  0  0  0  0
   13.3042   13.4991   21.5794 N   0  0  0  0  0  0  0  0  0  0  0  0
   10.9217   13.7624   24.5080 O   0  0  0  0  0  0  0  0  0  0  0  0
   13.6174   14.2652   23.7485 O   0  0  0  0  0  0  0  0  0  0  0  0
   10.2023    8.6625   22.5373 H   0  0  0  0  0  0  0  0  0  0  0  0
   11.3327   10.8396   22.4050 H   0  0  0  0  0  0  0  0  0  0  0  0
    8.0542    8.4083   23.7661 H   0  0  0  0  0  0  0  0  0  0  0  0
   15.2943   10.8255   24.5534 H   0  0  0  0  0  0  0  0  0  0  0  0
   14.7855   12.4885   25.1954 H   0  0  0  0  0  0  0  0  0  0  0  0
   14.4294   11.3535   22.3497 H   0  0  0  0  0  0  0  0  0  0  0  0
   15.1352   17.0554   18.3313 H   0  0  0  0  0  0  0  0  0  0  0  0
   13.8597   17.7936   19.2791 H   0  0  0  0  0  0  0  0  0  0  0  0
   12.9263   16.8706   17.2696 H   0  0  0  0  0  0  0  0  0  0  0  0
   13.6962   15.3156   17.5136 H   0  0  0  0  0  0  0  0  0  0  0  0
   15.0709   15.0235   19.8443 H   0  0  0  0  0  0  0  0  0  0  0  0
   15.5587   16.5326   20.5966 H   0  0  0  0  0  0  0  0  0  0  0  0
   11.4886   16.4656   19.3222 H   0  0  0  0  0  0  0  0  0  0  0  0
   11.2417   15.3755   17.9690 H   0  0  0  0  0  0  0  0  0  0  0  0
   14.1057   15.8296   22.2043 H   0  0  0  0  0  0  0  0  0  0  0  0
   13.0512   16.8411   21.2586 H   0  0  0  0  0  0  0  0  0  0  0  0
   11.2939   13.8212   19.6338 H   0  0  0  0  0  0  0  0  0  0  0  0
   12.9586   13.7910   19.1122 H   0  0  0  0  0  0  0  0  0  0  0  0
    7.5291   14.5288   24.3830 H   0  0  0  0  0  0  0  0  0  0  0  0
    7.5559   14.2364   26.1551 H   0  0  0  0  0  0  0  0  0  0  0  0
    9.0802   14.2106   25.2327 H   0  0  0  0  0  0  0  0  0  0  0  0
   11.7769   15.4044   22.8694 H   0  0  0  0  0  0  0  0  0  0  0  0
   10.7825   15.6490   21.3936 H   0  0  0  0  0  0  0  0  0  0  0  0
   10.4527   13.1704   21.3871 H   0  0  0  0  0  0  0  0  0  0  0  0
   13.4594   12.7513   20.9195 H   0  0  0  0  0  0  0  0  0  0  0  0
  1  2  1  0  0  0  0
  1  3  2  0  0  0  0
  2  4  2  0  0  0  0
  3  5  1  0  0  0  0
  4  6  1  0  0  0  0
  4  9  1  0  0  0  0
  5  6  2  0  0  0  0
  5 20  1  0  0  0  0
  6 22  1  0  0  0  0
  7  8  2  0  0  0  0
  8 10  1  0  0  0  0
  9 23  1  0  0  0  0
  9 25  2  0  0  0  0
 10 24  1  0  0  0  0
 10 26  2  0  0  0  0
 11 12  1  0  0  0  0
 11 13  1  0  0  0  0
 12 14  1  0  0  0  0
 13 15  1  0  0  0  0
 14 16  1  0  0  0  0
 15 17  1  0  0  0  0
 16 17  1  0  0  0  0
 17 19  1  0  0  0  0
 17 24  1  0  0  0  0
 18 22  1  0  0  0  0
 19 23  1  0  0  0  0
 20 21  2  0  0  0  0
 21 22  1  0  0  0  0
  1 27  1  0  0  0  0
  2 28  1  0  0  0  0
  3 29  1  0  0  0  0
  7 30  1  0  0  0  0
  7 31  1  0  0  0  0
  8 32  1  0  0  0  0
 11 33  1  0  0  0  0
 11 34  1  0  0  0  0
 12 35  1  0  0  0  0
 12 36  1  0  0  0  0
 13 37  1  0  0  0  0
 13 38  1  0  0  0  0
 14 39  1  0  0  0  0
 14 40  1  0  0  0  0
 15 41  1  0  0  0  0
 15 42  1  0  0  0  0
 16 43  1  0  0  0  0
 16 44  1  0  0  0  0
 18 45  1  0  0  0  0
 18 46  1  0  0  0  0
 18 47  1  0  0  0  0
 19 48  1  0  0  0  0
 19 49  1  0  0  0  0
 23 50  1  0  0  0  0
 24 51  1  0  0  0  0
M  END
> <Catalog ID>
Z4425282871

> <MW>
355.434

> <MW (desalted)>
355.434

> <ClogP>
2.542

> <logS>
-4.135

> <HBD>
2

> <HBA>
4

> <TPSA>
88.91

> <RotBonds>
5

> <ROCS_ShapeQuery>
A71EV2A-x0451_0A_A71EV2A-x0310_0A_A71EV2A-x0416_0A_peptide

> <ROCS_TanimotoCombo>
0.599 

> <ROCS_ShapeTanimoto>
0.380 

> <ROCS_ColorTanimoto>
0.219 

> <ROCS_RefTversky>
0.334 

> <ROCS_RefColorTversky>
0.247 

> <ROCS_RefTverskyCombo>
0.581 

> <ROCS_FitTversky>
1.576 

> <ROCS_FitColorTversky>
0.662 

> <ROCS_FitTverskyCombo>
2.237 

> <ROCS_ColorScore>
-7.562

> <ROCS_Overlap>
2322.010

> <ROCS_Rank>
1                   

$$$$
untitled-dbase-9372_9936
  -OEChem-11132309573D

 58 61  0     1  0  0  0  0  0999 V2000
   16.3761   10.4904   25.7592 C   0  0  0  0  0  0  0  0  0  0  0  0
   14.4644   16.4171   19.3683 C   0  0  0  0  0  0  0  0  0  0  0  0
   15.5803   11.0924   26.7339 C   0  0  0  0  0  0  0  0  0  0  0  0
   16.0810   10.6720   24.4080 C   0  0  0  0  0  0  0  0  0  0  0  0
   13.2957   17.1657   19.2291 C   0  0  0  0  0  0  0  0  0  0  0  0
   14.4086   15.1299   19.9028 C   0  0  0  0  0  0  0  0  0  0  0  0
    6.7347   11.0021   26.4557 C   0  0  0  0  0  0  0  0  0  0  0  0
    6.6973   12.3526   26.1312 C   0  0  0  0  0  0  0  0  0  0  0  0
   14.4894   11.8758   26.3574 C   0  0  0  0  0  0  0  0  0  0  0  0
   14.9901   11.4554   24.0315 C   0  0  0  0  0  0  0  0  0  0  0  0
   12.0713   16.6272   19.6246 C   0  0  0  0  0  0  0  0  0  0  0  0
   13.1842   14.5913   20.2982 C   0  0  0  0  0  0  0  0  0  0  0  0
    7.5165   10.1139   25.7067 C   0  0  0  0  0  0  0  0  0  0  0  0
    7.4436   12.8189   25.0561 C   0  0  0  0  0  0  0  0  0  0  0  0
   14.1943   12.0574   25.0062 C   0  0  0  0  0  0  0  0  0  0  0  0
   12.0155   15.3400   20.1592 C   0  0  0  0  0  0  0  0  0  0  0  0
    8.2896   10.5605   24.6235 C   0  0  0  0  0  0  0  0  0  0  0  0
    8.2393   11.9353   24.3164 C   0  0  0  0  0  0  0  0  0  0  0  0
   13.0421   12.8847   24.6080 C   0  0  0  0  0  0  0  0  0  0  0  0
   12.9576   13.5758   23.4645 C   0  0  0  0  0  0  0  0  0  0  0  0
   10.4907   12.3926   21.5962 C   0  0  0  0  0  0  0  0  0  0  0  0
    9.3001    8.3250   24.0990 C   0  0  0  0  0  0  0  0  0  0  0  0
    9.6063   10.3006   22.5743 C   0  0  0  0  0  0  0  0  0  0  0  0
   10.0309   11.7274   22.8521 C   0  0  2  0  0  0  0  0  0  0  0  0
    9.4853    7.4043   22.9130 C   0  0  0  0  0  0  0  0  0  0  0  0
   10.6979   14.7598   20.5852 C   0  0  0  0  0  0  0  0  0  0  0  0
    9.0727    9.6774   23.7952 N   0  0  0  0  0  0  0  0  0  0  0  0
   10.8516   13.7929   21.7141 N   0  0  0  0  0  0  0  0  0  0  0  0
   10.5480   11.7637   20.5426 O   0  0  0  0  0  0  0  0  0  0  0  0
    9.3774    7.8361   25.2276 O   0  0  0  0  0  0  0  0  0  0  0  0
   11.8637   15.8586   22.9225 O   0  0  0  0  0  0  0  0  0  0  0  0
   10.5989   14.1867   24.2920 O   0  0  0  0  0  0  0  0  0  0  0  0
    8.9283   12.5138   23.2785 O   0  0  0  0  0  0  0  0  0  0  0  0
   11.5004   14.4775   23.1913 S   0  0  0  0  0  0  0  0  0  0  0  0
   17.2262    9.8815   26.0523 H   0  0  0  0  0  0  0  0  0  0  0  0
   15.4175   16.8361   19.0591 H   0  0  0  0  0  0  0  0  0  0  0  0
   15.8106   10.9521   27.7861 H   0  0  0  0  0  0  0  0  0  0  0  0
   16.7012   10.2043   23.6490 H   0  0  0  0  0  0  0  0  0  0  0  0
   13.3388   18.1676   18.8120 H   0  0  0  0  0  0  0  0  0  0  0  0
   15.3182   14.5463   20.0102 H   0  0  0  0  0  0  0  0  0  0  0  0
    6.1427   10.6290   27.2870 H   0  0  0  0  0  0  0  0  0  0  0  0
    6.0841   13.0371   26.7093 H   0  0  0  0  0  0  0  0  0  0  0  0
   13.8783   12.3386   27.1287 H   0  0  0  0  0  0  0  0  0  0  0  0
   14.7730   11.5874   22.9742 H   0  0  0  0  0  0  0  0  0  0  0  0
   11.1658   17.2178   19.5127 H   0  0  0  0  0  0  0  0  0  0  0  0
   13.1504   13.5877   20.7138 H   0  0  0  0  0  0  0  0  0  0  0  0
    7.4576    9.0703   25.9921 H   0  0  0  0  0  0  0  0  0  0  0  0
    7.4103   13.8748   24.7999 H   0  0  0  0  0  0  0  0  0  0  0  0
   12.2114   12.8977   25.3108 H   0  0  0  0  0  0  0  0  0  0  0  0
   13.7327   13.5944   22.7093 H   0  0  0  0  0  0  0  0  0  0  0  0
    8.8076   10.2547   21.8226 H   0  0  0  0  0  0  0  0  0  0  0  0
   10.4611    9.7400   22.1857 H   0  0  0  0  0  0  0  0  0  0  0  0
   10.8444   11.7869   23.5859 H   0  0  0  0  0  0  0  0  0  0  0  0
   10.5381    7.3661   22.6606 H   0  0  0  0  0  0  0  0  0  0  0  0
    8.9134    7.7900   22.0772 H   0  0  0  0  0  0  0  0  0  0  0  0
    9.1272    6.4163   23.1775 H   0  0  0  0  0  0  0  0  0  0  0  0
   10.0143   15.5517   20.9101 H   0  0  0  0  0  0  0  0  0  0  0  0
   10.2143   14.2324   19.7563 H   0  0  0  0  0  0  0  0  0  0  0  0
  1  3  1  0  0  0  0
  1  4  2  0  0  0  0
  2  5  1  0  0  0  0
  2  6  2  0  0  0  0
  3  9  2  0  0  0  0
  4 10  1  0  0  0  0
  5 11  2  0  0  0  0
  6 12  1  0  0  0  0
  7  8  1  0  0  0  0
  7 13  2  0  0  0  0
  8 14  2  0  0  0  0
  9 15  1  0  0  0  0
 10 15  2  0  0  0  0
 11 16  1  0  0  0  0
 12 16  2  0  0  0  0
 13 17  1  0  0  0  0
 14 18  1  0  0  0  0
 15 19  1  0  0  0  0
 16 26  1  0  0  0  0
 17 18  2  0  0  0  0
 17 27  1  0  0  0  0
 18 33  1  0  0  0  0
 19 20  2  0  0  0  0
 20 34  1  4  0  0  0
 21 24  1  0  0  0  0
 21 28  1  0  0  0  0
 21 29  2  0  0  0  0
 22 25  1  0  0  0  0
 22 27  1  0  0  0  0
 22 30  2  0  0  0  0
 23 24  1  0  0  0  0
 23 27  1  0  0  0  0
 24 33  1  0  0  0  0
 26 28  1  0  0  0  0
 28 34  1  0  0  0  0
 31 34  2  0  0  0  0
 32 34  2  0  0  0  0
  1 35  1  0  0  0  0
  2 36  1  0  0  0  0
  3 37  1  0  0  0  0
  4 38  1  0  0  0  0
  5 39  1  0  0  0  0
  6 40  1  0  0  0  0
  7 41  1  0  0  0  0
  8 42  1  0  0  0  0
  9 43  1  0  0  0  0
 10 44  1  0  0  0  0
 11 45  1  0  0  0  0
 12 46  1  0  0  0  0
 13 47  1  0  0  0  0
 14 48  1  0  0  0  0
 19 49  1  0  0  0  0
 20 50  1  0  0  0  0
 23 51  1  0  0  0  0
 23 52  1  0  0  0  0
 24 53  1  0  0  0  0
 25 54  1  0  0  0  0
 25 55  1  0  0  0  0
 25 56  1  0  0  0  0
 26 57  1  0  0  0  0
 26 58  1  0  0  0  0
M  END
> <Catalog ID>
Z635242294

> <MW>
476.544

> <MW (desalted)>
476.544

> <ClogP>
4.731

> <logS>
-6.6

> <HBD>
0

> <HBA>
5

> <TPSA>
83.99

> <RotBonds>
5

> <ROCS_ShapeQuery>
A71EV2A-x0451_0A_A71EV2A-x0310_0A_A71EV2A-x0416_0A_peptide

> <ROCS_TanimotoCombo>
0.577 

> <ROCS_ShapeTanimoto>
0.404 

> <ROCS_ColorTanimoto>
0.172 

> <ROCS_RefTversky>
0.363 

> <ROCS_RefColorTversky>
0.196 

> <ROCS_RefTverskyCombo>
0.558 

> <ROCS_FitTversky>
1.396 

> <ROCS_FitColorTversky>
0.590 

> <ROCS_FitTverskyCombo>
1.987 

> <ROCS_ColorScore>
-5.990

> <ROCS_Overlap>
2527.947

> <ROCS_Rank>
2                   

$$$$
untitled-dbase-9333_5759
  -OEChem-11132309573D

 52 54  0     0  0  0  0  0  0999 V2000
    9.6767    9.6119   23.2118 C   0  0  0  0  0  0  0  0  0  0  0  0
   10.3716   10.8181   23.1230 C   0  0  0  0  0  0  0  0  0  0  0  0
    8.4103    9.5761   23.7954 C   0  0  0  0  0  0  0  0  0  0  0  0
    9.8017   11.9912   23.6180 C   0  0  0  0  0  0  0  0  0  0  0  0
    7.8500   10.7446   24.3147 C   0  0  0  0  0  0  0  0  0  0  0  0
    8.5457   11.9520   24.2263 C   0  0  0  0  0  0  0  0  0  0  0  0
   13.8075   11.2391   24.3594 C   0  0  0  0  0  0  0  0  0  0  0  0
   14.3666   11.9386   23.3673 C   0  0  0  0  0  0  0  0  0  0  0  0
   10.5479   13.2614   23.4517 C   0  0  0  0  0  0  0  0  0  0  0  0
   13.8147   13.2631   22.9760 C   0  0  0  0  0  0  0  0  0  0  0  0
   13.1474   16.4537   18.8328 C   0  0  0  0  0  0  0  0  0  0  0  0
   13.4724   16.8215   20.2766 C   0  0  0  0  0  0  0  0  0  0  0  0
   12.0899   15.3584   18.7496 C   0  0  0  0  0  0  0  0  0  0  0  0
   13.8683   15.5941   21.0965 C   0  0  0  0  0  0  0  0  0  0  0  0
   12.4848   14.1298   19.5682 C   0  0  0  0  0  0  0  0  0  0  0  0
    6.4581   12.5072   26.4115 C   0  0  0  0  0  0  0  0  0  0  0  0
    6.5161   11.0002   26.1954 C   0  0  0  0  0  0  0  0  0  0  0  0
    7.7723   13.1803   26.0360 C   0  0  0  0  0  0  0  0  0  0  0  0
   12.8291   14.4557   21.0373 C   0  0  0  0  0  0  0  0  0  0  0  0
   11.5598   14.8327   21.8198 C   0  0  0  0  0  0  0  0  0  0  0  0
   10.8335   13.6538   22.1397 N   0  0  0  0  0  0  0  0  0  0  0  0
   13.4037   13.2707   21.6597 N   0  0  0  0  0  0  0  0  0  0  0  0
   10.8931   13.8904   24.4485 O   0  0  0  0  0  0  0  0  0  0  0  0
   13.7522   14.2086   23.7552 O   0  0  0  0  0  0  0  0  0  0  0  0
    6.5759   10.6657   24.8070 O   0  0  0  0  0  0  0  0  0  0  0  0
    8.0036   13.1429   24.6259 O   0  0  0  0  0  0  0  0  0  0  0  0
   10.1268    8.6979   22.8347 H   0  0  0  0  0  0  0  0  0  0  0  0
   11.3544   10.8311   22.6575 H   0  0  0  0  0  0  0  0  0  0  0  0
    7.8792    8.6331   23.8591 H   0  0  0  0  0  0  0  0  0  0  0  0
   14.2151   10.2731   24.6385 H   0  0  0  0  0  0  0  0  0  0  0  0
   12.9468   11.5968   24.9138 H   0  0  0  0  0  0  0  0  0  0  0  0
   15.2275   11.5446   22.8382 H   0  0  0  0  0  0  0  0  0  0  0  0
   12.7899   17.3456   18.3017 H   0  0  0  0  0  0  0  0  0  0  0  0
   14.0603   16.1256   18.3214 H   0  0  0  0  0  0  0  0  0  0  0  0
   14.2837   17.5593   20.2940 H   0  0  0  0  0  0  0  0  0  0  0  0
   12.6008   17.3021   20.7360 H   0  0  0  0  0  0  0  0  0  0  0  0
   11.1341   15.7480   19.1188 H   0  0  0  0  0  0  0  0  0  0  0  0
   11.9272   15.0807   17.7017 H   0  0  0  0  0  0  0  0  0  0  0  0
   14.8516   15.2321   20.7593 H   0  0  0  0  0  0  0  0  0  0  0  0
   14.0076   15.9066   22.1434 H   0  0  0  0  0  0  0  0  0  0  0  0
   11.6508   13.4111   19.5398 H   0  0  0  0  0  0  0  0  0  0  0  0
   13.3324   13.6242   19.0816 H   0  0  0  0  0  0  0  0  0  0  0  0
    5.6592   12.9463   25.8083 H   0  0  0  0  0  0  0  0  0  0  0  0
    6.2219   12.6973   27.4616 H   0  0  0  0  0  0  0  0  0  0  0  0
    7.3515   10.5427   26.7477 H   0  0  0  0  0  0  0  0  0  0  0  0
    5.6045   10.5439   26.6031 H   0  0  0  0  0  0  0  0  0  0  0  0
    7.8235   14.2122   26.4168 H   0  0  0  0  0  0  0  0  0  0  0  0
    8.6006   12.6443   26.5177 H   0  0  0  0  0  0  0  0  0  0  0  0
   11.8867   15.3451   22.7199 H   0  0  0  0  0  0  0  0  0  0  0  0
   10.9776   15.4866   21.1771 H   0  0  0  0  0  0  0  0  0  0  0  0
   10.5581   13.0300   21.3731 H   0  0  0  0  0  0  0  0  0  0  0  0
   13.5195   12.4546   21.0739 H   0  0  0  0  0  0  0  0  0  0  0  0
  1  2  2  0  0  0  0
  1  3  1  0  0  0  0
  2  4  1  0  0  0  0
  3  5  2  0  0  0  0
  4  6  2  0  0  0  0
  4  9  1  0  0  0  0
  5  6  1  0  0  0  0
  5 25  1  0  0  0  0
  6 26  1  0  0  0  0
  7  8  2  0  0  0  0
  8 10  1  0  0  0  0
  9 21  1  0  0  0  0
  9 23  2  0  0  0  0
 10 22  1  0  0  0  0
 10 24  2  0  0  0  0
 11 12  1  0  0  0  0
 11 13  1  0  0  0  0
 12 14  1  0  0  0  0
 13 15  1  0  0  0  0
 14 19  1  0  0  0  0
 15 19  1  0  0  0  0
 16 17  1  0  0  0  0
 16 18  1  0  0  0  0
 17 25  1  0  0  0  0
 18 26  1  0  0  0  0
 19 20  1  0  0  0  0
 19 22  1  0  0  0  0
 20 21  1  0  0  0  0
  1 27  1  0  0  0  0
  2 28  1  0  0  0  0
  3 29  1  0  0  0  0
  7 30  1  0  0  0  0
  7 31  1  0  0  0  0
  8 32  1  0  0  0  0
 11 33  1  0  0  0  0
 11 34  1  0  0  0  0
 12 35  1  0  0  0  0
 12 36  1  0  0  0  0
 13 37  1  0  0  0  0
 13 38  1  0  0  0  0
 14 39  1  0  0  0  0
 14 40  1  0  0  0  0
 15 41  1  0  0  0  0
 15 42  1  0  0  0  0
 16 43  1  0  0  0  0
 16 44  1  0  0  0  0
 17 45  1  0  0  0  0
 17 46  1  0  0  0  0
 18 47  1  0  0  0  0
 18 48  1  0  0  0  0
 20 49  1  0  0  0  0
 20 50  1  0  0  0  0
 21 51  1  0  0  0  0
 22 52  1  0  0  0  0
M  END
> <Catalog ID>
Z4425283079

> <MW>
358.431

> <MW (desalted)>
358.431

> <ClogP>
2.967

> <logS>
-5.019

> <HBD>
2

> <HBA>
4

> <TPSA>
76.66

> <RotBonds>
5

> <ROCS_ShapeQuery>
A71EV2A-x0451_0A_A71EV2A-x0310_0A_A71EV2A-x0416_0A_peptide

> <ROCS_TanimotoCombo>
0.574 

> <ROCS_ShapeTanimoto>
0.377 

> <ROCS_ColorTanimoto>
0.196 

> <ROCS_RefTversky>
0.332 

> <ROCS_RefColorTversky>
0.223 

> <ROCS_RefTverskyCombo>
0.555 

> <ROCS_FitTversky>
1.569 

> <ROCS_FitColorTversky>
0.617 

> <ROCS_FitTverskyCombo>
2.186 

> <ROCS_ColorScore>
-6.844

> <ROCS_Overlap>
2307.884

> <ROCS_Rank>
3                   

$$$$
untitled-dbase-2580_7905
  -OEChem-11132309573D

 54 57  0     0  0  0  0  0  0999 V2000
   12.1305   15.6751   19.0416 C   0  0  0  0  0  0  0  0  0  0  0  0
   14.0617   15.6939   20.4933 C   0  0  0  0  0  0  0  0  0  0  0  0
   12.9090   16.1786   17.9994 C   0  0  0  0  0  0  0  0  0  0  0  0
   14.8402   16.1973   19.4511 C   0  0  0  0  0  0  0  0  0  0  0  0
    9.2405   10.5060   23.5315 C   0  0  0  0  0  0  0  0  0  0  0  0
   12.7068   15.4328   20.2885 C   0  0  0  0  0  0  0  0  0  0  0  0
   10.1485    9.5711   22.9418 C   0  0  0  0  0  0  0  0  0  0  0  0
   14.2638   16.4397   18.2042 C   0  0  0  0  0  0  0  0  0  0  0  0
    9.8680    8.2689   23.2945 C   0  0  0  0  0  0  0  0  0  0  0  0
    9.1305   11.8986   23.4655 C   0  0  0  0  0  0  0  0  0  0  0  0
    8.2992    9.8530   24.3167 C   0  0  0  0  0  0  0  0  0  0  0  0
    7.3062   11.7743   24.8641 C   0  0  0  0  0  0  0  0  0  0  0  0
   11.8852   14.9003   21.3894 C   0  0  0  0  0  0  0  0  0  0  0  0
   12.3479   14.1364   22.3867 C   0  0  0  0  0  0  0  0  0  0  0  0
    5.7030   11.0068   27.4371 C   0  0  0  0  0  0  0  0  0  0  0  0
    5.6930   13.3872   27.8097 C   0  0  0  0  0  0  0  0  0  0  0  0
    4.1760   11.0305   27.4232 C   0  0  0  0  0  0  0  0  0  0  0  0
    4.1662   13.3566   27.7867 C   0  0  0  0  0  0  0  0  0  0  0  0
   11.2737    9.9443   22.0467 C   0  0  0  0  0  0  0  0  0  0  0  0
   10.5692    7.0270   22.8970 C   0  0  0  0  0  0  0  0  0  0  0  0
    6.2297   12.5154   25.6030 C   0  0  0  0  0  0  0  0  0  0  0  0
    8.1504   12.5359   24.1411 N   0  0  0  0  0  0  0  0  0  0  0  0
    7.3029   10.4373   25.0106 N   0  0  0  0  0  0  0  0  0  0  0  0
    6.3017   12.2901   27.0447 N   0  0  0  0  0  0  0  0  0  0  0  0
   10.0165   12.7146   22.7030 N   0  0  0  0  0  0  0  0  0  0  0  0
   11.8853   12.7405   24.5155 O   0  0  0  0  0  0  0  0  0  0  0  0
   10.5464   14.8179   24.0964 O   0  0  0  0  0  0  0  0  0  0  0  0
    3.6880   12.0916   28.2446 O   0  0  0  0  0  0  0  0  0  0  0  0
    8.5147    8.1626   24.3353 S   0  0  0  0  0  0  0  0  0  0  0  0
   11.2048   13.6267   23.5878 S   0  0  0  0  0  0  0  0  0  0  0  0
   15.2238   17.0606   16.9183 Cl  0  0  0  0  0  0  0  0  0  0  0  0
   11.0755   15.4768   18.8675 H   0  0  0  0  0  0  0  0  0  0  0  0
   14.5246   15.5097   21.4598 H   0  0  0  0  0  0  0  0  0  0  0  0
   12.4462   16.3620   17.0330 H   0  0  0  0  0  0  0  0  0  0  0  0
   15.8946   16.3962   19.6252 H   0  0  0  0  0  0  0  0  0  0  0  0
   10.8345   15.1827   21.3668 H   0  0  0  0  0  0  0  0  0  0  0  0
   13.3819   13.8327   22.4874 H   0  0  0  0  0  0  0  0  0  0  0  0
    6.0435   10.7265   28.4552 H   0  0  0  0  0  0  0  0  0  0  0  0
    6.0588   10.2012   26.7592 H   0  0  0  0  0  0  0  0  0  0  0  0
    6.0421   14.3646   27.4118 H   0  0  0  0  0  0  0  0  0  0  0  0
    6.0309   13.3450   28.8656 H   0  0  0  0  0  0  0  0  0  0  0  0
    3.8167   11.2050   26.4041 H   0  0  0  0  0  0  0  0  0  0  0  0
    3.7546   10.0780   27.7659 H   0  0  0  0  0  0  0  0  0  0  0  0
    3.7358   14.1557   28.4025 H   0  0  0  0  0  0  0  0  0  0  0  0
    3.8063   13.4976   26.7628 H   0  0  0  0  0  0  0  0  0  0  0  0
   12.1873   10.1293   22.6287 H   0  0  0  0  0  0  0  0  0  0  0  0
   11.4879    9.1520   21.3145 H   0  0  0  0  0  0  0  0  0  0  0  0
   11.0460   10.8516   21.4678 H   0  0  0  0  0  0  0  0  0  0  0  0
   11.3739    6.7855   23.6082 H   0  0  0  0  0  0  0  0  0  0  0  0
    9.8839    6.1654   22.8552 H   0  0  0  0  0  0  0  0  0  0  0  0
   11.0177    7.1133   21.8942 H   0  0  0  0  0  0  0  0  0  0  0  0
    6.3116   13.5933   25.4256 H   0  0  0  0  0  0  0  0  0  0  0  0
    5.2356   12.2048   25.2649 H   0  0  0  0  0  0  0  0  0  0  0  0
    9.5408   13.2687   21.9687 H   0  0  0  0  0  0  0  0  0  0  0  0
  1  3  2  0  0  0  0
  1  6  1  0  0  0  0
  2  4  1  0  0  0  0
  2  6  2  0  0  0  0
  3  8  1  0  0  0  0
  4  8  2  0  0  0  0
  5  7  1  0  0  0  0
  5 10  1  0  0  0  0
  5 11  2  0  0  0  0
  6 13  1  0  0  0  0
  7  9  2  0  0  0  0
  7 19  1  0  0  0  0
  8 31  1  0  0  0  0
  9 20  1  0  0  0  0
  9 29  1  0  0  0  0
 10 22  2  0  0  0  0
 10 25  1  0  0  0  0
 11 23  1  0  0  0  0
 11 29  1  0  0  0  0
 12 21  1  0  0  0  0
 12 22  1  0  0  0  0
 12 23  2  0  0  0  0
 13 14  2  0  0  0  0
 14 30  1  4  0  0  0
 15 17  1  0  0  0  0
 15 24  1  0  0  0  0
 16 18  1  0  0  0  0
 16 24  1  0  0  0  0
 17 28  1  0  0  0  0
 18 28  1  0  0  0  0
 21 24  1  0  0  0  0
 25 30  1  0  0  0  0
 26 30  2  0  0  0  0
 27 30  2  0  0  0  0
  1 32  1  0  0  0  0
  2 33  1  0  0  0  0
  3 34  1  0  0  0  0
  4 35  1  0  0  0  0
 13 36  1  0  0  0  0
 14 37  1  0  0  0  0
 15 38  1  0  0  0  0
 15 39  1  0  0  0  0
 16 40  1  0  0  0  0
 16 41  1  0  0  0  0
 17 42  1  0  0  0  0
 17 43  1  0  0  0  0
 18 44  1  0  0  0  0
 18 45  1  0  0  0  0
 19 46  1  0  0  0  0
 19 47  1  0  0  0  0
 19 48  1  0  0  0  0
 20 49  1  0  0  0  0
 20 50  1  0  0  0  0
 20 51  1  0  0  0  0
 21 52  1  0  0  0  0
 21 53  1  0  0  0  0
 25 54  1  0  0  0  0
M  END
> <Catalog ID>
Z86128844

> <MW>
479.015

> <MW (desalted)>
479.015

> <ClogP>
4.08

> <logS>
-5.71

> <HBD>
1

> <HBA>
6

> <TPSA>
84.42

> <RotBonds>
5

> <ROCS_ShapeQuery>
A71EV2A-x0451_0A_A71EV2A-x0310_0A_A71EV2A-x0416_0A_peptide

> <ROCS_TanimotoCombo>
0.570 

> <ROCS_ShapeTanimoto>
0.406 

> <ROCS_ColorTanimoto>
0.164 

> <ROCS_RefTversky>
0.357 

> <ROCS_RefColorTversky>
0.197 

> <ROCS_RefTverskyCombo>
0.554 

> <ROCS_FitTversky>
1.504 

> <ROCS_FitColorTversky>
0.500 

> <ROCS_FitTverskyCombo>
2.004 

> <ROCS_ColorScore>
-6.034

> <ROCS_Overlap>
2489.137

> <ROCS_Rank>
4                   

$$$$
untitled-dbase-3521_17927
  -OEChem-11132309573D

 50 53  0     1  0  0  0  0  0999 V2000
   13.6055   16.3573   18.1176 C   0  0  0  0  0  0  0  0  0  0  0  0
    9.3022    6.9975   24.3601 C   0  0  0  0  0  0  0  0  0  0  0  0
   14.4602   16.5025   19.2103 C   0  0  0  0  0  0  0  0  0  0  0  0
   12.3801   15.7088   18.2720 C   0  0  0  0  0  0  0  0  0  0  0  0
   10.4446    7.5286   24.9588 C   0  0  0  0  0  0  0  0  0  0  0  0
    8.6956    7.6679   23.2978 C   0  0  0  0  0  0  0  0  0  0  0  0
    4.7374   11.8349   29.1101 C   0  0  0  0  0  0  0  0  0  0  0  0
   14.0898   15.9992   20.4573 C   0  0  0  0  0  0  0  0  0  0  0  0
   12.0097   15.2055   19.5190 C   0  0  0  0  0  0  0  0  0  0  0  0
   10.9804    8.7302   24.4953 C   0  0  0  0  0  0  0  0  0  0  0  0
    9.2315    8.8695   22.8343 C   0  0  0  0  0  0  0  0  0  0  0  0
    5.8618   11.3281   28.4159 C   0  0  0  0  0  0  0  0  0  0  0  0
    7.3032   12.4210   25.2793 C   0  0  0  0  0  0  0  0  0  0  0  0
    4.0037   12.5407   28.1852 C   0  0  0  0  0  0  0  0  0  0  0  0
   12.8644   15.3507   20.6117 C   0  0  0  0  0  0  0  0  0  0  0  0
   10.3739    9.4006   23.4331 C   0  0  0  0  0  0  0  0  0  0  0  0
    5.7350   11.7601   27.1162 C   0  0  0  0  0  0  0  0  0  0  0  0
    6.6190   11.5077   26.0368 C   0  0  0  0  0  0  0  0  0  0  0  0
    8.0179   11.6282   24.3647 C   0  0  0  0  0  0  0  0  0  0  0  0
   12.4727   14.8189   21.9285 C   0  0  0  0  0  0  0  0  0  0  0  0
   11.7051   13.7384   22.1177 C   0  0  0  0  0  0  0  0  0  0  0  0
   10.9500   10.6941   22.9338 C   0  0  0  0  0  0  0  0  0  0  0  0
    8.9481   12.0878   23.2795 C   0  0  0  0  0  0  0  0  0  0  0  0
    7.7940   10.3230   24.5415 N   0  0  0  0  0  0  0  0  0  0  0  0
   10.3736   11.8686   23.6391 N   0  0  2  0  0  0  0  0  0  0  0  0
   10.5899   14.3391   24.3688 O   0  0  0  0  0  0  0  0  0  0  0  0
   12.6330   12.8900   24.3727 O   0  0  0  0  0  0  0  0  0  0  0  0
    4.6049   12.4999   26.9672 O   0  0  0  0  0  0  0  0  0  0  0  0
    6.9036   10.2520   25.6061 O   0  0  0  0  0  0  0  0  0  0  0  0
   11.3755   13.2801   23.7583 S   0  0  0  0  0  0  0  0  0  0  0  0
   13.8934   16.7503   17.1470 H   0  0  0  0  0  0  0  0  0  0  0  0
    8.8858    6.0613   24.7202 H   0  0  0  0  0  0  0  0  0  0  0  0
   15.4139   17.0084   19.0906 H   0  0  0  0  0  0  0  0  0  0  0  0
   11.7140   15.5967   17.4216 H   0  0  0  0  0  0  0  0  0  0  0  0
   10.9176    7.0062   25.7852 H   0  0  0  0  0  0  0  0  0  0  0  0
    7.8068    7.2542   22.8307 H   0  0  0  0  0  0  0  0  0  0  0  0
    4.4928   11.7021   30.1540 H   0  0  0  0  0  0  0  0  0  0  0  0
   14.7668   16.1200   21.2997 H   0  0  0  0  0  0  0  0  0  0  0  0
   11.0512   14.7025   19.6234 H   0  0  0  0  0  0  0  0  0  0  0  0
   11.8707    9.1366   24.9680 H   0  0  0  0  0  0  0  0  0  0  0  0
    8.7521    9.3849   22.0063 H   0  0  0  0  0  0  0  0  0  0  0  0
    6.6615   10.7235   28.8213 H   0  0  0  0  0  0  0  0  0  0  0  0
    7.2911   13.4977   25.3714 H   0  0  0  0  0  0  0  0  0  0  0  0
    3.0803   13.0994   28.2314 H   0  0  0  0  0  0  0  0  0  0  0  0
   12.8681   15.3587   22.7867 H   0  0  0  0  0  0  0  0  0  0  0  0
   11.2936   13.1397   21.3154 H   0  0  0  0  0  0  0  0  0  0  0  0
   12.0358   10.7140   23.0773 H   0  0  0  0  0  0  0  0  0  0  0  0
   10.7611   10.8209   21.8627 H   0  0  0  0  0  0  0  0  0  0  0  0
    8.7489   11.5493   22.3466 H   0  0  0  0  0  0  0  0  0  0  0  0
    8.8151   13.1551   23.0738 H   0  0  0  0  0  0  0  0  0  0  0  0
  1  3  1  0  0  0  0
  1  4  2  0  0  0  0
  2  5  1  0  0  0  0
  2  6  2  0  0  0  0
  3  8  2  0  0  0  0
  4  9  1  0  0  0  0
  5 10  2  0  0  0  0
  6 11  1  0  0  0  0
  7 12  1  0  0  0  0
  7 14  2  0  0  0  0
  8 15  1  0  0  0  0
  9 15  2  0  0  0  0
 10 16  1  0  0  0  0
 11 16  2  0  0  0  0
 12 17  2  0  0  0  0
 13 18  2  0  0  0  0
 13 19  1  0  0  0  0
 14 28  1  0  0  0  0
 15 20  1  0  0  0  0
 16 22  1  0  0  0  0
 17 18  1  0  0  0  0
 17 28  1  0  0  0  0
 18 29  1  0  0  0  0
 19 23  1  0  0  0  0
 19 24  2  0  0  0  0
 20 21  2  0  0  0  0
 21 30  1  4  0  0  0
 22 25  1  0  0  0  0
 23 25  1  0  0  0  0
 24 29  1  0  0  0  0
 25 30  1  0  0  0  0
 26 30  2  0  0  0  0
 27 30  2  0  0  0  0
  1 31  1  0  0  0  0
  2 32  1  0  0  0  0
  3 33  1  0  0  0  0
  4 34  1  0  0  0  0
  5 35  1  0  0  0  0
  6 36  1  0  0  0  0
  7 37  1  0  0  0  0
  8 38  1  0  0  0  0
  9 39  1  0  0  0  0
 10 40  1  0  0  0  0
 11 41  1  0  0  0  0
 12 42  1  0  0  0  0
 13 43  1  0  0  0  0
 14 44  1  0  0  0  0
 20 45  1  0  0  0  0
 21 46  1  0  0  0  0
 22 47  1  0  0  0  0
 22 48  1  0  0  0  0
 23 49  1  0  0  0  0
 23 50  1  0  0  0  0
M  END
> <Catalog ID>
Z107055816

> <MW>
420.481

> <MW (desalted)>
420.481

> <ClogP>
4.877

> <logS>
-5.319

> <HBD>
0

> <HBA>
3

> <TPSA>
76.55

> <RotBonds>
7

> <ROCS_ShapeQuery>
A71EV2A-x0451_0A_A71EV2A-x0310_0A_A71EV2A-x0416_0A_peptide

> <ROCS_TanimotoCombo>
0.570 

> <ROCS_ShapeTanimoto>
0.393 

> <ROCS_ColorTanimoto>
0.177 

> <ROCS_RefTversky>
0.349 

> <ROCS_RefColorTversky>
0.195 

> <ROCS_RefTverskyCombo>
0.544 

> <ROCS_FitTversky>
1.474 

> <ROCS_FitColorTversky>
0.649 

> <ROCS_FitTverskyCombo>
2.123 

> <ROCS_ColorScore>
-5.967

> <ROCS_Overlap>
2428.104

> <ROCS_Rank>
5                   

$$$$
untitled-dbase-5233_230
  -OEChem-11132309573D

 42 44  0     0  0  0  0  0  0999 V2000
   11.7426   16.0185   22.8537 C   0  0  0  0  0  0  0  0  0  0  0  0
    9.3854    9.1211   23.4181 C   0  0  0  0  0  0  0  0  0  0  0  0
    6.8796   13.0953   25.1858 C   0  0  0  0  0  0  0  0  0  0  0  0
    7.9908   12.9566   24.3667 C   0  0  0  0  0  0  0  0  0  0  0  0
   13.9042   15.6524   20.5511 C   0  0  0  0  0  0  0  0  0  0  0  0
   14.5557   16.4400   19.6020 C   0  0  0  0  0  0  0  0  0  0  0  0
    8.2691    9.2947   24.2401 C   0  0  0  0  0  0  0  0  0  0  0  0
   10.0486   10.2282   22.9037 C   0  0  0  0  0  0  0  0  0  0  0  0
   12.7792   16.0066   18.0230 C   0  0  0  0  0  0  0  0  0  0  0  0
    6.2827   11.9417   25.6524 C   0  0  0  0  0  0  0  0  0  0  0  0
    8.4705   11.6811   24.0396 C   0  0  0  0  0  0  0  0  0  0  0  0
   12.6902   15.0419   20.2362 C   0  0  0  0  0  0  0  0  0  0  0  0
   13.9932   16.6171   18.3379 C   0  0  0  0  0  0  0  0  0  0  0  0
   12.1277   15.2191   18.9721 C   0  0  0  0  0  0  0  0  0  0  0  0
    7.7923   10.5615   24.5656 C   0  0  0  0  0  0  0  0  0  0  0  0
    9.5933   11.5067   23.2128 C   0  0  0  0  0  0  0  0  0  0  0  0
   12.0281   14.2173   21.2590 C   0  0  0  0  0  0  0  0  0  0  0  0
   11.5994   14.6532   22.4602 C   0  0  0  0  0  0  0  0  0  0  0  0
   10.9399   13.6301   23.3602 C   0  0  0  0  0  0  0  0  0  0  0  0
   14.6886   17.4604   17.3234 C   0  0  0  0  0  0  0  0  0  0  0  0
   10.8286   14.5799   18.5996 C   0  0  0  0  0  0  0  0  0  0  0  0
   11.8559   17.1272   23.1775 N   0  0  0  0  0  0  0  0  0  0  0  0
    6.7137   10.6931   25.3606 N   0  0  0  0  0  0  0  0  0  0  0  0
   10.2902   12.5949   22.6740 N   0  0  0  0  0  0  0  0  0  0  0  0
   10.9991   13.7475   24.5817 O   0  0  0  0  0  0  0  0  0  0  0  0
    9.7338    8.1196   23.1825 H   0  0  0  0  0  0  0  0  0  0  0  0
    6.4951   14.0738   25.4483 H   0  0  0  0  0  0  0  0  0  0  0  0
    8.4685   13.8594   23.9942 H   0  0  0  0  0  0  0  0  0  0  0  0
   14.3567   15.5240   21.5316 H   0  0  0  0  0  0  0  0  0  0  0  0
   15.5024   16.9098   19.8549 H   0  0  0  0  0  0  0  0  0  0  0  0
    7.7671    8.4110   24.6305 H   0  0  0  0  0  0  0  0  0  0  0  0
   10.9162   10.0828   22.2654 H   0  0  0  0  0  0  0  0  0  0  0  0
   12.3419   16.1455   17.0368 H   0  0  0  0  0  0  0  0  0  0  0  0
    5.4109   11.9882   26.2969 H   0  0  0  0  0  0  0  0  0  0  0  0
   11.8878   13.1836   20.9508 H   0  0  0  0  0  0  0  0  0  0  0  0
   15.3727   16.8488   16.7223 H   0  0  0  0  0  0  0  0  0  0  0  0
   13.9711   17.9449   16.6485 H   0  0  0  0  0  0  0  0  0  0  0  0
   15.2670   18.2623   17.8006 H   0  0  0  0  0  0  0  0  0  0  0  0
   11.0050   13.5898   18.1648 H   0  0  0  0  0  0  0  0  0  0  0  0
   10.1783   14.4677   19.4752 H   0  0  0  0  0  0  0  0  0  0  0  0
   10.2825   15.1909   17.8710 H   0  0  0  0  0  0  0  0  0  0  0  0
   10.3301   12.6402   21.6517 H   0  0  0  0  0  0  0  0  0  0  0  0
  1 18  1  0  0  0  0
  1 22  3  0  0  0  0
  2  7  1  0  0  0  0
  2  8  2  0  0  0  0
  3  4  2  0  0  0  0
  3 10  1  0  0  0  0
  4 11  1  0  0  0  0
  5  6  2  0  0  0  0
  5 12  1  0  0  0  0
  6 13  1  0  0  0  0
  7 15  2  0  0  0  0
  8 16  1  0  0  0  0
  9 13  2  0  0  0  0
  9 14  1  0  0  0  0
 10 23  2  0  0  0  0
 11 15  1  0  0  0  0
 11 16  2  0  0  0  0
 12 14  2  0  0  0  0
 12 17  1  4  0  0  0
 13 20  1  0  0  0  0
 14 21  1  0  0  0  0
 15 23  1  0  0  0  0
 16 24  1  0  0  0  0
 17 18  2  0  0  0  0
 18 19  1  0  0  0  0
 19 24  1  0  0  0  0
 19 25  2  0  0  0  0
  2 26  1  0  0  0  0
  3 27  1  0  0  0  0
  4 28  1  0  0  0  0
  5 29  1  0  0  0  0
  6 30  1  0  0  0  0
  7 31  1  0  0  0  0
  8 32  1  0  0  0  0
  9 33  1  0  0  0  0
 10 34  1  0  0  0  0
 17 35  1  0  0  0  0
 20 36  1  0  0  0  0
 20 37  1  0  0  0  0
 20 38  1  0  0  0  0
 21 39  1  0  0  0  0
 21 40  1  0  0  0  0
 21 41  1  0  0  0  0
 24 42  1  0  0  0  0
M  END
> <Catalog ID>
Z56936867

> <MW>
363.84

> <MW (desalted)>
327.379

> <ClogP>
4.493

> <logS>
-6.44

> <HBD>
1

> <HBA>
3

> <TPSA>
65.78

> <RotBonds>
3

> <ROCS_ShapeQuery>
A71EV2A-x0451_0A_A71EV2A-x0310_0A_A71EV2A-x0416_0A_peptide

> <ROCS_TanimotoCombo>
0.569 

> <ROCS_ShapeTanimoto>
0.379 

> <ROCS_ColorTanimoto>
0.191 

> <ROCS_RefTversky>
0.332 

> <ROCS_RefColorTversky>
0.203 

> <ROCS_RefTverskyCombo>
0.535 

> <ROCS_FitTversky>
1.596 

> <ROCS_FitColorTversky>
0.752 

> <ROCS_FitTverskyCombo>
2.348 

> <ROCS_ColorScore>
-6.197

> <ROCS_Overlap>
2306.099

> <ROCS_Rank>
6                   

$$$$
untitled-dbase-11315_1093
  -OEChem-11132309573D

 45 47  0     0  0  0  0  0  0999 V2000
   13.3159   13.5945   22.5728 C   0  0  0  0  0  0  0  0  0  0  0  0
    4.9456   11.8354   28.2765 C   0  0  0  0  0  0  0  0  0  0  0  0
    5.1958   12.9088   27.4216 C   0  0  0  0  0  0  0  0  0  0  0  0
    5.5350   10.5955   28.0302 C   0  0  0  0  0  0  0  0  0  0  0  0
    6.0354   12.7422   26.3203 C   0  0  0  0  0  0  0  0  0  0  0  0
    6.3747   10.4288   26.9289 C   0  0  0  0  0  0  0  0  0  0  0  0
   13.3223   16.2544   18.3979 C   0  0  0  0  0  0  0  0  0  0  0  0
   14.4181   16.3065   19.2309 C   0  0  0  0  0  0  0  0  0  0  0  0
   12.1837   15.6941   19.0458 C   0  0  0  0  0  0  0  0  0  0  0  0
    6.6249   11.5022   26.0739 C   0  0  0  0  0  0  0  0  0  0  0  0
   12.4528   15.3390   20.3495 C   0  0  0  0  0  0  0  0  0  0  0  0
    9.3117   11.5837   23.5763 C   0  0  0  0  0  0  0  0  0  0  0  0
    9.0356   10.2799   23.7029 C   0  0  0  0  0  0  0  0  0  0  0  0
    8.2857   12.3138   24.3654 C   0  0  0  0  0  0  0  0  0  0  0  0
   11.5596   14.7348   21.3502 C   0  0  0  0  0  0  0  0  0  0  0  0
   11.9450   13.9320   22.3614 C   0  0  0  0  0  0  0  0  0  0  0  0
   10.8568   13.4254   23.2745 C   0  0  0  0  0  0  0  0  0  0  0  0
   10.8707   15.5225   18.3757 C   0  0  0  0  0  0  0  0  0  0  0  0
    9.7625    9.1363   23.0794 C   0  0  0  0  0  0  0  0  0  0  0  0
    6.8805    9.1071   24.0854 C   0  0  0  0  0  0  0  0  0  0  0  0
   14.4293   13.3186   22.7485 N   0  0  0  0  0  0  0  0  0  0  0  0
    7.4780   11.3332   24.9549 N   0  0  0  0  0  0  0  0  0  0  0  0
    7.8984   10.0738   24.4852 N   0  0  0  0  0  0  0  0  0  0  0  0
   10.2979   12.2044   22.8918 N   0  0  0  0  0  0  0  0  0  0  0  0
    8.2759   13.5277   24.4882 O   0  0  0  0  0  0  0  0  0  0  0  0
   10.5044   14.0550   24.2709 O   0  0  0  0  0  0  0  0  0  0  0  0
   14.0725   15.6816   20.7873 S   0  0  0  0  0  0  0  0  0  0  0  0
    4.2925   11.9650   29.1347 H   0  0  0  0  0  0  0  0  0  0  0  0
    4.7377   13.8746   27.6136 H   0  0  0  0  0  0  0  0  0  0  0  0
    5.3408    9.7601   28.6967 H   0  0  0  0  0  0  0  0  0  0  0  0
    6.2232   13.5859   25.6610 H   0  0  0  0  0  0  0  0  0  0  0  0
    6.8286    9.4578   26.7469 H   0  0  0  0  0  0  0  0  0  0  0  0
   13.3421   16.6029   17.3727 H   0  0  0  0  0  0  0  0  0  0  0  0
   15.4053   16.6815   19.0001 H   0  0  0  0  0  0  0  0  0  0  0  0
   10.5161   15.0124   21.2180 H   0  0  0  0  0  0  0  0  0  0  0  0
   10.8090   14.5400   17.8861 H   0  0  0  0  0  0  0  0  0  0  0  0
   10.0372   15.6014   19.0899 H   0  0  0  0  0  0  0  0  0  0  0  0
   10.7007   16.2964   17.6120 H   0  0  0  0  0  0  0  0  0  0  0  0
   10.5622    8.7996   23.7401 H   0  0  0  0  0  0  0  0  0  0  0  0
   10.1926    9.4443   22.1253 H   0  0  0  0  0  0  0  0  0  0  0  0
    9.0731    8.3098   22.9019 H   0  0  0  0  0  0  0  0  0  0  0  0
    6.0721    9.0955   24.8313 H   0  0  0  0  0  0  0  0  0  0  0  0
    6.4705    9.3909   23.1049 H   0  0  0  0  0  0  0  0  0  0  0  0
    7.3317    8.1062   24.0184 H   0  0  0  0  0  0  0  0  0  0  0  0
   10.6394   11.7388   22.0524 H   0  0  0  0  0  0  0  0  0  0  0  0
  1 16  1  0  0  0  0
  1 21  3  0  0  0  0
  2  3  1  0  0  0  0
  2  4  2  0  0  0  0
  3  5  2  0  0  0  0
  4  6  1  0  0  0  0
  5 10  1  0  0  0  0
  6 10  2  0  0  0  0
  7  8  2  0  0  0  0
  7  9  1  0  0  0  0
  8 27  1  0  0  0  0
  9 11  2  0  0  0  0
  9 18  1  0  0  0  0
 10 22  1  0  0  0  0
 11 15  1  4  0  0  0
 11 27  1  0  0  0  0
 12 13  2  0  0  0  0
 12 14  1  0  0  0  0
 12 24  1  0  0  0  0
 13 19  1  0  0  0  0
 13 23  1  0  0  0  0
 14 22  1  0  0  0  0
 14 25  2  0  0  0  0
 15 16  2  0  0  0  0
 16 17  1  0  0  0  0
 17 24  1  0  0  0  0
 17 26  2  0  0  0  0
 20 23  1  0  0  0  0
 22 23  1  0  0  0  0
  2 28  1  0  0  0  0
  3 29  1  0  0  0  0
  4 30  1  0  0  0  0
  5 31  1  0  0  0  0
  6 32  1  0  0  0  0
  7 33  1  0  0  0  0
  8 34  1  0  0  0  0
 15 35  1  0  0  0  0
 18 36  1  0  0  0  0
 18 37  1  0  0  0  0
 18 38  1  0  0  0  0
 19 39  1  0  0  0  0
 19 40  1  0  0  0  0
 19 41  1  0  0  0  0
 20 42  1  0  0  0  0
 20 43  1  0  0  0  0
 20 44  1  0  0  0  0
 24 45  1  0  0  0  0
M  END
> <Catalog ID>
Z44385641

> <MW>
378.448

> <MW (desalted)>
378.448

> <ClogP>
2.161

> <logS>
-4.341

> <HBD>
1

> <HBA>
4

> <TPSA>
76.44

> <RotBonds>
4

> <ROCS_ShapeQuery>
A71EV2A-x0451_0A_A71EV2A-x0310_0A_A71EV2A-x0416_0A_peptide

> <ROCS_TanimotoCombo>
0.566 

> <ROCS_ShapeTanimoto>
0.397 

> <ROCS_ColorTanimoto>
0.169 

> <ROCS_RefTversky>
0.346 

> <ROCS_RefColorTversky>
0.183 

> <ROCS_RefTverskyCombo>
0.530 

> <ROCS_FitTversky>
1.582 

> <ROCS_FitColorTversky>
0.678 

> <ROCS_FitTverskyCombo>
2.260 

> <ROCS_ColorScore>
-5.590

> <ROCS_Overlap>
2408.936

> <ROCS_Rank>
7                   

$$$$
untitled-dbase-11199_489
  -OEChem-11132309573D

 35 38  0     0  0  0  0  0  0999 V2000
   13.5305   15.4368   18.4804 C   0  0  0  0  0  0  0  0  0  0  0  0
   12.6337   14.4025   18.7479 C   0  0  0  0  0  0  0  0  0  0  0  0
   13.8520   16.3568   19.4784 C   0  0  0  0  0  0  0  0  0  0  0  0
   12.0583   14.2882   20.0134 C   0  0  0  0  0  0  0  0  0  0  0  0
   13.2766   16.2425   20.7439 C   0  0  0  0  0  0  0  0  0  0  0  0
   12.3797   15.2082   21.0114 C   0  0  0  0  0  0  0  0  0  0  0  0
   11.3905   13.9802   22.9315 C   0  0  0  0  0  0  0  0  0  0  0  0
    6.4819   12.3575   26.0658 C   0  0  0  0  0  0  0  0  0  0  0  0
    7.5529   12.8382   25.4260 C   0  0  0  0  0  0  0  0  0  0  0  0
    6.0818   10.9882   25.9011 C   0  0  0  0  0  0  0  0  0  0  0  0
    6.7854   10.1806   25.0996 C   0  0  0  0  0  0  0  0  0  0  0  0
    9.7927   10.2948   22.8827 C   0  0  0  0  0  0  0  0  0  0  0  0
   10.1048   11.5946   23.0893 C   0  0  0  0  0  0  0  0  0  0  0  0
    8.3420   11.9415   24.5297 C   0  0  0  0  0  0  0  0  0  0  0  0
    8.5955    9.7272   23.5881 C   0  0  0  0  0  0  0  0  0  0  0  0
   10.5704    9.4022   21.9953 C   0  0  0  0  0  0  0  0  0  0  0  0
   10.9082   14.3412   24.0983 N   0  0  0  0  0  0  0  0  0  0  0  0
   11.0354   15.7111   24.1448 N   0  0  0  0  0  0  0  0  0  0  0  0
   11.5847   16.1774   23.0300 N   0  0  0  0  0  0  0  0  0  0  0  0
    9.3770   12.4229   23.9165 N   0  0  0  0  0  0  0  0  0  0  0  0
   11.8057   15.0935   22.2731 N   0  0  0  0  0  0  0  0  0  0  0  0
    7.9083   10.6222   24.4073 N   0  0  0  0  0  0  0  0  0  0  0  0
    8.2905    8.5469   23.4166 O   0  0  0  0  0  0  0  0  0  0  0  0
   10.6529    8.2049   22.1971 O   0  0  0  0  0  0  0  0  0  0  0  0
   11.5009   12.3267   22.2865 S   0  0  0  0  0  0  0  0  0  0  0  0
   13.9801   15.5252   17.4958 H   0  0  0  0  0  0  0  0  0  0  0  0
   12.3843   13.6853   17.9714 H   0  0  0  0  0  0  0  0  0  0  0  0
   14.5515   17.1611   19.2697 H   0  0  0  0  0  0  0  0  0  0  0  0
   11.3614   13.4769   20.2090 H   0  0  0  0  0  0  0  0  0  0  0  0
   13.5365   16.9660   21.5128 H   0  0  0  0  0  0  0  0  0  0  0  0
    5.8937   12.9895   26.7212 H   0  0  0  0  0  0  0  0  0  0  0  0
    7.8686   13.8687   25.5395 H   0  0  0  0  0  0  0  0  0  0  0  0
    5.2086   10.6321   26.4352 H   0  0  0  0  0  0  0  0  0  0  0  0
    6.4910    9.1452   24.9692 H   0  0  0  0  0  0  0  0  0  0  0  0
   11.0575    9.9107   21.1547 H   0  0  0  0  0  0  0  0  0  0  0  0
  1  2  1  0  0  0  0
  1  3  2  0  0  0  0
  2  4  2  0  0  0  0
  3  5  1  0  0  0  0
  4  6  1  0  0  0  0
  5  6  2  0  0  0  0
  6 21  1  0  0  0  0
  7 17  2  0  0  0  0
  7 21  1  0  0  0  0
  7 25  1  0  0  0  0
  8  9  2  0  0  0  0
  8 10  1  0  0  0  0
  9 14  1  0  0  0  0
 10 11  2  0  0  0  0
 11 22  1  0  0  0  0
 12 13  2  0  0  0  0
 12 15  1  0  0  0  0
 12 16  1  0  0  0  0
 13 20  1  0  0  0  0
 13 25  1  0  0  0  0
 14 20  2  0  0  0  0
 14 22  1  0  0  0  0
 15 22  1  0  0  0  0
 15 23  2  0  0  0  0
 16 24  2  0  0  0  0
 17 18  1  0  0  0  0
 18 19  2  0  0  0  0
 19 21  1  0  0  0  0
  1 26  1  0  0  0  0
  2 27  1  0  0  0  0
  3 28  1  0  0  0  0
  4 29  1  0  0  0  0
  5 30  1  0  0  0  0
  8 31  1  0  0  0  0
  9 32  1  0  0  0  0
 10 33  1  0  0  0  0
 11 34  1  0  0  0  0
 16 35  1  0  0  0  0
M  END
> <Catalog ID>
Z56983666

> <MW>
350.059

> <MW (desalted)>
350.355

> <ClogP>
1.978

> <logS>
-5.2

> <HBD>
0

> <HBA>
6

> <TPSA>
93.34

> <RotBonds>
4

> <ROCS_ShapeQuery>
A71EV2A-x0451_0A_A71EV2A-x0310_0A_A71EV2A-x0416_0A_peptide

> <ROCS_TanimotoCombo>
0.565 

> <ROCS_ShapeTanimoto>
0.393 

> <ROCS_ColorTanimoto>
0.172 

> <ROCS_RefTversky>
0.342 

> <ROCS_RefColorTversky>
0.203 

> <ROCS_RefTverskyCombo>
0.545 

> <ROCS_FitTversky>
1.613 

> <ROCS_FitColorTversky>
0.531 

> <ROCS_FitTverskyCombo>
2.144 

> <ROCS_ColorScore>
-6.220

> <ROCS_Overlap>
2376.882

> <ROCS_Rank>
8                   

$$$$
untitled-dbase-3678_1264
  -OEChem-11132309573D

 34 35  0     1  0  0  0  0  0999 V2000
   13.3705   13.7927   23.2656 C   0  0  0  0  0  0  0  0  0  0  0  0
    9.5991   10.6797   23.2224 C   0  0  0  0  0  0  0  0  0  0  0  0
    9.4891   12.0105   23.6522 C   0  0  0  0  0  0  0  0  0  0  0  0
    8.4314   12.0001   24.5281 C   0  0  0  0  0  0  0  0  0  0  0  0
    7.7785   12.9863   25.3224 C   0  0  0  0  0  0  0  0  0  0  0  0
    6.2600   11.2529   26.1422 C   0  0  0  0  0  0  0  0  0  0  0  0
    6.8760   10.3241   25.3937 C   0  0  0  0  0  0  0  0  0  0  0  0
    6.7362   12.6247   26.0961 C   0  0  0  0  0  0  0  0  0  0  0  0
    6.0873   13.6642   26.8989 C   0  0  0  0  0  0  0  0  0  0  0  0
   10.2809   13.1451   23.2831 C   0  0  0  0  0  0  0  0  0  0  0  0
   12.3039   15.5283   19.3808 C   0  0  0  0  0  0  0  0  0  0  0  0
   13.1597   13.9522   21.8177 C   0  0  0  0  0  0  0  0  0  0  0  0
   11.5008   14.3718   19.9627 C   0  0  0  0  0  0  0  0  0  0  0  0
   11.6850   14.2208   21.4806 C   0  0  1  0  0  0  0  0  0  0  0  0
   13.5387   13.6671   24.4068 N   0  0  0  0  0  0  0  0  0  0  0  0
    8.6896    9.8738   23.7718 N   0  0  0  0  0  0  0  0  0  0  0  0
    7.9595   10.6845   24.5851 N   0  0  0  0  0  0  0  0  0  0  0  0
   10.8462   13.1605   21.9914 N   0  0  0  0  0  0  0  0  0  0  0  0
    5.1488   14.3306   26.4804 O   0  0  0  0  0  0  0  0  0  0  0  0
   10.4858   14.0882   24.0858 O   0  0  0  0  0  0  0  0  0  0  0  0
   10.3087   10.2556   22.5258 H   0  0  0  0  0  0  0  0  0  0  0  0
    8.1362   14.0105   25.2858 H   0  0  0  0  0  0  0  0  0  0  0  0
    5.4190   10.9962   26.7757 H   0  0  0  0  0  0  0  0  0  0  0  0
    6.5708    9.2849   25.3826 H   0  0  0  0  0  0  0  0  0  0  0  0
    6.5060   13.8049   27.9092 H   0  0  0  0  0  0  0  0  0  0  0  0
   13.3669   15.3997   19.6089 H   0  0  0  0  0  0  0  0  0  0  0  0
   12.2000   15.5810   18.2927 H   0  0  0  0  0  0  0  0  0  0  0  0
   11.9797   16.4835   19.8058 H   0  0  0  0  0  0  0  0  0  0  0  0
   13.5112   13.0528   21.2974 H   0  0  0  0  0  0  0  0  0  0  0  0
   13.7774   14.7878   21.4673 H   0  0  0  0  0  0  0  0  0  0  0  0
   10.4405   14.5198   19.7234 H   0  0  0  0  0  0  0  0  0  0  0  0
   11.8183   13.4491   19.4620 H   0  0  0  0  0  0  0  0  0  0  0  0
   11.3575   15.1418   21.9793 H   0  0  0  0  0  0  0  0  0  0  0  0
   10.7103   12.3513   21.3944 H   0  0  0  0  0  0  0  0  0  0  0  0
  1 12  1  0  0  0  0
  1 15  3  0  0  0  0
  2  3  1  0  0  0  0
  2 16  2  0  0  0  0
  3  4  2  0  0  0  0
  3 10  1  0  0  0  0
  4  5  1  0  0  0  0
  4 17  1  0  0  0  0
  5  8  2  0  0  0  0
  6  7  2  0  0  0  0
  6  8  1  0  0  0  0
  7 17  1  0  0  0  0
  8  9  1  0  0  0  0
  9 19  2  0  0  0  0
 10 18  1  0  0  0  0
 10 20  2  0  0  0  0
 11 13  1  0  0  0  0
 12 14  1  0  0  0  0
 13 14  1  0  0  0  0
 14 18  1  0  0  0  0
 16 17  1  0  0  0  0
  2 21  1  0  0  0  0
  5 22  1  0  0  0  0
  6 23  1  0  0  0  0
  7 24  1  0  0  0  0
  9 25  1  0  0  0  0
 11 26  1  0  0  0  0
 11 27  1  0  0  0  0
 11 28  1  0  0  0  0
 12 29  1  0  0  0  0
 12 30  1  0  0  0  0
 13 31  1  0  0  0  0
 13 32  1  0  0  0  0
 14 33  1  0  0  0  0
 18 34  1  0  0  0  0
M  END
> <Catalog ID>
Z2453049731

> <MW>
270.287

> <MW (desalted)>
270.287

> <ClogP>
0.606

> <logS>
-2.038

> <HBD>
1

> <HBA>
4

> <TPSA>
87.26

> <RotBonds>
5

> <ROCS_ShapeQuery>
A71EV2A-x0451_0A_A71EV2A-x0310_0A_A71EV2A-x0416_0A_peptide

> <ROCS_TanimotoCombo>
0.564 

> <ROCS_ShapeTanimoto>
0.333 

> <ROCS_ColorTanimoto>
0.231 

> <ROCS_RefTversky>
0.293 

> <ROCS_RefColorTversky>
0.244 

> <ROCS_RefTverskyCombo>
0.537 

> <ROCS_FitTversky>
1.683 

> <ROCS_FitColorTversky>
0.810 

> <ROCS_FitTverskyCombo>
2.492 

> <ROCS_ColorScore>
-7.453

> <ROCS_Overlap>
2035.494

> <ROCS_Rank>
9                   

$$$$
untitled-dbase-5660_544
  -OEChem-11132309573D

 37 39  0     0  0  0  0  0  0999 V2000
   11.6972   16.0021   22.9780 C   0  0  0  0  0  0  0  0  0  0  0  0
   14.3967   15.6027   18.8224 C   0  0  0  0  0  0  0  0  0  0  0  0
   13.7555   16.7533   18.3635 C   0  0  0  0  0  0  0  0  0  0  0  0
    9.2998    9.1039   23.3195 C   0  0  0  0  0  0  0  0  0  0  0  0
    6.9072   13.0100   25.3729 C   0  0  0  0  0  0  0  0  0  0  0  0
    7.9822   12.9013   24.5026 C   0  0  0  0  0  0  0  0  0  0  0  0
   13.7822   14.7970   19.7810 C   0  0  0  0  0  0  0  0  0  0  0  0
    8.2201    9.2473   24.1945 C   0  0  0  0  0  0  0  0  0  0  0  0
    9.9516   10.2289   22.8298 C   0  0  0  0  0  0  0  0  0  0  0  0
   12.4997   17.0982   18.8632 C   0  0  0  0  0  0  0  0  0  0  0  0
    6.3192   11.8404   25.8100 C   0  0  0  0  0  0  0  0  0  0  0  0
    8.4358   11.6389   24.0968 C   0  0  0  0  0  0  0  0  0  0  0  0
   12.5264   15.1419   20.2807 C   0  0  0  0  0  0  0  0  0  0  0  0
    7.7693   10.5012   24.5981 C   0  0  0  0  0  0  0  0  0  0  0  0
    9.5217   11.4949   23.2167 C   0  0  0  0  0  0  0  0  0  0  0  0
   11.8851   16.2925   19.8218 C   0  0  0  0  0  0  0  0  0  0  0  0
   11.8994   14.2753   21.2909 C   0  0  0  0  0  0  0  0  0  0  0  0
   11.5248   14.6578   22.5278 C   0  0  0  0  0  0  0  0  0  0  0  0
   10.8934   13.5988   23.4062 C   0  0  0  0  0  0  0  0  0  0  0  0
   11.8344   17.0935   23.3479 N   0  0  0  0  0  0  0  0  0  0  0  0
    6.7258   10.6036   25.4428 N   0  0  0  0  0  0  0  0  0  0  0  0
   10.2060   12.6018   22.7003 N   0  0  0  0  0  0  0  0  0  0  0  0
   11.0042   13.6585   24.6282 O   0  0  0  0  0  0  0  0  0  0  0  0
   10.6579   16.6536   20.2940 O   0  0  0  0  0  0  0  0  0  0  0  0
   15.3752   15.3354   18.4341 H   0  0  0  0  0  0  0  0  0  0  0  0
   14.2349   17.3800   17.6175 H   0  0  0  0  0  0  0  0  0  0  0  0
    9.6286    8.1120   23.0234 H   0  0  0  0  0  0  0  0  0  0  0  0
    6.5432   13.9781   25.6964 H   0  0  0  0  0  0  0  0  0  0  0  0
    8.4527   13.8169   24.1527 H   0  0  0  0  0  0  0  0  0  0  0  0
   14.2966   13.9042   20.1286 H   0  0  0  0  0  0  0  0  0  0  0  0
    7.7263    8.3502   24.5642 H   0  0  0  0  0  0  0  0  0  0  0  0
   10.7907   10.1068   22.1498 H   0  0  0  0  0  0  0  0  0  0  0  0
   12.0057   17.9956   18.5006 H   0  0  0  0  0  0  0  0  0  0  0  0
    5.4752   11.8633   26.4917 H   0  0  0  0  0  0  0  0  0  0  0  0
   11.7365   13.2583   20.9411 H   0  0  0  0  0  0  0  0  0  0  0  0
   10.2041   12.6946   21.6805 H   0  0  0  0  0  0  0  0  0  0  0  0
   10.3650   17.4744   19.8690 H   0  0  0  0  0  0  0  0  0  0  0  0
  1 18  1  0  0  0  0
  1 20  3  0  0  0  0
  2  3  1  0  0  0  0
  2  7  2  0  0  0  0
  3 10  2  0  0  0  0
  4  8  1  0  0  0  0
  4  9  2  0  0  0  0
  5  6  2  0  0  0  0
  5 11  1  0  0  0  0
  6 12  1  0  0  0  0
  7 13  1  0  0  0  0
  8 14  2  0  0  0  0
  9 15  1  0  0  0  0
 10 16  1  0  0  0  0
 11 21  2  0  0  0  0
 12 14  1  0  0  0  0
 12 15  2  0  0  0  0
 13 16  2  0  0  0  0
 13 17  1  4  0  0  0
 14 21  1  0  0  0  0
 15 22  1  0  0  0  0
 16 24  1  0  0  0  0
 17 18  2  0  0  0  0
 18 19  1  0  0  0  0
 19 22  1  0  0  0  0
 19 23  2  0  0  0  0
  2 25  1  0  0  0  0
  3 26  1  0  0  0  0
  4 27  1  0  0  0  0
  5 28  1  0  0  0  0
  6 29  1  0  0  0  0
  7 30  1  0  0  0  0
  8 31  1  0  0  0  0
  9 32  1  0  0  0  0
 10 33  1  0  0  0  0
 11 34  1  0  0  0  0
 17 35  1  0  0  0  0
 22 36  1  0  0  0  0
 24 37  1  0  0  0  0
M  END
> <Catalog ID>
Z56825412

> <MW>
315.325

> <MW (desalted)>
315.325

> <ClogP>
2.828

> <logS>
-4.46

> <HBD>
2

> <HBA>
4

> <TPSA>
86.01

> <RotBonds>
3

> <ROCS_ShapeQuery>
A71EV2A-x0451_0A_A71EV2A-x0310_0A_A71EV2A-x0416_0A_peptide

> <ROCS_TanimotoCombo>
0.564 

> <ROCS_ShapeTanimoto>
0.375 

> <ROCS_ColorTanimoto>
0.189 

> <ROCS_RefTversky>
0.328 

> <ROCS_RefColorTversky>
0.212 

> <ROCS_RefTverskyCombo>
0.539 

> <ROCS_FitTversky>
1.617 

> <ROCS_FitColorTversky>
0.638 

> <ROCS_FitTverskyCombo>
2.255 

> <ROCS_ColorScore>
-6.469

> <ROCS_Overlap>
2278.767

> <ROCS_Rank>
10                  

$$$$
untitled-dbase-7740_1769
  -OEChem-11132309573D

 37 39  0     0  0  0  0  0  0999 V2000
    9.7048   10.5797   23.5572 C   0  0  0  0  0  0  0  0  0  0  0  0
    9.3846   11.9121   23.8570 C   0  0  0  0  0  0  0  0  0  0  0  0
    8.1627   11.8379   24.4796 C   0  0  0  0  0  0  0  0  0  0  0  0
    7.2643   12.7909   25.0402 C   0  0  0  0  0  0  0  0  0  0  0  0
    5.7595   10.9550   25.6302 C   0  0  0  0  0  0  0  0  0  0  0  0
    6.6069   10.0576   25.1020 C   0  0  0  0  0  0  0  0  0  0  0  0
    6.1112   12.3641   25.5917 C   0  0  0  0  0  0  0  0  0  0  0  0
    5.2100   13.3709   26.1577 C   0  0  0  0  0  0  0  0  0  0  0  0
   10.1358   13.1016   23.5897 C   0  0  0  0  0  0  0  0  0  0  0  0
   13.2126   13.3896   22.8391 C   0  0  0  0  0  0  0  0  0  0  0  0
   13.2644   14.0639   20.3746 C   0  0  0  0  0  0  0  0  0  0  0  0
   13.5692   15.2941   21.1738 C   0  0  0  0  0  0  0  0  0  0  0  0
   12.6571   14.2319   21.7522 C   0  0  0  0  0  0  0  0  0  0  0  0
   13.5441   11.1432   23.4933 C   0  0  0  0  0  0  0  0  0  0  0  0
   11.2021   14.5500   21.8170 C   0  0  0  0  0  0  0  0  0  0  0  0
    8.7700    9.7138   23.9509 N   0  0  0  0  0  0  0  0  0  0  0  0
    7.8079   10.4856   24.5256 N   0  0  0  0  0  0  0  0  0  0  0  0
   10.4358   13.4018   22.2451 N   0  0  0  0  0  0  0  0  0  0  0  0
    5.4685   14.5680   26.1462 O   0  0  0  0  0  0  0  0  0  0  0  0
   10.5346   13.8454   24.5190 O   0  0  0  0  0  0  0  0  0  0  0  0
   13.7334   13.8348   23.8529 O   0  0  0  0  0  0  0  0  0  0  0  0
   13.0489   12.0730   22.5246 O   0  0  0  0  0  0  0  0  0  0  0  0
   10.5868   10.1958   23.0641 H   0  0  0  0  0  0  0  0  0  0  0  0
    7.5294   13.8430   25.0099 H   0  0  0  0  0  0  0  0  0  0  0  0
    4.8240   10.6460   26.0816 H   0  0  0  0  0  0  0  0  0  0  0  0
    6.4047    8.9934   25.0985 H   0  0  0  0  0  0  0  0  0  0  0  0
    4.2803   12.9728   26.5970 H   0  0  0  0  0  0  0  0  0  0  0  0
   12.6242   14.1725   19.5071 H   0  0  0  0  0  0  0  0  0  0  0  0
   14.0601   13.3399   20.2424 H   0  0  0  0  0  0  0  0  0  0  0  0
   14.5699   15.3961   21.5775 H   0  0  0  0  0  0  0  0  0  0  0  0
   13.1330   16.2300   20.8448 H   0  0  0  0  0  0  0  0  0  0  0  0
   13.3639   10.1231   23.1456 H   0  0  0  0  0  0  0  0  0  0  0  0
   13.0402   11.3082   24.4489 H   0  0  0  0  0  0  0  0  0  0  0  0
   14.6183   11.2987   23.6185 H   0  0  0  0  0  0  0  0  0  0  0  0
   11.0458   15.3724   22.5306 H   0  0  0  0  0  0  0  0  0  0  0  0
   10.8575   14.8598   20.8193 H   0  0  0  0  0  0  0  0  0  0  0  0
   10.1507   12.7435   21.5275 H   0  0  0  0  0  0  0  0  0  0  0  0
  1  2  1  0  0  0  0
  1 16  2  0  0  0  0
  2  3  2  0  0  0  0
  2  9  1  0  0  0  0
  3  4  1  0  0  0  0
  3 17  1  0  0  0  0
  4  7  2  0  0  0  0
  5  6  2  0  0  0  0
  5  7  1  0  0  0  0
  6 17  1  0  0  0  0
  7  8  1  0  0  0  0
  8 19  2  0  0  0  0
  9 18  1  0  0  0  0
  9 20  2  0  0  0  0
 10 13  1  0  0  0  0
 10 21  2  0  0  0  0
 10 22  1  0  0  0  0
 11 12  1  0  0  0  0
 11 13  1  0  0  0  0
 12 13  1  0  0  0  0
 13 15  1  0  0  0  0
 14 22  1  0  0  0  0
 15 18  1  0  0  0  0
 16 17  1  0  0  0  0
  1 23  1  0  0  0  0
  4 24  1  0  0  0  0
  5 25  1  0  0  0  0
  6 26  1  0  0  0  0
  8 27  1  0  0  0  0
 11 28  1  0  0  0  0
 11 29  1  0  0  0  0
 12 30  1  0  0  0  0
 12 31  1  0  0  0  0
 14 32  1  0  0  0  0
 14 33  1  0  0  0  0
 14 34  1  0  0  0  0
 15 35  1  0  0  0  0
 15 36  1  0  0  0  0
 18 37  1  0  0  0  0
M  END
> <Catalog ID>
Z2453049732

> <MW>
301.297

> <MW (desalted)>
301.297

> <ClogP>
0.735

> <logS>
-1.409

> <HBD>
1

> <HBA>
4

> <TPSA>
89.77

> <RotBonds>
6

> <ROCS_ShapeQuery>
A71EV2A-x0451_0A_A71EV2A-x0310_0A_A71EV2A-x0416_0A_peptide

> <ROCS_TanimotoCombo>
0.563 

> <ROCS_ShapeTanimoto>
0.337 

> <ROCS_ColorTanimoto>
0.226 

> <ROCS_RefTversky>
0.300 

> <ROCS_RefColorTversky>
0.234 

> <ROCS_RefTverskyCombo>
0.534 

> <ROCS_FitTversky>
1.580 

> <ROCS_FitColorTversky>
0.865 

> <ROCS_FitTverskyCombo>
2.445 

> <ROCS_ColorScore>
-7.145

> <ROCS_Overlap>
2081.822

> <ROCS_Rank>
11                  

$$$$
untitled-dbase-2238_993
  -OEChem-11132309573D

 40 43  0     1  0  0  0  0  0999 V2000
   13.5713   16.4709   18.1523 C   0  0  0  0  0  0  0  0  0  0  0  0
   13.7581   17.0842   19.3910 C   0  0  0  0  0  0  0  0  0  0  0  0
   13.0222   15.1904   18.0837 C   0  0  0  0  0  0  0  0  0  0  0  0
   13.3959   16.4171   20.5612 C   0  0  0  0  0  0  0  0  0  0  0  0
   12.6599   14.5233   19.2539 C   0  0  0  0  0  0  0  0  0  0  0  0
    6.8133   12.2275   25.5442 C   0  0  0  0  0  0  0  0  0  0  0  0
   12.8468   15.1366   20.4927 C   0  0  0  0  0  0  0  0  0  0  0  0
    7.8823   10.7308   24.5317 C   0  0  0  0  0  0  0  0  0  0  0  0
   10.1905   10.9987   23.0072 C   0  0  0  0  0  0  0  0  0  0  0  0
    9.6703   12.1012   23.5704 C   0  0  0  0  0  0  0  0  0  0  0  0
    9.4643    9.7184   23.2605 C   0  0  0  0  0  0  0  0  0  0  0  0
   12.0583   14.9463   22.8475 C   0  0  0  0  0  0  0  0  0  0  0  0
   12.1056   13.0896   21.8676 C   0  0  0  0  0  0  0  0  0  0  0  0
   11.6190   13.5287   23.2677 C   0  0  2  0  0  0  0  0  0  0  0  0
    8.5877    6.8443   23.5122 C   0  0  0  0  0  0  0  0  0  0  0  0
   10.0385    8.4717   22.6349 C   0  0  0  0  0  0  0  0  0  0  0  0
    6.8167   10.8943   25.2897 N   0  0  0  0  0  0  0  0  0  0  0  0
    7.8049   12.9252   24.9988 N   0  0  0  0  0  0  0  0  0  0  0  0
    8.3845    9.5937   23.9743 N   0  0  0  0  0  0  0  0  0  0  0  0
    8.5069   11.9671   24.3387 N   0  0  0  0  0  0  0  0  0  0  0  0
   12.4892   14.4783   21.6480 N   0  0  0  0  0  0  0  0  0  0  0  0
   10.2041   13.3514   23.4427 N   0  0  0  0  0  0  0  0  0  0  0  0
   12.0106   16.0534   23.3336 O   0  0  0  0  0  0  0  0  0  0  0  0
    8.9935    7.5645   22.3522 O   0  0  0  0  0  0  0  0  0  0  0  0
   13.8525   16.9903   17.2408 H   0  0  0  0  0  0  0  0  0  0  0  0
   14.1848   18.0814   19.4447 H   0  0  0  0  0  0  0  0  0  0  0  0
   12.8759   14.7135   17.1188 H   0  0  0  0  0  0  0  0  0  0  0  0
   13.5461   16.9051   21.5210 H   0  0  0  0  0  0  0  0  0  0  0  0
   12.2328   13.5257   19.1882 H   0  0  0  0  0  0  0  0  0  0  0  0
    6.0613   12.7113   26.1492 H   0  0  0  0  0  0  0  0  0  0  0  0
   11.0853   11.0053   22.3984 H   0  0  0  0  0  0  0  0  0  0  0  0
   12.9582   12.4042   21.8682 H   0  0  0  0  0  0  0  0  0  0  0  0
   11.3403   12.7379   21.1687 H   0  0  0  0  0  0  0  0  0  0  0  0
   12.1920   13.1228   24.1063 H   0  0  0  0  0  0  0  0  0  0  0  0
    7.7804    6.1559   23.2508 H   0  0  0  0  0  0  0  0  0  0  0  0
    8.2486    7.5464   24.2780 H   0  0  0  0  0  0  0  0  0  0  0  0
    9.4392    6.2756   23.8934 H   0  0  0  0  0  0  0  0  0  0  0  0
   10.7462    8.0126   23.3189 H   0  0  0  0  0  0  0  0  0  0  0  0
   10.5410    8.7394   21.7103 H   0  0  0  0  0  0  0  0  0  0  0  0
    9.5709   14.1138   23.4766 H   0  0  0  0  0  0  0  0  0  0  0  0
  1  2  1  0  0  0  0
  1  3  2  0  0  0  0
  2  4  2  0  0  0  0
  3  5  1  0  0  0  0
  4  7  1  0  0  0  0
  5  7  2  0  0  0  0
  6 17  1  0  0  0  0
  6 18  2  0  0  0  0
  7 21  1  0  0  0  0
  8 17  2  0  0  0  0
  8 19  1  0  0  0  0
  8 20  1  0  0  0  0
  9 10  2  0  0  0  0
  9 11  1  0  0  0  0
 10 20  1  0  0  0  0
 10 22  1  0  0  0  0
 11 16  1  0  0  0  0
 11 19  2  0  0  0  0
 12 14  1  0  0  0  0
 12 21  1  0  0  0  0
 12 23  2  0  0  0  0
 13 14  1  0  0  0  0
 13 21  1  0  0  0  0
 14 22  1  0  0  0  0
 15 24  1  0  0  0  0
 16 24  1  0  0  0  0
 18 20  1  0  0  0  0
  1 25  1  0  0  0  0
  2 26  1  0  0  0  0
  3 27  1  0  0  0  0
  4 28  1  0  0  0  0
  5 29  1  0  0  0  0
  6 30  1  0  0  0  0
  9 31  1  0  0  0  0
 13 32  1  0  0  0  0
 13 33  1  0  0  0  0
 14 34  1  0  0  0  0
 15 35  1  0  0  0  0
 15 36  1  0  0  0  0
 15 37  1  0  0  0  0
 16 38  1  0  0  0  0
 16 39  1  0  0  0  0
 22 40  1  0  0  0  0
M  END
> <Catalog ID>
Z1661111305

> <MW>
324.337

> <MW (desalted)>
324.337

> <ClogP>
1.443

> <logS>
-4.425

> <HBD>
1

> <HBA>
6

> <TPSA>
84.65

> <RotBonds>
5

> <ROCS_ShapeQuery>
A71EV2A-x0451_0A_A71EV2A-x0310_0A_A71EV2A-x0416_0A_peptide

> <ROCS_TanimotoCombo>
0.561 

> <ROCS_ShapeTanimoto>
0.380 

> <ROCS_ColorTanimoto>
0.180 

> <ROCS_RefTversky>
0.332 

> <ROCS_RefColorTversky>
0.208 

> <ROCS_RefTverskyCombo>
0.540 

> <ROCS_FitTversky>
1.613 

> <ROCS_FitColorTversky>
0.573 

> <ROCS_FitTverskyCombo>
2.186 

> <ROCS_ColorScore>
-6.375

> <ROCS_Overlap>
2310.371

> <ROCS_Rank>
12                  

$$$$
untitled-dbase-3703_1579
  -OEChem-11132309573D

 45 47  0     0  0  0  0  0  0999 V2000
   13.0456   14.2327   22.9243 C   0  0  0  0  0  0  0  0  0  0  0  0
   14.0097   16.6614   18.5316 C   0  0  0  0  0  0  0  0  0  0  0  0
   14.7872   16.2897   19.6284 C   0  0  0  0  0  0  0  0  0  0  0  0
   12.6481   16.3596   18.5075 C   0  0  0  0  0  0  0  0  0  0  0  0
   12.1521    8.8709   21.9760 C   0  0  0  0  0  0  0  0  0  0  0  0
   10.4217    7.1891   21.8551 C   0  0  0  0  0  0  0  0  0  0  0  0
   11.2741    9.7264   22.6416 C   0  0  0  0  0  0  0  0  0  0  0  0
    9.5438    8.0446   22.5207 C   0  0  0  0  0  0  0  0  0  0  0  0
   14.2031   15.6161   20.7011 C   0  0  0  0  0  0  0  0  0  0  0  0
   12.0640   15.6860   19.5802 C   0  0  0  0  0  0  0  0  0  0  0  0
    8.0642   11.9281   24.3328 C   0  0  0  0  0  0  0  0  0  0  0  0
   11.7258    7.6023   21.5827 C   0  0  0  0  0  0  0  0  0  0  0  0
    9.9700    9.3132   22.9140 C   0  0  0  0  0  0  0  0  0  0  0  0
   12.8415   15.3143   20.6770 C   0  0  0  0  0  0  0  0  0  0  0  0
    7.5040   10.7294   24.8135 C   0  0  0  0  0  0  0  0  0  0  0  0
    9.1013   11.5240   23.5280 C   0  0  0  0  0  0  0  0  0  0  0  0
   10.5046   13.5621   23.0576 C   0  0  0  0  0  0  0  0  0  0  0  0
   12.6645    6.6876   20.8710 C   0  0  0  0  0  0  0  0  0  0  0  0
    6.3564   10.5774   25.7237 C   0  0  0  0  0  0  0  0  0  0  0  0
   10.8470   14.3017   21.7787 C   0  0  0  0  0  0  0  0  0  0  0  0
   13.6612   13.9084   23.8531 N   0  0  0  0  0  0  0  0  0  0  0  0
    8.1330    9.6450   24.3524 N   0  0  0  0  0  0  0  0  0  0  0  0
    9.0991   10.1609   23.5735 N   0  0  0  0  0  0  0  0  0  0  0  0
    9.9960   12.2617   22.7980 N   0  0  0  0  0  0  0  0  0  0  0  0
   12.2494   14.6321   21.7635 N   0  0  0  0  0  0  0  0  0  0  0  0
   10.6726   14.0603   24.1661 O   0  0  0  0  0  0  0  0  0  0  0  0
   14.4647   17.1857   17.6962 H   0  0  0  0  0  0  0  0  0  0  0  0
   15.8472   16.5247   19.6469 H   0  0  0  0  0  0  0  0  0  0  0  0
   12.0428   16.6491   17.6533 H   0  0  0  0  0  0  0  0  0  0  0  0
   13.1665    9.2005   21.7676 H   0  0  0  0  0  0  0  0  0  0  0  0
   10.0809    6.2026   21.5522 H   0  0  0  0  0  0  0  0  0  0  0  0
   11.6188   10.7130   22.9420 H   0  0  0  0  0  0  0  0  0  0  0  0
    8.5300    7.7093   22.7262 H   0  0  0  0  0  0  0  0  0  0  0  0
   14.8177   15.3308   21.5510 H   0  0  0  0  0  0  0  0  0  0  0  0
   11.0019   15.4563   19.5505 H   0  0  0  0  0  0  0  0  0  0  0  0
    7.7580   12.9434   24.5413 H   0  0  0  0  0  0  0  0  0  0  0  0
   13.2148    6.0695   21.5909 H   0  0  0  0  0  0  0  0  0  0  0  0
   12.1276    6.0236   20.1812 H   0  0  0  0  0  0  0  0  0  0  0  0
   13.3901    7.2506   20.2695 H   0  0  0  0  0  0  0  0  0  0  0  0
    5.4075   10.5099   25.1644 H   0  0  0  0  0  0  0  0  0  0  0  0
    6.4379    9.6712   26.3502 H   0  0  0  0  0  0  0  0  0  0  0  0
    6.2675   11.4240   26.4280 H   0  0  0  0  0  0  0  0  0  0  0  0
   10.2543   15.2194   21.7123 H   0  0  0  0  0  0  0  0  0  0  0  0
   10.6064   13.6631   20.9230 H   0  0  0  0  0  0  0  0  0  0  0  0
   10.3718   11.8364   21.9291 H   0  0  0  0  0  0  0  0  0  0  0  0
  1 21  3  0  0  0  0
  1 25  1  0  0  0  0
  2  3  1  0  0  0  0
  2  4  2  0  0  0  0
  3  9  2  0  0  0  0
  4 10  1  0  0  0  0
  5  7  2  0  0  0  0
  5 12  1  0  0  0  0
  6  8  1  0  0  0  0
  6 12  2  0  0  0  0
  7 13  1  0  0  0  0
  8 13  2  0  0  0  0
  9 14  1  0  0  0  0
 10 14  2  0  0  0  0
 11 15  1  0  0  0  0
 11 16  2  0  0  0  0
 12 18  1  0  0  0  0
 13 23  1  0  0  0  0
 14 25  1  0  0  0  0
 15 19  1  0  0  0  0
 15 22  2  0  0  0  0
 16 23  1  0  0  0  0
 16 24  1  0  0  0  0
 17 20  1  0  0  0  0
 17 24  1  0  0  0  0
 17 26  2  0  0  0  0
 20 25  1  0  0  0  0
 22 23  1  0  0  0  0
  2 27  1  0  0  0  0
  3 28  1  0  0  0  0
  4 29  1  0  0  0  0
  5 30  1  0  0  0  0
  6 31  1  0  0  0  0
  7 32  1  0  0  0  0
  8 33  1  0  0  0  0
  9 34  1  0  0  0  0
 10 35  1  0  0  0  0
 11 36  1  0  0  0  0
 18 37  1  0  0  0  0
 18 38  1  0  0  0  0
 18 39  1  0  0  0  0
 19 40  1  0  0  0  0
 19 41  1  0  0  0  0
 19 42  1  0  0  0  0
 20 43  1  0  0  0  0
 20 44  1  0  0  0  0
 24 45  1  0  0  0  0
M  END
> <Catalog ID>
Z1374907920

> <MW>
345.398

> <MW (desalted)>
345.398

> <ClogP>
3.703

> <logS>
-5.055

> <HBD>
1

> <HBA>
4

> <TPSA>
73.95

> <RotBonds>
5

> <ROCS_ShapeQuery>
A71EV2A-x0451_0A_A71EV2A-x0310_0A_A71EV2A-x0416_0A_peptide

> <ROCS_TanimotoCombo>
0.561 

> <ROCS_ShapeTanimoto>
0.343 

> <ROCS_ColorTanimoto>
0.217 

> <ROCS_RefTversky>
0.310 

> <ROCS_RefColorTversky>
0.232 

> <ROCS_RefTverskyCombo>
0.542 

> <ROCS_FitTversky>
1.450 

> <ROCS_FitColorTversky>
0.772 

> <ROCS_FitTverskyCombo>
2.222 

> <ROCS_ColorScore>
-7.090

> <ROCS_Overlap>
2157.264

> <ROCS_Rank>
13                  

$$$$
untitled-dbase-2166_17185
  -OEChem-11132309573D

 53 56  0     0  0  0  0  0  0999 V2000
   14.0065   10.8899   22.1086 C   0  0  0  0  0  0  0  0  0  0  0  0
    6.0665   12.0494   26.4074 C   0  0  0  0  0  0  0  0  0  0  0  0
    6.8760   13.1661   26.2215 C   0  0  0  0  0  0  0  0  0  0  0  0
   12.6209   16.6229   21.2208 C   0  0  0  0  0  0  0  0  0  0  0  0
   11.2980   16.8220   21.6156 C   0  0  0  0  0  0  0  0  0  0  0  0
    8.7687    9.5596   23.2181 C   0  0  0  0  0  0  0  0  0  0  0  0
   13.3595   13.8850   27.9465 C   0  0  0  0  0  0  0  0  0  0  0  0
    6.3309   10.8709   25.7090 C   0  0  0  0  0  0  0  0  0  0  0  0
    7.9531   13.1086   25.3366 C   0  0  0  0  0  0  0  0  0  0  0  0
    7.6917    9.6171   24.1031 C   0  0  0  0  0  0  0  0  0  0  0  0
   13.1345   15.3292   21.1302 C   0  0  0  0  0  0  0  0  0  0  0  0
    9.5782   10.6763   23.0322 C   0  0  0  0  0  0  0  0  0  0  0  0
   13.9666   12.9925   28.8298 C   0  0  0  0  0  0  0  0  0  0  0  0
   13.2514   13.5626   26.5936 C   0  0  0  0  0  0  0  0  0  0  0  0
   10.4887   15.7275   21.9198 C   0  0  0  0  0  0  0  0  0  0  0  0
   14.3575   11.4550   27.0076 C   0  0  0  0  0  0  0  0  0  0  0  0
    7.4108   10.7950   24.8143 C   0  0  0  0  0  0  0  0  0  0  0  0
    8.2340   11.9306   24.6253 C   0  0  0  0  0  0  0  0  0  0  0  0
   14.4656   11.7774   28.3604 C   0  0  0  0  0  0  0  0  0  0  0  0
    9.3138   11.8548   23.7305 C   0  0  0  0  0  0  0  0  0  0  0  0
   12.3253   14.2346   21.4345 C   0  0  0  0  0  0  0  0  0  0  0  0
   13.7504   12.3476   26.1242 C   0  0  0  0  0  0  0  0  0  0  0  0
   11.0023   14.4337   21.8293 C   0  0  0  0  0  0  0  0  0  0  0  0
   12.8851   12.8936   21.3320 C   0  0  0  0  0  0  0  0  0  0  0  0
   13.4943   12.2047   22.3289 C   0  0  0  0  0  0  0  0  0  0  0  0
   15.0982   10.8478   29.2825 C   0  0  0  0  0  0  0  0  0  0  0  0
   10.2061   12.9836   23.4810 C   0  0  0  0  0  0  0  0  0  0  0  0
   13.6253   12.8961   23.6692 C   0  0  0  0  0  0  0  0  0  0  0  0
   14.4251    9.8216   21.9342 N   0  0  0  0  0  0  0  0  0  0  0  0
   13.6401   12.0199   24.7488 N   0  0  0  0  0  0  0  0  0  0  0  0
   16.2636   10.4448   29.2062 O   0  0  0  0  0  0  0  0  0  0  0  0
   10.8905   13.5324   24.3513 O   0  0  0  0  0  0  0  0  0  0  0  0
   13.7052   14.1204   23.7312 O   0  0  0  0  0  0  0  0  0  0  0  0
   14.2582   10.4474   30.2761 O   0  0  0  0  0  0  0  0  0  0  0  0
   10.1695   13.3557   22.1411 O   0  0  0  0  0  0  0  0  0  0  0  0
    5.2286   12.0951   27.0970 H   0  0  0  0  0  0  0  0  0  0  0  0
    6.6705   14.0823   26.7672 H   0  0  0  0  0  0  0  0  0  0  0  0
   13.2511   17.4756   20.9854 H   0  0  0  0  0  0  0  0  0  0  0  0
   10.8993   17.8296   21.6860 H   0  0  0  0  0  0  0  0  0  0  0  0
    8.9754    8.6423   22.6746 H   0  0  0  0  0  0  0  0  0  0  0  0
   12.9706   14.8310   28.3119 H   0  0  0  0  0  0  0  0  0  0  0  0
    5.6853   10.0099   25.8702 H   0  0  0  0  0  0  0  0  0  0  0  0
    8.5621   14.0018   25.2204 H   0  0  0  0  0  0  0  0  0  0  0  0
    7.0719    8.7323   24.2326 H   0  0  0  0  0  0  0  0  0  0  0  0
   14.1684   15.1920   20.8221 H   0  0  0  0  0  0  0  0  0  0  0  0
   10.4139   10.6164   22.3394 H   0  0  0  0  0  0  0  0  0  0  0  0
   14.0460   13.2550   29.8815 H   0  0  0  0  0  0  0  0  0  0  0  0
   12.7768   14.2661   25.9139 H   0  0  0  0  0  0  0  0  0  0  0  0
    9.4588   15.8901   22.2260 H   0  0  0  0  0  0  0  0  0  0  0  0
   14.7477   10.5076   26.6412 H   0  0  0  0  0  0  0  0  0  0  0  0
   12.7627   12.4369   20.3460 H   0  0  0  0  0  0  0  0  0  0  0  0
   13.5630   11.0309   24.5268 H   0  0  0  0  0  0  0  0  0  0  0  0
   14.6760    9.8204   30.9044 H   0  0  0  0  0  0  0  0  0  0  0  0
  1 25  1  0  0  0  0
  1 29  3  0  0  0  0
  2  3  1  0  0  0  0
  2  8  2  0  0  0  0
  3  9  2  0  0  0  0
  4  5  1  0  0  0  0
  4 11  2  0  0  0  0
  5 15  2  0  0  0  0
  6 10  1  0  0  0  0
  6 12  2  0  0  0  0
  7 13  2  0  0  0  0
  7 14  1  0  0  0  0
  8 17  1  0  0  0  0
  9 18  1  0  0  0  0
 10 17  2  0  0  0  0
 11 21  1  0  0  0  0
 12 20  1  0  0  0  0
 13 19  1  0  0  0  0
 14 22  2  0  0  0  0
 15 23  1  0  0  0  0
 16 19  2  0  0  0  0
 16 22  1  0  0  0  0
 17 18  1  0  0  0  0
 18 20  2  0  0  0  0
 19 26  1  0  0  0  0
 20 27  1  0  0  0  0
 21 23  2  0  0  0  0
 21 24  1  4  0  0  0
 22 30  1  0  0  0  0
 23 35  1  0  0  0  0
 24 25  2  0  0  0  0
 25 28  1  0  0  0  0
 26 31  2  0  0  0  0
 26 34  1  0  0  0  0
 27 32  2  0  0  0  0
 27 35  1  0  0  0  0
 28 30  1  0  0  0  0
 28 33  2  0  0  0  0
  2 36  1  0  0  0  0
  3 37  1  0  0  0  0
  4 38  1  0  0  0  0
  5 39  1  0  0  0  0
  6 40  1  0  0  0  0
  7 41  1  0  0  0  0
  8 42  1  0  0  0  0
  9 43  1  0  0  0  0
 10 44  1  0  0  0  0
 11 45  1  0  0  0  0
 12 46  1  0  0  0  0
 13 47  1  0  0  0  0
 14 48  1  0  0  0  0
 15 49  1  0  0  0  0
 16 50  1  0  0  0  0
 24 51  1  0  0  0  0
 30 52  1  0  0  0  0
 34 53  1  0  0  0  0
M  END
> <Catalog ID>
Z56916943

> <MW>
462.453

> <MW (desalted)>
462.453

> <ClogP>
5.676

> <logS>
-8.26

> <HBD>
2

> <HBA>
5

> <TPSA>
116.49

> <RotBonds>
7

> <ROCS_ShapeQuery>
A71EV2A-x0451_0A_A71EV2A-x0310_0A_A71EV2A-x0416_0A_peptide

> <ROCS_TanimotoCombo>
0.561 

> <ROCS_ShapeTanimoto>
0.396 

> <ROCS_ColorTanimoto>
0.164 

> <ROCS_RefTversky>
0.361 

> <ROCS_RefColorTversky>
0.196 

> <ROCS_RefTverskyCombo>
0.558 

> <ROCS_FitTversky>
1.327 

> <ROCS_FitColorTversky>
0.500 

> <ROCS_FitTverskyCombo>
1.827 

> <ROCS_ColorScore>
-6.023

> <ROCS_Overlap>
2519.576

> <ROCS_Rank>
14                  

$$$$
untitled-dbase-3126_770
  -OEChem-11132309573D

 62 66  0     0  0  0  0  0  0999 V2000
   13.2200   14.1138   23.0269 C   0  0  0  0  0  0  0  0  0  0  0  0
   11.7654   15.2234   19.1807 C   0  0  0  0  0  0  0  0  0  0  0  0
   13.3306   15.9258   20.8819 C   0  0  0  0  0  0  0  0  0  0  0  0
    7.2038    9.8893   24.7841 C   0  0  0  0  0  0  0  0  0  0  0  0
    8.0520    9.3461   23.8192 C   0  0  0  0  0  0  0  0  0  0  0  0
   12.5285   15.8728   18.2104 C   0  0  0  0  0  0  0  0  0  0  0  0
   14.0938   16.5752   19.9116 C   0  0  0  0  0  0  0  0  0  0  0  0
    8.3253   12.0186   24.5714 C   0  0  0  0  0  0  0  0  0  0  0  0
   12.1664   15.2499   20.5165 C   0  0  0  0  0  0  0  0  0  0  0  0
    7.3404   11.2256   25.1601 C   0  0  0  0  0  0  0  0  0  0  0  0
    9.0370   10.1392   23.2304 C   0  0  0  0  0  0  0  0  0  0  0  0
    9.1736   11.4754   23.6065 C   0  0  0  0  0  0  0  0  0  0  0  0
   13.6927   16.5487   18.5758 C   0  0  0  0  0  0  0  0  0  0  0  0
   11.3614   14.5650   21.5399 C   0  0  0  0  0  0  0  0  0  0  0  0
   11.8354   14.0361   22.6854 C   0  0  0  0  0  0  0  0  0  0  0  0
   10.8255   13.3768   23.6003 C   0  0  0  0  0  0  0  0  0  0  0  0
    4.7190   11.5159   28.6247 C   0  0  0  0  0  0  0  0  0  0  0  0
    3.9025   13.2019   26.9587 C   0  0  0  0  0  0  0  0  0  0  0  0
    5.8857   13.7228   28.4003 C   0  0  0  0  0  0  0  0  0  0  0  0
    5.0376   11.1107   26.1724 C   0  0  0  0  0  0  0  0  0  0  0  0
    7.0163   11.6223   27.6241 C   0  0  0  0  0  0  0  0  0  0  0  0
    6.1923   13.3239   25.9425 C   0  0  0  0  0  0  0  0  0  0  0  0
    4.0956   11.7040   27.2345 C   0  0  0  0  0  0  0  0  0  0  0  0
    6.0793   12.2246   28.6858 C   0  0  0  0  0  0  0  0  0  0  0  0
    5.2583   13.9199   27.0105 C   0  0  0  0  0  0  0  0  0  0  0  0
    6.4328   11.8057   26.1919 C   0  0  0  0  0  0  0  0  0  0  0  0
    9.9320    9.5304   22.2002 C   0  0  0  0  0  0  0  0  0  0  0  0
   13.9695   17.1154   16.2828 C   0  0  0  0  0  0  0  0  0  0  0  0
   14.3440   14.1753   23.3091 N   0  0  0  0  0  0  0  0  0  0  0  0
   10.1536   12.2858   23.0276 N   0  0  0  0  0  0  0  0  0  0  0  0
   10.6475   13.8029   24.7387 O   0  0  0  0  0  0  0  0  0  0  0  0
   14.4374   17.1824   17.6290 O   0  0  0  0  0  0  0  0  0  0  0  0
   10.8604   14.7008   18.8804 H   0  0  0  0  0  0  0  0  0  0  0  0
   13.6562   15.9553   21.9190 H   0  0  0  0  0  0  0  0  0  0  0  0
    6.4393    9.2640   25.2375 H   0  0  0  0  0  0  0  0  0  0  0  0
    7.9369    8.3040   23.5331 H   0  0  0  0  0  0  0  0  0  0  0  0
   12.2111   15.8487   17.1715 H   0  0  0  0  0  0  0  0  0  0  0  0
   14.9997   17.1000   20.2023 H   0  0  0  0  0  0  0  0  0  0  0  0
    8.4296   13.0605   24.8666 H   0  0  0  0  0  0  0  0  0  0  0  0
   10.3011   14.5318   21.2994 H   0  0  0  0  0  0  0  0  0  0  0  0
    4.0495   11.9202   29.3939 H   0  0  0  0  0  0  0  0  0  0  0  0
    4.8418   10.4473   28.8399 H   0  0  0  0  0  0  0  0  0  0  0  0
    3.4380   13.3460   25.9755 H   0  0  0  0  0  0  0  0  0  0  0  0
    3.2193   13.6347   27.6997 H   0  0  0  0  0  0  0  0  0  0  0  0
    5.2407   14.1687   29.1675 H   0  0  0  0  0  0  0  0  0  0  0  0
    6.8498   14.2432   28.4544 H   0  0  0  0  0  0  0  0  0  0  0  0
    5.1536   10.0320   26.3447 H   0  0  0  0  0  0  0  0  0  0  0  0
    4.5818   11.2126   25.1781 H   0  0  0  0  0  0  0  0  0  0  0  0
    8.0023   12.1015   27.6902 H   0  0  0  0  0  0  0  0  0  0  0  0
    7.1779   10.5564   27.8337 H   0  0  0  0  0  0  0  0  0  0  0  0
    5.7618   13.4804   24.9443 H   0  0  0  0  0  0  0  0  0  0  0  0
    7.1504   13.8607   25.9518 H   0  0  0  0  0  0  0  0  0  0  0  0
    3.1266   11.1942   27.1933 H   0  0  0  0  0  0  0  0  0  0  0  0
    6.5190   12.0927   29.6808 H   0  0  0  0  0  0  0  0  0  0  0  0
    5.1162   14.9895   26.8184 H   0  0  0  0  0  0  0  0  0  0  0  0
    9.4972    9.6506   21.2016 H   0  0  0  0  0  0  0  0  0  0  0  0
   10.9229   10.0003   22.2097 H   0  0  0  0  0  0  0  0  0  0  0  0
   10.0833    8.4608   22.3901 H   0  0  0  0  0  0  0  0  0  0  0  0
   14.6552   17.6615   15.6303 H   0  0  0  0  0  0  0  0  0  0  0  0
   12.9684   17.5495   16.2220 H   0  0  0  0  0  0  0  0  0  0  0  0
   13.9302   16.0687   15.9718 H   0  0  0  0  0  0  0  0  0  0  0  0
   10.4147   12.0544   22.0635 H   0  0  0  0  0  0  0  0  0  0  0  0
  1 15  1  0  0  0  0
  1 29  3  0  0  0  0
  2  6  2  0  0  0  0
  2  9  1  0  0  0  0
  3  7  1  0  0  0  0
  3  9  2  0  0  0  0
  4  5  2  0  0  0  0
  4 10  1  0  0  0  0
  5 11  1  0  0  0  0
  6 13  1  0  0  0  0
  7 13  2  0  0  0  0
  8 10  2  0  0  0  0
  8 12  1  0  0  0  0
  9 14  1  4  0  0  0
 10 26  1  0  0  0  0
 11 12  2  0  0  0  0
 11 27  1  0  0  0  0
 12 30  1  0  0  0  0
 13 32  1  0  0  0  0
 14 15  2  0  0  0  0
 15 16  1  0  0  0  0
 16 30  1  0  0  0  0
 16 31  2  0  0  0  0
 17 23  1  0  0  0  0
 17 24  1  0  0  0  0
 18 23  1  0  0  0  0
 18 25  1  0  0  0  0
 19 24  1  0  0  0  0
 19 25  1  0  0  0  0
 20 23  1  0  0  0  0
 20 26  1  0  0  0  0
 21 24  1  0  0  0  0
 21 26  1  0  0  0  0
 22 25  1  0  0  0  0
 22 26  1  0  0  0  0
 28 32  1  0  0  0  0
  2 33  1  0  0  0  0
  3 34  1  0  0  0  0
  4 35  1  0  0  0  0
  5 36  1  0  0  0  0
  6 37  1  0  0  0  0
  7 38  1  0  0  0  0
  8 39  1  0  0  0  0
 14 40  1  0  0  0  0
 17 41  1  0  0  0  0
 17 42  1  0  0  0  0
 18 43  1  0  0  0  0
 18 44  1  0  0  0  0
 19 45  1  0  0  0  0
 19 46  1  0  0  0  0
 20 47  1  0  0  0  0
 20 48  1  0  0  0  0
 21 49  1  0  0  0  0
 21 50  1  0  0  0  0
 22 51  1  0  0  0  0
 22 52  1  0  0  0  0
 23 53  1  0  0  0  0
 24 54  1  0  0  0  0
 25 55  1  0  0  0  0
 27 56  1  0  0  0  0
 27 57  1  0  0  0  0
 27 58  1  0  0  0  0
 28 59  1  0  0  0  0
 28 60  1  0  0  0  0
 28 61  1  0  0  0  0
 30 62  1  0  0  0  0
M  END
> <Catalog ID>
Z56785368

> <MW>
426.55

> <MW (desalted)>
426.55

> <ClogP>
7.043

> <logS>
-8.46

> <HBD>
1

> <HBA>
3

> <TPSA>
62.12

> <RotBonds>
5

> <ROCS_ShapeQuery>
A71EV2A-x0451_0A_A71EV2A-x0310_0A_A71EV2A-x0416_0A_peptide

> <ROCS_TanimotoCombo>
0.560 

> <ROCS_ShapeTanimoto>
0.395 

> <ROCS_ColorTanimoto>
0.165 

> <ROCS_RefTversky>
0.354 

> <ROCS_RefColorTversky>
0.203 

> <ROCS_RefTverskyCombo>
0.558 

> <ROCS_FitTversky>
1.412 

> <ROCS_FitColorTversky>
0.466 

> <ROCS_FitTverskyCombo>
1.878 

> <ROCS_ColorScore>
-6.250

> <ROCS_Overlap>
2468.880

> <ROCS_Rank>
15                  

$$$$
untitled-dbase-11474_151
  -OEChem-11132309573D

 55 58  0     1  0  0  0  0  0999 V2000
   15.9679   11.7864   28.1111 C   0  0  0  0  0  0  0  0  0  0  0  0
   14.6170   11.7650   28.4578 C   0  0  0  0  0  0  0  0  0  0  0  0
   16.3655   12.3261   26.8878 C   0  0  0  0  0  0  0  0  0  0  0  0
    6.2335   11.8592   25.8587 C   0  0  0  0  0  0  0  0  0  0  0  0
    6.8478   12.9884   25.3370 C   0  0  0  0  0  0  0  0  0  0  0  0
   13.5517   16.7276   18.8827 C   0  0  0  0  0  0  0  0  0  0  0  0
   13.6637   12.2831   27.5813 C   0  0  0  0  0  0  0  0  0  0  0  0
   15.4122   12.8442   26.0113 C   0  0  0  0  0  0  0  0  0  0  0  0
    6.7275   10.6013   25.5342 C   0  0  0  0  0  0  0  0  0  0  0  0
    7.9508   12.8621   24.4856 C   0  0  0  0  0  0  0  0  0  0  0  0
   14.2415   15.9214   19.8194 C   0  0  0  0  0  0  0  0  0  0  0  0
   12.2441   16.3011   18.9015 C   0  0  0  0  0  0  0  0  0  0  0  0
   14.0613   12.8228   26.3580 C   0  0  0  0  0  0  0  0  0  0  0  0
    7.8290   10.4600   24.6700 C   0  0  0  0  0  0  0  0  0  0  0  0
    8.4589   11.6020   24.1222 C   0  0  0  0  0  0  0  0  0  0  0  0
   13.3063   15.0599   20.3440 C   0  0  0  0  0  0  0  0  0  0  0  0
   13.0548   13.3701   25.4318 C   0  0  0  0  0  0  0  0  0  0  0  0
   13.2811   14.3552   24.5540 C   0  0  0  0  0  0  0  0  0  0  0  0
   10.1372   12.5246   22.5063 C   0  0  0  0  0  0  0  0  0  0  0  0
    8.3219    9.0626   24.3978 C   0  0  0  0  0  0  0  0  0  0  0  0
    9.1645    9.0131   23.1390 C   0  0  0  0  0  0  0  0  0  0  0  0
   10.2126   10.1105   23.1889 C   0  0  0  0  0  0  0  0  0  0  0  0
   13.3794   13.9654   21.3691 C   0  0  0  0  0  0  0  0  0  0  0  0
   11.6202   12.4618   22.2138 C   0  0  0  0  0  0  0  0  0  0  0  0
    9.6099   11.4549   23.2538 N   0  0  0  0  0  0  0  0  0  0  0  0
   12.0828   13.8118   22.1242 N   0  0  1  0  0  0  0  0  0  0  0  0
    9.4996   13.4819   22.0629 O   0  0  0  0  0  0  0  0  0  0  0  0
   12.1974   16.2027   23.1103 O   0  0  0  0  0  0  0  0  0  0  0  0
   10.7224   14.5367   24.2604 O   0  0  0  0  0  0  0  0  0  0  0  0
   12.0861   15.2849   19.7897 O   0  0  0  0  0  0  0  0  0  0  0  0
   11.9525   14.8392   23.5487 S   0  0  0  0  0  0  0  0  0  0  0  0
   16.7103   11.3841   28.7941 H   0  0  0  0  0  0  0  0  0  0  0  0
   14.3073   11.3459   29.4108 H   0  0  0  0  0  0  0  0  0  0  0  0
   17.4174   12.3439   26.6182 H   0  0  0  0  0  0  0  0  0  0  0  0
    5.3820   11.9573   26.5249 H   0  0  0  0  0  0  0  0  0  0  0  0
    6.4805   13.9762   25.6011 H   0  0  0  0  0  0  0  0  0  0  0  0
   13.9568   17.5200   18.2702 H   0  0  0  0  0  0  0  0  0  0  0  0
   12.6143   12.2593   27.8656 H   0  0  0  0  0  0  0  0  0  0  0  0
   15.7378   13.2615   25.0613 H   0  0  0  0  0  0  0  0  0  0  0  0
    6.2505    9.7216   25.9601 H   0  0  0  0  0  0  0  0  0  0  0  0
    8.4082   13.7894   24.1591 H   0  0  0  0  0  0  0  0  0  0  0  0
   15.2901   15.9651   20.0773 H   0  0  0  0  0  0  0  0  0  0  0  0
   11.3523   16.6016   18.3713 H   0  0  0  0  0  0  0  0  0  0  0  0
   12.0726   12.9042   25.4810 H   0  0  0  0  0  0  0  0  0  0  0  0
   14.2354   14.8515   24.4331 H   0  0  0  0  0  0  0  0  0  0  0  0
    8.9138    8.7289   25.2589 H   0  0  0  0  0  0  0  0  0  0  0  0
    7.4758    8.3743   24.2860 H   0  0  0  0  0  0  0  0  0  0  0  0
    9.6465    8.0328   23.0535 H   0  0  0  0  0  0  0  0  0  0  0  0
    8.5355    9.1405   22.2487 H   0  0  0  0  0  0  0  0  0  0  0  0
   10.8655    9.9998   24.0634 H   0  0  0  0  0  0  0  0  0  0  0  0
   10.8382   10.0122   22.2979 H   0  0  0  0  0  0  0  0  0  0  0  0
   13.6085   13.0056   20.8935 H   0  0  0  0  0  0  0  0  0  0  0  0
   14.1708   14.1635   22.0997 H   0  0  0  0  0  0  0  0  0  0  0  0
   11.7535   11.9334   21.2762 H   0  0  0  0  0  0  0  0  0  0  0  0
   12.0993   11.9311   23.0292 H   0  0  0  0  0  0  0  0  0  0  0  0
  1  2  1  0  0  0  0
  1  3  2  0  0  0  0
  2  7  2  0  0  0  0
  3  8  1  0  0  0  0
  4  5  1  0  0  0  0
  4  9  2  0  0  0  0
  5 10  2  0  0  0  0
  6 11  1  0  0  0  0
  6 12  2  0  0  0  0
  7 13  1  0  0  0  0
  8 13  2  0  0  0  0
  9 14  1  0  0  0  0
 10 15  1  0  0  0  0
 11 16  2  0  0  0  0
 12 30  1  0  0  0  0
 13 17  1  0  0  0  0
 14 15  2  0  0  0  0
 14 20  1  0  0  0  0
 15 25  1  0  0  0  0
 16 23  1  0  0  0  0
 16 30  1  0  0  0  0
 17 18  2  0  0  0  0
 18 31  1  4  0  0  0
 19 24  1  0  0  0  0
 19 25  1  0  0  0  0
 19 27  2  0  0  0  0
 20 21  1  0  0  0  0
 21 22  1  0  0  0  0
 22 25  1  0  0  0  0
 23 26  1  0  0  0  0
 24 26  1  0  0  0  0
 26 31  1  0  0  0  0
 28 31  2  0  0  0  0
 29 31  2  0  0  0  0
  1 32  1  0  0  0  0
  2 33  1  0  0  0  0
  3 34  1  0  0  0  0
  4 35  1  0  0  0  0
  5 36  1  0  0  0  0
  6 37  1  0  0  0  0
  7 38  1  0  0  0  0
  8 39  1  0  0  0  0
  9 40  1  0  0  0  0
 10 41  1  0  0  0  0
 11 42  1  0  0  0  0
 12 43  1  0  0  0  0
 17 44  1  0  0  0  0
 18 45  1  0  0  0  0
 20 46  1  0  0  0  0
 20 47  1  0  0  0  0
 21 48  1  0  0  0  0
 21 49  1  0  0  0  0
 22 50  1  0  0  0  0
 22 51  1  0  0  0  0
 23 52  1  0  0  0  0
 23 53  1  0  0  0  0
 24 54  1  0  0  0  0
 24 55  1  0  0  0  0
M  END
> <Catalog ID>
Z25967035

> <MW>
436.523

> <MW (desalted)>
436.523

> <ClogP>
4.532

> <logS>
-5.566

> <HBD>
0

> <HBA>
3

> <TPSA>
70.83

> <RotBonds>
6

> <ROCS_ShapeQuery>
A71EV2A-x0451_0A_A71EV2A-x0310_0A_A71EV2A-x0416_0A_peptide

> <ROCS_TanimotoCombo>
0.560 

> <ROCS_ShapeTanimoto>
0.406 

> <ROCS_ColorTanimoto>
0.154 

> <ROCS_RefTversky>
0.358 

> <ROCS_RefColorTversky>
0.174 

> <ROCS_RefTverskyCombo>
0.532 

> <ROCS_FitTversky>
1.486 

> <ROCS_FitColorTversky>
0.576 

> <ROCS_FitTverskyCombo>
2.062 

> <ROCS_ColorScore>
-5.297

> <ROCS_Overlap>
2495.781

> <ROCS_Rank>
16                  

$$$$
untitled-dbase-8859_1841
  -OEChem-11132309573D

 55 58  0     1  0  0  0  0  0999 V2000
   13.4899   16.9929   17.9652 C   0  0  0  0  0  0  0  0  0  0  0  0
   14.5713   17.2017   18.8160 C   0  0  0  0  0  0  0  0  0  0  0  0
   12.5072   16.0611   18.3004 C   0  0  0  0  0  0  0  0  0  0  0  0
   14.6741   16.4794   20.0052 C   0  0  0  0  0  0  0  0  0  0  0  0
   11.6145   14.3832   19.8465 C   0  0  0  0  0  0  0  0  0  0  0  0
   11.7173   13.6609   21.0357 C   0  0  0  0  0  0  0  0  0  0  0  0
   13.7815   14.8014   21.5514 C   0  0  0  0  0  0  0  0  0  0  0  0
    9.4765   10.3386   23.7049 C   0  0  0  0  0  0  0  0  0  0  0  0
   12.5945   15.3251   19.4933 C   0  0  0  0  0  0  0  0  0  0  0  0
   13.6942   15.5374   20.3585 C   0  0  0  0  0  0  0  0  0  0  0  0
    9.5064   11.6837   24.1245 C   0  0  0  0  0  0  0  0  0  0  0  0
   12.7988   13.8696   21.8865 C   0  0  0  0  0  0  0  0  0  0  0  0
    8.2748   11.8951   24.7015 C   0  0  0  0  0  0  0  0  0  0  0  0
   10.5582   12.6464   23.9953 C   0  0  0  0  0  0  0  0  0  0  0  0
   14.8341   11.9766   25.6504 C   0  0  0  0  0  0  0  0  0  0  0  0
    7.6459   13.0921   25.3248 C   0  0  0  0  0  0  0  0  0  0  0  0
    5.5322   11.7147   25.4692 C   0  0  0  0  0  0  0  0  0  0  0  0
    6.2900   10.4331   25.1177 C   0  0  0  0  0  0  0  0  0  0  0  0
    6.4443   12.7093   26.2097 C   0  0  2  0  0  0  0  0  0  0  0  0
    5.6663   13.9543   26.6288 C   0  0  0  0  0  0  0  0  0  0  0  0
   14.7674   11.0115   26.8064 C   0  0  0  0  0  0  0  0  0  0  0  0
   14.1926   12.2427   23.2714 C   0  0  0  0  0  0  0  0  0  0  0  0
   12.9088   13.0824   23.1807 C   0  0  2  0  0  0  0  0  0  0  0  0
    8.3198    9.7328   23.9892 N   0  0  0  0  0  0  0  0  0  0  0  0
    7.6089   10.7051   24.5858 N   0  0  0  0  0  0  0  0  0  0  0  0
   11.7517   12.2365   23.3660 N   0  0  0  0  0  0  0  0  0  0  0  0
   14.2561   11.4806   24.4912 N   0  0  0  0  0  0  0  0  0  0  0  0
   10.4361   13.8125   24.4438 O   0  0  0  0  0  0  0  0  0  0  0  0
   15.3426   13.0906   25.7638 O   0  0  0  0  0  0  0  0  0  0  0  0
   13.2595   11.3156   27.6832 Cl  0  0  0  0  0  0  0  0  0  0  0  0
   13.4109   17.5554   17.0397 H   0  0  0  0  0  0  0  0  0  0  0  0
   15.3362   17.9269   18.5542 H   0  0  0  0  0  0  0  0  0  0  0  0
   11.6705   15.9148   17.6201 H   0  0  0  0  0  0  0  0  0  0  0  0
   15.5284   16.6587   20.6550 H   0  0  0  0  0  0  0  0  0  0  0  0
   10.7606   14.2035   19.1964 H   0  0  0  0  0  0  0  0  0  0  0  0
   10.9476   12.9367   21.2891 H   0  0  0  0  0  0  0  0  0  0  0  0
   14.6223   14.9553   22.2260 H   0  0  0  0  0  0  0  0  0  0  0  0
   10.2491    9.7721   23.2042 H   0  0  0  0  0  0  0  0  0  0  0  0
    8.3846   13.6345   25.9269 H   0  0  0  0  0  0  0  0  0  0  0  0
    7.3230   13.7693   24.5237 H   0  0  0  0  0  0  0  0  0  0  0  0
    5.1566   12.1794   24.5480 H   0  0  0  0  0  0  0  0  0  0  0  0
    4.6572   11.4628   26.0792 H   0  0  0  0  0  0  0  0  0  0  0  0
    6.4360    9.8161   26.0114 H   0  0  0  0  0  0  0  0  0  0  0  0
    5.7357    9.8515   24.3738 H   0  0  0  0  0  0  0  0  0  0  0  0
    6.8192   12.2200   27.1193 H   0  0  0  0  0  0  0  0  0  0  0  0
    5.2804   14.4632   25.7468 H   0  0  0  0  0  0  0  0  0  0  0  0
    6.3206   14.6328   27.1739 H   0  0  0  0  0  0  0  0  0  0  0  0
    4.8329   13.6709   27.2699 H   0  0  0  0  0  0  0  0  0  0  0  0
   14.7802    9.9677   26.4833 H   0  0  0  0  0  0  0  0  0  0  0  0
   15.6131   11.1884   27.4766 H   0  0  0  0  0  0  0  0  0  0  0  0
   14.2369   11.5173   22.4511 H   0  0  0  0  0  0  0  0  0  0  0  0
   15.0989   12.8555   23.2211 H   0  0  0  0  0  0  0  0  0  0  0  0
   12.9161   13.7939   24.0169 H   0  0  0  0  0  0  0  0  0  0  0  0
   11.8362   11.2684   23.0735 H   0  0  0  0  0  0  0  0  0  0  0  0
   13.8621   10.5425   24.5034 H   0  0  0  0  0  0  0  0  0  0  0  0
  1  2  1  0  0  0  0
  1  3  2  0  0  0  0
  2  4  2  0  0  0  0
  3  9  1  0  0  0  0
  4 10  1  0  0  0  0
  5  6  2  0  0  0  0
  5  9  1  0  0  0  0
  6 12  1  0  0  0  0
  7 10  1  0  0  0  0
  7 12  2  0  0  0  0
  8 11  1  0  0  0  0
  8 24  2  0  0  0  0
  9 10  2  0  0  0  0
 11 13  2  0  0  0  0
 11 14  1  0  0  0  0
 12 23  1  0  0  0  0
 13 16  1  0  0  0  0
 13 25  1  0  0  0  0
 14 26  1  0  0  0  0
 14 28  2  0  0  0  0
 15 21  1  0  0  0  0
 15 27  1  0  0  0  0
 15 29  2  0  0  0  0
 16 19  1  0  0  0  0
 17 18  1  0  0  0  0
 17 19  1  0  0  0  0
 18 25  1  0  0  0  0
 19 20  1  0  0  0  0
 21 30  1  0  0  0  0
 22 23  1  0  0  0  0
 22 27  1  0  0  0  0
 23 26  1  0  0  0  0
 24 25  1  0  0  0  0
  1 31  1  0  0  0  0
  2 32  1  0  0  0  0
  3 33  1  0  0  0  0
  4 34  1  0  0  0  0
  5 35  1  0  0  0  0
  6 36  1  0  0  0  0
  7 37  1  0  0  0  0
  8 38  1  0  0  0  0
 16 39  1  0  0  0  0
 16 40  1  0  0  0  0
 17 41  1  0  0  0  0
 17 42  1  0  0  0  0
 18 43  1  0  0  0  0
 18 44  1  0  0  0  0
 19 45  1  0  0  0  0
 20 46  1  0  0  0  0
 20 47  1  0  0  0  0
 20 48  1  0  0  0  0
 21 49  1  0  0  0  0
 21 50  1  0  0  0  0
 22 51  1  0  0  0  0
 22 52  1  0  0  0  0
 23 53  1  0  0  0  0
 26 54  1  0  0  0  0
 27 55  1  0  0  0  0
M  END
> <Catalog ID>
Z4425211918

> <MW>
424.923

> <MW (desalted)>
424.923

> <ClogP>
3.597

> <logS>
-5.449

> <HBD>
2

> <HBA>
3

> <TPSA>
76.02

> <RotBonds>
6

> <ROCS_ShapeQuery>
A71EV2A-x0451_0A_A71EV2A-x0310_0A_A71EV2A-x0416_0A_peptide

> <ROCS_TanimotoCombo>
0.559 

> <ROCS_ShapeTanimoto>
0.362 

> <ROCS_ColorTanimoto>
0.197 

> <ROCS_RefTversky>
0.329 

> <ROCS_RefColorTversky>
0.220 

> <ROCS_RefTverskyCombo>
0.548 

> <ROCS_FitTversky>
1.386 

> <ROCS_FitColorTversky>
0.661 

> <ROCS_FitTverskyCombo>
2.047 

> <ROCS_ColorScore>
-6.712

> <ROCS_Overlap>
2287.597

> <ROCS_Rank>
17                  

$$$$
untitled-dbase-2586_1117
  -OEChem-11132309573D

 43 45  0     1  0  0  0  0  0999 V2000
    7.0712   13.5493   25.4360 C   0  0  0  0  0  0  0  0  0  0  0  0
    6.2372   12.4758   25.7362 C   0  0  0  0  0  0  0  0  0  0  0  0
   13.9520   14.9758   20.1346 C   0  0  0  0  0  0  0  0  0  0  0  0
   11.7699   16.0126   20.1120 C   0  0  0  0  0  0  0  0  0  0  0  0
    8.2373   13.3495   24.6918 C   0  0  0  0  0  0  0  0  0  0  0  0
    6.5555   11.2020   25.2740 C   0  0  0  0  0  0  0  0  0  0  0  0
   14.2808   15.6419   18.9541 C   0  0  0  0  0  0  0  0  0  0  0  0
   12.0987   16.6788   18.9315 C   0  0  0  0  0  0  0  0  0  0  0  0
   12.6965   15.1610   20.7135 C   0  0  0  0  0  0  0  0  0  0  0  0
    8.5968   12.0657   24.2610 C   0  0  0  0  0  0  0  0  0  0  0  0
    7.7126   11.0030   24.5155 C   0  0  0  0  0  0  0  0  0  0  0  0
   13.3541   16.4935   18.3525 C   0  0  0  0  0  0  0  0  0  0  0  0
   12.3490   14.4582   21.9608 C   0  0  0  0  0  0  0  0  0  0  0  0
   11.3434   13.5838   22.0895 C   0  0  0  0  0  0  0  0  0  0  0  0
    9.1863    8.1865   22.8044 C   0  0  0  0  0  0  0  0  0  0  0  0
   10.1132   10.3847   23.2683 C   0  0  0  0  0  0  0  0  0  0  0  0
    8.8229    9.6451   22.9764 C   0  0  2  0  0  0  0  0  0  0  0  0
    8.3329    5.8726   23.1205 C   0  0  0  0  0  0  0  0  0  0  0  0
    9.7744   11.8247   23.4416 N   0  0  2  0  0  0  0  0  0  0  0  0
    8.1952    7.3091   23.2009 N   0  0  0  0  0  0  0  0  0  0  0  0
   10.2824    7.8870   22.3453 O   0  0  0  0  0  0  0  0  0  0  0  0
   12.2782   12.0355   23.9336 O   0  0  0  0  0  0  0  0  0  0  0  0
   10.7331   13.9118   24.5776 O   0  0  0  0  0  0  0  0  0  0  0  0
    7.9290    9.7161   24.0843 O   0  0  0  0  0  0  0  0  0  0  0  0
   11.1184   12.8633   23.6487 S   0  0  0  0  0  0  0  0  0  0  0  0
   13.7601   17.3152   16.8963 Cl  0  0  0  0  0  0  0  0  0  0  0  0
    6.8131   14.5476   25.7780 H   0  0  0  0  0  0  0  0  0  0  0  0
    5.3336   12.6343   26.3171 H   0  0  0  0  0  0  0  0  0  0  0  0
   14.6842   14.3146   20.5920 H   0  0  0  0  0  0  0  0  0  0  0  0
   10.7875   16.1668   20.5519 H   0  0  0  0  0  0  0  0  0  0  0  0
    8.8474   14.2188   24.4676 H   0  0  0  0  0  0  0  0  0  0  0  0
    5.8907   10.3707   25.4936 H   0  0  0  0  0  0  0  0  0  0  0  0
   15.2631   15.4882   18.5147 H   0  0  0  0  0  0  0  0  0  0  0  0
   11.3665   17.3392   18.4737 H   0  0  0  0  0  0  0  0  0  0  0  0
   12.9880   14.6774   22.8140 H   0  0  0  0  0  0  0  0  0  0  0  0
   10.6802   13.3004   21.2825 H   0  0  0  0  0  0  0  0  0  0  0  0
   10.5880   10.0137   24.1856 H   0  0  0  0  0  0  0  0  0  0  0  0
   10.8154   10.2679   22.4354 H   0  0  0  0  0  0  0  0  0  0  0  0
    8.3454    9.9879   22.0620 H   0  0  0  0  0  0  0  0  0  0  0  0
    7.9709    5.5232   22.1423 H   0  0  0  0  0  0  0  0  0  0  0  0
    9.3916    5.5986   23.2388 H   0  0  0  0  0  0  0  0  0  0  0  0
    7.7410    5.4023   23.9197 H   0  0  0  0  0  0  0  0  0  0  0  0
    7.3284    7.6920   23.5663 H   0  0  0  0  0  0  0  0  0  0  0  0
  1  2  1  0  0  0  0
  1  5  2  0  0  0  0
  2  6  2  0  0  0  0
  3  7  2  0  0  0  0
  3  9  1  0  0  0  0
  4  8  1  0  0  0  0
  4  9  2  0  0  0  0
  5 10  1  0  0  0  0
  6 11  1  0  0  0  0
  7 12  1  0  0  0  0
  8 12  2  0  0  0  0
  9 13  1  0  0  0  0
 10 11  2  0  0  0  0
 10 19  1  0  0  0  0
 11 24  1  0  0  0  0
 12 26  1  0  0  0  0
 13 14  2  0  0  0  0
 14 25  1  4  0  0  0
 15 17  1  0  0  0  0
 15 20  1  0  0  0  0
 15 21  2  0  0  0  0
 16 17  1  0  0  0  0
 16 19  1  0  0  0  0
 17 24  1  0  0  0  0
 18 20  1  0  0  0  0
 19 25  1  0  0  0  0
 22 25  2  0  0  0  0
 23 25  2  0  0  0  0
  1 27  1  0  0  0  0
  2 28  1  0  0  0  0
  3 29  1  0  0  0  0
  4 30  1  0  0  0  0
  5 31  1  0  0  0  0
  6 32  1  0  0  0  0
  7 33  1  0  0  0  0
  8 34  1  0  0  0  0
 13 35  1  0  0  0  0
 14 36  1  0  0  0  0
 16 37  1  0  0  0  0
 16 38  1  0  0  0  0
 17 39  1  0  0  0  0
 18 40  1  0  0  0  0
 18 41  1  0  0  0  0
 18 42  1  0  0  0  0
 20 43  1  0  0  0  0
M  END
> <Catalog ID>
Z133863694

> <MW>
392.857

> <MW (desalted)>
392.857

> <ClogP>
3.039

> <logS>
-5.318

> <HBD>
1

> <HBA>
4

> <TPSA>
75.71

> <RotBonds>
3

> <ROCS_ShapeQuery>
A71EV2A-x0451_0A_A71EV2A-x0310_0A_A71EV2A-x0416_0A_peptide

> <ROCS_TanimotoCombo>
0.558 

> <ROCS_ShapeTanimoto>
0.370 

> <ROCS_ColorTanimoto>
0.189 

> <ROCS_RefTversky>
0.326 

> <ROCS_RefColorTversky>
0.212 

> <ROCS_RefTverskyCombo>
0.538 

> <ROCS_FitTversky>
1.559 

> <ROCS_FitColorTversky>
0.637 

> <ROCS_FitTverskyCombo>
2.197 

> <ROCS_ColorScore>
-6.466

> <ROCS_Overlap>
2269.646

> <ROCS_Rank>
18                  

$$$$
untitled-dbase-7124_1297
  -OEChem-11132309573D

 35 37  0     1  0  0  0  0  0999 V2000
    9.5216   10.5764   23.3427 C   0  0  0  0  0  0  0  0  0  0  0  0
    9.4634   11.8941   23.8204 C   0  0  0  0  0  0  0  0  0  0  0  0
    8.3361   11.9238   24.6041 C   0  0  0  0  0  0  0  0  0  0  0  0
    7.6841   12.9218   25.3842 C   0  0  0  0  0  0  0  0  0  0  0  0
    5.9894   11.2682   25.9976 C   0  0  0  0  0  0  0  0  0  0  0  0
    6.6046   10.3283   25.2625 C   0  0  0  0  0  0  0  0  0  0  0  0
    6.5576   12.6043   26.0520 C   0  0  0  0  0  0  0  0  0  0  0  0
    5.9124   13.6549   26.8433 C   0  0  0  0  0  0  0  0  0  0  0  0
   10.3574   12.9841   23.5688 C   0  0  0  0  0  0  0  0  0  0  0  0
   14.7927   11.9607   23.1683 C   0  0  0  0  0  0  0  0  0  0  0  0
   13.7012   12.1750   22.1499 C   0  0  0  0  0  0  0  0  0  0  0  0
   14.3229   12.8272   24.3174 C   0  0  0  0  0  0  0  0  0  0  0  0
   13.3894   13.6484   22.3463 C   0  0  1  0  0  0  0  0  0  0  0  0
   11.9792   14.0278   21.9385 C   0  0  0  0  0  0  0  0  0  0  0  0
    8.5169    9.8153   23.7785 N   0  0  0  0  0  0  0  0  0  0  0  0
    7.7750   10.6431   24.5634 N   0  0  0  0  0  0  0  0  0  0  0  0
   11.0312   13.0098   22.3305 N   0  0  0  0  0  0  0  0  0  0  0  0
    5.0595   14.4006   26.3782 O   0  0  0  0  0  0  0  0  0  0  0  0
   10.5546   13.8791   24.4266 O   0  0  0  0  0  0  0  0  0  0  0  0
   13.5813   13.9151   23.7457 O   0  0  0  0  0  0  0  0  0  0  0  0
   10.2587   10.1310   22.6894 H   0  0  0  0  0  0  0  0  0  0  0  0
    8.1107   13.9192   25.4228 H   0  0  0  0  0  0  0  0  0  0  0  0
    5.0819   11.0467   26.5471 H   0  0  0  0  0  0  0  0  0  0  0  0
    6.2333    9.3140   25.1801 H   0  0  0  0  0  0  0  0  0  0  0  0
    6.2512   13.7271   27.8901 H   0  0  0  0  0  0  0  0  0  0  0  0
   14.9318   10.9142   23.4516 H   0  0  0  0  0  0  0  0  0  0  0  0
   15.7449   12.3396   22.7785 H   0  0  0  0  0  0  0  0  0  0  0  0
   14.0082   11.9378   21.1276 H   0  0  0  0  0  0  0  0  0  0  0  0
   12.8351   11.5515   22.4027 H   0  0  0  0  0  0  0  0  0  0  0  0
   13.6467   12.2752   24.9788 H   0  0  0  0  0  0  0  0  0  0  0  0
   15.1517   13.2189   24.9138 H   0  0  0  0  0  0  0  0  0  0  0  0
   14.1024   14.2684   21.7938 H   0  0  0  0  0  0  0  0  0  0  0  0
   11.7081   14.9769   22.4240 H   0  0  0  0  0  0  0  0  0  0  0  0
   11.9423   14.1512   20.8460 H   0  0  0  0  0  0  0  0  0  0  0  0
   10.8938   12.2356   21.6890 H   0  0  0  0  0  0  0  0  0  0  0  0
  1  2  1  0  0  0  0
  1 15  2  0  0  0  0
  2  3  2  0  0  0  0
  2  9  1  0  0  0  0
  3  4  1  0  0  0  0
  3 16  1  0  0  0  0
  4  7  2  0  0  0  0
  5  6  2  0  0  0  0
  5  7  1  0  0  0  0
  6 16  1  0  0  0  0
  7  8  1  0  0  0  0
  8 18  2  0  0  0  0
  9 17  1  0  0  0  0
  9 19  2  0  0  0  0
 10 11  1  0  0  0  0
 10 12  1  0  0  0  0
 11 13  1  0  0  0  0
 12 20  1  0  0  0  0
 13 14  1  0  0  0  0
 13 20  1  0  0  0  0
 14 17  1  0  0  0  0
 15 16  1  0  0  0  0
  1 21  1  0  0  0  0
  4 22  1  0  0  0  0
  5 23  1  0  0  0  0
  6 24  1  0  0  0  0
  8 25  1  0  0  0  0
 10 26  1  0  0  0  0
 10 27  1  0  0  0  0
 11 28  1  0  0  0  0
 11 29  1  0  0  0  0
 12 30  1  0  0  0  0
 12 31  1  0  0  0  0
 13 32  1  0  0  0  0
 14 33  1  0  0  0  0
 14 34  1  0  0  0  0
 17 35  1  0  0  0  0
M  END
> <Catalog ID>
Z2453049734

> <MW>
273.287

> <MW (desalted)>
273.287

> <ClogP>
0.696

> <logS>
-1.674

> <HBD>
1

> <HBA>
4

> <TPSA>
72.7

> <RotBonds>
4

> <ROCS_ShapeQuery>
A71EV2A-x0451_0A_A71EV2A-x0310_0A_A71EV2A-x0416_0A_peptide

> <ROCS_TanimotoCombo>
0.558 

> <ROCS_ShapeTanimoto>
0.315 

> <ROCS_ColorTanimoto>
0.243 

> <ROCS_RefTversky>
0.282 

> <ROCS_RefColorTversky>
0.255 

> <ROCS_RefTverskyCombo>
0.537 

> <ROCS_FitTversky>
1.590 

> <ROCS_FitColorTversky>
0.845 

> <ROCS_FitTverskyCombo>
2.434 

> <ROCS_ColorScore>
-7.778

> <ROCS_Overlap>
1957.676

> <ROCS_Rank>
19                  

$$$$
untitled-dbase-1051_7330
  -OEChem-11132309573D

 50 53  0     0  0  0  0  0  0999 V2000
   14.4805   13.9468   21.7004 C   0  0  0  0  0  0  0  0  0  0  0  0
   15.0116   14.3931   20.4859 C   0  0  0  0  0  0  0  0  0  0  0  0
   12.4700   15.2827   21.3910 C   0  0  0  0  0  0  0  0  0  0  0  0
   12.5682   16.6129   19.1427 C   0  0  0  0  0  0  0  0  0  0  0  0
    8.9555   10.2339   23.0511 C   0  0  0  0  0  0  0  0  0  0  0  0
   12.9900   15.7401   20.1687 C   0  0  0  0  0  0  0  0  0  0  0  0
   13.2316   14.3828   22.1471 C   0  0  0  0  0  0  0  0  0  0  0  0
    8.7691   11.6213   23.2190 C   0  0  0  0  0  0  0  0  0  0  0  0
   14.2362   15.2898   19.7474 C   0  0  0  0  0  0  0  0  0  0  0  0
    8.0177   11.7367   24.3673 C   0  0  0  0  0  0  0  0  0  0  0  0
    3.4955   12.5595   27.7347 C   0  0  0  0  0  0  0  0  0  0  0  0
    4.8092   12.7454   27.8791 C   0  0  0  0  0  0  0  0  0  0  0  0
    5.5800   13.3010   26.7474 C   0  0  0  0  0  0  0  0  0  0  0  0
   11.1795   13.8075   23.5019 C   0  0  0  0  0  0  0  0  0  0  0  0
    7.4752   12.9160   25.0945 C   0  0  0  0  0  0  0  0  0  0  0  0
    7.0629   10.1001   25.9757 C   0  0  0  0  0  0  0  0  0  0  0  0
    6.9814   11.2821   26.9334 C   0  0  0  0  0  0  0  0  0  0  0  0
   15.6186   15.7636   17.7011 C   0  0  0  0  0  0  0  0  0  0  0  0
   12.6939   13.8794   23.4604 C   0  0  0  0  0  0  0  0  0  0  0  0
    9.2717   12.7037   22.3566 C   0  0  0  0  0  0  0  0  0  0  0  0
   13.4574   16.7167   18.1524 N   0  0  0  0  0  0  0  0  0  0  0  0
    8.3720    9.5135   24.0137 N   0  0  0  0  0  0  0  0  0  0  0  0
   14.4546   15.9065   18.5451 N   0  0  0  0  0  0  0  0  0  0  0  0
    7.8203   10.4543   24.7965 N   0  0  0  0  0  0  0  0  0  0  0  0
    6.6143   12.5199   26.2287 N   0  0  0  0  0  0  0  0  0  0  0  0
   10.6879   12.9536   22.5279 N   0  0  0  0  0  0  0  0  0  0  0  0
    5.2581   14.4128   26.3259 O   0  0  0  0  0  0  0  0  0  0  0  0
   10.4929   14.4313   24.3070 O   0  0  0  0  0  0  0  0  0  0  0  0
   15.0590   13.2475   22.3002 H   0  0  0  0  0  0  0  0  0  0  0  0
   15.9817   14.0536   20.1403 H   0  0  0  0  0  0  0  0  0  0  0  0
   11.4987   15.6206   21.7406 H   0  0  0  0  0  0  0  0  0  0  0  0
   11.6489   17.1774   19.0768 H   0  0  0  0  0  0  0  0  0  0  0  0
    9.4926    9.7163   22.2689 H   0  0  0  0  0  0  0  0  0  0  0  0
    2.8767   12.1554   28.5289 H   0  0  0  0  0  0  0  0  0  0  0  0
    3.0093   12.8148   26.7990 H   0  0  0  0  0  0  0  0  0  0  0  0
    5.3296   12.5034   28.7966 H   0  0  0  0  0  0  0  0  0  0  0  0
    8.3109   13.5222   25.4549 H   0  0  0  0  0  0  0  0  0  0  0  0
    6.8638   13.5279   24.4223 H   0  0  0  0  0  0  0  0  0  0  0  0
    7.5725    9.2488   26.4397 H   0  0  0  0  0  0  0  0  0  0  0  0
    6.0615    9.7909   25.6598 H   0  0  0  0  0  0  0  0  0  0  0  0
    6.2024   11.1100   27.6867 H   0  0  0  0  0  0  0  0  0  0  0  0
    7.9294   11.3947   27.4682 H   0  0  0  0  0  0  0  0  0  0  0  0
   15.4366   14.9337   17.0132 H   0  0  0  0  0  0  0  0  0  0  0  0
   15.7820   16.6915   17.1460 H   0  0  0  0  0  0  0  0  0  0  0  0
   16.4939   15.5601   18.3242 H   0  0  0  0  0  0  0  0  0  0  0  0
   13.1011   12.8812   23.6660 H   0  0  0  0  0  0  0  0  0  0  0  0
   13.0362   14.5301   24.2749 H   0  0  0  0  0  0  0  0  0  0  0  0
    9.1173   12.4849   21.2834 H   0  0  0  0  0  0  0  0  0  0  0  0
    8.7592   13.6654   22.5444 H   0  0  0  0  0  0  0  0  0  0  0  0
   11.3440   12.4863   21.9121 H   0  0  0  0  0  0  0  0  0  0  0  0
  1  2  2  0  0  0  0
  1  7  1  0  0  0  0
  2  9  1  0  0  0  0
  3  6  1  0  0  0  0
  3  7  2  0  0  0  0
  4  6  1  0  0  0  0
  4 21  2  0  0  0  0
  5  8  1  0  0  0  0
  5 22  2  0  0  0  0
  6  9  2  0  0  0  0
  7 19  1  0  0  0  0
  8 10  2  0  0  0  0
  8 20  1  0  0  0  0
  9 23  1  0  0  0  0
 10 15  1  0  0  0  0
 10 24  1  0  0  0  0
 11 12  2  0  0  0  0
 12 13  1  0  0  0  0
 13 25  1  0  0  0  0
 13 27  2  0  0  0  0
 14 19  1  0  0  0  0
 14 26  1  0  0  0  0
 14 28  2  0  0  0  0
 15 25  1  0  0  0  0
 16 17  1  0  0  0  0
 16 24  1  0  0  0  0
 17 25  1  0  0  0  0
 18 23  1  0  0  0  0
 20 26  1  0  0  0  0
 21 23  1  0  0  0  0
 22 24  1  0  0  0  0
  1 29  1  0  0  0  0
  2 30  1  0  0  0  0
  3 31  1  0  0  0  0
  4 32  1  0  0  0  0
  5 33  1  0  0  0  0
 11 34  1  0  0  0  0
 11 35  1  0  0  0  0
 12 36  1  0  0  0  0
 15 37  1  0  0  0  0
 15 38  1  0  0  0  0
 16 39  1  0  0  0  0
 16 40  1  0  0  0  0
 17 41  1  0  0  0  0
 17 42  1  0  0  0  0
 18 43  1  0  0  0  0
 18 44  1  0  0  0  0
 18 45  1  0  0  0  0
 19 46  1  0  0  0  0
 19 47  1  0  0  0  0
 20 48  1  0  0  0  0
 20 49  1  0  0  0  0
 26 50  1  0  0  0  0
M  END
> <Catalog ID>
Z4942813255

> <MW>
378.428

> <MW (desalted)>
378.428

> <ClogP>
-0.385

> <logS>
-2.188

> <HBD>
1

> <HBA>
4

> <TPSA>
85.05

> <RotBonds>
5

> <ROCS_ShapeQuery>
A71EV2A-x0451_0A_A71EV2A-x0310_0A_A71EV2A-x0416_0A_peptide

> <ROCS_TanimotoCombo>
0.557 

> <ROCS_ShapeTanimoto>
0.345 

> <ROCS_ColorTanimoto>
0.213 

> <ROCS_RefTversky>
0.315 

> <ROCS_RefColorTversky>
0.239 

> <ROCS_RefTverskyCombo>
0.554 

> <ROCS_FitTversky>
1.376 

> <ROCS_FitColorTversky>
0.659 

> <ROCS_FitTverskyCombo>
2.035 

> <ROCS_ColorScore>
-7.328

> <ROCS_Overlap>
2191.629

> <ROCS_Rank>
20                  

$$$$
untitled-dbase-9229_73
  -OEChem-11132309573D

 42 44  0     0  0  0  0  0  0999 V2000
   12.0793   15.7100   18.9282 C   0  0  0  0  0  0  0  0  0  0  0  0
    9.2555   10.2958   23.0583 C   0  0  0  0  0  0  0  0  0  0  0  0
   13.0693   16.2444   18.0941 C   0  0  0  0  0  0  0  0  0  0  0  0
    8.3171    9.4635   23.6683 C   0  0  0  0  0  0  0  0  0  0  0  0
    8.4193   12.1714   24.3311 C   0  0  0  0  0  0  0  0  0  0  0  0
   14.7092   15.9061   19.8174 C   0  0  0  0  0  0  0  0  0  0  0  0
   12.3820   15.2665   20.2262 C   0  0  0  0  0  0  0  0  0  0  0  0
    9.3067   11.6498   23.3897 C   0  0  0  0  0  0  0  0  0  0  0  0
    7.4809   11.3391   24.9411 C   0  0  0  0  0  0  0  0  0  0  0  0
   13.7082   15.3745   20.6355 C   0  0  0  0  0  0  0  0  0  0  0  0
   14.3839   16.3442   18.5396 C   0  0  0  0  0  0  0  0  0  0  0  0
    7.4298    9.9851   24.6097 C   0  0  0  0  0  0  0  0  0  0  0  0
   11.3826   14.6954   21.1603 C   0  0  0  0  0  0  0  0  0  0  0  0
   11.8017   14.2483   22.3636 C   0  0  0  0  0  0  0  0  0  0  0  0
   13.2231   14.3580   22.7906 C   0  0  0  0  0  0  0  0  0  0  0  0
    5.4525   12.6513   28.4953 C   0  0  0  0  0  0  0  0  0  0  0  0
    5.4176   13.3425   27.3517 C   0  0  0  0  0  0  0  0  0  0  0  0
   10.8528   13.6236   23.3088 C   0  0  0  0  0  0  0  0  0  0  0  0
    6.4997   13.1857   26.3369 C   0  0  0  0  0  0  0  0  0  0  0  0
    9.9528   14.6799   20.6714 C   0  0  0  0  0  0  0  0  0  0  0  0
   10.2595   12.4948   22.7701 N   0  0  0  0  0  0  0  0  0  0  0  0
    6.5945   11.8631   25.8828 N   0  0  0  0  0  0  0  0  0  0  0  0
   13.6028   13.9530   23.8852 O   0  0  0  0  0  0  0  0  0  0  0  0
   10.6872   14.1266   24.4134 O   0  0  0  0  0  0  0  0  0  0  0  0
    7.1860   14.1388   25.9874 O   0  0  0  0  0  0  0  0  0  0  0  0
   14.1122   14.9416   21.9068 O   0  0  0  0  0  0  0  0  0  0  0  0
   15.3290   16.8552   17.7407 F   0  0  0  0  0  0  0  0  0  0  0  0
    6.5320    9.1756   25.1892 F   0  0  0  0  0  0  0  0  0  0  0  0
   11.0708   15.6504   18.5276 H   0  0  0  0  0  0  0  0  0  0  0  0
    9.9419    9.8782   22.3260 H   0  0  0  0  0  0  0  0  0  0  0  0
   12.8091   16.5817   17.0949 H   0  0  0  0  0  0  0  0  0  0  0  0
    8.2772    8.4092   23.4110 H   0  0  0  0  0  0  0  0  0  0  0  0
    8.4596   13.2280   24.5893 H   0  0  0  0  0  0  0  0  0  0  0  0
   15.7338   15.9767   20.1700 H   0  0  0  0  0  0  0  0  0  0  0  0
    4.6845   12.7392   29.2556 H   0  0  0  0  0  0  0  0  0  0  0  0
    6.2731   11.9692   28.6919 H   0  0  0  0  0  0  0  0  0  0  0  0
    4.5975   14.0243   27.1543 H   0  0  0  0  0  0  0  0  0  0  0  0
    9.7697   13.7475   20.1498 H   0  0  0  0  0  0  0  0  0  0  0  0
    9.8006   15.5187   20.0015 H   0  0  0  0  0  0  0  0  0  0  0  0
    9.2886   14.7677   21.5238 H   0  0  0  0  0  0  0  0  0  0  0  0
   10.5236   12.2243   21.8249 H   0  0  0  0  0  0  0  0  0  0  0  0
    5.9292   11.1973   26.2941 H   0  0  0  0  0  0  0  0  0  0  0  0
  1  3  2  0  0  0  0
  1  7  1  0  0  0  0
  2  4  2  0  0  0  0
  2  8  1  0  0  0  0
  3 11  1  0  0  0  0
  4 12  1  0  0  0  0
  5  8  2  0  0  0  0
  5  9  1  0  0  0  0
  6 10  1  0  0  0  0
  6 11  2  0  0  0  0
  7 10  2  0  0  0  0
  7 13  1  0  0  0  0
  8 21  1  0  0  0  0
  9 12  2  0  0  0  0
  9 22  1  0  0  0  0
 10 26  1  0  0  0  0
 11 27  1  0  0  0  0
 12 28  1  0  0  0  0
 13 14  2  0  0  0  0
 13 20  1  0  0  0  0
 14 15  1  0  0  0  0
 14 18  1  0  0  0  0
 15 23  2  0  0  0  0
 15 26  1  0  0  0  0
 16 17  2  0  0  0  0
 17 19  1  0  0  0  0
 18 21  1  0  0  0  0
 18 24  2  0  0  0  0
 19 22  1  0  0  0  0
 19 25  2  0  0  0  0
  1 29  1  0  0  0  0
  2 30  1  0  0  0  0
  3 31  1  0  0  0  0
  4 32  1  0  0  0  0
  5 33  1  0  0  0  0
  6 34  1  0  0  0  0
 16 35  1  0  0  0  0
 16 36  1  0  0  0  0
 17 37  1  0  0  0  0
 20 38  1  0  0  0  0
 20 39  1  0  0  0  0
 20 40  1  0  0  0  0
 21 41  1  0  0  0  0
 22 42  1  0  0  0  0
M  END
> <Catalog ID>
Z1420717206

> <MW>
384.333

> <MW (desalted)>
384.333

> <ClogP>
2.108

> <logS>
-6.471

> <HBD>
2

> <HBA>
3

> <TPSA>
84.5

> <RotBonds>
4

> <ROCS_ShapeQuery>
A71EV2A-x0451_0A_A71EV2A-x0310_0A_A71EV2A-x0416_0A_peptide

> <ROCS_TanimotoCombo>
0.557 

> <ROCS_ShapeTanimoto>
0.380 

> <ROCS_ColorTanimoto>
0.177 

> <ROCS_RefTversky>
0.338 

> <ROCS_RefColorTversky>
0.200 

> <ROCS_RefTverskyCombo>
0.539 

> <ROCS_FitTversky>
1.486 

> <ROCS_FitColorTversky>
0.604 

> <ROCS_FitTverskyCombo>
2.090 

> <ROCS_ColorScore>
-6.129

> <ROCS_Overlap>
2353.693

> <ROCS_Rank>
21                  

$$$$
untitled-dbase-651_1538
  -OEChem-11132309573D

 51 53  0     0  0  0  0  0  0999 V2000
   13.6015   15.8942   18.9087 C   0  0  0  0  0  0  0  0  0  0  0  0
    6.2604   11.5171   26.1269 C   0  0  0  0  0  0  0  0  0  0  0  0
   14.1419   16.1254   20.1737 C   0  0  0  0  0  0  0  0  0  0  0  0
   12.4037   15.1911   18.7798 C   0  0  0  0  0  0  0  0  0  0  0  0
    6.7254   12.8314   26.1085 C   0  0  0  0  0  0  0  0  0  0  0  0
    6.8856   10.5435   25.3495 C   0  0  0  0  0  0  0  0  0  0  0  0
   13.4845   15.6533   21.3098 C   0  0  0  0  0  0  0  0  0  0  0  0
   11.7464   14.7190   19.9159 C   0  0  0  0  0  0  0  0  0  0  0  0
    7.8186   13.1776   25.3118 C   0  0  0  0  0  0  0  0  0  0  0  0
    7.9798   10.8955   24.5538 C   0  0  0  0  0  0  0  0  0  0  0  0
   12.2868   14.9501   21.1809 C   0  0  0  0  0  0  0  0  0  0  0  0
    8.4587   12.2138   24.5252 C   0  0  0  0  0  0  0  0  0  0  0  0
    8.6585    9.8789   23.7209 C   0  0  0  0  0  0  0  0  0  0  0  0
   10.1283   11.6840   23.0172 C   0  0  0  0  0  0  0  0  0  0  0  0
   15.1321   14.0966   28.8441 C   0  0  0  0  0  0  0  0  0  0  0  0
   14.5117   13.1466   28.1379 C   0  0  0  0  0  0  0  0  0  0  0  0
   15.0247   12.7468   26.8003 C   0  0  0  0  0  0  0  0  0  0  0  0
   13.0741   12.8600   23.6788 C   0  0  0  0  0  0  0  0  0  0  0  0
   11.5788   14.4415   22.4033 C   0  0  0  0  0  0  0  0  0  0  0  0
   11.3055   12.0064   22.1460 C   0  0  0  0  0  0  0  0  0  0  0  0
   13.4028   11.3940   23.9427 C   0  0  0  0  0  0  0  0  0  0  0  0
   14.5482   11.1925   24.9289 C   0  0  0  0  0  0  0  0  0  0  0  0
    9.5576   12.5993   23.7347 N   0  0  0  0  0  0  0  0  0  0  0  0
    9.7261   10.3649   22.9838 N   0  0  0  0  0  0  0  0  0  0  0  0
   14.2524   11.7494   26.2214 N   0  0  0  0  0  0  0  0  0  0  0  0
   12.0151   13.0862   22.7676 N   0  0  0  0  0  0  0  0  0  0  0  0
    8.2853    8.7118   23.7047 O   0  0  0  0  0  0  0  0  0  0  0  0
   16.0200   13.2567   26.2956 O   0  0  0  0  0  0  0  0  0  0  0  0
   13.7122   13.7563   24.2371 O   0  0  0  0  0  0  0  0  0  0  0  0
   14.1128   16.2630   18.0243 H   0  0  0  0  0  0  0  0  0  0  0  0
    5.4099   11.2519   26.7482 H   0  0  0  0  0  0  0  0  0  0  0  0
   15.0739   16.6738   20.2743 H   0  0  0  0  0  0  0  0  0  0  0  0
   11.9821   15.0119   17.7952 H   0  0  0  0  0  0  0  0  0  0  0  0
    6.2358   13.5876   26.7153 H   0  0  0  0  0  0  0  0  0  0  0  0
    6.5102    9.5246   25.3761 H   0  0  0  0  0  0  0  0  0  0  0  0
   13.9131   15.8379   22.2913 H   0  0  0  0  0  0  0  0  0  0  0  0
   10.8137   14.1720   19.8059 H   0  0  0  0  0  0  0  0  0  0  0  0
    8.1682   14.2073   25.3091 H   0  0  0  0  0  0  0  0  0  0  0  0
   14.7512   14.3836   29.8187 H   0  0  0  0  0  0  0  0  0  0  0  0
   16.0187   14.6071   28.4845 H   0  0  0  0  0  0  0  0  0  0  0  0
   13.6272   12.6601   28.5346 H   0  0  0  0  0  0  0  0  0  0  0  0
   11.7672   15.0980   23.2598 H   0  0  0  0  0  0  0  0  0  0  0  0
   10.4953   14.4138   22.2470 H   0  0  0  0  0  0  0  0  0  0  0  0
   10.9403   12.2963   21.1623 H   0  0  0  0  0  0  0  0  0  0  0  0
   11.9340   11.1208   22.0697 H   0  0  0  0  0  0  0  0  0  0  0  0
   12.5043   10.8923   24.3200 H   0  0  0  0  0  0  0  0  0  0  0  0
   13.6908   10.9415   22.9868 H   0  0  0  0  0  0  0  0  0  0  0  0
   15.4757   11.6517   24.5729 H   0  0  0  0  0  0  0  0  0  0  0  0
   14.7309   10.1235   25.0777 H   0  0  0  0  0  0  0  0  0  0  0  0
   10.2376    9.7184   22.3896 H   0  0  0  0  0  0  0  0  0  0  0  0
   13.4597   11.3666   26.7348 H   0  0  0  0  0  0  0  0  0  0  0  0
  1  3  1  0  0  0  0
  1  4  2  0  0  0  0
  2  5  1  0  0  0  0
  2  6  2  0  0  0  0
  3  7  2  0  0  0  0
  4  8  1  0  0  0  0
  5  9  2  0  0  0  0
  6 10  1  0  0  0  0
  7 11  1  0  0  0  0
  8 11  2  0  0  0  0
  9 12  1  0  0  0  0
 10 12  2  0  0  0  0
 10 13  1  0  0  0  0
 11 19  1  0  0  0  0
 12 23  1  0  0  0  0
 13 24  1  0  0  0  0
 13 27  2  0  0  0  0
 14 20  1  0  0  0  0
 14 23  2  0  0  0  0
 14 24  1  0  0  0  0
 15 16  2  0  0  0  0
 16 17  1  0  0  0  0
 17 25  1  0  0  0  0
 17 28  2  0  0  0  0
 18 21  1  0  0  0  0
 18 26  1  0  0  0  0
 18 29  2  0  0  0  0
 19 26  1  0  0  0  0
 20 26  1  0  0  0  0
 21 22  1  0  0  0  0
 22 25  1  0  0  0  0
  1 30  1  0  0  0  0
  2 31  1  0  0  0  0
  3 32  1  0  0  0  0
  4 33  1  0  0  0  0
  5 34  1  0  0  0  0
  6 35  1  0  0  0  0
  7 36  1  0  0  0  0
  8 37  1  0  0  0  0
  9 38  1  0  0  0  0
 15 39  1  0  0  0  0
 15 40  1  0  0  0  0
 16 41  1  0  0  0  0
 19 42  1  0  0  0  0
 19 43  1  0  0  0  0
 20 44  1  0  0  0  0
 20 45  1  0  0  0  0
 21 46  1  0  0  0  0
 21 47  1  0  0  0  0
 22 48  1  0  0  0  0
 22 49  1  0  0  0  0
 24 50  1  0  0  0  0
 25 51  1  0  0  0  0
M  END
> <Catalog ID>
Z1478980151

> <MW>
390.435

> <MW (desalted)>
390.435

> <ClogP>
0.859

> <logS>
-4.695

> <HBD>
2

> <HBA>
4

> <TPSA>
90.87

> <RotBonds>
8

> <ROCS_ShapeQuery>
A71EV2A-x0451_0A_A71EV2A-x0310_0A_A71EV2A-x0416_0A_peptide

> <ROCS_TanimotoCombo>
0.557 

> <ROCS_ShapeTanimoto>
0.403 

> <ROCS_ColorTanimoto>
0.154 

> <ROCS_RefTversky>
0.353 

> <ROCS_RefColorTversky>
0.182 

> <ROCS_RefTverskyCombo>
0.536 

> <ROCS_FitTversky>
1.535 

> <ROCS_FitColorTversky>
0.503 

> <ROCS_FitTverskyCombo>
2.037 

> <ROCS_ColorScore>
-5.576

> <ROCS_Overlap>
2460.357

> <ROCS_Rank>
22                  

$$$$
untitled-dbase-4422_16253
  -OEChem-11132309573D

 44 46  0     1  0  0  0  0  0999 V2000
   13.6632   16.0619   18.0992 C   0  0  0  0  0  0  0  0  0  0  0  0
   14.2855   17.1970   18.6188 C   0  0  0  0  0  0  0  0  0  0  0  0
   13.0706   15.1365   18.9584 C   0  0  0  0  0  0  0  0  0  0  0  0
   14.3152   17.4066   19.9975 C   0  0  0  0  0  0  0  0  0  0  0  0
    7.5464   12.9565   25.1744 C   0  0  0  0  0  0  0  0  0  0  0  0
    6.4587   12.4717   25.8679 C   0  0  0  0  0  0  0  0  0  0  0  0
    9.2778    9.6367   23.5593 C   0  0  0  0  0  0  0  0  0  0  0  0
    8.2906   11.9196   24.5285 C   0  0  0  0  0  0  0  0  0  0  0  0
   13.1003   15.3461   20.3371 C   0  0  0  0  0  0  0  0  0  0  0  0
   13.7226   16.4812   20.8566 C   0  0  0  0  0  0  0  0  0  0  0  0
    9.4404   11.9265   23.7323 C   0  0  0  0  0  0  0  0  0  0  0  0
    7.7189   10.6770   24.7694 C   0  0  0  0  0  0  0  0  0  0  0  0
   10.1519   13.1409   23.3910 C   0  0  0  0  0  0  0  0  0  0  0  0
   13.2282   13.0584   23.2386 C   0  0  0  0  0  0  0  0  0  0  0  0
   14.4177   17.8862   22.6451 C   0  0  0  0  0  0  0  0  0  0  0  0
   14.0528   13.1879   24.4938 C   0  0  0  0  0  0  0  0  0  0  0  0
   10.9659   14.6179   21.5294 C   0  0  0  0  0  0  0  0  0  0  0  0
   12.4502   14.3275   21.2572 C   0  0  2  0  0  0  0  0  0  0  0  0
    9.9362   10.7693   23.2444 N   0  0  0  0  0  0  0  0  0  0  0  0
    8.1702    9.4939   24.3089 N   0  0  0  0  0  0  0  0  0  0  0  0
   10.2674   13.4556   22.0292 N   0  0  0  0  0  0  0  0  0  0  0  0
   13.1825   14.2298   22.5256 N   0  0  0  0  0  0  0  0  0  0  0  0
   10.6539   13.8567   24.2800 O   0  0  0  0  0  0  0  0  0  0  0  0
   12.6902   11.9987   22.9223 O   0  0  0  0  0  0  0  0  0  0  0  0
   13.7613   16.7006   22.2008 O   0  0  0  0  0  0  0  0  0  0  0  0
    6.3256   10.7707   25.7462 S   0  0  0  0  0  0  0  0  0  0  0  0
   14.7661   11.6053   24.8424 Cl  0  0  0  0  0  0  0  0  0  0  0  0
   13.6403   15.8979   17.0257 H   0  0  0  0  0  0  0  0  0  0  0  0
   14.7475   17.9167   17.9496 H   0  0  0  0  0  0  0  0  0  0  0  0
   12.5896   14.2545   18.5437 H   0  0  0  0  0  0  0  0  0  0  0  0
   14.8015   18.2927   20.3963 H   0  0  0  0  0  0  0  0  0  0  0  0
    7.7944   14.0098   25.1343 H   0  0  0  0  0  0  0  0  0  0  0  0
    5.7365   13.0372   26.4396 H   0  0  0  0  0  0  0  0  0  0  0  0
    9.6959    8.7212   23.1554 H   0  0  0  0  0  0  0  0  0  0  0  0
   14.3768   17.9392   23.7358 H   0  0  0  0  0  0  0  0  0  0  0  0
   13.9281   18.7603   22.2085 H   0  0  0  0  0  0  0  0  0  0  0  0
   15.4613   17.8567   22.3230 H   0  0  0  0  0  0  0  0  0  0  0  0
   14.8576   13.9204   24.3938 H   0  0  0  0  0  0  0  0  0  0  0  0
   13.4054   13.4799   25.3252 H   0  0  0  0  0  0  0  0  0  0  0  0
   10.8597   15.3951   22.2948 H   0  0  0  0  0  0  0  0  0  0  0  0
   10.4345   14.9593   20.6347 H   0  0  0  0  0  0  0  0  0  0  0  0
   12.5147   13.3412   20.7792 H   0  0  0  0  0  0  0  0  0  0  0  0
    9.8965   12.8087   21.3409 H   0  0  0  0  0  0  0  0  0  0  0  0
   13.6612   15.0390   22.8796 H   0  0  0  0  0  0  0  0  0  0  0  0
  1  2  1  0  0  0  0
  1  3  2  0  0  0  0
  2  4  2  0  0  0  0
  3  9  1  0  0  0  0
  4 10  1  0  0  0  0
  5  6  2  0  0  0  0
  5  8  1  0  0  0  0
  6 26  1  0  0  0  0
  7 19  2  0  0  0  0
  7 20  1  0  0  0  0
  8 11  2  0  0  0  0
  8 12  1  0  0  0  0
  9 10  2  0  0  0  0
  9 18  1  0  0  0  0
 10 25  1  0  0  0  0
 11 13  1  0  0  0  0
 11 19  1  0  0  0  0
 12 20  2  0  0  0  0
 12 26  1  0  0  0  0
 13 21  1  0  0  0  0
 13 23  2  0  0  0  0
 14 16  1  0  0  0  0
 14 22  1  0  0  0  0
 14 24  2  0  0  0  0
 15 25  1  0  0  0  0
 16 27  1  0  0  0  0
 17 18  1  0  0  0  0
 17 21  1  0  0  0  0
 18 22  1  0  0  0  0
  1 28  1  0  0  0  0
  2 29  1  0  0  0  0
  3 30  1  0  0  0  0
  4 31  1  0  0  0  0
  5 32  1  0  0  0  0
  6 33  1  0  0  0  0
  7 34  1  0  0  0  0
 15 35  1  0  0  0  0
 15 36  1  0  0  0  0
 15 37  1  0  0  0  0
 16 38  1  0  0  0  0
 16 39  1  0  0  0  0
 17 40  1  0  0  0  0
 17 41  1  0  0  0  0
 18 42  1  0  0  0  0
 21 43  1  0  0  0  0
 22 44  1  0  0  0  0
M  END
> <Catalog ID>
Z4425211605

> <MW>
404.871

> <MW (desalted)>
404.871

> <ClogP>
2.49

> <logS>
-5.391

> <HBD>
2

> <HBA>
5

> <TPSA>
93.21

> <RotBonds>
7

> <ROCS_ShapeQuery>
A71EV2A-x0451_0A_A71EV2A-x0310_0A_A71EV2A-x0416_0A_peptide

> <ROCS_TanimotoCombo>
0.556 

> <ROCS_ShapeTanimoto>
0.375 

> <ROCS_ColorTanimoto>
0.181 

> <ROCS_RefTversky>
0.332 

> <ROCS_RefColorTversky>
0.209 

> <ROCS_RefTverskyCombo>
0.541 

> <ROCS_FitTversky>
1.530 

> <ROCS_FitColorTversky>
0.576 

> <ROCS_FitTverskyCombo>
2.107 

> <ROCS_ColorScore>
-6.400

> <ROCS_Overlap>
2306.342

> <ROCS_Rank>
23                  

$$$$
untitled-dbase-9799_3853
  -OEChem-11132309573D

 40 42  0     1  0  0  0  0  0999 V2000
   12.0196   15.9296   18.4879 C   0  0  0  0  0  0  0  0  0  0  0  0
   13.2645   16.5298   18.2992 C   0  0  0  0  0  0  0  0  0  0  0  0
   11.7614   15.2113   19.6554 C   0  0  0  0  0  0  0  0  0  0  0  0
   14.2512   16.4116   19.2780 C   0  0  0  0  0  0  0  0  0  0  0  0
   12.7481   15.0931   20.6342 C   0  0  0  0  0  0  0  0  0  0  0  0
   13.9931   15.6933   20.4455 C   0  0  0  0  0  0  0  0  0  0  0  0
    7.0580   12.3110   25.3308 C   0  0  0  0  0  0  0  0  0  0  0  0
    8.7475   11.9455   24.1578 C   0  0  0  0  0  0  0  0  0  0  0  0
   12.4230   14.3236   21.8477 C   0  0  0  0  0  0  0  0  0  0  0  0
   11.1945   14.1956   22.3640 C   0  0  0  0  0  0  0  0  0  0  0  0
    6.0850   13.0138   26.1118 C   0  0  0  0  0  0  0  0  0  0  0  0
    9.4654    9.6319   22.7279 C   0  0  0  0  0  0  0  0  0  0  0  0
    8.4507    9.4947   23.8700 C   0  0  0  0  0  0  0  0  0  0  0  0
   10.5721   10.6429   23.0646 C   0  0  0  0  0  0  0  0  0  0  0  0
    4.5286   12.8111   27.9326 C   0  0  0  0  0  0  0  0  0  0  0  0
    8.1345   12.9387   24.7598 N   0  0  0  0  0  0  0  0  0  0  0  0
    6.9641   10.9938   25.1165 N   0  0  0  0  0  0  0  0  0  0  0  0
    8.0474   10.7941   24.3566 N   0  0  0  0  0  0  0  0  0  0  0  0
    9.9693   11.9816   23.3547 N   0  0  2  0  0  0  0  0  0  0  0  0
    5.7606   14.2117   25.9545 O   0  0  0  0  0  0  0  0  0  0  0  0
   12.3351   12.6386   24.0806 O   0  0  0  0  0  0  0  0  0  0  0  0
   10.3851   14.0475   24.8122 O   0  0  0  0  0  0  0  0  0  0  0  0
    5.5197   12.2208   27.0847 O   0  0  0  0  0  0  0  0  0  0  0  0
   11.0359   13.2317   23.7974 S   0  0  0  0  0  0  0  0  0  0  0  0
   15.2514   15.5781   21.6261 Cl  0  0  0  0  0  0  0  0  0  0  0  0
   11.2515   16.0217   17.7256 H   0  0  0  0  0  0  0  0  0  0  0  0
   13.4654   17.0891   17.3901 H   0  0  0  0  0  0  0  0  0  0  0  0
   10.7850   14.7501   19.7852 H   0  0  0  0  0  0  0  0  0  0  0  0
   15.2159   16.8856   19.1148 H   0  0  0  0  0  0  0  0  0  0  0  0
   13.2644   13.8227   22.3225 H   0  0  0  0  0  0  0  0  0  0  0  0
   10.3079   14.6460   21.9368 H   0  0  0  0  0  0  0  0  0  0  0  0
    9.9241    8.6528   22.5351 H   0  0  0  0  0  0  0  0  0  0  0  0
    8.9487    9.9327   21.8099 H   0  0  0  0  0  0  0  0  0  0  0  0
    7.5423    8.9886   23.5260 H   0  0  0  0  0  0  0  0  0  0  0  0
    8.8808    8.9331   24.7054 H   0  0  0  0  0  0  0  0  0  0  0  0
   11.1215   10.3021   23.9484 H   0  0  0  0  0  0  0  0  0  0  0  0
   11.2721   10.7291   22.2253 H   0  0  0  0  0  0  0  0  0  0  0  0
    4.1728   12.0680   28.6504 H   0  0  0  0  0  0  0  0  0  0  0  0
    3.6962   13.1734   27.3241 H   0  0  0  0  0  0  0  0  0  0  0  0
    4.9757   13.6499   28.4713 H   0  0  0  0  0  0  0  0  0  0  0  0
  1  2  1  0  0  0  0
  1  3  2  0  0  0  0
  2  4  2  0  0  0  0
  3  5  1  0  0  0  0
  4  6  1  0  0  0  0
  5  6  2  0  0  0  0
  5  9  1  0  0  0  0
  6 25  1  0  0  0  0
  7 11  1  0  0  0  0
  7 16  1  0  0  0  0
  7 17  2  0  0  0  0
  8 16  2  0  0  0  0
  8 18  1  0  0  0  0
  8 19  1  0  0  0  0
  9 10  2  0  0  0  0
 10 24  1  4  0  0  0
 11 20  2  0  0  0  0
 11 23  1  0  0  0  0
 12 13  1  0  0  0  0
 12 14  1  0  0  0  0
 13 18  1  0  0  0  0
 14 19  1  0  0  0  0
 15 23  1  0  0  0  0
 17 18  1  0  0  0  0
 19 24  1  0  0  0  0
 21 24  2  0  0  0  0
 22 24  2  0  0  0  0
  1 26  1  0  0  0  0
  2 27  1  0  0  0  0
  3 28  1  0  0  0  0
  4 29  1  0  0  0  0
  9 30  1  0  0  0  0
 10 31  1  0  0  0  0
 12 32  1  0  0  0  0
 12 33  1  0  0  0  0
 13 34  1  0  0  0  0
 13 35  1  0  0  0  0
 14 36  1  0  0  0  0
 14 37  1  0  0  0  0
 15 38  1  0  0  0  0
 15 39  1  0  0  0  0
 15 40  1  0  0  0  0
M  END
> <Catalog ID>
Z1098340685

> <MW>
382.822

> <MW (desalted)>
382.822

> <ClogP>
1.452

> <logS>
-4.12

> <HBD>
0

> <HBA>
5

> <TPSA>
94.39

> <RotBonds>
4

> <ROCS_ShapeQuery>
A71EV2A-x0451_0A_A71EV2A-x0310_0A_A71EV2A-x0416_0A_peptide

> <ROCS_TanimotoCombo>
0.554 

> <ROCS_ShapeTanimoto>
0.384 

> <ROCS_ColorTanimoto>
0.170 

> <ROCS_RefTversky>
0.334 

> <ROCS_RefColorTversky>
0.194 

> <ROCS_RefTverskyCombo>
0.528 

> <ROCS_FitTversky>
1.634 

> <ROCS_FitColorTversky>
0.583 

> <ROCS_FitTverskyCombo>
2.217 

> <ROCS_ColorScore>
-5.931

> <ROCS_Overlap>
2321.928

> <ROCS_Rank>
24                  

$$$$
untitled-dbase-11003_5740
  -OEChem-11132309573D

 48 50  0     0  0  0  0  0  0999 V2000
    3.9311   13.8711   27.6493 C   0  0  0  0  0  0  0  0  0  0  0  0
    4.6003   14.6509   26.7061 C   0  0  0  0  0  0  0  0  0  0  0  0
    4.2904   12.5357   27.8316 C   0  0  0  0  0  0  0  0  0  0  0  0
    5.6287   14.0952   25.9450 C   0  0  0  0  0  0  0  0  0  0  0  0
    5.3188   11.9800   27.0705 C   0  0  0  0  0  0  0  0  0  0  0  0
    8.0998   12.9862   24.8929 C   0  0  0  0  0  0  0  0  0  0  0  0
    9.0158   11.0382   23.8626 C   0  0  0  0  0  0  0  0  0  0  0  0
    5.9879   12.7597   26.1272 C   0  0  0  0  0  0  0  0  0  0  0  0
    9.1165   12.4088   24.1321 C   0  0  0  0  0  0  0  0  0  0  0  0
    7.0543   12.1840   25.3381 C   0  0  0  0  0  0  0  0  0  0  0  0
    9.7489   10.0501   23.1759 C   0  0  0  0  0  0  0  0  0  0  0  0
    7.9200   10.3558   24.3674 C   0  0  0  0  0  0  0  0  0  0  0  0
    9.9712   18.5820   24.0015 C   0  0  0  0  0  0  0  0  0  0  0  0
    9.6590   17.7640   22.9918 C   0  0  0  0  0  0  0  0  0  0  0  0
   10.2263   13.2076   23.6472 C   0  0  0  0  0  0  0  0  0  0  0  0
   10.6769   16.8339   22.4342 C   0  0  0  0  0  0  0  0  0  0  0  0
   11.0162   10.2074   22.4405 C   0  0  0  0  0  0  0  0  0  0  0  0
    7.1749    7.9605   24.2477 C   0  0  0  0  0  0  0  0  0  0  0  0
   11.4797   14.0063   21.6247 C   0  0  0  0  0  0  0  0  0  0  0  0
   10.9602   15.0901   20.6951 C   0  0  0  0  0  0  0  0  0  0  0  0
    6.9129   10.8569   25.1038 N   0  0  0  0  0  0  0  0  0  0  0  0
    9.1748    8.8439   23.2353 N   0  0  0  0  0  0  0  0  0  0  0  0
    8.0658    9.0610   23.9655 N   0  0  0  0  0  0  0  0  0  0  0  0
   10.4084   13.2725   22.2592 N   0  0  0  0  0  0  0  0  0  0  0  0
   10.1696   16.0663   21.3947 N   0  0  0  0  0  0  0  0  0  0  0  0
   10.9875   13.7872   24.4447 O   0  0  0  0  0  0  0  0  0  0  0  0
   11.8233   16.7734   22.8668 O   0  0  0  0  0  0  0  0  0  0  0  0
    3.1316   14.3045   28.2430 H   0  0  0  0  0  0  0  0  0  0  0  0
    4.3219   15.6912   26.5653 H   0  0  0  0  0  0  0  0  0  0  0  0
    3.7707   11.9283   28.5669 H   0  0  0  0  0  0  0  0  0  0  0  0
    6.1410   14.7162   25.2138 H   0  0  0  0  0  0  0  0  0  0  0  0
    5.5882   10.9377   27.2241 H   0  0  0  0  0  0  0  0  0  0  0  0
    8.1299   14.0467   25.1303 H   0  0  0  0  0  0  0  0  0  0  0  0
    9.2236   19.2585   24.4023 H   0  0  0  0  0  0  0  0  0  0  0  0
   10.9574   18.6041   24.4522 H   0  0  0  0  0  0  0  0  0  0  0  0
    8.6600   17.7730   22.5696 H   0  0  0  0  0  0  0  0  0  0  0  0
   11.8845   10.0419   23.1005 H   0  0  0  0  0  0  0  0  0  0  0  0
   11.0989    9.4990   21.5974 H   0  0  0  0  0  0  0  0  0  0  0  0
   11.1196   11.2150   22.0002 H   0  0  0  0  0  0  0  0  0  0  0  0
    6.4334    7.9127   23.4458 H   0  0  0  0  0  0  0  0  0  0  0  0
    7.7482    7.0304   24.2941 H   0  0  0  0  0  0  0  0  0  0  0  0
    6.6868    8.1287   25.2117 H   0  0  0  0  0  0  0  0  0  0  0  0
   12.1034   14.4272   22.4197 H   0  0  0  0  0  0  0  0  0  0  0  0
   12.0755   13.2815   21.0612 H   0  0  0  0  0  0  0  0  0  0  0  0
   11.7954   15.6248   20.2325 H   0  0  0  0  0  0  0  0  0  0  0  0
   10.3355   14.6686   19.9010 H   0  0  0  0  0  0  0  0  0  0  0  0
    9.7988   12.7310   21.6551 H   0  0  0  0  0  0  0  0  0  0  0  0
    9.1914   16.1676   21.1272 H   0  0  0  0  0  0  0  0  0  0  0  0
  1  2  1  0  0  0  0
  1  3  2  0  0  0  0
  2  4  2  0  0  0  0
  3  5  1  0  0  0  0
  4  8  1  0  0  0  0
  5  8  2  0  0  0  0
  6  9  2  0  0  0  0
  6 10  1  0  0  0  0
  7  9  1  0  0  0  0
  7 11  1  0  0  0  0
  7 12  2  0  0  0  0
  8 10  1  0  0  0  0
  9 15  1  0  0  0  0
 10 21  2  0  0  0  0
 11 17  1  0  0  0  0
 11 22  2  0  0  0  0
 12 21  1  0  0  0  0
 12 23  1  0  0  0  0
 13 14  2  0  0  0  0
 14 16  1  0  0  0  0
 15 24  1  0  0  0  0
 15 26  2  0  0  0  0
 16 25  1  0  0  0  0
 16 27  2  0  0  0  0
 18 23  1  0  0  0  0
 19 20  1  0  0  0  0
 19 24  1  0  0  0  0
 20 25  1  0  0  0  0
 22 23  1  0  0  0  0
  1 28  1  0  0  0  0
  2 29  1  0  0  0  0
  3 30  1  0  0  0  0
  4 31  1  0  0  0  0
  5 32  1  0  0  0  0
  6 33  1  0  0  0  0
 13 34  1  0  0  0  0
 13 35  1  0  0  0  0
 14 36  1  0  0  0  0
 17 37  1  0  0  0  0
 17 38  1  0  0  0  0
 17 39  1  0  0  0  0
 18 40  1  0  0  0  0
 18 41  1  0  0  0  0
 18 42  1  0  0  0  0
 19 43  1  0  0  0  0
 19 44  1  0  0  0  0
 20 45  1  0  0  0  0
 20 46  1  0  0  0  0
 24 47  1  0  0  0  0
 25 48  1  0  0  0  0
M  END
> <Catalog ID>
Z1171855755

> <MW>
363.413

> <MW (desalted)>
363.413

> <ClogP>
2.118

> <logS>
-4.649

> <HBD>
2

> <HBA>
4

> <TPSA>
88.91

> <RotBonds>
6

> <ROCS_ShapeQuery>
A71EV2A-x0451_0A_A71EV2A-x0310_0A_A71EV2A-x0416_0A_peptide

> <ROCS_TanimotoCombo>
0.554 

> <ROCS_ShapeTanimoto>
0.384 

> <ROCS_ColorTanimoto>
0.170 

> <ROCS_RefTversky>
0.339 

> <ROCS_RefColorTversky>
0.198 

> <ROCS_RefTverskyCombo>
0.536 

> <ROCS_FitTversky>
1.537 

> <ROCS_FitColorTversky>
0.545 

> <ROCS_FitTverskyCombo>
2.081 

> <ROCS_ColorScore>
-6.050

> <ROCS_Overlap>
2357.924

> <ROCS_Rank>
25                  

$$$$
untitled-dbase-4373_3431
  -OEChem-11132309573D

 47 49  0     0  0  0  0  0  0999 V2000
    6.4763   12.3286   25.7090 C   0  0  0  0  0  0  0  0  0  0  0  0
    6.0580   11.0085   25.5803 C   0  0  0  0  0  0  0  0  0  0  0  0
    7.6622   12.7608   25.1066 C   0  0  0  0  0  0  0  0  0  0  0  0
    6.8106   10.0868   24.8485 C   0  0  0  0  0  0  0  0  0  0  0  0
    8.4430   11.8502   24.3611 C   0  0  0  0  0  0  0  0  0  0  0  0
    7.9990   10.5310   24.2483 C   0  0  0  0  0  0  0  0  0  0  0  0
    9.6759   11.9991   23.6474 C   0  0  0  0  0  0  0  0  0  0  0  0
   10.4510   13.2620   23.5403 C   0  0  0  0  0  0  0  0  0  0  0  0
   13.6234   13.2404   22.8792 C   0  0  0  0  0  0  0  0  0  0  0  0
   14.2840   16.6157   18.9121 C   0  0  0  0  0  0  0  0  0  0  0  0
   13.1913   16.0075   18.0392 C   0  0  0  0  0  0  0  0  0  0  0  0
   14.7068   15.7727   20.1145 C   0  0  0  0  0  0  0  0  0  0  0  0
   11.9151   15.6001   18.7753 C   0  0  0  0  0  0  0  0  0  0  0  0
   13.6400   15.7382   21.2089 C   0  0  0  0  0  0  0  0  0  0  0  0
   12.1074   14.3519   19.6387 C   0  0  0  0  0  0  0  0  0  0  0  0
   12.5970   14.6056   21.0823 C   0  0  0  0  0  0  0  0  0  0  0  0
   14.1650   11.8653   23.1754 C   0  0  0  0  0  0  0  0  0  0  0  0
   11.3982   14.9484   21.9862 C   0  0  0  0  0  0  0  0  0  0  0  0
   10.1684   10.9289   23.0325 N   0  0  0  0  0  0  0  0  0  0  0  0
   10.6582   13.7663   22.2510 N   0  0  0  0  0  0  0  0  0  0  0  0
   13.1793   13.3633   21.5819 N   0  0  0  0  0  0  0  0  0  0  0  0
   10.8852   13.7880   24.5617 O   0  0  0  0  0  0  0  0  0  0  0  0
   13.5857   14.1214   23.7364 O   0  0  0  0  0  0  0  0  0  0  0  0
    9.1367    9.6605   23.2954 S   0  0  0  0  0  0  0  0  0  0  0  0
   13.1987   11.1702   24.4862 Cl  0  0  0  0  0  0  0  0  0  0  0  0
    5.8780   13.0315   26.2821 H   0  0  0  0  0  0  0  0  0  0  0  0
    5.1340   10.6882   26.0545 H   0  0  0  0  0  0  0  0  0  0  0  0
    7.9735   13.7963   25.2180 H   0  0  0  0  0  0  0  0  0  0  0  0
    6.4796    9.0577   24.7509 H   0  0  0  0  0  0  0  0  0  0  0  0
   15.1655   16.7853   18.2813 H   0  0  0  0  0  0  0  0  0  0  0  0
   13.9624   17.6074   19.2544 H   0  0  0  0  0  0  0  0  0  0  0  0
   12.9261   16.7431   17.2694 H   0  0  0  0  0  0  0  0  0  0  0  0
   13.5980   15.1415   17.5020 H   0  0  0  0  0  0  0  0  0  0  0  0
   15.0025   14.7652   19.8026 H   0  0  0  0  0  0  0  0  0  0  0  0
   15.6045   16.2408   20.5384 H   0  0  0  0  0  0  0  0  0  0  0  0
   11.5113   16.4372   19.3549 H   0  0  0  0  0  0  0  0  0  0  0  0
   11.1636   15.3627   18.0114 H   0  0  0  0  0  0  0  0  0  0  0  0
   14.1451   15.6378   22.1805 H   0  0  0  0  0  0  0  0  0  0  0  0
   13.1380   16.7139   21.2548 H   0  0  0  0  0  0  0  0  0  0  0  0
   11.1514   13.8119   19.6802 H   0  0  0  0  0  0  0  0  0  0  0  0
   12.7985   13.6719   19.1220 H   0  0  0  0  0  0  0  0  0  0  0  0
   14.1138   11.1986   22.3111 H   0  0  0  0  0  0  0  0  0  0  0  0
   15.2053   11.9472   23.5021 H   0  0  0  0  0  0  0  0  0  0  0  0
   11.8089   15.3671   22.8986 H   0  0  0  0  0  0  0  0  0  0  0  0
   10.7999   15.6729   21.4443 H   0  0  0  0  0  0  0  0  0  0  0  0
   10.3089   13.2213   21.4541 H   0  0  0  0  0  0  0  0  0  0  0  0
   13.2584   12.5736   20.9596 H   0  0  0  0  0  0  0  0  0  0  0  0
  1  2  1  0  0  0  0
  1  3  2  0  0  0  0
  2  4  2  0  0  0  0
  3  5  1  0  0  0  0
  4  6  1  0  0  0  0
  5  6  2  0  0  0  0
  5  7  1  0  0  0  0
  6 24  1  0  0  0  0
  7  8  1  0  0  0  0
  7 19  2  0  0  0  0
  8 20  1  0  0  0  0
  8 22  2  0  0  0  0
  9 17  1  0  0  0  0
  9 21  1  0  0  0  0
  9 23  2  0  0  0  0
 10 11  1  0  0  0  0
 10 12  1  0  0  0  0
 11 13  1  0  0  0  0
 12 14  1  0  0  0  0
 13 15  1  0  0  0  0
 14 16  1  0  0  0  0
 15 16  1  0  0  0  0
 16 18  1  0  0  0  0
 16 21  1  0  0  0  0
 17 25  1  0  0  0  0
 18 20  1  0  0  0  0
 19 24  1  0  0  0  0
  1 26  1  0  0  0  0
  2 27  1  0  0  0  0
  3 28  1  0  0  0  0
  4 29  1  0  0  0  0
 10 30  1  0  0  0  0
 10 31  1  0  0  0  0
 11 32  1  0  0  0  0
 11 33  1  0  0  0  0
 12 34  1  0  0  0  0
 12 35  1  0  0  0  0
 13 36  1  0  0  0  0
 13 37  1  0  0  0  0
 14 38  1  0  0  0  0
 14 39  1  0  0  0  0
 15 40  1  0  0  0  0
 15 41  1  0  0  0  0
 17 42  1  0  0  0  0
 17 43  1  0  0  0  0
 18 44  1  0  0  0  0
 18 45  1  0  0  0  0
 20 46  1  0  0  0  0
 21 47  1  0  0  0  0
M  END
> <Catalog ID>
Z4425210976

> <MW>
379.904

> <MW (desalted)>
379.904

> <ClogP>
3.997

> <logS>
-5.511

> <HBD>
2

> <HBA>
3

> <TPSA>
71.09

> <RotBonds>
5

> <ROCS_ShapeQuery>
A71EV2A-x0451_0A_A71EV2A-x0310_0A_A71EV2A-x0416_0A_peptide

> <ROCS_TanimotoCombo>
0.554 

> <ROCS_ShapeTanimoto>
0.356 

> <ROCS_ColorTanimoto>
0.198 

> <ROCS_RefTversky>
0.315 

> <ROCS_RefColorTversky>
0.215 

> <ROCS_RefTverskyCombo>
0.530 

> <ROCS_FitTversky>
1.569 

> <ROCS_FitColorTversky>
0.714 

> <ROCS_FitTverskyCombo>
2.282 

> <ROCS_ColorScore>
-6.565

> <ROCS_Overlap>
2189.866

> <ROCS_Rank>
26                  

$$$$
untitled-dbase-5074_1736
  -OEChem-11132309573D

 44 46  0     0  0  0  0  0  0999 V2000
   11.7547   16.0205   22.8694 C   0  0  0  0  0  0  0  0  0  0  0  0
    9.3898    9.1242   23.4156 C   0  0  0  0  0  0  0  0  0  0  0  0
    6.8788   13.0985   25.1759 C   0  0  0  0  0  0  0  0  0  0  0  0
    7.9937   12.9597   24.3618 C   0  0  0  0  0  0  0  0  0  0  0  0
   12.1133   15.1917   19.0046 C   0  0  0  0  0  0  0  0  0  0  0  0
    8.2699    9.2978   24.2325 C   0  0  0  0  0  0  0  0  0  0  0  0
   10.0562   10.2314   22.9054 C   0  0  0  0  0  0  0  0  0  0  0  0
   12.7266   15.9701   18.0230 C   0  0  0  0  0  0  0  0  0  0  0  0
   14.5409   16.4568   19.5425 C   0  0  0  0  0  0  0  0  0  0  0  0
    6.2790   11.9448   25.6385 C   0  0  0  0  0  0  0  0  0  0  0  0
    8.4739   11.6842   24.0355 C   0  0  0  0  0  0  0  0  0  0  0  0
   12.7137   15.0459   20.2553 C   0  0  0  0  0  0  0  0  0  0  0  0
    7.7925   10.5646   24.5571 C   0  0  0  0  0  0  0  0  0  0  0  0
    9.6004   11.5099   23.2137 C   0  0  0  0  0  0  0  0  0  0  0  0
   13.9404   16.6026   18.2920 C   0  0  0  0  0  0  0  0  0  0  0  0
   13.9275   15.6784   20.5242 C   0  0  0  0  0  0  0  0  0  0  0  0
   12.0463   14.2207   21.2741 C   0  0  0  0  0  0  0  0  0  0  0  0
   11.6123   14.6556   22.4738 C   0  0  0  0  0  0  0  0  0  0  0  0
   10.9479   13.6321   23.3697 C   0  0  0  0  0  0  0  0  0  0  0  0
   15.7784   17.9804   17.6761 C   0  0  0  0  0  0  0  0  0  0  0  0
   15.7732   16.2382   21.9155 C   0  0  0  0  0  0  0  0  0  0  0  0
   11.8674   17.1287   23.1949 N   0  0  0  0  0  0  0  0  0  0  0  0
    6.7103   10.6962   25.3474 N   0  0  0  0  0  0  0  0  0  0  0  0
   10.3006   12.5982   22.6793 N   0  0  0  0  0  0  0  0  0  0  0  0
   11.0015   13.7482   24.5915 O   0  0  0  0  0  0  0  0  0  0  0  0
   14.5389   17.3621   17.3341 O   0  0  0  0  0  0  0  0  0  0  0  0
   14.5354   15.5535   21.7384 O   0  0  0  0  0  0  0  0  0  0  0  0
    9.7385    8.1228   23.1805 H   0  0  0  0  0  0  0  0  0  0  0  0
    6.4938   14.0770   25.4376 H   0  0  0  0  0  0  0  0  0  0  0  0
    8.4738   13.8626   23.9924 H   0  0  0  0  0  0  0  0  0  0  0  0
   11.1667   14.7061   18.7785 H   0  0  0  0  0  0  0  0  0  0  0  0
    7.7654    8.4141   24.6197 H   0  0  0  0  0  0  0  0  0  0  0  0
   10.9267   10.0860   22.2710 H   0  0  0  0  0  0  0  0  0  0  0  0
   12.2542   16.0808   17.0507 H   0  0  0  0  0  0  0  0  0  0  0  0
   15.4864   16.9512   19.7520 H   0  0  0  0  0  0  0  0  0  0  0  0
    5.4041   11.9913   26.2789 H   0  0  0  0  0  0  0  0  0  0  0  0
   11.9066   13.1874   20.9642 H   0  0  0  0  0  0  0  0  0  0  0  0
   16.1469   18.5559   16.8234 H   0  0  0  0  0  0  0  0  0  0  0  0
   16.5055   17.2126   17.9526 H   0  0  0  0  0  0  0  0  0  0  0  0
   15.6192   18.6508   18.5239 H   0  0  0  0  0  0  0  0  0  0  0  0
   16.1501   16.0559   22.9249 H   0  0  0  0  0  0  0  0  0  0  0  0
   15.6236   17.3095   21.7589 H   0  0  0  0  0  0  0  0  0  0  0  0
   16.4947   15.8626   21.1862 H   0  0  0  0  0  0  0  0  0  0  0  0
   10.3453   12.6445   21.6573 H   0  0  0  0  0  0  0  0  0  0  0  0
  1 18  1  0  0  0  0
  1 22  3  0  0  0  0
  2  6  1  0  0  0  0
  2  7  2  0  0  0  0
  3  4  2  0  0  0  0
  3 10  1  0  0  0  0
  4 11  1  0  0  0  0
  5  8  2  0  0  0  0
  5 12  1  0  0  0  0
  6 13  2  0  0  0  0
  7 14  1  0  0  0  0
  8 15  1  0  0  0  0
  9 15  2  0  0  0  0
  9 16  1  0  0  0  0
 10 23  2  0  0  0  0
 11 13  1  0  0  0  0
 11 14  2  0  0  0  0
 12 16  2  0  0  0  0
 12 17  1  4  0  0  0
 13 23  1  0  0  0  0
 14 24  1  0  0  0  0
 15 26  1  0  0  0  0
 16 27  1  0  0  0  0
 17 18  2  0  0  0  0
 18 19  1  0  0  0  0
 19 24  1  0  0  0  0
 19 25  2  0  0  0  0
 20 26  1  0  0  0  0
 21 27  1  0  0  0  0
  2 28  1  0  0  0  0
  3 29  1  0  0  0  0
  4 30  1  0  0  0  0
  5 31  1  0  0  0  0
  6 32  1  0  0  0  0
  7 33  1  0  0  0  0
  8 34  1  0  0  0  0
  9 35  1  0  0  0  0
 10 36  1  0  0  0  0
 17 37  1  0  0  0  0
 20 38  1  0  0  0  0
 20 39  1  0  0  0  0
 20 40  1  0  0  0  0
 21 41  1  0  0  0  0
 21 42  1  0  0  0  0
 21 43  1  0  0  0  0
 24 44  1  0  0  0  0
M  END
> <Catalog ID>
Z46080032

> <MW>
359.378

> <MW (desalted)>
359.378

> <ClogP>
3.503

> <logS>
-4.85

> <HBD>
1

> <HBA>
5

> <TPSA>
84.24

> <RotBonds>
5

> <ROCS_ShapeQuery>
A71EV2A-x0451_0A_A71EV2A-x0310_0A_A71EV2A-x0416_0A_peptide

> <ROCS_TanimotoCombo>
0.553 

> <ROCS_ShapeTanimoto>
0.374 

> <ROCS_ColorTanimoto>
0.179 

> <ROCS_RefTversky>
0.332 

> <ROCS_RefColorTversky>
0.202 

> <ROCS_RefTverskyCombo>
0.534 

> <ROCS_FitTversky>
1.505 

> <ROCS_FitColorTversky>
0.610 

> <ROCS_FitTverskyCombo>
2.115 

> <ROCS_ColorScore>
-6.185

> <ROCS_Overlap>
2309.642

> <ROCS_Rank>
27                  

$$$$
untitled-dbase-1016_393
  -OEChem-11132309573D

 40 43  0     0  0  0  0  0  0999 V2000
   11.7395   16.0780   22.8273 C   0  0  0  0  0  0  0  0  0  0  0  0
   16.0068   16.7917   21.1297 C   0  0  0  0  0  0  0  0  0  0  0  0
   16.1982   17.4125   19.8969 C   0  0  0  0  0  0  0  0  0  0  0  0
    9.4446    9.1602   23.3989 C   0  0  0  0  0  0  0  0  0  0  0  0
    6.8902   13.1159   25.1385 C   0  0  0  0  0  0  0  0  0  0  0  0
   14.8812   15.9932   21.3626 C   0  0  0  0  0  0  0  0  0  0  0  0
    8.0077   12.9851   24.3267 C   0  0  0  0  0  0  0  0  0  0  0  0
    8.3216    9.3257   24.2133 C   0  0  0  0  0  0  0  0  0  0  0  0
   15.2740   17.2560   18.8599 C   0  0  0  0  0  0  0  0  0  0  0  0
   10.1004   10.2720   22.8851 C   0  0  0  0  0  0  0  0  0  0  0  0
    6.3014   11.9581   25.6050 C   0  0  0  0  0  0  0  0  0  0  0  0
   12.2207   15.3105   18.9509 C   0  0  0  0  0  0  0  0  0  0  0  0
   13.9357   15.8209   20.3321 C   0  0  0  0  0  0  0  0  0  0  0  0
    8.5015   11.7133   24.0066 C   0  0  0  0  0  0  0  0  0  0  0  0
   12.7127   15.1024   20.2188 C   0  0  0  0  0  0  0  0  0  0  0  0
    7.8308   10.5889   24.5319 C   0  0  0  0  0  0  0  0  0  0  0  0
   14.1535   16.4550   19.1071 C   0  0  0  0  0  0  0  0  0  0  0  0
    9.6311   11.5471   23.1873 C   0  0  0  0  0  0  0  0  0  0  0  0
   12.0521   14.2746   21.2401 C   0  0  0  0  0  0  0  0  0  0  0  0
   11.6118   14.7101   22.4372 C   0  0  0  0  0  0  0  0  0  0  0  0
   10.9565   13.6836   23.3364 C   0  0  0  0  0  0  0  0  0  0  0  0
   11.8403   17.1887   23.1483 N   0  0  0  0  0  0  0  0  0  0  0  0
    6.7460   10.7127   25.3198 N   0  0  0  0  0  0  0  0  0  0  0  0
   13.0967   16.1274   18.2878 N   0  0  0  0  0  0  0  0  0  0  0  0
   10.3209   12.6402   22.6494 N   0  0  0  0  0  0  0  0  0  0  0  0
   11.0069   13.8054   24.5578 O   0  0  0  0  0  0  0  0  0  0  0  0
   16.7405   16.9268   21.9200 H   0  0  0  0  0  0  0  0  0  0  0  0
   17.0799   18.0278   19.7380 H   0  0  0  0  0  0  0  0  0  0  0  0
    9.8040    8.1614   23.1686 H   0  0  0  0  0  0  0  0  0  0  0  0
    6.4947   14.0915   25.3954 H   0  0  0  0  0  0  0  0  0  0  0  0
   14.7481   15.5163   22.3296 H   0  0  0  0  0  0  0  0  0  0  0  0
    8.4791   13.8913   23.9543 H   0  0  0  0  0  0  0  0  0  0  0  0
    7.8256    8.4385   24.6034 H   0  0  0  0  0  0  0  0  0  0  0  0
   15.4243   17.7387   17.9000 H   0  0  0  0  0  0  0  0  0  0  0  0
   10.9733   10.1328   22.2526 H   0  0  0  0  0  0  0  0  0  0  0  0
    5.4251   11.9982   26.2439 H   0  0  0  0  0  0  0  0  0  0  0  0
   11.3272   14.9540   18.4560 H   0  0  0  0  0  0  0  0  0  0  0  0
   11.9235   13.2387   20.9343 H   0  0  0  0  0  0  0  0  0  0  0  0
   12.9840   16.4442   17.3347 H   0  0  0  0  0  0  0  0  0  0  0  0
   10.3668   12.6827   21.6273 H   0  0  0  0  0  0  0  0  0  0  0  0
  1 20  1  0  0  0  0
  1 22  3  0  0  0  0
  2  3  1  0  0  0  0
  2  6  2  0  0  0  0
  3  9  2  0  0  0  0
  4  8  1  0  0  0  0
  4 10  2  0  0  0  0
  5  7  2  0  0  0  0
  5 11  1  0  0  0  0
  6 13  1  0  0  0  0
  7 14  1  0  0  0  0
  8 16  2  0  0  0  0
  9 17  1  0  0  0  0
 10 18  1  0  0  0  0
 11 23  2  0  0  0  0
 12 15  2  0  0  0  0
 12 24  1  0  0  0  0
 13 15  1  0  0  0  0
 13 17  2  0  0  0  0
 14 16  1  0  0  0  0
 14 18  2  0  0  0  0
 15 19  1  4  0  0  0
 16 23  1  0  0  0  0
 17 24  1  0  0  0  0
 18 25  1  0  0  0  0
 19 20  2  0  0  0  0
 20 21  1  0  0  0  0
 21 25  1  0  0  0  0
 21 26  2  0  0  0  0
  2 27  1  0  0  0  0
  3 28  1  0  0  0  0
  4 29  1  0  0  0  0
  5 30  1  0  0  0  0
  6 31  1  0  0  0  0
  7 32  1  0  0  0  0
  8 33  1  0  0  0  0
  9 34  1  0  0  0  0
 10 35  1  0  0  0  0
 11 36  1  0  0  0  0
 12 37  1  0  0  0  0
 19 38  1  0  0  0  0
 24 39  1  0  0  0  0
 25 40  1  0  0  0  0
M  END
> <Catalog ID>
Z46080037

> <MW>
338.362

> <MW (desalted)>
338.362

> <ClogP>
3.485

> <logS>
-5.63

> <HBD>
2

> <HBA>
3

> <TPSA>
81.57

> <RotBonds>
3

> <ROCS_ShapeQuery>
A71EV2A-x0451_0A_A71EV2A-x0310_0A_A71EV2A-x0416_0A_peptide

> <ROCS_TanimotoCombo>
0.552 

> <ROCS_ShapeTanimoto>
0.371 

> <ROCS_ColorTanimoto>
0.181 

> <ROCS_RefTversky>
0.330 

> <ROCS_RefColorTversky>
0.204 

> <ROCS_RefTverskyCombo>
0.534 

> <ROCS_FitTversky>
1.512 

> <ROCS_FitColorTversky>
0.615 

> <ROCS_FitTverskyCombo>
2.127 

> <ROCS_ColorScore>
-6.250

> <ROCS_Overlap>
2294.080

> <ROCS_Rank>
28                  

$$$$
untitled-dbase-7976_375
  -OEChem-11132309573D

 45 47  0     0  0  0  0  0  0999 V2000
   11.7482   16.0208   22.8605 C   0  0  0  0  0  0  0  0  0  0  0  0
    9.3904    9.1231   23.4187 C   0  0  0  0  0  0  0  0  0  0  0  0
    6.8785   13.0972   25.1782 C   0  0  0  0  0  0  0  0  0  0  0  0
    7.9923   12.9585   24.3625 C   0  0  0  0  0  0  0  0  0  0  0  0
   11.9439   15.7202   19.2917 C   0  0  0  0  0  0  0  0  0  0  0  0
   14.0948   15.1495   20.2326 C   0  0  0  0  0  0  0  0  0  0  0  0
   12.5746   16.5020   18.3240 C   0  0  0  0  0  0  0  0  0  0  0  0
   14.7255   15.9313   19.2648 C   0  0  0  0  0  0  0  0  0  0  0  0
    8.2715    9.2966   24.2372 C   0  0  0  0  0  0  0  0  0  0  0  0
   10.0550   10.2303   22.9062 C   0  0  0  0  0  0  0  0  0  0  0  0
    6.2804   11.9436   25.6431 C   0  0  0  0  0  0  0  0  0  0  0  0
    8.4731   11.6830   24.0370 C   0  0  0  0  0  0  0  0  0  0  0  0
   12.7040   15.0440   20.2461 C   0  0  0  0  0  0  0  0  0  0  0  0
   13.9654   16.6075   18.3105 C   0  0  0  0  0  0  0  0  0  0  0  0
    7.7936   10.5634   24.5611 C   0  0  0  0  0  0  0  0  0  0  0  0
    9.5985   11.5087   23.2137 C   0  0  0  0  0  0  0  0  0  0  0  0
   12.0389   14.2194   21.2670 C   0  0  0  0  0  0  0  0  0  0  0  0
   11.6064   14.6554   22.4668 C   0  0  0  0  0  0  0  0  0  0  0  0
   10.9443   13.6323   23.3650 C   0  0  0  0  0  0  0  0  0  0  0  0
   15.5630   16.6137   16.3608 C   0  0  0  0  0  0  0  0  0  0  0  0
   15.4255   18.6176   17.8841 C   0  0  0  0  0  0  0  0  0  0  0  0
   14.6392   17.4417   17.2741 C   0  0  0  0  0  0  0  0  0  0  0  0
   11.8604   17.1295   23.1845 N   0  0  0  0  0  0  0  0  0  0  0  0
    6.7124   10.6950   25.3528 N   0  0  0  0  0  0  0  0  0  0  0  0
   10.2969   12.5970   22.6769 N   0  0  0  0  0  0  0  0  0  0  0  0
   10.9997   13.7500   24.5866 O   0  0  0  0  0  0  0  0  0  0  0  0
    9.7396    8.1216   23.1844 H   0  0  0  0  0  0  0  0  0  0  0  0
    6.4931   14.0757   25.4393 H   0  0  0  0  0  0  0  0  0  0  0  0
    8.4710   13.8613   23.9913 H   0  0  0  0  0  0  0  0  0  0  0  0
   10.8589   15.6478   19.2896 H   0  0  0  0  0  0  0  0  0  0  0  0
   14.7008   14.6281   20.9696 H   0  0  0  0  0  0  0  0  0  0  0  0
   11.9746   17.0249   17.5840 H   0  0  0  0  0  0  0  0  0  0  0  0
   15.8097   16.0082   19.2616 H   0  0  0  0  0  0  0  0  0  0  0  0
    7.7685    8.4129   24.6263 H   0  0  0  0  0  0  0  0  0  0  0  0
   10.9246   10.0848   22.2706 H   0  0  0  0  0  0  0  0  0  0  0  0
    5.4066   11.9900   26.2848 H   0  0  0  0  0  0  0  0  0  0  0  0
   11.8997   13.1856   20.9585 H   0  0  0  0  0  0  0  0  0  0  0  0
   16.3555   16.1179   16.9319 H   0  0  0  0  0  0  0  0  0  0  0  0
   16.0432   17.2410   15.6018 H   0  0  0  0  0  0  0  0  0  0  0  0
   14.9906   15.8373   15.8409 H   0  0  0  0  0  0  0  0  0  0  0  0
   16.2021   18.2473   18.5626 H   0  0  0  0  0  0  0  0  0  0  0  0
   14.7704   19.2836   18.4562 H   0  0  0  0  0  0  0  0  0  0  0  0
   15.9164   19.2187   17.1108 H   0  0  0  0  0  0  0  0  0  0  0  0
   13.8817   17.8965   16.6076 H   0  0  0  0  0  0  0  0  0  0  0  0
   10.3400   12.6421   21.6547 H   0  0  0  0  0  0  0  0  0  0  0  0
  1 18  1  0  0  0  0
  1 23  3  0  0  0  0
  2  9  1  0  0  0  0
  2 10  2  0  0  0  0
  3  4  2  0  0  0  0
  3 11  1  0  0  0  0
  4 12  1  0  0  0  0
  5  7  2  0  0  0  0
  5 13  1  0  0  0  0
  6  8  1  0  0  0  0
  6 13  2  0  0  0  0
  7 14  1  0  0  0  0
  8 14  2  0  0  0  0
  9 15  2  0  0  0  0
 10 16  1  0  0  0  0
 11 24  2  0  0  0  0
 12 15  1  0  0  0  0
 12 16  2  0  0  0  0
 13 17  1  4  0  0  0
 14 22  1  0  0  0  0
 15 24  1  0  0  0  0
 16 25  1  0  0  0  0
 17 18  2  0  0  0  0
 18 19  1  0  0  0  0
 19 25  1  0  0  0  0
 19 26  2  0  0  0  0
 20 22  1  0  0  0  0
 21 22  1  0  0  0  0
  2 27  1  0  0  0  0
  3 28  1  0  0  0  0
  4 29  1  0  0  0  0
  5 30  1  0  0  0  0
  6 31  1  0  0  0  0
  7 32  1  0  0  0  0
  8 33  1  0  0  0  0
  9 34  1  0  0  0  0
 10 35  1  0  0  0  0
 11 36  1  0  0  0  0
 17 37  1  0  0  0  0
 20 38  1  0  0  0  0
 20 39  1  0  0  0  0
 20 40  1  0  0  0  0
 21 41  1  0  0  0  0
 21 42  1  0  0  0  0
 21 43  1  0  0  0  0
 22 44  1  0  0  0  0
 25 45  1  0  0  0  0
M  END
> <Catalog ID>
Z46080051

> <MW>
341.406

> <MW (desalted)>
341.406

> <ClogP>
4.922

> <logS>
-6.29

> <HBD>
1

> <HBA>
3

> <TPSA>
65.78

> <RotBonds>
4

> <ROCS_ShapeQuery>
A71EV2A-x0451_0A_A71EV2A-x0310_0A_A71EV2A-x0416_0A_peptide

> <ROCS_TanimotoCombo>
0.552 

> <ROCS_ShapeTanimoto>
0.368 

> <ROCS_ColorTanimoto>
0.185 

> <ROCS_RefTversky>
0.326 

> <ROCS_RefColorTversky>
0.203 

> <ROCS_RefTverskyCombo>
0.529 

> <ROCS_FitTversky>
1.532 

> <ROCS_FitColorTversky>
0.673 

> <ROCS_FitTverskyCombo>
2.206 

> <ROCS_ColorScore>
-6.190

> <ROCS_Overlap>
2267.308

> <ROCS_Rank>
29                  

$$$$
untitled-dbase-2343_3476
  -OEChem-11132309573D

 54 56  0     0  0  0  0  0  0999 V2000
   12.6061   15.2206   20.1165 C   0  0  0  0  0  0  0  0  0  0  0  0
   13.8840   15.5448   20.5719 C   0  0  0  0  0  0  0  0  0  0  0  0
   11.6908   14.6167   20.9787 C   0  0  0  0  0  0  0  0  0  0  0  0
    7.7431    9.9839   24.5744 C   0  0  0  0  0  0  0  0  0  0  0  0
   14.2467   15.2650   21.8895 C   0  0  0  0  0  0  0  0  0  0  0  0
    8.7770    9.4108   23.8339 C   0  0  0  0  0  0  0  0  0  0  0  0
    8.6226   12.1836   24.0999 C   0  0  0  0  0  0  0  0  0  0  0  0
    3.3644   11.1855   29.1410 C   0  0  0  0  0  0  0  0  0  0  0  0
    7.6659   11.3703   24.7073 C   0  0  0  0  0  0  0  0  0  0  0  0
   12.0535   14.3370   22.2962 C   0  0  0  0  0  0  0  0  0  0  0  0
   13.3314   14.6611   22.7516 C   0  0  0  0  0  0  0  0  0  0  0  0
    9.6565   11.6105   23.3595 C   0  0  0  0  0  0  0  0  0  0  0  0
    9.7337   10.2241   23.2264 C   0  0  0  0  0  0  0  0  0  0  0  0
    3.3295   12.3804   28.4532 C   0  0  0  0  0  0  0  0  0  0  0  0
    4.9912   11.4316   27.3817 C   0  0  0  0  0  0  0  0  0  0  0  0
   15.1675   10.0618   25.9082 C   0  0  0  0  0  0  0  0  0  0  0  0
   14.1962   10.9078   25.5517 C   0  0  0  0  0  0  0  0  0  0  0  0
    6.5873   11.9670   25.4792 C   0  0  0  0  0  0  0  0  0  0  0  0
   11.0785   13.7054   23.1750 C   0  0  0  0  0  0  0  0  0  0  0  0
   14.4748   12.3632   25.4243 C   0  0  0  0  0  0  0  0  0  0  0  0
    2.3939   13.4940   28.7065 C   0  0  0  0  0  0  0  0  0  0  0  0
   10.7347    8.2203   22.4275 C   0  0  0  0  0  0  0  0  0  0  0  0
   13.7485   14.3708   24.1644 C   0  0  0  0  0  0  0  0  0  0  0  0
    4.2619   12.5235   27.4443 N   0  0  0  0  0  0  0  0  0  0  0  0
   10.6215   12.4500   22.7479 N   0  0  0  0  0  0  0  0  0  0  0  0
    6.0599   11.1522   26.4929 N   0  0  0  0  0  0  0  0  0  0  0  0
   13.6656   12.9619   24.4740 N   0  0  0  0  0  0  0  0  0  0  0  0
    6.1536   13.0993   25.2249 O   0  0  0  0  0  0  0  0  0  0  0  0
   10.6696   14.2659   24.1999 O   0  0  0  0  0  0  0  0  0  0  0  0
   15.3294   12.9330   26.0953 O   0  0  0  0  0  0  0  0  0  0  0  0
   10.7367    9.6438   22.5086 O   0  0  0  0  0  0  0  0  0  0  0  0
    4.6100   10.1923   28.5059 S   0  0  0  0  0  0  0  0  0  0  0  0
   12.3231   15.4384   19.0906 H   0  0  0  0  0  0  0  0  0  0  0  0
   14.5964   16.0147   19.9001 H   0  0  0  0  0  0  0  0  0  0  0  0
   10.6984   14.3681   20.6114 H   0  0  0  0  0  0  0  0  0  0  0  0
    7.0029    9.3411   25.0439 H   0  0  0  0  0  0  0  0  0  0  0  0
   15.2448   15.5221   22.2343 H   0  0  0  0  0  0  0  0  0  0  0  0
    8.8301    8.3300   23.7337 H   0  0  0  0  0  0  0  0  0  0  0  0
    8.5613   13.2650   24.2044 H   0  0  0  0  0  0  0  0  0  0  0  0
    2.7395   10.8556   29.9589 H   0  0  0  0  0  0  0  0  0  0  0  0
   14.9563    9.0015   26.0001 H   0  0  0  0  0  0  0  0  0  0  0  0
   16.1806   10.3887   26.1145 H   0  0  0  0  0  0  0  0  0  0  0  0
   13.1955   10.5393   25.3536 H   0  0  0  0  0  0  0  0  0  0  0  0
    2.8071   14.1993   29.4460 H   0  0  0  0  0  0  0  0  0  0  0  0
    2.1705   14.0634   27.7883 H   0  0  0  0  0  0  0  0  0  0  0  0
    1.4218   13.1385   29.0888 H   0  0  0  0  0  0  0  0  0  0  0  0
   11.5855    7.8876   21.8278 H   0  0  0  0  0  0  0  0  0  0  0  0
    9.8002    7.8816   21.9729 H   0  0  0  0  0  0  0  0  0  0  0  0
   10.8182    7.8066   23.4352 H   0  0  0  0  0  0  0  0  0  0  0  0
   14.7811   14.6937   24.3362 H   0  0  0  0  0  0  0  0  0  0  0  0
   13.1165   14.9084   24.8791 H   0  0  0  0  0  0  0  0  0  0  0  0
   11.0356   12.0965   21.8890 H   0  0  0  0  0  0  0  0  0  0  0  0
    6.5017   10.2430   26.6044 H   0  0  0  0  0  0  0  0  0  0  0  0
   13.0045   12.4026   23.9426 H   0  0  0  0  0  0  0  0  0  0  0  0
  1  2  1  0  0  0  0
  1  3  2  0  0  0  0
  2  5  2  0  0  0  0
  3 10  1  0  0  0  0
  4  6  2  0  0  0  0
  4  9  1  0  0  0  0
  5 11  1  0  0  0  0
  6 13  1  0  0  0  0
  7  9  2  0  0  0  0
  7 12  1  0  0  0  0
  8 14  2  0  0  0  0
  8 32  1  0  0  0  0
  9 18  1  0  0  0  0
 10 11  2  0  0  0  0
 10 19  1  0  0  0  0
 11 23  1  0  0  0  0
 12 13  2  0  0  0  0
 12 25  1  0  0  0  0
 13 31  1  0  0  0  0
 14 21  1  0  0  0  0
 14 24  1  0  0  0  0
 15 24  2  0  0  0  0
 15 26  1  0  0  0  0
 15 32  1  0  0  0  0
 16 17  2  0  0  0  0
 17 20  1  0  0  0  0
 18 26  1  0  0  0  0
 18 28  2  0  0  0  0
 19 25  1  0  0  0  0
 19 29  2  0  0  0  0
 20 27  1  0  0  0  0
 20 30  2  0  0  0  0
 22 31  1  0  0  0  0
 23 27  1  0  0  0  0
  1 33  1  0  0  0  0
  2 34  1  0  0  0  0
  3 35  1  0  0  0  0
  4 36  1  0  0  0  0
  5 37  1  0  0  0  0
  6 38  1  0  0  0  0
  7 39  1  0  0  0  0
  8 40  1  0  0  0  0
 16 41  1  0  0  0  0
 16 42  1  0  0  0  0
 17 43  1  0  0  0  0
 21 44  1  0  0  0  0
 21 45  1  0  0  0  0
 21 46  1  0  0  0  0
 22 47  1  0  0  0  0
 22 48  1  0  0  0  0
 22 49  1  0  0  0  0
 23 50  1  0  0  0  0
 23 51  1  0  0  0  0
 25 52  1  0  0  0  0
 26 53  1  0  0  0  0
 27 54  1  0  0  0  0
M  END
> <Catalog ID>
Z4899905008

> <MW>
450.51

> <MW (desalted)>
450.51

> <ClogP>
1.327

> <logS>
-5.736

> <HBD>
3

> <HBA>
5

> <TPSA>
109.42

> <RotBonds>
8

> <ROCS_ShapeQuery>
A71EV2A-x0451_0A_A71EV2A-x0310_0A_A71EV2A-x0416_0A_peptide

> <ROCS_TanimotoCombo>
0.552 

> <ROCS_ShapeTanimoto>
0.394 

> <ROCS_ColorTanimoto>
0.159 

> <ROCS_RefTversky>
0.352 

> <ROCS_RefColorTversky>
0.195 

> <ROCS_RefTverskyCombo>
0.547 

> <ROCS_FitTversky>
1.425 

> <ROCS_FitColorTversky>
0.461 

> <ROCS_FitTverskyCombo>
1.886 

> <ROCS_ColorScore>
-5.981

> <ROCS_Overlap>
2454.581

> <ROCS_Rank>
30                  

$$$$
untitled-dbase-1593_11442
  -OEChem-11132309573D

 52 54  0     0  0  0  0  0  0999 V2000
   13.3459   13.7532   22.7008 C   0  0  0  0  0  0  0  0  0  0  0  0
   12.4663   14.9429   18.9759 C   0  0  0  0  0  0  0  0  0  0  0  0
   13.6038   16.1877   20.7061 C   0  0  0  0  0  0  0  0  0  0  0  0
   13.3582   15.4449   18.0283 C   0  0  0  0  0  0  0  0  0  0  0  0
   14.4958   16.6897   19.7585 C   0  0  0  0  0  0  0  0  0  0  0  0
    8.1958    9.6217   24.2700 C   0  0  0  0  0  0  0  0  0  0  0  0
    7.1794   10.3500   24.8880 C   0  0  0  0  0  0  0  0  0  0  0  0
    8.2566   12.4105   24.2315 C   0  0  0  0  0  0  0  0  0  0  0  0
   12.5890   15.3143   20.3148 C   0  0  0  0  0  0  0  0  0  0  0  0
    9.2731   11.6822   23.6134 C   0  0  0  0  0  0  0  0  0  0  0  0
   14.3730   16.3183   18.4195 C   0  0  0  0  0  0  0  0  0  0  0  0
    9.2427   10.2878   23.6327 C   0  0  0  0  0  0  0  0  0  0  0  0
    7.2097   11.7444   24.8687 C   0  0  0  0  0  0  0  0  0  0  0  0
   11.6482   14.7847   21.3143 C   0  0  0  0  0  0  0  0  0  0  0  0
   11.9844   14.0641   22.4025 C   0  0  0  0  0  0  0  0  0  0  0  0
   10.8508   13.6207   23.3026 C   0  0  0  0  0  0  0  0  0  0  0  0
    6.2117   11.7112   28.1941 C   0  0  0  0  0  0  0  0  0  0  0  0
    4.0401   11.3218   27.1051 C   0  0  0  0  0  0  0  0  0  0  0  0
    5.5359   12.7722   29.0500 C   0  0  0  0  0  0  0  0  0  0  0  0
    3.4522   12.3988   28.0048 C   0  0  0  0  0  0  0  0  0  0  0  0
   16.2567   17.6965   17.9636 C   0  0  0  0  0  0  0  0  0  0  0  0
   14.4510   13.4988   22.9478 N   0  0  0  0  0  0  0  0  0  0  0  0
    5.4926   11.5795   26.8958 N   0  0  0  0  0  0  0  0  0  0  0  0
   10.3156   12.3637   22.9808 N   0  0  0  0  0  0  0  0  0  0  0  0
   10.4697   14.3410   24.2220 O   0  0  0  0  0  0  0  0  0  0  0  0
    6.5175   13.8467   26.2379 O   0  0  0  0  0  0  0  0  0  0  0  0
    4.8206   12.7709   24.7177 O   0  0  0  0  0  0  0  0  0  0  0  0
    4.1577   12.4464   29.2476 O   0  0  0  0  0  0  0  0  0  0  0  0
   10.2266    9.5578   23.0352 O   0  0  0  0  0  0  0  0  0  0  0  0
   15.2433   16.8083   17.4949 O   0  0  0  0  0  0  0  0  0  0  0  0
    5.9223   12.6653   25.6506 S   0  0  0  0  0  0  0  0  0  0  0  0
   11.6805   14.2629   18.6555 H   0  0  0  0  0  0  0  0  0  0  0  0
   13.7123   16.4864   21.7460 H   0  0  0  0  0  0  0  0  0  0  0  0
   13.2576   15.1520   16.9867 H   0  0  0  0  0  0  0  0  0  0  0  0
   15.2842   17.3698   20.0693 H   0  0  0  0  0  0  0  0  0  0  0  0
    8.1669    8.5357   24.2899 H   0  0  0  0  0  0  0  0  0  0  0  0
    6.3692    9.8203   25.3820 H   0  0  0  0  0  0  0  0  0  0  0  0
    8.2801   13.4979   24.2173 H   0  0  0  0  0  0  0  0  0  0  0  0
   10.6126   15.0465   21.1086 H   0  0  0  0  0  0  0  0  0  0  0  0
    7.2576   11.9900   27.9951 H   0  0  0  0  0  0  0  0  0  0  0  0
    6.2010   10.7489   28.7248 H   0  0  0  0  0  0  0  0  0  0  0  0
    3.9002   10.3365   27.5711 H   0  0  0  0  0  0  0  0  0  0  0  0
    3.5339   11.3223   26.1278 H   0  0  0  0  0  0  0  0  0  0  0  0
    6.0268   12.8766   30.0249 H   0  0  0  0  0  0  0  0  0  0  0  0
    5.5807   13.7435   28.5475 H   0  0  0  0  0  0  0  0  0  0  0  0
    3.5491   13.3791   27.5282 H   0  0  0  0  0  0  0  0  0  0  0  0
    2.3872   12.2247   28.1995 H   0  0  0  0  0  0  0  0  0  0  0  0
   16.8818   18.0125   17.1248 H   0  0  0  0  0  0  0  0  0  0  0  0
   16.8667   17.1903   18.7160 H   0  0  0  0  0  0  0  0  0  0  0  0
   15.7820   18.5727   18.4115 H   0  0  0  0  0  0  0  0  0  0  0  0
   10.7436   11.8857   22.1811 H   0  0  0  0  0  0  0  0  0  0  0  0
   10.0517    8.6099   23.1425 H   0  0  0  0  0  0  0  0  0  0  0  0
  1 15  1  0  0  0  0
  1 22  3  0  0  0  0
  2  4  2  0  0  0  0
  2  9  1  0  0  0  0
  3  5  1  0  0  0  0
  3  9  2  0  0  0  0
  4 11  1  0  0  0  0
  5 11  2  0  0  0  0
  6  7  2  0  0  0  0
  6 12  1  0  0  0  0
  7 13  1  0  0  0  0
  8 10  1  0  0  0  0
  8 13  2  0  0  0  0
  9 14  1  4  0  0  0
 10 12  2  0  0  0  0
 10 24  1  0  0  0  0
 11 30  1  0  0  0  0
 12 29  1  0  0  0  0
 13 31  1  0  0  0  0
 14 15  2  0  0  0  0
 15 16  1  0  0  0  0
 16 24  1  0  0  0  0
 16 25  2  0  0  0  0
 17 19  1  0  0  0  0
 17 23  1  0  0  0  0
 18 20  1  0  0  0  0
 18 23  1  0  0  0  0
 19 28  1  0  0  0  0
 20 28  1  0  0  0  0
 21 30  1  0  0  0  0
 23 31  1  0  0  0  0
 26 31  2  0  0  0  0
 27 31  2  0  0  0  0
  2 32  1  0  0  0  0
  3 33  1  0  0  0  0
  4 34  1  0  0  0  0
  5 35  1  0  0  0  0
  6 36  1  0  0  0  0
  7 37  1  0  0  0  0
  8 38  1  0  0  0  0
 14 39  1  0  0  0  0
 17 40  1  0  0  0  0
 17 41  1  0  0  0  0
 18 42  1  0  0  0  0
 18 43  1  0  0  0  0
 19 44  1  0  0  0  0
 19 45  1  0  0  0  0
 20 46  1  0  0  0  0
 20 47  1  0  0  0  0
 21 48  1  0  0  0  0
 21 49  1  0  0  0  0
 21 50  1  0  0  0  0
 24 51  1  0  0  0  0
 29 52  1  0  0  0  0
M  END
> <Catalog ID>
Z56591381

> <MW>
443.473

> <MW (desalted)>
443.473

> <ClogP>
2.278

> <logS>
-4.16

> <HBD>
2

> <HBA>
7

> <TPSA>
128.96

> <RotBonds>
5

> <ROCS_ShapeQuery>
A71EV2A-x0451_0A_A71EV2A-x0310_0A_A71EV2A-x0416_0A_peptide

> <ROCS_TanimotoCombo>
0.552 

> <ROCS_ShapeTanimoto>
0.386 

> <ROCS_ColorTanimoto>
0.167 

> <ROCS_RefTversky>
0.345 

> <ROCS_RefColorTversky>
0.203 

> <ROCS_RefTverskyCombo>
0.548 

> <ROCS_FitTversky>
1.443 

> <ROCS_FitColorTversky>
0.481 

> <ROCS_FitTverskyCombo>
1.923 

> <ROCS_ColorScore>
-6.242

> <ROCS_Overlap>
2401.167

> <ROCS_Rank>
31                  

$$$$
untitled-dbase-5449_1983
  -OEChem-11132309573D

 48 50  0     0  0  0  0  0  0999 V2000
    6.3292   11.6439   25.9940 C   0  0  0  0  0  0  0  0  0  0  0  0
    6.9623   10.5115   25.4951 C   0  0  0  0  0  0  0  0  0  0  0  0
    7.9411   13.0274   24.8388 C   0  0  0  0  0  0  0  0  0  0  0  0
    6.8147   12.9014   25.6597 C   0  0  0  0  0  0  0  0  0  0  0  0
    8.0852   10.6392   24.6647 C   0  0  0  0  0  0  0  0  0  0  0  0
    8.6104   11.8978   24.3385 C   0  0  0  0  0  0  0  0  0  0  0  0
    9.7299    9.4438   23.3204 C   0  0  0  0  0  0  0  0  0  0  0  0
   14.2467   15.3941   18.2826 C   0  0  0  0  0  0  0  0  0  0  0  0
   13.9977   16.4881   19.0055 C   0  0  0  0  0  0  0  0  0  0  0  0
    6.1539   14.0910   26.1734 C   0  0  0  0  0  0  0  0  0  0  0  0
   13.9489   16.3747   20.4782 C   0  0  0  0  0  0  0  0  0  0  0  0
   10.5238   13.1772   23.3773 C   0  0  0  0  0  0  0  0  0  0  0  0
   10.1737   10.7804   22.7772 C   0  0  0  0  0  0  0  0  0  0  0  0
   10.6939   14.6284   21.3921 C   0  0  0  0  0  0  0  0  0  0  0  0
   12.7503   13.4114   22.2965 C   0  0  0  0  0  0  0  0  0  0  0  0
   11.6935   15.2190   20.4031 C   0  0  0  0  0  0  0  0  0  0  0  0
   13.2885   14.8391   22.2880 C   0  0  0  0  0  0  0  0  0  0  0  0
   11.2339   13.3657   22.0699 C   0  0  0  0  0  0  0  0  0  0  0  0
    6.5024   16.3556   26.8379 C   0  0  0  0  0  0  0  0  0  0  0  0
    8.6776    9.4628   24.1939 N   0  0  0  0  0  0  0  0  0  0  0  0
    9.7805   11.9871   23.5097 N   0  0  0  0  0  0  0  0  0  0  0  0
   12.9958   15.5130   21.0196 N   0  0  0  0  0  0  0  0  0  0  0  0
   10.2288    8.3970   22.9041 O   0  0  0  0  0  0  0  0  0  0  0  0
    4.9459   14.1632   26.4343 O   0  0  0  0  0  0  0  0  0  0  0  0
   14.7526   17.0366   21.1362 O   0  0  0  0  0  0  0  0  0  0  0  0
   10.6580   14.0472   24.2406 O   0  0  0  0  0  0  0  0  0  0  0  0
    7.0347   15.1254   26.3350 O   0  0  0  0  0  0  0  0  0  0  0  0
    5.4679   11.5331   26.6472 H   0  0  0  0  0  0  0  0  0  0  0  0
    6.5781    9.5298   25.7616 H   0  0  0  0  0  0  0  0  0  0  0  0
    8.2942   14.0338   24.6375 H   0  0  0  0  0  0  0  0  0  0  0  0
   14.2950   15.4142   17.1990 H   0  0  0  0  0  0  0  0  0  0  0  0
   14.4096   14.4415   18.7756 H   0  0  0  0  0  0  0  0  0  0  0  0
   13.8304   17.4556   18.5505 H   0  0  0  0  0  0  0  0  0  0  0  0
   11.2691   10.7724   22.7314 H   0  0  0  0  0  0  0  0  0  0  0  0
    9.7869   10.8418   21.7545 H   0  0  0  0  0  0  0  0  0  0  0  0
   10.4294   15.3843   22.1364 H   0  0  0  0  0  0  0  0  0  0  0  0
    9.7766   14.3665   20.8554 H   0  0  0  0  0  0  0  0  0  0  0  0
   13.2361   12.8449   21.4966 H   0  0  0  0  0  0  0  0  0  0  0  0
   13.0111   12.9303   23.2424 H   0  0  0  0  0  0  0  0  0  0  0  0
   11.8182   14.5281   19.5506 H   0  0  0  0  0  0  0  0  0  0  0  0
   11.3135   16.1645   19.9744 H   0  0  0  0  0  0  0  0  0  0  0  0
   12.8157   15.4343   23.0840 H   0  0  0  0  0  0  0  0  0  0  0  0
   14.3585   14.8358   22.5215 H   0  0  0  0  0  0  0  0  0  0  0  0
   10.9800   12.4969   21.4712 H   0  0  0  0  0  0  0  0  0  0  0  0
    7.3038   17.0939   26.9193 H   0  0  0  0  0  0  0  0  0  0  0  0
    6.0495   16.1841   27.8177 H   0  0  0  0  0  0  0  0  0  0  0  0
    5.7408   16.7226   26.1459 H   0  0  0  0  0  0  0  0  0  0  0  0
    8.3084    8.5752   24.5231 H   0  0  0  0  0  0  0  0  0  0  0  0
  1  2  2  0  0  0  0
  1  4  1  0  0  0  0
  2  5  1  0  0  0  0
  3  4  2  0  0  0  0
  3  6  1  0  0  0  0
  4 10  1  0  0  0  0
  5  6  2  0  0  0  0
  5 20  1  0  0  0  0
  6 21  1  0  0  0  0
  7 13  1  0  0  0  0
  7 20  1  0  0  0  0
  7 23  2  0  0  0  0
  8  9  2  0  0  0  0
  9 11  1  0  0  0  0
 10 24  2  0  0  0  0
 10 27  1  0  0  0  0
 11 22  1  0  0  0  0
 11 25  2  0  0  0  0
 12 18  1  0  0  0  0
 12 21  1  0  0  0  0
 12 26  2  0  0  0  0
 13 21  1  0  0  0  0
 14 16  1  0  0  0  0
 14 18  1  0  0  0  0
 15 17  1  0  0  0  0
 15 18  1  0  0  0  0
 16 22  1  0  0  0  0
 17 22  1  0  0  0  0
 19 27  1  0  0  0  0
  1 28  1  0  0  0  0
  2 29  1  0  0  0  0
  3 30  1  0  0  0  0
  8 31  1  0  0  0  0
  8 32  1  0  0  0  0
  9 33  1  0  0  0  0
 13 34  1  0  0  0  0
 13 35  1  0  0  0  0
 14 36  1  0  0  0  0
 14 37  1  0  0  0  0
 15 38  1  0  0  0  0
 15 39  1  0  0  0  0
 16 40  1  0  0  0  0
 16 41  1  0  0  0  0
 17 42  1  0  0  0  0
 17 43  1  0  0  0  0
 18 44  1  0  0  0  0
 19 45  1  0  0  0  0
 19 46  1  0  0  0  0
 19 47  1  0  0  0  0
 20 48  1  0  0  0  0
M  END
> <Catalog ID>
Z4382927420

> <MW>
371.387

> <MW (desalted)>
371.387

> <ClogP>
0.57

> <logS>
-3.431

> <HBD>
1

> <HBA>
4

> <TPSA>
96.02

> <RotBonds>
4

> <ROCS_ShapeQuery>
A71EV2A-x0451_0A_A71EV2A-x0310_0A_A71EV2A-x0416_0A_peptide

> <ROCS_TanimotoCombo>
0.552 

> <ROCS_ShapeTanimoto>
0.391 

> <ROCS_ColorTanimoto>
0.161 

> <ROCS_RefTversky>
0.343 

> <ROCS_RefColorTversky>
0.184 

> <ROCS_RefTverskyCombo>
0.527 

> <ROCS_FitTversky>
1.562 

> <ROCS_FitColorTversky>
0.556 

> <ROCS_FitTverskyCombo>
2.118 

> <ROCS_ColorScore>
-5.636

> <ROCS_Overlap>
2385.572

> <ROCS_Rank>
32                  

$$$$
untitled-dbase-2715_527
  -OEChem-11132309573D

 37 39  0     0  0  0  0  0  0999 V2000
   11.7553   16.0208   22.8694 C   0  0  0  0  0  0  0  0  0  0  0  0
    9.3904    9.1246   23.4160 C   0  0  0  0  0  0  0  0  0  0  0  0
    6.8798   13.0989   25.1768 C   0  0  0  0  0  0  0  0  0  0  0  0
    7.9946   12.9601   24.3625 C   0  0  0  0  0  0  0  0  0  0  0  0
    8.2706    9.2982   24.2332 C   0  0  0  0  0  0  0  0  0  0  0  0
   10.0567   10.2318   22.9057 C   0  0  0  0  0  0  0  0  0  0  0  0
   14.5424   16.4549   19.5418 C   0  0  0  0  0  0  0  0  0  0  0  0
   13.9422   16.6009   18.2912 C   0  0  0  0  0  0  0  0  0  0  0  0
   12.1135   15.1923   19.0045 C   0  0  0  0  0  0  0  0  0  0  0  0
    6.2800   11.9452   25.6396 C   0  0  0  0  0  0  0  0  0  0  0  0
    8.4747   11.6846   24.0361 C   0  0  0  0  0  0  0  0  0  0  0  0
   12.7138   15.0463   20.2551 C   0  0  0  0  0  0  0  0  0  0  0  0
    7.7934   10.5650   24.5579 C   0  0  0  0  0  0  0  0  0  0  0  0
    9.6010   11.5103   23.2142 C   0  0  0  0  0  0  0  0  0  0  0  0
   13.9283   15.6775   20.5237 C   0  0  0  0  0  0  0  0  0  0  0  0
   12.7277   15.9697   18.0226 C   0  0  0  0  0  0  0  0  0  0  0  0
   12.0466   14.2210   21.2741 C   0  0  0  0  0  0  0  0  0  0  0  0
   11.6128   14.6560   22.4738 C   0  0  0  0  0  0  0  0  0  0  0  0
   10.9486   13.6324   23.3698 C   0  0  0  0  0  0  0  0  0  0  0  0
   11.8681   17.1290   23.1949 N   0  0  0  0  0  0  0  0  0  0  0  0
    6.7113   10.6966   25.3483 N   0  0  0  0  0  0  0  0  0  0  0  0
   10.3011   12.5985   22.6796 N   0  0  0  0  0  0  0  0  0  0  0  0
   11.0024   13.7485   24.5917 O   0  0  0  0  0  0  0  0  0  0  0  0
   14.5374   15.5503   21.7371 O   0  0  0  0  0  0  0  0  0  0  0  0
   11.9150   16.1683   16.3278 Br  0  0  0  0  0  0  0  0  0  0  0  0
    9.7391    8.1231   23.1809 H   0  0  0  0  0  0  0  0  0  0  0  0
    6.4949   14.0774   25.4387 H   0  0  0  0  0  0  0  0  0  0  0  0
    8.4746   13.8629   23.9931 H   0  0  0  0  0  0  0  0  0  0  0  0
    7.7662    8.4144   24.6205 H   0  0  0  0  0  0  0  0  0  0  0  0
   10.9270   10.0863   22.2711 H   0  0  0  0  0  0  0  0  0  0  0  0
   15.4888   16.9493   19.7446 H   0  0  0  0  0  0  0  0  0  0  0  0
   14.4340   17.2103   17.5376 H   0  0  0  0  0  0  0  0  0  0  0  0
   11.1657   14.6999   18.7950 H   0  0  0  0  0  0  0  0  0  0  0  0
    5.4053   11.9917   26.2802 H   0  0  0  0  0  0  0  0  0  0  0  0
   11.9068   13.1878   20.9642 H   0  0  0  0  0  0  0  0  0  0  0  0
   10.3456   12.6449   21.6576 H   0  0  0  0  0  0  0  0  0  0  0  0
   15.3675   16.0514   21.7480 H   0  0  0  0  0  0  0  0  0  0  0  0
  1 18  1  0  0  0  0
  1 20  3  0  0  0  0
  2  5  1  0  0  0  0
  2  6  2  0  0  0  0
  3  4  2  0  0  0  0
  3 10  1  0  0  0  0
  4 11  1  0  0  0  0
  5 13  2  0  0  0  0
  6 14  1  0  0  0  0
  7  8  2  0  0  0  0
  7 15  1  0  0  0  0
  8 16  1  0  0  0  0
  9 12  1  0  0  0  0
  9 16  2  0  0  0  0
 10 21  2  0  0  0  0
 11 13  1  0  0  0  0
 11 14  2  0  0  0  0
 12 15  2  0  0  0  0
 12 17  1  4  0  0  0
 13 21  1  0  0  0  0
 14 22  1  0  0  0  0
 15 24  1  0  0  0  0
 16 25  1  0  0  0  0
 17 18  2  0  0  0  0
 18 19  1  0  0  0  0
 19 22  1  0  0  0  0
 19 23  2  0  0  0  0
  2 26  1  0  0  0  0
  3 27  1  0  0  0  0
  4 28  1  0  0  0  0
  5 29  1  0  0  0  0
  6 30  1  0  0  0  0
  7 31  1  0  0  0  0
  8 32  1  0  0  0  0
  9 33  1  0  0  0  0
 10 34  1  0  0  0  0
 17 35  1  0  0  0  0
 22 36  1  0  0  0  0
 24 37  1  0  0  0  0
M  END
> <Catalog ID>
Z56829627

> <MW>
394.221

> <MW (desalted)>
394.221

> <ClogP>
3.988

> <logS>
-5.47

> <HBD>
2

> <HBA>
4

> <TPSA>
86.01

> <RotBonds>
3

> <ROCS_ShapeQuery>
A71EV2A-x0451_0A_A71EV2A-x0310_0A_A71EV2A-x0416_0A_peptide

> <ROCS_TanimotoCombo>
0.551 

> <ROCS_ShapeTanimoto>
0.377 

> <ROCS_ColorTanimoto>
0.174 

> <ROCS_RefTversky>
0.331 

> <ROCS_RefColorTversky>
0.202 

> <ROCS_RefTverskyCombo>
0.533 

> <ROCS_FitTversky>
1.597 

> <ROCS_FitColorTversky>
0.558 

> <ROCS_FitTverskyCombo>
2.155 

> <ROCS_ColorScore>
-6.185

> <ROCS_Overlap>
2298.886

> <ROCS_Rank>
33                  

$$$$
untitled-dbase-309_305
  -OEChem-11132309573D

 45 49  0     1  0  0  0  0  0999 V2000
   13.4471   16.5803   25.3939 C   0  0  0  0  0  0  0  0  0  0  0  0
   11.8406   18.0398   24.3327 C   0  0  0  0  0  0  0  0  0  0  0  0
   13.6067   17.5058   26.4252 C   0  0  0  0  0  0  0  0  0  0  0  0
   12.0001   18.9653   25.3641 C   0  0  0  0  0  0  0  0  0  0  0  0
    9.9624   10.7258   23.0697 C   0  0  0  0  0  0  0  0  0  0  0  0
    8.4565   11.8916   24.5062 C   0  0  0  0  0  0  0  0  0  0  0  0
    9.6072   11.9126   23.7096 C   0  0  0  0  0  0  0  0  0  0  0  0
   12.5641   16.8474   24.3476 C   0  0  0  0  0  0  0  0  0  0  0  0
   12.8832   18.6982   26.4104 C   0  0  0  0  0  0  0  0  0  0  0  0
    9.1676    9.6001   23.2531 C   0  0  0  0  0  0  0  0  0  0  0  0
    7.7263   12.7840   25.3108 C   0  0  0  0  0  0  0  0  0  0  0  0
    7.7515   10.7018   24.6055 C   0  0  0  0  0  0  0  0  0  0  0  0
   12.9842   14.7236   23.1173 C   0  0  0  0  0  0  0  0  0  0  0  0
   10.4067   13.1125   23.5470 C   0  0  0  0  0  0  0  0  0  0  0  0
    8.6692    7.1387   22.6474 C   0  0  0  0  0  0  0  0  0  0  0  0
    9.9785    7.1493   23.3726 C   0  0  0  0  0  0  0  0  0  0  0  0
   11.3309   15.7733   22.3592 C   0  0  0  0  0  0  0  0  0  0  0  0
    9.5676    8.3416   22.5522 C   0  0  0  0  0  0  0  0  0  0  0  0
   11.9421   14.3922   22.0294 C   0  0  2  0  0  0  0  0  0  0  0  0
    8.0038   14.2046   25.5839 C   0  0  0  0  0  0  0  0  0  0  0  0
    8.0481    9.5309   24.0121 N   0  0  0  0  0  0  0  0  0  0  0  0
    6.6570   12.2067   25.8663 N   0  0  0  0  0  0  0  0  0  0  0  0
   12.4066   15.9340   23.3293 N   0  0  0  0  0  0  0  0  0  0  0  0
   11.0890   13.2657   22.3328 N   0  0  0  0  0  0  0  0  0  0  0  0
   13.9159   14.1508   23.6350 O   0  0  0  0  0  0  0  0  0  0  0  0
   10.4886   13.9498   24.4654 O   0  0  0  0  0  0  0  0  0  0  0  0
    6.6751   10.8918   25.4195 O   0  0  0  0  0  0  0  0  0  0  0  0
   13.0354   19.5867   27.4013 F   0  0  0  0  0  0  0  0  0  0  0  0
   14.0165   15.6546   25.4159 H   0  0  0  0  0  0  0  0  0  0  0  0
   11.1515   18.2595   23.5213 H   0  0  0  0  0  0  0  0  0  0  0  0
   14.2945   17.2986   27.2395 H   0  0  0  0  0  0  0  0  0  0  0  0
   11.4361   19.8932   25.3535 H   0  0  0  0  0  0  0  0  0  0  0  0
   10.8455   10.6845   22.4376 H   0  0  0  0  0  0  0  0  0  0  0  0
    8.5850    6.5113   21.7677 H   0  0  0  0  0  0  0  0  0  0  0  0
    7.7648    7.1965   23.2409 H   0  0  0  0  0  0  0  0  0  0  0  0
    9.9540    7.2162   24.4538 H   0  0  0  0  0  0  0  0  0  0  0  0
   10.7766    6.5284   22.9833 H   0  0  0  0  0  0  0  0  0  0  0  0
   11.3715   16.5044   21.5467 H   0  0  0  0  0  0  0  0  0  0  0  0
   10.3357   15.7677   22.8141 H   0  0  0  0  0  0  0  0  0  0  0  0
   10.0863    8.4867   21.6152 H   0  0  0  0  0  0  0  0  0  0  0  0
   12.3782   14.3168   21.0281 H   0  0  0  0  0  0  0  0  0  0  0  0
    7.5101   14.8583   24.8447 H   0  0  0  0  0  0  0  0  0  0  0  0
    7.6548   14.5125   26.5857 H   0  0  0  0  0  0  0  0  0  0  0  0
    9.0848   14.4305   25.5582 H   0  0  0  0  0  0  0  0  0  0  0  0
   11.0398   12.5246   21.6413 H   0  0  0  0  0  0  0  0  0  0  0  0
  1  3  2  0  0  0  0
  1  8  1  0  0  0  0
  2  4  1  0  0  0  0
  2  8  2  0  0  0  0
  3  9  1  0  0  0  0
  4  9  2  0  0  0  0
  5  7  2  0  0  0  0
  5 10  1  0  0  0  0
  6  7  1  0  0  0  0
  6 11  1  0  0  0  0
  6 12  2  0  0  0  0
  7 14  1  0  0  0  0
  8 23  1  0  0  0  0
  9 28  1  0  0  0  0
 10 18  1  0  0  0  0
 10 21  2  0  0  0  0
 11 20  1  0  0  0  0
 11 22  2  0  0  0  0
 12 21  1  0  0  0  0
 12 27  1  0  0  0  0
 13 19  1  0  0  0  0
 13 23  1  0  0  0  0
 13 25  2  0  0  0  0
 14 24  1  0  0  0  0
 14 26  2  0  0  0  0
 15 16  1  0  0  0  0
 15 18  1  0  0  0  0
 16 18  1  0  0  0  0
 17 19  1  0  0  0  0
 17 23  1  0  0  0  0
 19 24  1  0  0  0  0
 22 27  1  0  0  0  0
  1 29  1  0  0  0  0
  2 30  1  0  0  0  0
  3 31  1  0  0  0  0
  4 32  1  0  0  0  0
  5 33  1  0  0  0  0
 15 34  1  0  0  0  0
 15 35  1  0  0  0  0
 16 36  1  0  0  0  0
 16 37  1  0  0  0  0
 17 38  1  0  0  0  0
 17 39  1  0  0  0  0
 18 40  1  0  0  0  0
 19 41  1  0  0  0  0
 20 42  1  0  0  0  0
 20 43  1  0  0  0  0
 20 44  1  0  0  0  0
 24 45  1  0  0  0  0
M  END
> <Catalog ID>
Z1642274704

> <MW>
380.372

> <MW (desalted)>
380.372

> <ClogP>
3.551

> <logS>
-4.953

> <HBD>
1

> <HBA>
4

> <TPSA>
88.33

> <RotBonds>
4

> <ROCS_ShapeQuery>
A71EV2A-x0451_0A_A71EV2A-x0310_0A_A71EV2A-x0416_0A_peptide

> <ROCS_TanimotoCombo>
0.551 

> <ROCS_ShapeTanimoto>
0.345 

> <ROCS_ColorTanimoto>
0.206 

> <ROCS_RefTversky>
0.316 

> <ROCS_RefColorTversky>
0.228 

> <ROCS_RefTverskyCombo>
0.544 

> <ROCS_FitTversky>
1.368 

> <ROCS_FitColorTversky>
0.685 

> <ROCS_FitTverskyCombo>
2.053 

> <ROCS_ColorScore>
-6.958

> <ROCS_Overlap>
2199.925

> <ROCS_Rank>
34                  

$$$$
untitled-dbase-4984_203
  -OEChem-11132309573D

 47 49  0     1  0  0  0  0  0999 V2000
    5.9325   10.0072   25.4392 C   0  0  0  0  0  0  0  0  0  0  0  0
    6.4029   11.2929   25.5566 C   0  0  0  0  0  0  0  0  0  0  0  0
    7.7400   10.0479   24.2902 C   0  0  0  0  0  0  0  0  0  0  0  0
    9.7528   10.8630   23.2618 C   0  0  0  0  0  0  0  0  0  0  0  0
    8.4373   12.3839   24.6053 C   0  0  0  0  0  0  0  0  0  0  0  0
    8.8986    9.8406   23.4769 C   0  0  0  0  0  0  0  0  0  0  0  0
    9.5217   12.1775   23.8404 C   0  0  0  0  0  0  0  0  0  0  0  0
    5.8328   12.3841   26.2820 C   0  0  0  0  0  0  0  0  0  0  0  0
   10.4529   13.2967   23.6076 C   0  0  0  0  0  0  0  0  0  0  0  0
   12.4329   16.5723   19.9861 C   0  0  0  0  0  0  0  0  0  0  0  0
   13.4164   14.9141   18.5433 C   0  0  0  0  0  0  0  0  0  0  0  0
   13.4211   17.5964   19.4354 C   0  0  0  0  0  0  0  0  0  0  0  0
   14.3822   15.9770   18.0274 C   0  0  0  0  0  0  0  0  0  0  0  0
   14.6888   13.4694   24.5169 C   0  0  0  0  0  0  0  0  0  0  0  0
   12.0867   14.2273   20.4355 C   0  0  0  0  0  0  0  0  0  0  0  0
   13.4868   13.8096   22.5263 C   0  0  0  0  0  0  0  0  0  0  0  0
   12.1047   14.1554   21.9675 C   0  0  2  0  0  0  0  0  0  0  0  0
    6.7605    9.2438   24.6576 N   0  0  0  0  0  0  0  0  0  0  0  0
    7.5607   11.3239   24.8223 N   0  0  0  0  0  0  0  0  0  0  0  0
   13.0216   15.2272   19.9237 N   0  0  0  0  0  0  0  0  0  0  0  0
   11.1358   13.1761   22.4160 N   0  0  0  0  0  0  0  0  0  0  0  0
    4.7748   12.3095   26.9400 O   0  0  0  0  0  0  0  0  0  0  0  0
   10.5563   14.2039   24.4260 O   0  0  0  0  0  0  0  0  0  0  0  0
   13.7792   17.2699   18.0920 O   0  0  0  0  0  0  0  0  0  0  0  0
   13.4194   13.7550   23.9477 O   0  0  0  0  0  0  0  0  0  0  0  0
    9.1706    8.1455   22.7486 Br  0  0  0  0  0  0  0  0  0  0  0  0
    5.0382    9.5882   25.8782 H   0  0  0  0  0  0  0  0  0  0  0  0
   10.6394   10.7331   22.6480 H   0  0  0  0  0  0  0  0  0  0  0  0
    8.2023   13.3361   25.0671 H   0  0  0  0  0  0  0  0  0  0  0  0
    6.3622   13.3752   26.2648 H   0  0  0  0  0  0  0  0  0  0  0  0
   12.1900   16.8331   21.0225 H   0  0  0  0  0  0  0  0  0  0  0  0
   11.5056   16.6087   19.3996 H   0  0  0  0  0  0  0  0  0  0  0  0
   12.5323   14.8781   17.8936 H   0  0  0  0  0  0  0  0  0  0  0  0
   13.9095   13.9361   18.5013 H   0  0  0  0  0  0  0  0  0  0  0  0
   12.9605   18.5896   19.4256 H   0  0  0  0  0  0  0  0  0  0  0  0
   14.3264   17.6563   20.0515 H   0  0  0  0  0  0  0  0  0  0  0  0
   15.3207   15.9823   18.5954 H   0  0  0  0  0  0  0  0  0  0  0  0
   14.6308   15.7782   16.9801 H   0  0  0  0  0  0  0  0  0  0  0  0
   14.6013   13.4349   25.6056 H   0  0  0  0  0  0  0  0  0  0  0  0
   15.4033   14.2422   24.2224 H   0  0  0  0  0  0  0  0  0  0  0  0
   15.0326   12.4993   24.1503 H   0  0  0  0  0  0  0  0  0  0  0  0
   11.0773   14.4772   20.0873 H   0  0  0  0  0  0  0  0  0  0  0  0
   12.3368   13.2495   20.0073 H   0  0  0  0  0  0  0  0  0  0  0  0
   13.8327   12.8372   22.1590 H   0  0  0  0  0  0  0  0  0  0  0  0
   14.2267   14.5711   22.2619 H   0  0  0  0  0  0  0  0  0  0  0  0
   11.7676   15.1103   22.3897 H   0  0  0  0  0  0  0  0  0  0  0  0
   10.9526   12.3689   21.8296 H   0  0  0  0  0  0  0  0  0  0  0  0
  1  2  2  0  0  0  0
  1 18  1  0  0  0  0
  2  8  1  0  0  0  0
  2 19  1  0  0  0  0
  3  6  1  0  0  0  0
  3 18  2  0  0  0  0
  3 19  1  0  0  0  0
  4  6  2  0  0  0  0
  4  7  1  0  0  0  0
  5  7  2  0  0  0  0
  5 19  1  0  0  0  0
  6 26  1  0  0  0  0
  7  9  1  0  0  0  0
  8 22  2  0  0  0  0
  9 21  1  0  0  0  0
  9 23  2  0  0  0  0
 10 12  1  0  0  0  0
 10 20  1  0  0  0  0
 11 13  1  0  0  0  0
 11 20  1  0  0  0  0
 12 24  1  0  0  0  0
 13 24  1  0  0  0  0
 14 25  1  0  0  0  0
 15 17  1  0  0  0  0
 15 20  1  0  0  0  0
 16 17  1  0  0  0  0
 16 25  1  0  0  0  0
 17 21  1  0  0  0  0
  1 27  1  0  0  0  0
  4 28  1  0  0  0  0
  5 29  1  0  0  0  0
  8 30  1  0  0  0  0
 10 31  1  0  0  0  0
 10 32  1  0  0  0  0
 11 33  1  0  0  0  0
 11 34  1  0  0  0  0
 12 35  1  0  0  0  0
 12 36  1  0  0  0  0
 13 37  1  0  0  0  0
 13 38  1  0  0  0  0
 14 39  1  0  0  0  0
 14 40  1  0  0  0  0
 14 41  1  0  0  0  0
 15 42  1  0  0  0  0
 15 43  1  0  0  0  0
 16 44  1  0  0  0  0
 16 45  1  0  0  0  0
 17 46  1  0  0  0  0
 21 47  1  0  0  0  0
M  END
> <Catalog ID>
Z6507292636

> <MW>
425.277

> <MW (desalted)>
425.277

> <ClogP>
1.723

> <logS>
-2.471

> <HBD>
1

> <HBA>
6

> <TPSA>
85.17

> <RotBonds>
7

> <ROCS_ShapeQuery>
A71EV2A-x0451_0A_A71EV2A-x0310_0A_A71EV2A-x0416_0A_peptide

> <ROCS_TanimotoCombo>
0.551 

> <ROCS_ShapeTanimoto>
0.370 

> <ROCS_ColorTanimoto>
0.181 

> <ROCS_RefTversky>
0.327 

> <ROCS_RefColorTversky>
0.218 

> <ROCS_RefTverskyCombo>
0.545 

> <ROCS_FitTversky>
1.553 

> <ROCS_FitColorTversky>
0.514 

> <ROCS_FitTverskyCombo>
2.068 

> <ROCS_ColorScore>
-6.691

> <ROCS_Overlap>
2274.284

> <ROCS_Rank>
35                  

$$$$
untitled-dbase-7641_17334
  -OEChem-11132309573D

 36 37  0     0  0  0  0  0  0999 V2000
   12.2263   15.3716   19.0101 C   0  0  0  0  0  0  0  0  0  0  0  0
   12.0736   16.6844   19.4561 C   0  0  0  0  0  0  0  0  0  0  0  0
   12.3010   14.3264   19.9309 C   0  0  0  0  0  0  0  0  0  0  0  0
   11.9958   16.9520   20.8229 C   0  0  0  0  0  0  0  0  0  0  0  0
    8.6817   12.3963   24.6660 C   0  0  0  0  0  0  0  0  0  0  0  0
    8.8931   10.3150   23.5345 C   0  0  0  0  0  0  0  0  0  0  0  0
    7.1738   10.5940   25.0326 C   0  0  0  0  0  0  0  0  0  0  0  0
   12.2231   14.5940   21.2976 C   0  0  0  0  0  0  0  0  0  0  0  0
    9.3643   11.5995   23.7536 C   0  0  0  0  0  0  0  0  0  0  0  0
   12.0705   15.9068   21.7436 C   0  0  0  0  0  0  0  0  0  0  0  0
    7.5646   11.8914   25.3221 C   0  0  0  0  0  0  0  0  0  0  0  0
   11.0895   13.3439   23.1832 C   0  0  0  0  0  0  0  0  0  0  0  0
   13.2198   16.4494   23.7537 C   0  0  0  0  0  0  0  0  0  0  0  0
   12.3052   13.4630   22.2686 C   0  0  0  0  0  0  0  0  0  0  0  0
    7.8116    9.7899   24.1526 N   0  0  0  0  0  0  0  0  0  0  0  0
   10.5037   12.0857   23.0693 N   0  0  0  0  0  0  0  0  0  0  0  0
   10.7253   14.2709   23.8996 O   0  0  0  0  0  0  0  0  0  0  0  0
    4.4787   11.9092   26.4642 O   0  0  0  0  0  0  0  0  0  0  0  0
    5.0701   14.3751   26.5386 O   0  0  0  0  0  0  0  0  0  0  0  0
   11.9935   16.1855   23.0751 O   0  0  0  0  0  0  0  0  0  0  0  0
    6.8788   12.6460   26.2160 O   0  0  0  0  0  0  0  0  0  0  0  0
    5.0583   13.1352   24.4751 F   0  0  0  0  0  0  0  0  0  0  0  0
    5.2935   13.0315   26.0430 S   0  0  0  0  0  0  0  0  0  0  0  0
   12.2876   15.1627   17.9459 H   0  0  0  0  0  0  0  0  0  0  0  0
   12.0164   17.4979   18.7390 H   0  0  0  0  0  0  0  0  0  0  0  0
   12.4214   13.3072   19.5733 H   0  0  0  0  0  0  0  0  0  0  0  0
   11.8769   17.9767   21.1643 H   0  0  0  0  0  0  0  0  0  0  0  0
    9.0164   13.4105   24.8684 H   0  0  0  0  0  0  0  0  0  0  0  0
    9.3848    9.6455   22.8347 H   0  0  0  0  0  0  0  0  0  0  0  0
    6.3099   10.1484   25.5158 H   0  0  0  0  0  0  0  0  0  0  0  0
   13.0168   16.6563   24.8073 H   0  0  0  0  0  0  0  0  0  0  0  0
   13.7156   17.3070   23.2919 H   0  0  0  0  0  0  0  0  0  0  0  0
   13.8657   15.5717   23.6749 H   0  0  0  0  0  0  0  0  0  0  0  0
   12.4243   12.5076   21.7324 H   0  0  0  0  0  0  0  0  0  0  0  0
   13.2013   13.5691   22.9011 H   0  0  0  0  0  0  0  0  0  0  0  0
   10.9466   11.4406   22.4183 H   0  0  0  0  0  0  0  0  0  0  0  0
  1  2  1  0  0  0  0
  1  3  2  0  0  0  0
  2  4  2  0  0  0  0
  3  8  1  0  0  0  0
  4 10  1  0  0  0  0
  5  9  2  0  0  0  0
  5 11  1  0  0  0  0
  6  9  1  0  0  0  0
  6 15  2  0  0  0  0
  7 11  2  0  0  0  0
  7 15  1  0  0  0  0
  8 10  2  0  0  0  0
  8 14  1  0  0  0  0
  9 16  1  0  0  0  0
 10 20  1  0  0  0  0
 11 21  1  0  0  0  0
 12 14  1  0  0  0  0
 12 16  1  0  0  0  0
 12 17  2  0  0  0  0
 13 20  1  0  0  0  0
 18 23  2  0  0  0  0
 19 23  2  0  0  0  0
 21 23  1  0  0  0  0
 22 23  1  0  0  0  0
  1 24  1  0  0  0  0
  2 25  1  0  0  0  0
  3 26  1  0  0  0  0
  4 27  1  0  0  0  0
  5 28  1  0  0  0  0
  6 29  1  0  0  0  0
  7 30  1  0  0  0  0
 13 31  1  0  0  0  0
 13 32  1  0  0  0  0
 13 33  1  0  0  0  0
 14 34  1  0  0  0  0
 14 35  1  0  0  0  0
 16 36  1  0  0  0  0
M  END
> <Catalog ID>
Z4607528881

> <MW>
340.327

> <MW (desalted)>
340.327

> <ClogP>
0.373

> <logS>
-2.556

> <HBD>
1

> <HBA>
5

> <TPSA>
94.59

> <RotBonds>
6

> <ROCS_ShapeQuery>
A71EV2A-x0451_0A_A71EV2A-x0310_0A_A71EV2A-x0416_0A_peptide

> <ROCS_TanimotoCombo>
0.550 

> <ROCS_ShapeTanimoto>
0.326 

> <ROCS_ColorTanimoto>
0.224 

> <ROCS_RefTversky>
0.293 

> <ROCS_RefColorTversky>
0.238 

> <ROCS_RefTverskyCombo>
0.531 

> <ROCS_FitTversky>
1.532 

> <ROCS_FitColorTversky>
0.791 

> <ROCS_FitTverskyCombo>
2.323 

> <ROCS_ColorScore>
-7.272

> <ROCS_Overlap>
2034.178

> <ROCS_Rank>
36                  

$$$$
untitled-dbase-2786_4208
  -OEChem-11132309573D

 51 53  0     1  0  0  0  0  0999 V2000
    5.9684   11.7782   25.6191 C   0  0  0  0  0  0  0  0  0  0  0  0
    6.4350   10.6209   24.9979 C   0  0  0  0  0  0  0  0  0  0  0  0
    8.1142   12.8285   25.2688 C   0  0  0  0  0  0  0  0  0  0  0  0
    6.8065   12.8824   25.7524 C   0  0  0  0  0  0  0  0  0  0  0  0
    8.5973   11.6692   24.6426 C   0  0  0  0  0  0  0  0  0  0  0  0
    7.7404   10.5685   24.5006 C   0  0  0  0  0  0  0  0  0  0  0  0
   14.2171   16.7226   17.4205 C   0  0  0  0  0  0  0  0  0  0  0  0
   13.3154   15.9555   18.0368 C   0  0  0  0  0  0  0  0  0  0  0  0
    6.3213   14.0899   26.4017 C   0  0  0  0  0  0  0  0  0  0  0  0
   13.3176   15.8975   19.5134 C   0  0  0  0  0  0  0  0  0  0  0  0
   10.4335   13.7886   22.9897 C   0  0  0  0  0  0  0  0  0  0  0  0
    9.8592   16.6346   20.5381 C   0  0  0  0  0  0  0  0  0  0  0  0
    9.4530   15.5181   21.5005 C   0  0  0  0  0  0  0  0  0  0  0  0
   10.4292   10.1811   23.8391 C   0  0  0  0  0  0  0  0  0  0  0  0
   10.8687   16.1527   19.5047 C   0  0  0  0  0  0  0  0  0  0  0  0
   11.9374   14.9757   21.4327 C   0  0  0  0  0  0  0  0  0  0  0  0
    9.3010    9.4485   23.1258 C   0  0  0  0  0  0  0  0  0  0  0  0
   10.0165   11.6211   24.1411 C   0  0  1  0  0  0  0  0  0  0  0  0
   10.5238   14.4315   21.6401 C   0  0  1  0  0  0  0  0  0  0  0  0
    6.9795   15.9764   27.7055 C   0  0  0  0  0  0  0  0  0  0  0  0
   12.0956   15.6693   20.1449 N   0  0  0  0  0  0  0  0  0  0  0  0
   10.1469   12.4374   22.9512 N   0  0  0  0  0  0  0  0  0  0  0  0
    5.1406   14.4630   26.3940 O   0  0  0  0  0  0  0  0  0  0  0  0
   14.3927   16.0436   20.0964 O   0  0  0  0  0  0  0  0  0  0  0  0
   10.6120   14.4665   23.9949 O   0  0  0  0  0  0  0  0  0  0  0  0
    8.1138    9.3835   23.9206 O   0  0  0  0  0  0  0  0  0  0  0  0
    7.3330   14.7666   27.0265 O   0  0  0  0  0  0  0  0  0  0  0  0
    4.9495   11.8069   25.9964 H   0  0  0  0  0  0  0  0  0  0  0  0
    5.7736    9.7638   24.9002 H   0  0  0  0  0  0  0  0  0  0  0  0
    8.7683   13.6905   25.3847 H   0  0  0  0  0  0  0  0  0  0  0  0
   14.2653   16.8060   16.3399 H   0  0  0  0  0  0  0  0  0  0  0  0
   14.9360   17.2910   18.0012 H   0  0  0  0  0  0  0  0  0  0  0  0
   12.5825   15.3745   17.4925 H   0  0  0  0  0  0  0  0  0  0  0  0
    8.9642   17.0177   20.0274 H   0  0  0  0  0  0  0  0  0  0  0  0
   10.2805   17.4813   21.1004 H   0  0  0  0  0  0  0  0  0  0  0  0
    9.2150   15.9543   22.4816 H   0  0  0  0  0  0  0  0  0  0  0  0
    8.5253   15.0547   21.1322 H   0  0  0  0  0  0  0  0  0  0  0  0
   10.6320    9.6693   24.7893 H   0  0  0  0  0  0  0  0  0  0  0  0
   11.3542   10.1478   23.2520 H   0  0  0  0  0  0  0  0  0  0  0  0
   10.4555   15.3189   18.9242 H   0  0  0  0  0  0  0  0  0  0  0  0
   11.0876   16.9600   18.7985 H   0  0  0  0  0  0  0  0  0  0  0  0
   12.1939   15.6269   22.2734 H   0  0  0  0  0  0  0  0  0  0  0  0
   12.6605   14.1480   21.4315 H   0  0  0  0  0  0  0  0  0  0  0  0
    9.0599    9.9081   22.1597 H   0  0  0  0  0  0  0  0  0  0  0  0
    9.6086    8.4173   22.9226 H   0  0  0  0  0  0  0  0  0  0  0  0
   10.6941   12.0365   24.8823 H   0  0  0  0  0  0  0  0  0  0  0  0
   10.3319   13.6459   20.9106 H   0  0  0  0  0  0  0  0  0  0  0  0
    7.8720   16.4150   28.1585 H   0  0  0  0  0  0  0  0  0  0  0  0
    6.2361   15.7587   28.4765 H   0  0  0  0  0  0  0  0  0  0  0  0
    6.5575   16.6791   26.9832 H   0  0  0  0  0  0  0  0  0  0  0  0
   10.0217   11.9953   22.0455 H   0  0  0  0  0  0  0  0  0  0  0  0
  1  2  2  0  0  0  0
  1  4  1  0  0  0  0
  2  6  1  0  0  0  0
  3  4  2  0  0  0  0
  3  5  1  0  0  0  0
  4  9  1  0  0  0  0
  5  6  2  0  0  0  0
  5 18  1  0  0  0  0
  6 26  1  0  0  0  0
  7  8  2  0  0  0  0
  8 10  1  0  0  0  0
  9 23  2  0  0  0  0
  9 27  1  0  0  0  0
 10 21  1  0  0  0  0
 10 24  2  0  0  0  0
 11 19  1  0  0  0  0
 11 22  1  0  0  0  0
 11 25  2  0  0  0  0
 12 13  1  0  0  0  0
 12 15  1  0  0  0  0
 13 19  1  0  0  0  0
 14 17  1  0  0  0  0
 14 18  1  0  0  0  0
 15 21  1  0  0  0  0
 16 19  1  0  0  0  0
 16 21  1  0  0  0  0
 17 26  1  0  0  0  0
 18 22  1  0  0  0  0
 20 27  1  0  0  0  0
  1 28  1  0  0  0  0
  2 29  1  0  0  0  0
  3 30  1  0  0  0  0
  7 31  1  0  0  0  0
  7 32  1  0  0  0  0
  8 33  1  0  0  0  0
 12 34  1  0  0  0  0
 12 35  1  0  0  0  0
 13 36  1  0  0  0  0
 13 37  1  0  0  0  0
 14 38  1  0  0  0  0
 14 39  1  0  0  0  0
 15 40  1  0  0  0  0
 15 41  1  0  0  0  0
 16 42  1  0  0  0  0
 16 43  1  0  0  0  0
 17 44  1  0  0  0  0
 17 45  1  0  0  0  0
 18 46  1  0  0  0  0
 19 47  1  0  0  0  0
 20 48  1  0  0  0  0
 20 49  1  0  0  0  0
 20 50  1  0  0  0  0
 22 51  1  0  0  0  0
M  END
> <Catalog ID>
Z4248685943

> <MW>
372.415

> <MW (desalted)>
372.415

> <ClogP>
1.856

> <logS>
-3.981

> <HBD>
1

> <HBA>
4

> <TPSA>
84.94

> <RotBonds>
5

> <ROCS_ShapeQuery>
A71EV2A-x0451_0A_A71EV2A-x0310_0A_A71EV2A-x0416_0A_peptide

> <ROCS_TanimotoCombo>
0.550 

> <ROCS_ShapeTanimoto>
0.364 

> <ROCS_ColorTanimoto>
0.185 

> <ROCS_RefTversky>
0.325 

> <ROCS_RefColorTversky>
0.208 

> <ROCS_RefTverskyCombo>
0.534 

> <ROCS_FitTversky>
1.493 

> <ROCS_FitColorTversky>
0.628 

> <ROCS_FitTverskyCombo>
2.122 

> <ROCS_ColorScore>
-6.370

> <ROCS_Overlap>
2262.884

> <ROCS_Rank>
37                  

$$$$
untitled-dbase-5536_6615
  -OEChem-11132309573D

 48 50  0     0  0  0  0  0  0999 V2000
   11.7449   16.0170   22.8551 C   0  0  0  0  0  0  0  0  0  0  0  0
    9.3848    9.1206   23.4193 C   0  0  0  0  0  0  0  0  0  0  0  0
    6.8797   13.0961   25.1852 C   0  0  0  0  0  0  0  0  0  0  0  0
    7.9912   12.9567   24.3667 C   0  0  0  0  0  0  0  0  0  0  0  0
    8.2682    9.2947   24.2407 C   0  0  0  0  0  0  0  0  0  0  0  0
   10.0487   10.2274   22.9050 C   0  0  0  0  0  0  0  0  0  0  0  0
   13.9077   15.6524   20.5475 C   0  0  0  0  0  0  0  0  0  0  0  0
   12.7713   16.0033   18.0240 C   0  0  0  0  0  0  0  0  0  0  0  0
    6.2821   11.9428   25.6517 C   0  0  0  0  0  0  0  0  0  0  0  0
    8.4706   11.6810   24.0399 C   0  0  0  0  0  0  0  0  0  0  0  0
   12.6934   15.0397   20.2382 C   0  0  0  0  0  0  0  0  0  0  0  0
    7.7917   10.5618   24.5657 C   0  0  0  0  0  0  0  0  0  0  0  0
    9.5937   11.5061   23.2138 C   0  0  0  0  0  0  0  0  0  0  0  0
   14.5538   16.4406   19.5951 C   0  0  0  0  0  0  0  0  0  0  0  0
   12.1253   15.2151   18.9764 C   0  0  0  0  0  0  0  0  0  0  0  0
   13.9856   16.6160   18.3334 C   0  0  0  0  0  0  0  0  0  0  0  0
   12.0306   14.2155   21.2608 C   0  0  0  0  0  0  0  0  0  0  0  0
   11.6014   14.6517   22.4617 C   0  0  0  0  0  0  0  0  0  0  0  0
   10.9411   13.6290   23.3616 C   0  0  0  0  0  0  0  0  0  0  0  0
   16.2504   16.8063   21.2210 C   0  0  0  0  0  0  0  0  0  0  0  0
    9.7530   15.3722   18.9159 C   0  0  0  0  0  0  0  0  0  0  0  0
   13.9596   17.5116   16.1304 C   0  0  0  0  0  0  0  0  0  0  0  0
   11.8585   17.1257   23.1788 N   0  0  0  0  0  0  0  0  0  0  0  0
    6.7127   10.6939   25.3603 N   0  0  0  0  0  0  0  0  0  0  0  0
   10.2913   12.5940   22.6751 N   0  0  0  0  0  0  0  0  0  0  0  0
   10.9997   13.7466   24.5830 O   0  0  0  0  0  0  0  0  0  0  0  0
   15.7379   17.0361   19.9101 O   0  0  0  0  0  0  0  0  0  0  0  0
   10.9391   14.6278   18.6485 O   0  0  0  0  0  0  0  0  0  0  0  0
   14.6068   17.3833   17.3949 O   0  0  0  0  0  0  0  0  0  0  0  0
    9.7329    8.1190   23.1840 H   0  0  0  0  0  0  0  0  0  0  0  0
    6.4954   14.0748   25.4473 H   0  0  0  0  0  0  0  0  0  0  0  0
    8.4695   13.8593   23.9943 H   0  0  0  0  0  0  0  0  0  0  0  0
    7.7656    8.4113   24.6310 H   0  0  0  0  0  0  0  0  0  0  0  0
   10.9166   10.0815   22.2672 H   0  0  0  0  0  0  0  0  0  0  0  0
   14.3574   15.5251   21.5300 H   0  0  0  0  0  0  0  0  0  0  0  0
   12.3283   16.1396   17.0405 H   0  0  0  0  0  0  0  0  0  0  0  0
    5.4100   11.9897   26.2957 H   0  0  0  0  0  0  0  0  0  0  0  0
   11.8900   13.1818   20.9527 H   0  0  0  0  0  0  0  0  0  0  0  0
   17.1978   17.3375   21.3410 H   0  0  0  0  0  0  0  0  0  0  0  0
   16.4000   15.7342   21.3719 H   0  0  0  0  0  0  0  0  0  0  0  0
   15.5312   17.1786   21.9543 H   0  0  0  0  0  0  0  0  0  0  0  0
    8.8802   14.7913   18.6081 H   0  0  0  0  0  0  0  0  0  0  0  0
    9.7850   16.3186   18.3703 H   0  0  0  0  0  0  0  0  0  0  0  0
    9.6941   15.5738   19.9881 H   0  0  0  0  0  0  0  0  0  0  0  0
   14.5597   18.1485   15.4760 H   0  0  0  0  0  0  0  0  0  0  0  0
   12.9672   17.9474   16.2706 H   0  0  0  0  0  0  0  0  0  0  0  0
   13.8601   16.5212   15.6799 H   0  0  0  0  0  0  0  0  0  0  0  0
   10.3318   12.6391   21.6529 H   0  0  0  0  0  0  0  0  0  0  0  0
  1 18  1  0  0  0  0
  1 23  3  0  0  0  0
  2  5  1  0  0  0  0
  2  6  2  0  0  0  0
  3  4  2  0  0  0  0
  3  9  1  0  0  0  0
  4 10  1  0  0  0  0
  5 12  2  0  0  0  0
  6 13  1  0  0  0  0
  7 11  2  0  0  0  0
  7 14  1  0  0  0  0
  8 15  2  0  0  0  0
  8 16  1  0  0  0  0
  9 24  2  0  0  0  0
 10 12  1  0  0  0  0
 10 13  2  0  0  0  0
 11 15  1  0  0  0  0
 11 17  1  4  0  0  0
 12 24  1  0  0  0  0
 13 25  1  0  0  0  0
 14 16  2  0  0  0  0
 14 27  1  0  0  0  0
 15 28  1  0  0  0  0
 16 29  1  0  0  0  0
 17 18  2  0  0  0  0
 18 19  1  0  0  0  0
 19 25  1  0  0  0  0
 19 26  2  0  0  0  0
 20 27  1  0  0  0  0
 21 28  1  0  0  0  0
 22 29  1  0  0  0  0
  2 30  1  0  0  0  0
  3 31  1  0  0  0  0
  4 32  1  0  0  0  0
  5 33  1  0  0  0  0
  6 34  1  0  0  0  0
  7 35  1  0  0  0  0
  8 36  1  0  0  0  0
  9 37  1  0  0  0  0
 17 38  1  0  0  0  0
 20 39  1  0  0  0  0
 20 40  1  0  0  0  0
 20 41  1  0  0  0  0
 21 42  1  0  0  0  0
 21 43  1  0  0  0  0
 21 44  1  0  0  0  0
 22 45  1  0  0  0  0
 22 46  1  0  0  0  0
 22 47  1  0  0  0  0
 25 48  1  0  0  0  0
M  END
> <Catalog ID>
Z56966178

> <MW>
425.865

> <MW (desalted)>
389.404

> <ClogP>
3.145

> <logS>
-5.38

> <HBD>
1

> <HBA>
6

> <TPSA>
93.47

> <RotBonds>
6

> <ROCS_ShapeQuery>
A71EV2A-x0451_0A_A71EV2A-x0310_0A_A71EV2A-x0416_0A_peptide

> <ROCS_TanimotoCombo>
0.550 

> <ROCS_ShapeTanimoto>
0.375 

> <ROCS_ColorTanimoto>
0.174 

> <ROCS_RefTversky>
0.336 

> <ROCS_RefColorTversky>
0.202 

> <ROCS_RefTverskyCombo>
0.539 

> <ROCS_FitTversky>
1.446 

> <ROCS_FitColorTversky>
0.559 

> <ROCS_FitTverskyCombo>
2.005 

> <ROCS_ColorScore>
-6.196

> <ROCS_Overlap>
2341.973

> <ROCS_Rank>
38                  

$$$$
untitled-dbase-9393_1058
  -OEChem-11132309573D

 62 65  0     0  0  0  0  0  0999 V2000
    6.7938   13.2680   25.3737 C   0  0  0  0  0  0  0  0  0  0  0  0
   10.0425   16.5456   19.2289 C   0  0  0  0  0  0  0  0  0  0  0  0
    6.3526   12.1284   26.0348 C   0  0  0  0  0  0  0  0  0  0  0  0
   10.0799   17.5714   20.1733 C   0  0  0  0  0  0  0  0  0  0  0  0
    7.7311   13.1498   24.3516 C   0  0  0  0  0  0  0  0  0  0  0  0
   10.5862   15.2975   19.5329 C   0  0  0  0  0  0  0  0  0  0  0  0
    6.8493   10.8739   25.6724 C   0  0  0  0  0  0  0  0  0  0  0  0
   10.6610   17.3492   21.4217 C   0  0  0  0  0  0  0  0  0  0  0  0
    9.6483   10.4800   22.6260 C   0  0  0  0  0  0  0  0  0  0  0  0
    8.2306   11.8878   23.9873 C   0  0  0  0  0  0  0  0  0  0  0  0
    9.1746   11.7400   22.9622 C   0  0  0  0  0  0  0  0  0  0  0  0
   11.1674   15.0753   20.7813 C   0  0  0  0  0  0  0  0  0  0  0  0
    7.7870   10.7265   24.6540 C   0  0  0  0  0  0  0  0  0  0  0  0
   11.2048   16.1011   21.7258 C   0  0  0  0  0  0  0  0  0  0  0  0
    9.1555    9.4031   23.3346 C   0  0  0  0  0  0  0  0  0  0  0  0
   11.9056   12.8501   23.3306 C   0  0  0  0  0  0  0  0  0  0  0  0
   11.7494   13.4257   24.5489 C   0  0  0  0  0  0  0  0  0  0  0  0
   13.0085   11.8712   23.1048 C   0  0  0  0  0  0  0  0  0  0  0  0
   13.6865   12.1888   25.4576 C   0  0  0  0  0  0  0  0  0  0  0  0
    9.7017   12.8749   22.2059 C   0  0  0  0  0  0  0  0  0  0  0  0
   13.3641   17.2376   28.3150 C   0  0  0  0  0  0  0  0  0  0  0  0
   13.1614   16.1849   23.0750 C   0  0  0  0  0  0  0  0  0  0  0  0
   11.7480   13.7258   21.0909 C   0  0  0  0  0  0  0  0  0  0  0  0
   12.7751   15.8357   28.2968 C   0  0  0  0  0  0  0  0  0  0  0  0
   12.9568   15.1711   26.9303 C   0  0  0  0  0  0  0  0  0  0  0  0
   12.4289   13.7406   26.8995 C   0  0  0  0  0  0  0  0  0  0  0  0
    8.2449    9.5025   24.3300 N   0  0  0  0  0  0  0  0  0  0  0  0
   13.8106   11.6237   24.1962 N   0  0  0  0  0  0  0  0  0  0  0  0
   12.6283   13.0992   25.5980 N   0  0  0  0  0  0  0  0  0  0  0  0
   10.7234   14.3309   24.7443 N   0  0  0  0  0  0  0  0  0  0  0  0
   11.1027   13.1038   22.2525 N   0  0  0  0  0  0  0  0  0  0  0  0
   13.1738   11.3328   22.0123 O   0  0  0  0  0  0  0  0  0  0  0  0
   14.4715   11.8838   26.3592 O   0  0  0  0  0  0  0  0  0  0  0  0
    8.9341   13.5941   21.5626 O   0  0  0  0  0  0  0  0  0  0  0  0
   11.7694   15.9009   22.9495 O   0  0  0  0  0  0  0  0  0  0  0  0
    9.6770    7.8038   22.9970 Cl  0  0  0  0  0  0  0  0  0  0  0  0
    6.4094   14.2445   25.6520 H   0  0  0  0  0  0  0  0  0  0  0  0
    9.5905   16.7183   18.2564 H   0  0  0  0  0  0  0  0  0  0  0  0
    5.6219   12.2123   26.8339 H   0  0  0  0  0  0  0  0  0  0  0  0
    9.6572   18.5432   19.9359 H   0  0  0  0  0  0  0  0  0  0  0  0
    8.0591   14.0581   23.8520 H   0  0  0  0  0  0  0  0  0  0  0  0
   10.5534   14.5053   18.7897 H   0  0  0  0  0  0  0  0  0  0  0  0
    6.4871    9.9964   26.2052 H   0  0  0  0  0  0  0  0  0  0  0  0
   10.6873   18.1522   22.1533 H   0  0  0  0  0  0  0  0  0  0  0  0
   10.3798   10.3464   21.8349 H   0  0  0  0  0  0  0  0  0  0  0  0
   12.8987   17.8684   27.5508 H   0  0  0  0  0  0  0  0  0  0  0  0
   13.1972   17.7060   29.2901 H   0  0  0  0  0  0  0  0  0  0  0  0
   14.4428   17.2128   28.1304 H   0  0  0  0  0  0  0  0  0  0  0  0
   13.4842   15.9831   24.0993 H   0  0  0  0  0  0  0  0  0  0  0  0
   13.3446   17.2326   22.8236 H   0  0  0  0  0  0  0  0  0  0  0  0
   13.7183   15.5444   22.3871 H   0  0  0  0  0  0  0  0  0  0  0  0
   11.6298   13.0495   20.2372 H   0  0  0  0  0  0  0  0  0  0  0  0
   12.8200   13.7983   21.3024 H   0  0  0  0  0  0  0  0  0  0  0  0
   13.2616   15.2319   29.0716 H   0  0  0  0  0  0  0  0  0  0  0  0
   11.7109   15.8948   28.5512 H   0  0  0  0  0  0  0  0  0  0  0  0
   12.4530   15.7691   26.1608 H   0  0  0  0  0  0  0  0  0  0  0  0
   14.0242   15.1541   26.6786 H   0  0  0  0  0  0  0  0  0  0  0  0
   11.3594   13.7066   27.1301 H   0  0  0  0  0  0  0  0  0  0  0  0
   12.9565   13.1313   27.6402 H   0  0  0  0  0  0  0  0  0  0  0  0
   14.5695   10.9604   24.0665 H   0  0  0  0  0  0  0  0  0  0  0  0
   10.1325   14.5281   23.9771 H   0  0  0  0  0  0  0  0  0  0  0  0
   10.6323   14.7355   25.6414 H   0  0  0  0  0  0  0  0  0  0  0  0
  1  3  1  0  0  0  0
  1  5  2  0  0  0  0
  2  4  1  0  0  0  0
  2  6  2  0  0  0  0
  3  7  2  0  0  0  0
  4  8  2  0  0  0  0
  5 10  1  0  0  0  0
  6 12  1  0  0  0  0
  7 13  1  0  0  0  0
  8 14  1  0  0  0  0
  9 11  1  0  0  0  0
  9 15  2  0  0  0  0
 10 11  2  0  0  0  0
 10 13  1  0  0  0  0
 11 20  1  0  0  0  0
 12 14  2  0  0  0  0
 12 23  1  0  0  0  0
 13 27  2  0  0  0  0
 14 35  1  0  0  0  0
 15 27  1  0  0  0  0
 15 36  1  0  0  0  0
 16 17  2  0  0  0  0
 16 18  1  0  0  0  0
 16 31  1  0  0  0  0
 17 29  1  0  0  0  0
 17 30  1  0  0  0  0
 18 28  1  0  0  0  0
 18 32  2  0  0  0  0
 19 28  1  0  0  0  0
 19 29  1  0  0  0  0
 19 33  2  0  0  0  0
 20 31  1  0  0  0  0
 20 34  2  0  0  0  0
 21 24  1  0  0  0  0
 22 35  1  0  0  0  0
 23 31  1  0  0  0  0
 24 25  1  0  0  0  0
 25 26  1  0  0  0  0
 26 29  1  0  0  0  0
  1 37  1  0  0  0  0
  2 38  1  0  0  0  0
  3 39  1  0  0  0  0
  4 40  1  0  0  0  0
  5 41  1  0  0  0  0
  6 42  1  0  0  0  0
  7 43  1  0  0  0  0
  8 44  1  0  0  0  0
  9 45  1  0  0  0  0
 21 46  1  0  0  0  0
 21 47  1  0  0  0  0
 21 48  1  0  0  0  0
 22 49  1  0  0  0  0
 22 50  1  0  0  0  0
 22 51  1  0  0  0  0
 23 52  1  0  0  0  0
 23 53  1  0  0  0  0
 24 54  1  0  0  0  0
 24 55  1  0  0  0  0
 25 56  1  0  0  0  0
 25 57  1  0  0  0  0
 26 58  1  0  0  0  0
 26 59  1  0  0  0  0
 28 60  1  0  0  0  0
 30 61  1  0  0  0  0
 30 62  1  0  0  0  0
M  END
> <Catalog ID>
Z49515846

> <MW>
507.969

> <MW (desalted)>
507.969

> <ClogP>
4.104

> <logS>
-7.86

> <HBD>
2

> <HBA>
6

> <TPSA>
117.86

> <RotBonds>
8

> <ROCS_ShapeQuery>
A71EV2A-x0451_0A_A71EV2A-x0310_0A_A71EV2A-x0416_0A_peptide

> <ROCS_TanimotoCombo>
0.550 

> <ROCS_ShapeTanimoto>
0.392 

> <ROCS_ColorTanimoto>
0.157 

> <ROCS_RefTversky>
0.360 

> <ROCS_RefColorTversky>
0.198 

> <ROCS_RefTverskyCombo>
0.558 

> <ROCS_FitTversky>
1.297 

> <ROCS_FitColorTversky>
0.436 

> <ROCS_FitTverskyCombo>
1.734 

> <ROCS_ColorScore>
-6.083

> <ROCS_Overlap>
2511.721

> <ROCS_Rank>
39                  

$$$$
untitled-dbase-4389_167
  -OEChem-11132309573D

 54 57  0     0  0  0  0  0  0999 V2000
    4.6275   12.6139   28.2079 C   0  0  0  0  0  0  0  0  0  0  0  0
    5.1001   13.6090   27.3524 C   0  0  0  0  0  0  0  0  0  0  0  0
    5.0028   11.2855   28.0071 C   0  0  0  0  0  0  0  0  0  0  0  0
    5.9478   13.2758   26.2960 C   0  0  0  0  0  0  0  0  0  0  0  0
    5.8505   10.9523   26.9507 C   0  0  0  0  0  0  0  0  0  0  0  0
   12.1560   13.3363   22.6787 C   0  0  0  0  0  0  0  0  0  0  0  0
   12.1932   14.1829   21.5303 C   0  0  0  0  0  0  0  0  0  0  0  0
    6.3231   11.9475   26.0951 C   0  0  0  0  0  0  0  0  0  0  0  0
   13.4689   14.2621   21.0047 C   0  0  0  0  0  0  0  0  0  0  0  0
   13.3935   12.8057   22.9736 C   0  0  0  0  0  0  0  0  0  0  0  0
    9.0955   11.5085   23.7319 C   0  0  0  0  0  0  0  0  0  0  0  0
    8.5910   10.2753   23.8618 C   0  0  0  0  0  0  0  0  0  0  0  0
    8.1770   12.4221   24.4600 C   0  0  0  0  0  0  0  0  0  0  0  0
   10.9842   13.0481   23.4677 C   0  0  0  0  0  0  0  0  0  0  0  0
   13.0016   11.4044   24.9849 C   0  0  0  0  0  0  0  0  0  0  0  0
   11.0408   14.9358   20.9409 C   0  0  0  0  0  0  0  0  0  0  0  0
   13.8499   15.0434   19.7863 C   0  0  0  0  0  0  0  0  0  0  0  0
   11.3490   15.4266   19.5176 C   0  0  0  0  0  0  0  0  0  0  0  0
   12.7483   16.0528   19.4258 C   0  0  0  0  0  0  0  0  0  0  0  0
    9.1357    9.0099   23.2898 C   0  0  0  0  0  0  0  0  0  0  0  0
    6.2492    9.5023   24.1531 C   0  0  0  0  0  0  0  0  0  0  0  0
   13.7850   10.5113   25.9189 C   0  0  0  0  0  0  0  0  0  0  0  0
    7.1845   11.6092   25.0218 N   0  0  0  0  0  0  0  0  0  0  0  0
    7.4004   10.2862   24.5898 N   0  0  0  0  0  0  0  0  0  0  0  0
   13.8004   11.9603   23.9703 N   0  0  0  0  0  0  0  0  0  0  0  0
   10.2053   11.9340   23.0887 N   0  0  0  0  0  0  0  0  0  0  0  0
    8.3731   13.6217   24.5662 O   0  0  0  0  0  0  0  0  0  0  0  0
   10.6915   13.7463   24.4628 O   0  0  0  0  0  0  0  0  0  0  0  0
   11.8022   11.5913   25.1708 O   0  0  0  0  0  0  0  0  0  0  0  0
   14.5964   13.3266   21.8717 S   0  0  0  0  0  0  0  0  0  0  0  0
   14.3941   11.5166   27.2432 Cl  0  0  0  0  0  0  0  0  0  0  0  0
    3.9680   12.8730   29.0311 H   0  0  0  0  0  0  0  0  0  0  0  0
    4.8088   14.6435   27.5089 H   0  0  0  0  0  0  0  0  0  0  0  0
    4.6354   10.5109   28.6741 H   0  0  0  0  0  0  0  0  0  0  0  0
    6.3099   14.0600   25.6357 H   0  0  0  0  0  0  0  0  0  0  0  0
    6.1363    9.9136   26.8040 H   0  0  0  0  0  0  0  0  0  0  0  0
   10.1421   14.3090   20.9193 H   0  0  0  0  0  0  0  0  0  0  0  0
   10.8236   15.7990   21.5823 H   0  0  0  0  0  0  0  0  0  0  0  0
   14.7954   15.5761   19.9383 H   0  0  0  0  0  0  0  0  0  0  0  0
   13.9913   14.3484   18.9495 H   0  0  0  0  0  0  0  0  0  0  0  0
   11.2871   14.5842   18.8167 H   0  0  0  0  0  0  0  0  0  0  0  0
   10.5910   16.1558   19.2104 H   0  0  0  0  0  0  0  0  0  0  0  0
   12.8009   16.9118   20.1072 H   0  0  0  0  0  0  0  0  0  0  0  0
   12.9218   16.4365   18.4141 H   0  0  0  0  0  0  0  0  0  0  0  0
    9.8331    8.5539   23.9934 H   0  0  0  0  0  0  0  0  0  0  0  0
    9.6564    9.2182   22.3541 H   0  0  0  0  0  0  0  0  0  0  0  0
    8.3217    8.3118   23.0894 H   0  0  0  0  0  0  0  0  0  0  0  0
    5.4176    9.6470   24.8584 H   0  0  0  0  0  0  0  0  0  0  0  0
    5.9407    9.8318   23.1500 H   0  0  0  0  0  0  0  0  0  0  0  0
    6.5219    8.4371   24.1215 H   0  0  0  0  0  0  0  0  0  0  0  0
   14.6311   10.0238   25.4280 H   0  0  0  0  0  0  0  0  0  0  0  0
   13.1232    9.7429   26.3284 H   0  0  0  0  0  0  0  0  0  0  0  0
   14.7981   11.7042   23.9778 H   0  0  0  0  0  0  0  0  0  0  0  0
   10.4984   11.4003   22.2756 H   0  0  0  0  0  0  0  0  0  0  0  0
  1  2  1  0  0  0  0
  1  3  2  0  0  0  0
  2  4  2  0  0  0  0
  3  5  1  0  0  0  0
  4  8  1  0  0  0  0
  5  8  2  0  0  0  0
  6  7  1  0  0  0  0
  6 10  2  0  0  0  0
  6 14  1  0  0  0  0
  7  9  2  0  0  0  0
  7 16  1  0  0  0  0
  8 23  1  0  0  0  0
  9 17  1  0  0  0  0
  9 30  1  0  0  0  0
 10 25  1  0  0  0  0
 10 30  1  0  0  0  0
 11 12  2  0  0  0  0
 11 13  1  0  0  0  0
 11 26  1  0  0  0  0
 12 20  1  0  0  0  0
 12 24  1  0  0  0  0
 13 23  1  0  0  0  0
 13 27  2  0  0  0  0
 14 26  1  0  0  0  0
 14 28  2  0  0  0  0
 15 22  1  0  0  0  0
 15 25  1  0  0  0  0
 15 29  2  0  0  0  0
 16 18  1  0  0  0  0
 17 19  1  0  0  0  0
 18 19  1  0  0  0  0
 21 24  1  0  0  0  0
 22 31  1  0  0  0  0
 23 24  1  0  0  0  0
  1 32  1  0  0  0  0
  2 33  1  0  0  0  0
  3 34  1  0  0  0  0
  4 35  1  0  0  0  0
  5 36  1  0  0  0  0
 16 37  1  0  0  0  0
 16 38  1  0  0  0  0
 17 39  1  0  0  0  0
 17 40  1  0  0  0  0
 18 41  1  0  0  0  0
 18 42  1  0  0  0  0
 19 43  1  0  0  0  0
 19 44  1  0  0  0  0
 20 45  1  0  0  0  0
 20 46  1  0  0  0  0
 20 47  1  0  0  0  0
 21 48  1  0  0  0  0
 21 49  1  0  0  0  0
 21 50  1  0  0  0  0
 22 51  1  0  0  0  0
 22 52  1  0  0  0  0
 25 53  1  0  0  0  0
 26 54  1  0  0  0  0
M  END
> <Catalog ID>
Z56893166

> <MW>
458.961

> <MW (desalted)>
458.961

> <ClogP>
3.22

> <logS>
-5.67

> <HBD>
2

> <HBA>
4

> <TPSA>
81.75

> <RotBonds>
5

> <ROCS_ShapeQuery>
A71EV2A-x0451_0A_A71EV2A-x0310_0A_A71EV2A-x0416_0A_peptide

> <ROCS_TanimotoCombo>
0.549 

> <ROCS_ShapeTanimoto>
0.402 

> <ROCS_ColorTanimoto>
0.147 

> <ROCS_RefTversky>
0.356 

> <ROCS_RefColorTversky>
0.171 

> <ROCS_RefTverskyCombo>
0.527 

> <ROCS_FitTversky>
1.467 

> <ROCS_FitColorTversky>
0.515 

> <ROCS_FitTverskyCombo>
1.981 

> <ROCS_ColorScore>
-5.227

> <ROCS_Overlap>
2482.083

> <ROCS_Rank>
40                  

$$$$
untitled-dbase-10190_8317
  -OEChem-11132309573D

 46 48  0     1  0  0  0  0  0999 V2000
   10.2278   10.9779   22.7189 C   0  0  0  0  0  0  0  0  0  0  0  0
    9.5276    9.7800   22.7306 C   0  0  0  0  0  0  0  0  0  0  0  0
    6.7988   10.8109   25.2012 C   0  0  0  0  0  0  0  0  0  0  0  0
    6.6931   12.0419   25.8037 C   0  0  0  0  0  0  0  0  0  0  0  0
    7.9277   10.7153   24.3199 C   0  0  0  0  0  0  0  0  0  0  0  0
    9.8029   12.0580   23.4949 C   0  0  0  0  0  0  0  0  0  0  0  0
    8.3844    9.6387   23.5217 C   0  0  0  0  0  0  0  0  0  0  0  0
    8.6500   11.9123   24.2913 C   0  0  0  0  0  0  0  0  0  0  0  0
   14.0561   10.6169   23.5911 C   0  0  0  0  0  0  0  0  0  0  0  0
   14.4744   11.5612   24.4393 C   0  0  0  0  0  0  0  0  0  0  0  0
   10.5751   13.3266   23.4571 C   0  0  0  0  0  0  0  0  0  0  0  0
   13.7631   12.8645   24.5253 C   0  0  0  0  0  0  0  0  0  0  0  0
   12.3514   15.6918   18.4248 C   0  0  0  0  0  0  0  0  0  0  0  0
   13.7412   16.0503   18.9538 C   0  0  0  0  0  0  0  0  0  0  0  0
   11.5278   15.2804   19.6413 C   0  0  0  0  0  0  0  0  0  0  0  0
   13.6812   15.8552   20.4652 C   0  0  0  0  0  0  0  0  0  0  0  0
   12.5699   14.8285   20.6596 C   0  0  0  0  0  0  0  0  0  0  0  0
   13.1426   14.8268   23.1434 C   0  0  0  0  0  0  0  0  0  0  0  0
   12.0379   14.7838   22.0813 C   0  0  2  0  0  0  0  0  0  0  0  0
   11.2237   13.5971   22.2662 N   0  0  0  0  0  0  0  0  0  0  0  0
   13.7679   13.5352   23.3144 N   0  0  0  0  0  0  0  0  0  0  0  0
   10.6134   14.0358   24.4591 O   0  0  0  0  0  0  0  0  0  0  0  0
   13.2474   13.2679   25.5628 O   0  0  0  0  0  0  0  0  0  0  0  0
    7.7238    8.4718   23.5166 F   0  0  0  0  0  0  0  0  0  0  0  0
    7.9415   13.0982   25.3232 S   0  0  0  0  0  0  0  0  0  0  0  0
   11.1149   11.0658   22.0958 H   0  0  0  0  0  0  0  0  0  0  0  0
    9.8677    8.9463   22.1228 H   0  0  0  0  0  0  0  0  0  0  0  0
    6.0970   10.0059   25.3815 H   0  0  0  0  0  0  0  0  0  0  0  0
    5.9383   12.3685   26.5050 H   0  0  0  0  0  0  0  0  0  0  0  0
   14.5809    9.6690   23.5332 H   0  0  0  0  0  0  0  0  0  0  0  0
   13.1977   10.7527   22.9425 H   0  0  0  0  0  0  0  0  0  0  0  0
   15.3380   11.3848   25.0714 H   0  0  0  0  0  0  0  0  0  0  0  0
   11.8881   16.5313   17.8964 H   0  0  0  0  0  0  0  0  0  0  0  0
   12.4278   14.8596   17.7154 H   0  0  0  0  0  0  0  0  0  0  0  0
   14.4887   15.3812   18.5122 H   0  0  0  0  0  0  0  0  0  0  0  0
   14.0247   17.0752   18.6945 H   0  0  0  0  0  0  0  0  0  0  0  0
   10.9650   16.1446   20.0155 H   0  0  0  0  0  0  0  0  0  0  0  0
   10.8090   14.4906   19.4018 H   0  0  0  0  0  0  0  0  0  0  0  0
   14.6385   15.5166   20.8731 H   0  0  0  0  0  0  0  0  0  0  0  0
   13.4255   16.8049   20.9511 H   0  0  0  0  0  0  0  0  0  0  0  0
   12.9415   13.8332   20.3826 H   0  0  0  0  0  0  0  0  0  0  0  0
   12.7306   15.1459   24.1074 H   0  0  0  0  0  0  0  0  0  0  0  0
   13.9070   15.5575   22.8577 H   0  0  0  0  0  0  0  0  0  0  0  0
   11.3909   15.6579   22.2364 H   0  0  0  0  0  0  0  0  0  0  0  0
   11.2006   12.9362   21.4999 H   0  0  0  0  0  0  0  0  0  0  0  0
   14.2487   13.1369   22.5132 H   0  0  0  0  0  0  0  0  0  0  0  0
  1  2  2  0  0  0  0
  1  6  1  0  0  0  0
  2  7  1  0  0  0  0
  3  4  2  0  0  0  0
  3  5  1  0  0  0  0
  4 25  1  0  0  0  0
  5  7  2  0  0  0  0
  5  8  1  0  0  0  0
  6  8  2  0  0  0  0
  6 11  1  0  0  0  0
  7 24  1  0  0  0  0
  8 25  1  0  0  0  0
  9 10  2  0  0  0  0
 10 12  1  0  0  0  0
 11 20  1  0  0  0  0
 11 22  2  0  0  0  0
 12 21  1  0  0  0  0
 12 23  2  0  0  0  0
 13 14  1  0  0  0  0
 13 15  1  0  0  0  0
 14 16  1  0  0  0  0
 15 17  1  0  0  0  0
 16 17  1  0  0  0  0
 17 19  1  0  0  0  0
 18 19  1  0  0  0  0
 18 21  1  0  0  0  0
 19 20  1  0  0  0  0
  1 26  1  0  0  0  0
  2 27  1  0  0  0  0
  3 28  1  0  0  0  0
  4 29  1  0  0  0  0
  9 30  1  0  0  0  0
  9 31  1  0  0  0  0
 10 32  1  0  0  0  0
 13 33  1  0  0  0  0
 13 34  1  0  0  0  0
 14 35  1  0  0  0  0
 14 36  1  0  0  0  0
 15 37  1  0  0  0  0
 15 38  1  0  0  0  0
 16 39  1  0  0  0  0
 16 40  1  0  0  0  0
 17 41  1  0  0  0  0
 18 42  1  0  0  0  0
 18 43  1  0  0  0  0
 19 44  1  0  0  0  0
 20 45  1  0  0  0  0
 21 46  1  0  0  0  0
M  END
> <Catalog ID>
Z4425283220

> <MW>
360.446

> <MW (desalted)>
360.446

> <ClogP>
3.965

> <logS>
-6.426

> <HBD>
2

> <HBA>
2

> <TPSA>
58.2

> <RotBonds>
6

> <ROCS_ShapeQuery>
A71EV2A-x0451_0A_A71EV2A-x0310_0A_A71EV2A-x0416_0A_peptide

> <ROCS_TanimotoCombo>
0.549 

> <ROCS_ShapeTanimoto>
0.379 

> <ROCS_ColorTanimoto>
0.170 

> <ROCS_RefTversky>
0.331 

> <ROCS_RefColorTversky>
0.189 

> <ROCS_RefTverskyCombo>
0.519 

> <ROCS_FitTversky>
1.634 

> <ROCS_FitColorTversky>
0.627 

> <ROCS_FitTverskyCombo>
2.261 

> <ROCS_ColorScore>
-5.764

> <ROCS_Overlap>
2297.551

> <ROCS_Rank>
41                  

$$$$
untitled-dbase-3149_2598
  -OEChem-11132309573D

 48 49  0     1  0  0  0  0  0999 V2000
   13.2473   15.9900   21.1642 C   0  0  0  0  0  0  0  0  0  0  0  0
   12.0944   15.3066   19.1540 C   0  0  0  0  0  0  0  0  0  0  0  0
   14.3967   16.2480   20.4174 C   0  0  0  0  0  0  0  0  0  0  0  0
   13.2439   15.5647   18.4071 C   0  0  0  0  0  0  0  0  0  0  0  0
   12.0961   15.5192   20.5325 C   0  0  0  0  0  0  0  0  0  0  0  0
   14.3950   16.0354   19.0388 C   0  0  0  0  0  0  0  0  0  0  0  0
    5.0837   12.5217   29.9123 C   0  0  0  0  0  0  0  0  0  0  0  0
    5.7818   12.0344   28.8820 C   0  0  0  0  0  0  0  0  0  0  0  0
   10.7374   12.1157   23.4023 C   0  0  0  0  0  0  0  0  0  0  0  0
    5.2758   12.1846   27.4915 C   0  0  0  0  0  0  0  0  0  0  0  0
   10.7711   13.5722   23.1612 C   0  0  0  0  0  0  0  0  0  0  0  0
    9.5760   10.1586   24.3459 C   0  0  0  0  0  0  0  0  0  0  0  0
    8.5482   12.3693   24.6941 C   0  0  0  0  0  0  0  0  0  0  0  0
    8.1904    9.6149   24.0365 C   0  0  0  0  0  0  0  0  0  0  0  0
    7.1927   11.7238   24.3875 C   0  0  2  0  0  0  0  0  0  0  0  0
    5.9904   13.8936   24.8239 C   0  0  0  0  0  0  0  0  0  0  0  0
   10.8583   15.2420   21.3357 C   0  0  0  0  0  0  0  0  0  0  0  0
    6.0721   12.4109   25.1549 C   0  0  2  0  0  0  0  0  0  0  0  0
    9.6398   11.5972   24.0833 N   0  0  0  0  0  0  0  0  0  0  0  0
   10.8209   13.8804   21.8192 N   0  0  0  0  0  0  0  0  0  0  0  0
    6.3144   12.2556   26.6097 N   0  0  0  0  0  0  0  0  0  0  0  0
   11.6867   11.4467   22.9902 O   0  0  0  0  0  0  0  0  0  0  0  0
    4.0790   12.2353   27.2265 O   0  0  0  0  0  0  0  0  0  0  0  0
   10.7519   14.3544   24.1006 O   0  0  0  0  0  0  0  0  0  0  0  0
    7.2044   10.3432   24.7705 O   0  0  0  0  0  0  0  0  0  0  0  0
   15.4979   16.2857   18.3211 F   0  0  0  0  0  0  0  0  0  0  0  0
   13.2584   16.1579   22.2379 H   0  0  0  0  0  0  0  0  0  0  0  0
   11.2021   14.9403   18.6531 H   0  0  0  0  0  0  0  0  0  0  0  0
   15.2927   16.6151   20.9088 H   0  0  0  0  0  0  0  0  0  0  0  0
   13.2431   15.3988   17.3339 H   0  0  0  0  0  0  0  0  0  0  0  0
    5.4588   12.4073   30.9239 H   0  0  0  0  0  0  0  0  0  0  0  0
    4.1389   13.0387   29.7856 H   0  0  0  0  0  0  0  0  0  0  0  0
    6.7234   11.5238   29.0522 H   0  0  0  0  0  0  0  0  0  0  0  0
    9.8046   10.0282   25.4103 H   0  0  0  0  0  0  0  0  0  0  0  0
   10.3377    9.6260   23.7680 H   0  0  0  0  0  0  0  0  0  0  0  0
    8.5584   13.4092   24.3573 H   0  0  0  0  0  0  0  0  0  0  0  0
    8.7421   12.3628   25.7738 H   0  0  0  0  0  0  0  0  0  0  0  0
    7.9665    9.6622   22.9642 H   0  0  0  0  0  0  0  0  0  0  0  0
    8.1249    8.5663   24.3435 H   0  0  0  0  0  0  0  0  0  0  0  0
    6.9743   11.7921   23.3125 H   0  0  0  0  0  0  0  0  0  0  0  0
    6.9368   14.3951   25.0541 H   0  0  0  0  0  0  0  0  0  0  0  0
    5.1993   14.3798   25.4041 H   0  0  0  0  0  0  0  0  0  0  0  0
    5.7824   14.0558   23.7604 H   0  0  0  0  0  0  0  0  0  0  0  0
   10.8031   15.9094   22.2027 H   0  0  0  0  0  0  0  0  0  0  0  0
    9.9562   15.4100   20.7381 H   0  0  0  0  0  0  0  0  0  0  0  0
    5.1170   11.9304   24.9174 H   0  0  0  0  0  0  0  0  0  0  0  0
   10.8317   13.1217   21.1437 H   0  0  0  0  0  0  0  0  0  0  0  0
    7.2736   12.2402   26.8880 H   0  0  0  0  0  0  0  0  0  0  0  0
  1  3  2  0  0  0  0
  1  5  1  0  0  0  0
  2  4  1  0  0  0  0
  2  5  2  0  0  0  0
  3  6  1  0  0  0  0
  4  6  2  0  0  0  0
  5 17  1  0  0  0  0
  6 26  1  0  0  0  0
  7  8  2  0  0  0  0
  8 10  1  0  0  0  0
  9 11  1  0  0  0  0
  9 19  1  0  0  0  0
  9 22  2  0  0  0  0
 10 21  1  0  0  0  0
 10 23  2  0  0  0  0
 11 20  1  0  0  0  0
 11 24  2  0  0  0  0
 12 14  1  0  0  0  0
 12 19  1  0  0  0  0
 13 15  1  0  0  0  0
 13 19  1  0  0  0  0
 14 25  1  0  0  0  0
 15 18  1  0  0  0  0
 15 25  1  0  0  0  0
 16 18  1  0  0  0  0
 17 20  1  0  0  0  0
 18 21  1  0  0  0  0
  1 27  1  0  0  0  0
  2 28  1  0  0  0  0
  3 29  1  0  0  0  0
  4 30  1  0  0  0  0
  7 31  1  0  0  0  0
  7 32  1  0  0  0  0
  8 33  1  0  0  0  0
 12 34  1  0  0  0  0
 12 35  1  0  0  0  0
 13 36  1  0  0  0  0
 13 37  1  0  0  0  0
 14 38  1  0  0  0  0
 14 39  1  0  0  0  0
 15 40  1  0  0  0  0
 16 41  1  0  0  0  0
 16 42  1  0  0  0  0
 16 43  1  0  0  0  0
 17 44  1  0  0  0  0
 17 45  1  0  0  0  0
 18 46  1  0  0  0  0
 20 47  1  0  0  0  0
 21 48  1  0  0  0  0
M  END
> <Catalog ID>
Z3706163687

> <MW>
363.383

> <MW (desalted)>
363.383

> <ClogP>
1.251

> <logS>
-3.861

> <HBD>
2

> <HBA>
4

> <TPSA>
87.74

> <RotBonds>
6

> <ROCS_ShapeQuery>
A71EV2A-x0451_0A_A71EV2A-x0310_0A_A71EV2A-x0416_0A_peptide

> <ROCS_TanimotoCombo>
0.549 

> <ROCS_ShapeTanimoto>
0.357 

> <ROCS_ColorTanimoto>
0.191 

> <ROCS_RefTversky>
0.318 

> <ROCS_RefColorTversky>
0.214 

> <ROCS_RefTverskyCombo>
0.532 

> <ROCS_FitTversky>
1.525 

> <ROCS_FitColorTversky>
0.645 

> <ROCS_FitTverskyCombo>
2.170 

> <ROCS_ColorScore>
-6.537

> <ROCS_Overlap>
2211.911

> <ROCS_Rank>
42                  

$$$$
untitled-dbase-4333_3077
  -OEChem-11132309573D

 45 47  0     0  0  0  0  0  0999 V2000
   13.9019   16.4457   19.1892 B   0  0  0  0  0  0  0  0  0  0  0  0
    4.8300   13.9984   23.9741 C   0  0  0  0  0  0  0  0  0  0  0  0
   13.3478   15.7535   21.5621 C   0  0  0  0  0  0  0  0  0  0  0  0
   12.6092   15.0752   22.5316 C   0  0  0  0  0  0  0  0  0  0  0  0
    6.1274   13.4994   23.9425 C   0  0  0  0  0  0  0  0  0  0  0  0
   11.1822   14.1650   20.8076 C   0  0  0  0  0  0  0  0  0  0  0  0
    4.3542   14.4923   25.1780 C   0  0  0  0  0  0  0  0  0  0  0  0
    6.3302   14.0253   26.2531 C   0  0  0  0  0  0  0  0  0  0  0  0
   13.0036   15.6376   20.2153 C   0  0  0  0  0  0  0  0  0  0  0  0
   11.5264   14.2810   22.1544 C   0  0  0  0  0  0  0  0  0  0  0  0
   11.9208   14.8433   19.8381 C   0  0  0  0  0  0  0  0  0  0  0  0
    9.2845   11.5231   23.4498 C   0  0  0  0  0  0  0  0  0  0  0  0
    6.8985   13.5093   25.0995 C   0  0  0  0  0  0  0  0  0  0  0  0
    9.0970   10.1376   23.2857 C   0  0  0  0  0  0  0  0  0  0  0  0
    8.4592   11.8599   24.4947 C   0  0  0  0  0  0  0  0  0  0  0  0
   11.5061   14.6787   18.4466 C   0  0  0  0  0  0  0  0  0  0  0  0
   10.7571   13.5737   23.1657 C   0  0  0  0  0  0  0  0  0  0  0  0
    9.7389    9.2484   22.3009 C   0  0  0  0  0  0  0  0  0  0  0  0
    6.8882   10.5381   25.9423 C   0  0  0  0  0  0  0  0  0  0  0  0
    5.0735   14.5187   26.3224 N   0  0  0  0  0  0  0  0  0  0  0  0
    8.2214    9.6290   24.1567 N   0  0  0  0  0  0  0  0  0  0  0  0
    7.8515   10.7007   24.8783 N   0  0  0  0  0  0  0  0  0  0  0  0
   10.1247   12.4023   22.7210 N   0  0  0  0  0  0  0  0  0  0  0  0
   11.1546   15.6222   17.7394 O   0  0  0  0  0  0  0  0  0  0  0  0
   10.6488   14.0055   24.3219 O   0  0  0  0  0  0  0  0  0  0  0  0
   15.2264   16.6843   19.4686 O   0  0  0  0  0  0  0  0  0  0  0  0
   13.3608   16.9121   18.0149 O   0  0  0  0  0  0  0  0  0  0  0  0
    8.2096   13.0135   25.0980 O   0  0  0  0  0  0  0  0  0  0  0  0
    4.2109   14.0001   23.0843 H   0  0  0  0  0  0  0  0  0  0  0  0
   14.1864   16.3640   21.8924 H   0  0  0  0  0  0  0  0  0  0  0  0
   12.8849   15.1734   23.5787 H   0  0  0  0  0  0  0  0  0  0  0  0
    6.5318   13.1039   23.0151 H   0  0  0  0  0  0  0  0  0  0  0  0
   10.3374   13.5438   20.5166 H   0  0  0  0  0  0  0  0  0  0  0  0
    3.3484   14.8926   25.2541 H   0  0  0  0  0  0  0  0  0  0  0  0
    6.8860   14.0575   27.1849 H   0  0  0  0  0  0  0  0  0  0  0  0
   11.5174   13.6494   18.0351 H   0  0  0  0  0  0  0  0  0  0  0  0
   10.6776    8.8254   22.6969 H   0  0  0  0  0  0  0  0  0  0  0  0
    9.0870    8.4040   22.0158 H   0  0  0  0  0  0  0  0  0  0  0  0
    9.9810    9.7748   21.3608 H   0  0  0  0  0  0  0  0  0  0  0  0
    5.8907   10.6830   25.5192 H   0  0  0  0  0  0  0  0  0  0  0  0
    6.9812    9.5349   26.3674 H   0  0  0  0  0  0  0  0  0  0  0  0
    7.0845   11.2777   26.7236 H   0  0  0  0  0  0  0  0  0  0  0  0
   10.2908   12.1514   21.7495 H   0  0  0  0  0  0  0  0  0  0  0  0
   15.5143   16.3156   20.3201 H   0  0  0  0  0  0  0  0  0  0  0  0
   12.4201   16.6934   17.9092 H   0  0  0  0  0  0  0  0  0  0  0  0
  1  9  1  0  0  0  0
  1 26  1  0  0  0  0
  1 27  1  0  0  0  0
  2  5  2  0  0  0  0
  2  7  1  0  0  0  0
  3  4  2  0  0  0  0
  3  9  1  0  0  0  0
  4 10  1  0  0  0  0
  5 13  1  0  0  0  0
  6 10  2  0  0  0  0
  6 11  1  0  0  0  0
  7 20  2  0  0  0  0
  8 13  2  0  0  0  0
  8 20  1  0  0  0  0
  9 11  2  0  0  0  0
 10 17  1  0  0  0  0
 11 16  1  0  0  0  0
 12 14  1  0  0  0  0
 12 15  2  0  0  0  0
 12 23  1  0  0  0  0
 13 28  1  0  0  0  0
 14 18  1  0  0  0  0
 14 21  2  0  0  0  0
 15 22  1  0  0  0  0
 15 28  1  0  0  0  0
 16 24  2  0  0  0  0
 17 23  1  0  0  0  0
 17 25  2  0  0  0  0
 19 22  1  0  0  0  0
 21 22  1  0  0  0  0
  2 29  1  0  0  0  0
  3 30  1  0  0  0  0
  4 31  1  0  0  0  0
  5 32  1  0  0  0  0
  6 33  1  0  0  0  0
  7 34  1  0  0  0  0
  8 35  1  0  0  0  0
 16 36  1  0  0  0  0
 18 37  1  0  0  0  0
 18 38  1  0  0  0  0
 18 39  1  0  0  0  0
 19 40  1  0  0  0  0
 19 41  1  0  0  0  0
 19 42  1  0  0  0  0
 23 43  1  0  0  0  0
 26 44  1  0  0  0  0
 27 45  1  0  0  0  0
M  END
> <Catalog ID>
Z7158436855

> <MW>
380.162

> <MW (desalted)>
380.162

> <ClogP>
-0.098

> <logS>
-2.021

> <HBD>
3

> <HBA>
6

> <TPSA>
126.57

> <RotBonds>
6

> <ROCS_ShapeQuery>
A71EV2A-x0451_0A_A71EV2A-x0310_0A_A71EV2A-x0416_0A_peptide

> <ROCS_TanimotoCombo>
0.548 

> <ROCS_ShapeTanimoto>
0.368 

> <ROCS_ColorTanimoto>
0.181 

> <ROCS_RefTversky>
0.330 

> <ROCS_RefColorTversky>
0.204 

> <ROCS_RefTverskyCombo>
0.534 

> <ROCS_FitTversky>
1.452 

> <ROCS_FitColorTversky>
0.615 

> <ROCS_FitTverskyCombo>
2.067 

> <ROCS_ColorScore>
-6.235

> <ROCS_Overlap>
2295.214

> <ROCS_Rank>
43                  

$$$$
untitled-dbase-2120_13130
  -OEChem-11132309573D

 40 41  0     0  0  0  0  0  0999 V2000
   15.0793   16.7528   17.6048 C   0  0  0  0  0  0  0  0  0  0  0  0
   13.5928   14.9777   18.3936 C   0  0  0  0  0  0  0  0  0  0  0  0
   13.8281   17.0025   19.6905 C   0  0  0  0  0  0  0  0  0  0  0  0
   12.6951   14.4778   19.3369 C   0  0  0  0  0  0  0  0  0  0  0  0
   12.9303   16.5026   20.6339 C   0  0  0  0  0  0  0  0  0  0  0  0
    8.2266   12.3337   24.2252 C   0  0  0  0  0  0  0  0  0  0  0  0
    9.1640   10.2656   23.5175 C   0  0  0  0  0  0  0  0  0  0  0  0
    7.1942   10.2444   24.6996 C   0  0  0  0  0  0  0  0  0  0  0  0
   14.1593   16.2401   18.5704 C   0  0  0  0  0  0  0  0  0  0  0  0
    9.2417   11.6481   23.5673 C   0  0  0  0  0  0  0  0  0  0  0  0
   12.3638   15.2402   20.4570 C   0  0  0  0  0  0  0  0  0  0  0  0
    7.1796   11.6259   24.8050 C   0  0  0  0  0  0  0  0  0  0  0  0
   10.8768   13.5531   23.3603 C   0  0  0  0  0  0  0  0  0  0  0  0
   12.7859   12.8004   21.8637 C   0  0  0  0  0  0  0  0  0  0  0  0
   12.9953   14.9282   23.2032 C   0  0  0  0  0  0  0  0  0  0  0  0
   12.0423   13.9959   22.4580 C   0  0  0  0  0  0  0  0  0  0  0  0
   15.8265   17.1691   16.8205 N   0  0  0  0  0  0  0  0  0  0  0  0
    8.1628    9.5435   24.0687 N   0  0  0  0  0  0  0  0  0  0  0  0
   10.3201   12.3411   22.9661 N   0  0  0  0  0  0  0  0  0  0  0  0
   10.5245   14.2436   24.3144 O   0  0  0  0  0  0  0  0  0  0  0  0
    6.7452   12.7793   27.8560 O   0  0  0  0  0  0  0  0  0  0  0  0
    4.3851   12.0987   27.2212 O   0  0  0  0  0  0  0  0  0  0  0  0
   11.4839   14.7496   21.3822 O   0  0  0  0  0  0  0  0  0  0  0  0
    6.1757   12.2680   25.4519 O   0  0  0  0  0  0  0  0  0  0  0  0
    6.1843   10.5019   27.3133 F   0  0  0  0  0  0  0  0  0  0  0  0
    5.8205   12.0232   27.0348 S   0  0  0  0  0  0  0  0  0  0  0  0
   13.8415   14.3716   17.5257 H   0  0  0  0  0  0  0  0  0  0  0  0
   14.2613   17.9883   19.8425 H   0  0  0  0  0  0  0  0  0  0  0  0
   12.2572   13.4936   19.1943 H   0  0  0  0  0  0  0  0  0  0  0  0
   12.6767   17.1014   21.5044 H   0  0  0  0  0  0  0  0  0  0  0  0
    8.2473   13.4187   24.2883 H   0  0  0  0  0  0  0  0  0  0  0  0
    9.9273    9.6753   23.0189 H   0  0  0  0  0  0  0  0  0  0  0  0
    6.4030    9.6414   25.1342 H   0  0  0  0  0  0  0  0  0  0  0  0
   13.6170   13.1054   21.2202 H   0  0  0  0  0  0  0  0  0  0  0  0
   12.1068   12.1731   21.2752 H   0  0  0  0  0  0  0  0  0  0  0  0
   13.1932   12.1638   22.6578 H   0  0  0  0  0  0  0  0  0  0  0  0
   13.8224   15.2394   22.5550 H   0  0  0  0  0  0  0  0  0  0  0  0
   13.4184   14.4628   24.0988 H   0  0  0  0  0  0  0  0  0  0  0  0
   12.4778   15.8440   23.5124 H   0  0  0  0  0  0  0  0  0  0  0  0
   10.7228   11.8822   22.1529 H   0  0  0  0  0  0  0  0  0  0  0  0
  1  9  1  0  0  0  0
  1 17  3  0  0  0  0
  2  4  2  0  0  0  0
  2  9  1  0  0  0  0
  3  5  1  0  0  0  0
  3  9  2  0  0  0  0
  4 11  1  0  0  0  0
  5 11  2  0  0  0  0
  6 10  2  0  0  0  0
  6 12  1  0  0  0  0
  7 10  1  0  0  0  0
  7 18  2  0  0  0  0
  8 12  2  0  0  0  0
  8 18  1  0  0  0  0
 10 19  1  0  0  0  0
 11 23  1  0  0  0  0
 12 24  1  0  0  0  0
 13 16  1  0  0  0  0
 13 19  1  0  0  0  0
 13 20  2  0  0  0  0
 14 16  1  0  0  0  0
 15 16  1  0  0  0  0
 16 23  1  0  0  0  0
 21 26  2  0  0  0  0
 22 26  2  0  0  0  0
 24 26  1  0  0  0  0
 25 26  1  0  0  0  0
  2 27  1  0  0  0  0
  3 28  1  0  0  0  0
  4 29  1  0  0  0  0
  5 30  1  0  0  0  0
  6 31  1  0  0  0  0
  7 32  1  0  0  0  0
  8 33  1  0  0  0  0
 14 34  1  0  0  0  0
 14 35  1  0  0  0  0
 14 36  1  0  0  0  0
 15 37  1  0  0  0  0
 15 38  1  0  0  0  0
 15 39  1  0  0  0  0
 19 40  1  0  0  0  0
M  END
> <Catalog ID>
Z4607528864

> <MW>
379.363

> <MW (desalted)>
379.363

> <ClogP>
0.808

> <logS>
-3.856

> <HBD>
1

> <HBA>
6

> <TPSA>
118.38

> <RotBonds>
6

> <ROCS_ShapeQuery>
A71EV2A-x0451_0A_A71EV2A-x0310_0A_A71EV2A-x0416_0A_peptide

> <ROCS_TanimotoCombo>
0.548 

> <ROCS_ShapeTanimoto>
0.349 

> <ROCS_ColorTanimoto>
0.199 

> <ROCS_RefTversky>
0.313 

> <ROCS_RefColorTversky>
0.226 

> <ROCS_RefTverskyCombo>
0.539 

> <ROCS_FitTversky>
1.491 

> <ROCS_FitColorTversky>
0.624 

> <ROCS_FitTverskyCombo>
2.115 

> <ROCS_ColorScore>
-6.916

> <ROCS_Overlap>
2178.532

> <ROCS_Rank>
44                  

$$$$
untitled-dbase-5296_1141
  -OEChem-11132309573D

 42 44  0     0  0  0  0  0  0999 V2000
    8.1021    6.1494   21.7550 C   0  0  0  0  0  0  0  0  0  0  0  0
    7.0722    7.0899   21.7363 C   0  0  0  0  0  0  0  0  0  0  0  0
    9.3480    6.4897   22.2820 C   0  0  0  0  0  0  0  0  0  0  0  0
    7.0071   10.0380   25.0991 C   0  0  0  0  0  0  0  0  0  0  0  0
    7.2881    8.3707   22.2446 C   0  0  0  0  0  0  0  0  0  0  0  0
    9.5639    7.7706   22.7903 C   0  0  0  0  0  0  0  0  0  0  0  0
    6.4803   10.8519   26.1060 C   0  0  0  0  0  0  0  0  0  0  0  0
    8.0199   12.6436   25.5434 C   0  0  0  0  0  0  0  0  0  0  0  0
    8.5670   11.8414   24.5224 C   0  0  0  0  0  0  0  0  0  0  0  0
    9.6017   12.0266   23.5631 C   0  0  0  0  0  0  0  0  0  0  0  0
    8.0491   10.5597   24.3242 C   0  0  0  0  0  0  0  0  0  0  0  0
    8.5340    8.7111   22.7717 C   0  0  0  0  0  0  0  0  0  0  0  0
    6.9773   12.1349   26.3265 C   0  0  0  0  0  0  0  0  0  0  0  0
    9.6903   10.8752   22.8153 C   0  0  0  0  0  0  0  0  0  0  0  0
   10.4276   13.1869   23.3753 C   0  0  0  0  0  0  0  0  0  0  0  0
   10.5985   10.5436   21.6930 C   0  0  0  0  0  0  0  0  0  0  0  0
   10.7794   15.6328   21.3788 C   0  0  0  0  0  0  0  0  0  0  0  0
   11.6581   14.4584   21.7535 C   0  0  0  0  0  0  0  0  0  0  0  0
    8.7498    9.9964   23.2816 N   0  0  0  0  0  0  0  0  0  0  0  0
   10.7610   13.9844   24.2759 O   0  0  0  0  0  0  0  0  0  0  0  0
    4.6561   14.4638   26.4574 O   0  0  0  0  0  0  0  0  0  0  0  0
    4.0349   12.1581   27.3141 O   0  0  0  0  0  0  0  0  0  0  0  0
    6.4424   12.9055   27.3153 O   0  0  0  0  0  0  0  0  0  0  0  0
   10.8271   13.3359   22.0682 O   0  0  0  0  0  0  0  0  0  0  0  0
    4.6423   13.9452   28.8083 F   0  0  0  0  0  0  0  0  0  0  0  0
    4.8661   13.3447   27.3544 S   0  0  0  0  0  0  0  0  0  0  0  0
    7.9340    5.1514   21.3610 H   0  0  0  0  0  0  0  0  0  0  0  0
    6.1017    6.8247   21.3272 H   0  0  0  0  0  0  0  0  0  0  0  0
   10.1490    5.7563   22.2975 H   0  0  0  0  0  0  0  0  0  0  0  0
    6.6141    9.0400   24.9355 H   0  0  0  0  0  0  0  0  0  0  0  0
    6.4766    9.0941   22.2248 H   0  0  0  0  0  0  0  0  0  0  0  0
   10.5396    8.0223   23.1989 H   0  0  0  0  0  0  0  0  0  0  0  0
    5.6705   10.4704   26.7241 H   0  0  0  0  0  0  0  0  0  0  0  0
    8.4006   13.6454   25.7232 H   0  0  0  0  0  0  0  0  0  0  0  0
   11.5236   10.0758   22.0623 H   0  0  0  0  0  0  0  0  0  0  0  0
   10.1286    9.8492   20.9787 H   0  0  0  0  0  0  0  0  0  0  0  0
   10.8779   11.4390   21.1153 H   0  0  0  0  0  0  0  0  0  0  0  0
   10.1652   15.3975   20.5052 H   0  0  0  0  0  0  0  0  0  0  0  0
   10.1214   15.9035   22.2111 H   0  0  0  0  0  0  0  0  0  0  0  0
   11.3888   16.5147   21.1550 H   0  0  0  0  0  0  0  0  0  0  0  0
   12.2697   14.7003   22.6278 H   0  0  0  0  0  0  0  0  0  0  0  0
   12.3143   14.1887   20.9206 H   0  0  0  0  0  0  0  0  0  0  0  0
  1  2  1  0  0  0  0
  1  3  2  0  0  0  0
  2  5  2  0  0  0  0
  3  6  1  0  0  0  0
  4  7  2  0  0  0  0
  4 11  1  0  0  0  0
  5 12  1  0  0  0  0
  6 12  2  0  0  0  0
  7 13  1  0  0  0  0
  8  9  1  0  0  0  0
  8 13  2  0  0  0  0
  9 10  1  0  0  0  0
  9 11  2  0  0  0  0
 10 14  2  0  0  0  0
 10 15  1  0  0  0  0
 11 19  1  0  0  0  0
 12 19  1  0  0  0  0
 13 23  1  0  0  0  0
 14 16  1  0  0  0  0
 14 19  1  0  0  0  0
 15 20  2  0  0  0  0
 15 24  1  0  0  0  0
 17 18  1  0  0  0  0
 18 24  1  0  0  0  0
 21 26  2  0  0  0  0
 22 26  2  0  0  0  0
 23 26  1  0  0  0  0
 25 26  1  0  0  0  0
  1 27  1  0  0  0  0
  2 28  1  0  0  0  0
  3 29  1  0  0  0  0
  4 30  1  0  0  0  0
  5 31  1  0  0  0  0
  6 32  1  0  0  0  0
  7 33  1  0  0  0  0
  8 34  1  0  0  0  0
 16 35  1  0  0  0  0
 16 36  1  0  0  0  0
 16 37  1  0  0  0  0
 17 38  1  0  0  0  0
 17 39  1  0  0  0  0
 17 40  1  0  0  0  0
 18 41  1  0  0  0  0
 18 42  1  0  0  0  0
M  END
> <Catalog ID>
Z3489903987

> <MW>
377.387

> <MW (desalted)>
377.387

> <ClogP>
4.202

> <logS>
-4.825

> <HBD>
0

> <HBA>
3

> <TPSA>
74.6

> <RotBonds>
6

> <ROCS_ShapeQuery>
A71EV2A-x0451_0A_A71EV2A-x0310_0A_A71EV2A-x0416_0A_peptide

> <ROCS_TanimotoCombo>
0.548 

> <ROCS_ShapeTanimoto>
0.354 

> <ROCS_ColorTanimoto>
0.194 

> <ROCS_RefTversky>
0.317 

> <ROCS_RefColorTversky>
0.202 

> <ROCS_RefTverskyCombo>
0.519 

> <ROCS_FitTversky>
1.486 

> <ROCS_FitColorTversky>
0.840 

> <ROCS_FitTverskyCombo>
2.326 

> <ROCS_ColorScore>
-6.136

> <ROCS_Overlap>
2205.285

> <ROCS_Rank>
45                  

$$$$
untitled-dbase-11569_2023
  -OEChem-11132309573D

 58 62  0     0  0  0  0  0  0999 V2000
    3.9869   12.3685   29.1199 C   0  0  0  0  0  0  0  0  0  0  0  0
    3.9659   13.6335   28.5279 C   0  0  0  0  0  0  0  0  0  0  0  0
    7.8319    9.7822   24.3403 C   0  0  0  0  0  0  0  0  0  0  0  0
   12.8880   15.3062   22.9238 C   0  0  0  0  0  0  0  0  0  0  0  0
    4.7776   11.3390   28.5941 C   0  0  0  0  0  0  0  0  0  0  0  0
    4.7320   13.9162   27.3922 C   0  0  0  0  0  0  0  0  0  0  0  0
   13.7142   16.0688   22.0912 C   0  0  0  0  0  0  0  0  0  0  0  0
    8.7356    9.3774   23.3580 C   0  0  0  0  0  0  0  0  0  0  0  0
    8.6852   12.0379   24.1958 C   0  0  0  0  0  0  0  0  0  0  0  0
   11.6834   14.5185   21.0056 C   0  0  0  0  0  0  0  0  0  0  0  0
    7.8066   11.1125   24.7592 C   0  0  0  0  0  0  0  0  0  0  0  0
   11.8707   14.5336   22.3826 C   0  0  0  0  0  0  0  0  0  0  0  0
   12.4995   15.2906   20.1580 C   0  0  0  0  0  0  0  0  0  0  0  0
    5.5535   11.6053   27.4533 C   0  0  0  0  0  0  0  0  0  0  0  0
    5.5118   12.8758   26.8859 C   0  0  0  0  0  0  0  0  0  0  0  0
   13.5343   16.0905   20.6962 C   0  0  0  0  0  0  0  0  0  0  0  0
    9.5890   11.6331   23.2135 C   0  0  0  0  0  0  0  0  0  0  0  0
    9.6142   10.3028   22.7946 C   0  0  0  0  0  0  0  0  0  0  0  0
    6.8712   11.5297   25.7748 C   0  0  0  0  0  0  0  0  0  0  0  0
   13.7800   19.1943   21.6162 C   0  0  0  0  0  0  0  0  0  0  0  0
   14.9167   18.4960   21.5740 C   0  0  0  0  0  0  0  0  0  0  0  0
   11.0190   13.7327   23.2473 C   0  0  0  0  0  0  0  0  0  0  0  0
   15.2960   17.8222   20.3104 C   0  0  0  0  0  0  0  0  0  0  0  0
   12.2519   15.1899   18.6758 C   0  0  0  0  0  0  0  0  0  0  0  0
   12.8279   16.3853   17.9451 C   0  0  0  0  0  0  0  0  0  0  0  0
   14.2695   16.5953   18.3737 C   0  0  0  0  0  0  0  0  0  0  0  0
   11.7628    9.4231   22.2796 C   0  0  0  0  0  0  0  0  0  0  0  0
    6.4032   10.7830   26.7497 N   0  0  0  0  0  0  0  0  0  0  0  0
    6.3639   12.7987   25.8143 N   0  0  0  0  0  0  0  0  0  0  0  0
   14.3947   16.8623   19.8206 N   0  0  0  0  0  0  0  0  0  0  0  0
   10.4753   12.5851   22.6495 N   0  0  0  0  0  0  0  0  0  0  0  0
   10.7726   14.0709   24.4134 O   0  0  0  0  0  0  0  0  0  0  0  0
   16.3666   18.1538   19.8027 O   0  0  0  0  0  0  0  0  0  0  0  0
   10.4897    9.8872   21.8360 O   0  0  0  0  0  0  0  0  0  0  0  0
    3.3809   12.1791   30.0019 H   0  0  0  0  0  0  0  0  0  0  0  0
    3.3418   14.4137   28.9568 H   0  0  0  0  0  0  0  0  0  0  0  0
    7.1536    9.0489   24.7701 H   0  0  0  0  0  0  0  0  0  0  0  0
   13.0636   15.3155   23.9968 H   0  0  0  0  0  0  0  0  0  0  0  0
    4.7865   10.3593   29.0612 H   0  0  0  0  0  0  0  0  0  0  0  0
    4.7167   14.8974   26.9317 H   0  0  0  0  0  0  0  0  0  0  0  0
   14.5185   16.6061   22.5815 H   0  0  0  0  0  0  0  0  0  0  0  0
    8.7502    8.3396   23.0361 H   0  0  0  0  0  0  0  0  0  0  0  0
    8.6687   13.0770   24.5199 H   0  0  0  0  0  0  0  0  0  0  0  0
   10.8967   13.9006   20.5766 H   0  0  0  0  0  0  0  0  0  0  0  0
   13.4493   19.7093   22.5119 H   0  0  0  0  0  0  0  0  0  0  0  0
   13.1502   19.2625   20.7355 H   0  0  0  0  0  0  0  0  0  0  0  0
   15.5711   18.4052   22.4311 H   0  0  0  0  0  0  0  0  0  0  0  0
   12.7126   14.2651   18.3073 H   0  0  0  0  0  0  0  0  0  0  0  0
   11.1763   15.1332   18.4706 H   0  0  0  0  0  0  0  0  0  0  0  0
   12.7758   16.2193   16.8633 H   0  0  0  0  0  0  0  0  0  0  0  0
   12.2413   17.2880   18.1598 H   0  0  0  0  0  0  0  0  0  0  0  0
   14.8863   15.7176   18.1447 H   0  0  0  0  0  0  0  0  0  0  0  0
   14.6620   17.4397   17.7984 H   0  0  0  0  0  0  0  0  0  0  0  0
   12.3628    9.1226   21.4171 H   0  0  0  0  0  0  0  0  0  0  0  0
   11.6272    8.5752   22.9557 H   0  0  0  0  0  0  0  0  0  0  0  0
   12.2710   10.2319   22.8101 H   0  0  0  0  0  0  0  0  0  0  0  0
    6.5750   13.5495   25.1699 H   0  0  0  0  0  0  0  0  0  0  0  0
   10.7533   12.4142   21.6862 H   0  0  0  0  0  0  0  0  0  0  0  0
  1  2  1  0  0  0  0
  1  5  2  0  0  0  0
  2  6  2  0  0  0  0
  3  8  2  0  0  0  0
  3 11  1  0  0  0  0
  4  7  2  0  0  0  0
  4 12  1  0  0  0  0
  5 14  1  0  0  0  0
  6 15  1  0  0  0  0
  7 16  1  0  0  0  0
  8 18  1  0  0  0  0
  9 11  2  0  0  0  0
  9 17  1  0  0  0  0
 10 12  2  0  0  0  0
 10 13  1  0  0  0  0
 11 19  1  0  0  0  0
 12 22  1  0  0  0  0
 13 16  2  0  0  0  0
 13 24  1  0  0  0  0
 14 15  2  0  0  0  0
 14 28  1  0  0  0  0
 15 29  1  0  0  0  0
 16 30  1  0  0  0  0
 17 18  2  0  0  0  0
 17 31  1  0  0  0  0
 18 34  1  0  0  0  0
 19 28  2  0  0  0  0
 19 29  1  0  0  0  0
 20 21  2  0  0  0  0
 21 23  1  0  0  0  0
 22 31  1  0  0  0  0
 22 32  2  0  0  0  0
 23 30  1  0  0  0  0
 23 33  2  0  0  0  0
 24 25  1  0  0  0  0
 25 26  1  0  0  0  0
 26 30  1  0  0  0  0
 27 34  1  0  0  0  0
  1 35  1  0  0  0  0
  2 36  1  0  0  0  0
  3 37  1  0  0  0  0
  4 38  1  0  0  0  0
  5 39  1  0  0  0  0
  6 40  1  0  0  0  0
  7 41  1  0  0  0  0
  8 42  1  0  0  0  0
  9 43  1  0  0  0  0
 10 44  1  0  0  0  0
 20 45  1  0  0  0  0
 20 46  1  0  0  0  0
 21 47  1  0  0  0  0
 24 48  1  0  0  0  0
 24 49  1  0  0  0  0
 25 50  1  0  0  0  0
 25 51  1  0  0  0  0
 26 52  1  0  0  0  0
 26 53  1  0  0  0  0
 27 54  1  0  0  0  0
 27 55  1  0  0  0  0
 27 56  1  0  0  0  0
 29 57  1  0  0  0  0
 31 58  1  0  0  0  0
M  END
> <Catalog ID>
Z3756507097

> <MW>
452.504

> <MW (desalted)>
452.504

> <ClogP>
4.608

> <logS>
-7.381

> <HBD>
2

> <HBA>
4

> <TPSA>
87.32

> <RotBonds>
5

> <ROCS_ShapeQuery>
A71EV2A-x0451_0A_A71EV2A-x0310_0A_A71EV2A-x0416_0A_peptide

> <ROCS_TanimotoCombo>
0.548 

> <ROCS_ShapeTanimoto>
0.385 

> <ROCS_ColorTanimoto>
0.163 

> <ROCS_RefTversky>
0.352 

> <ROCS_RefColorTversky>
0.203 

> <ROCS_RefTverskyCombo>
0.556 

> <ROCS_FitTversky>
1.315 

> <ROCS_FitColorTversky>
0.448 

> <ROCS_FitTverskyCombo>
1.763 

> <ROCS_ColorScore>
-6.257

> <ROCS_Overlap>
2458.425

> <ROCS_Rank>
46                  

$$$$
untitled-dbase-4676_1900
  -OEChem-11132309573D

 56 59  0     0  0  0  0  0  0999 V2000
   13.3511   15.1566   18.7288 C   0  0  0  0  0  0  0  0  0  0  0  0
    6.5227   12.8926   25.7836 C   0  0  0  0  0  0  0  0  0  0  0  0
   14.0627   15.1227   19.9279 C   0  0  0  0  0  0  0  0  0  0  0  0
   11.9598   15.2564   18.7460 C   0  0  0  0  0  0  0  0  0  0  0  0
    6.2659   11.5930   26.2022 C   0  0  0  0  0  0  0  0  0  0  0  0
    7.4998   13.1234   24.8195 C   0  0  0  0  0  0  0  0  0  0  0  0
   13.3832   15.1886   21.1443 C   0  0  0  0  0  0  0  0  0  0  0  0
   11.2803   15.3223   19.9623 C   0  0  0  0  0  0  0  0  0  0  0  0
    6.9862   10.5277   25.6562 C   0  0  0  0  0  0  0  0  0  0  0  0
    9.9108   11.1763   22.7759 C   0  0  0  0  0  0  0  0  0  0  0  0
    8.2241   12.0517   24.2704 C   0  0  0  0  0  0  0  0  0  0  0  0
    9.2131   12.2555   23.2986 C   0  0  0  0  0  0  0  0  0  0  0  0
   11.9920   15.2884   21.1615 C   0  0  0  0  0  0  0  0  0  0  0  0
    7.9686   10.7296   24.6906 C   0  0  0  0  0  0  0  0  0  0  0  0
    9.5906    9.9199   23.2490 C   0  0  0  0  0  0  0  0  0  0  0  0
   11.8728   13.3383   23.6319 C   0  0  0  0  0  0  0  0  0  0  0  0
   12.1221   13.4586   24.9597 C   0  0  0  0  0  0  0  0  0  0  0  0
   12.6899   12.4063   22.8017 C   0  0  0  0  0  0  0  0  0  0  0  0
   13.9591   11.8102   24.8339 C   0  0  0  0  0  0  0  0  0  0  0  0
    9.5584   13.5826   22.7912 C   0  0  0  0  0  0  0  0  0  0  0  0
   16.9401   13.8359   26.8232 C   0  0  0  0  0  0  0  0  0  0  0  0
   11.2600   15.3591   22.4704 C   0  0  0  0  0  0  0  0  0  0  0  0
   13.3916   12.8605   26.9888 C   0  0  0  0  0  0  0  0  0  0  0  0
   14.6249   13.7175   27.2086 C   0  0  0  0  0  0  0  0  0  0  0  0
    8.6441    9.6802   24.1852 N   0  0  0  0  0  0  0  0  0  0  0  0
   13.6708   11.7178   23.4795 N   0  0  0  0  0  0  0  0  0  0  0  0
   13.1515   12.7044   25.5524 N   0  0  0  0  0  0  0  0  0  0  0  0
   11.3574   14.3257   25.7171 N   0  0  0  0  0  0  0  0  0  0  0  0
   10.8954   14.0280   22.9682 N   0  0  0  0  0  0  0  0  0  0  0  0
   12.4863   12.2755   21.5966 O   0  0  0  0  0  0  0  0  0  0  0  0
   14.8676   11.1367   25.3269 O   0  0  0  0  0  0  0  0  0  0  0  0
    8.6986   14.2713   22.2372 O   0  0  0  0  0  0  0  0  0  0  0  0
   15.7560   13.0727   26.6371 O   0  0  0  0  0  0  0  0  0  0  0  0
   10.3948    8.5202   22.6677 Cl  0  0  0  0  0  0  0  0  0  0  0  0
   13.8804   15.1066   17.7817 H   0  0  0  0  0  0  0  0  0  0  0  0
    5.9644   13.7228   26.2051 H   0  0  0  0  0  0  0  0  0  0  0  0
   15.1461   15.0460   19.9147 H   0  0  0  0  0  0  0  0  0  0  0  0
   11.4055   15.2840   17.8125 H   0  0  0  0  0  0  0  0  0  0  0  0
    5.5056   11.4045   26.9546 H   0  0  0  0  0  0  0  0  0  0  0  0
    7.6802   14.1503   24.5112 H   0  0  0  0  0  0  0  0  0  0  0  0
   13.9460   15.1613   22.0737 H   0  0  0  0  0  0  0  0  0  0  0  0
   10.1963   15.3998   19.9661 H   0  0  0  0  0  0  0  0  0  0  0  0
    6.7656    9.5188   26.0005 H   0  0  0  0  0  0  0  0  0  0  0  0
   10.6803   11.3151   22.0226 H   0  0  0  0  0  0  0  0  0  0  0  0
   17.7867   13.3119   26.3728 H   0  0  0  0  0  0  0  0  0  0  0  0
   17.1156   13.9831   27.8918 H   0  0  0  0  0  0  0  0  0  0  0  0
   16.8165   14.8075   26.3390 H   0  0  0  0  0  0  0  0  0  0  0  0
   11.8778   15.8466   23.2325 H   0  0  0  0  0  0  0  0  0  0  0  0
   10.3394   15.9444   22.3747 H   0  0  0  0  0  0  0  0  0  0  0  0
   13.5173   11.8648   27.4257 H   0  0  0  0  0  0  0  0  0  0  0  0
   12.5123   13.3378   27.4318 H   0  0  0  0  0  0  0  0  0  0  0  0
   14.8108   13.8387   28.2803 H   0  0  0  0  0  0  0  0  0  0  0  0
   14.5148   14.7062   26.7514 H   0  0  0  0  0  0  0  0  0  0  0  0
   14.2411   11.0771   22.9347 H   0  0  0  0  0  0  0  0  0  0  0  0
   10.6463   14.8338   25.2557 H   0  0  0  0  0  0  0  0  0  0  0  0
   11.5601   14.3942   26.6820 H   0  0  0  0  0  0  0  0  0  0  0  0
  1  3  1  0  0  0  0
  1  4  2  0  0  0  0
  2  5  1  0  0  0  0
  2  6  2  0  0  0  0
  3  7  2  0  0  0  0
  4  8  1  0  0  0  0
  5  9  2  0  0  0  0
  6 11  1  0  0  0  0
  7 13  1  0  0  0  0
  8 13  2  0  0  0  0
  9 14  1  0  0  0  0
 10 12  1  0  0  0  0
 10 15  2  0  0  0  0
 11 12  2  0  0  0  0
 11 14  1  0  0  0  0
 12 20  1  0  0  0  0
 13 22  1  0  0  0  0
 14 25  2  0  0  0  0
 15 25  1  0  0  0  0
 15 34  1  0  0  0  0
 16 17  2  0  0  0  0
 16 18  1  0  0  0  0
 16 29  1  0  0  0  0
 17 27  1  0  0  0  0
 17 28  1  0  0  0  0
 18 26  1  0  0  0  0
 18 30  2  0  0  0  0
 19 26  1  0  0  0  0
 19 27  1  0  0  0  0
 19 31  2  0  0  0  0
 20 29  1  0  0  0  0
 20 32  2  0  0  0  0
 21 33  1  0  0  0  0
 22 29  1  0  0  0  0
 23 24  1  0  0  0  0
 23 27  1  0  0  0  0
 24 33  1  0  0  0  0
  1 35  1  0  0  0  0
  2 36  1  0  0  0  0
  3 37  1  0  0  0  0
  4 38  1  0  0  0  0
  5 39  1  0  0  0  0
  6 40  1  0  0  0  0
  7 41  1  0  0  0  0
  8 42  1  0  0  0  0
  9 43  1  0  0  0  0
 10 44  1  0  0  0  0
 21 45  1  0  0  0  0
 21 46  1  0  0  0  0
 21 47  1  0  0  0  0
 22 48  1  0  0  0  0
 22 49  1  0  0  0  0
 23 50  1  0  0  0  0
 23 51  1  0  0  0  0
 24 52  1  0  0  0  0
 24 53  1  0  0  0  0
 26 54  1  0  0  0  0
 28 55  1  0  0  0  0
 28 56  1  0  0  0  0
M  END
> <Catalog ID>
Z49511436

> <MW>
479.916

> <MW (desalted)>
479.916

> <ClogP>
2.917

> <logS>
-6.818

> <HBD>
2

> <HBA>
6

> <TPSA>
117.86

> <RotBonds>
7

> <ROCS_ShapeQuery>
A71EV2A-x0451_0A_A71EV2A-x0310_0A_A71EV2A-x0416_0A_peptide

> <ROCS_TanimotoCombo>
0.547 

> <ROCS_ShapeTanimoto>
0.416 

> <ROCS_ColorTanimoto>
0.131 

> <ROCS_RefTversky>
0.372 

> <ROCS_RefColorTversky>
0.165 

> <ROCS_RefTverskyCombo>
0.537 

> <ROCS_FitTversky>
1.398 

> <ROCS_FitColorTversky>
0.390 

> <ROCS_FitTverskyCombo>
1.788 

> <ROCS_ColorScore>
-5.068

> <ROCS_Overlap>
2595.261

> <ROCS_Rank>
47                  

$$$$
untitled-dbase-8844_5637
  -OEChem-11132309573D

 49 52  0     1  0  0  0  0  0999 V2000
   13.6389   16.7647   18.4655 C   0  0  0  0  0  0  0  0  0  0  0  0
   14.7304   16.2936   19.2109 C   0  0  0  0  0  0  0  0  0  0  0  0
   12.3413   16.3442   18.7618 C   0  0  0  0  0  0  0  0  0  0  0  0
   14.5402   15.3966   20.2649 C   0  0  0  0  0  0  0  0  0  0  0  0
   12.1603   15.4649   19.8167 C   0  0  0  0  0  0  0  0  0  0  0  0
   13.2479   14.9960   20.5676 C   0  0  0  0  0  0  0  0  0  0  0  0
    9.3426   11.8919   23.8146 C   0  0  0  0  0  0  0  0  0  0  0  0
    9.5162   10.5441   23.6200 C   0  0  0  0  0  0  0  0  0  0  0  0
    7.6576   10.8103   24.5677 C   0  0  0  0  0  0  0  0  0  0  0  0
   10.1730   13.0819   23.4961 C   0  0  0  0  0  0  0  0  0  0  0  0
   13.5646   13.0914   23.7725 C   0  0  0  0  0  0  0  0  0  0  0  0
   10.8767   14.8500   20.2848 C   0  0  0  0  0  0  0  0  0  0  0  0
    5.5492   13.1238   25.8492 C   0  0  0  0  0  0  0  0  0  0  0  0
    4.6761   12.1780   26.6183 C   0  0  0  0  0  0  0  0  0  0  0  0
   12.7846   14.0158   21.6083 C   0  0  2  0  0  0  0  0  0  0  0  0
    6.0865   11.7777   26.2654 C   0  0  0  0  0  0  0  0  0  0  0  0
   11.2829   14.3699   21.6894 C   0  0  2  0  0  0  0  0  0  0  0  0
   10.6448    9.8340   23.0010 C   0  0  0  0  0  0  0  0  0  0  0  0
    6.3418   10.6900   25.2136 C   0  0  0  0  0  0  0  0  0  0  0  0
   14.3089   13.4577   25.0311 C   0  0  0  0  0  0  0  0  0  0  0  0
    8.4333    9.8561   24.1049 N   0  0  0  0  0  0  0  0  0  0  0  0
   10.4710   13.2789   22.1524 N   0  0  0  0  0  0  0  0  0  0  0  0
   13.4415   14.1482   22.8791 N   0  0  0  0  0  0  0  0  0  0  0  0
   10.5633   13.8033   24.4103 O   0  0  0  0  0  0  0  0  0  0  0  0
   13.1362   11.9549   23.5797 O   0  0  0  0  0  0  0  0  0  0  0  0
    8.1405   12.0753   24.4284 O   0  0  0  0  0  0  0  0  0  0  0  0
   13.2228   13.1896   26.4035 Cl  0  0  0  0  0  0  0  0  0  0  0  0
   13.8078   17.4565   17.6447 H   0  0  0  0  0  0  0  0  0  0  0  0
   15.7345   16.6245   18.9598 H   0  0  0  0  0  0  0  0  0  0  0  0
   11.5002   16.6979   18.1752 H   0  0  0  0  0  0  0  0  0  0  0  0
   15.3906   15.0245   20.8263 H   0  0  0  0  0  0  0  0  0  0  0  0
   10.0603   15.5767   20.3300 H   0  0  0  0  0  0  0  0  0  0  0  0
   10.6054   14.0181   19.6256 H   0  0  0  0  0  0  0  0  0  0  0  0
    5.3146   13.2881   24.8047 H   0  0  0  0  0  0  0  0  0  0  0  0
    5.9249   13.9980   26.3668 H   0  0  0  0  0  0  0  0  0  0  0  0
    4.4652   12.4142   27.6540 H   0  0  0  0  0  0  0  0  0  0  0  0
    3.8572   11.7055   26.0901 H   0  0  0  0  0  0  0  0  0  0  0  0
   12.9390   12.9945   21.2413 H   0  0  0  0  0  0  0  0  0  0  0  0
    6.8177   11.7533   27.0641 H   0  0  0  0  0  0  0  0  0  0  0  0
   11.1267   15.1971   22.3969 H   0  0  0  0  0  0  0  0  0  0  0  0
   11.4116    9.5656   23.7492 H   0  0  0  0  0  0  0  0  0  0  0  0
   10.3296    8.8993   22.5015 H   0  0  0  0  0  0  0  0  0  0  0  0
   11.1428   10.4377   22.2198 H   0  0  0  0  0  0  0  0  0  0  0  0
    5.5203   10.7306   24.4694 H   0  0  0  0  0  0  0  0  0  0  0  0
    6.2200    9.7019   25.7030 H   0  0  0  0  0  0  0  0  0  0  0  0
   15.2105   12.8574   25.1756 H   0  0  0  0  0  0  0  0  0  0  0  0
   14.5858   14.5149   24.9948 H   0  0  0  0  0  0  0  0  0  0  0  0
   10.1604   12.5980   21.4615 H   0  0  0  0  0  0  0  0  0  0  0  0
   13.8330   15.0539   23.1356 H   0  0  0  0  0  0  0  0  0  0  0  0
  1  2  1  0  0  0  0
  1  3  2  0  0  0  0
  2  4  2  0  0  0  0
  3  5  1  0  0  0  0
  4  6  1  0  0  0  0
  5  6  2  0  0  0  0
  5 12  1  0  0  0  0
  6 15  1  0  0  0  0
  7  8  2  0  0  0  0
  7 10  1  0  0  0  0
  7 26  1  0  0  0  0
  8 18  1  0  0  0  0
  8 21  1  0  0  0  0
  9 19  1  0  0  0  0
  9 21  2  0  0  0  0
  9 26  1  0  0  0  0
 10 22  1  0  0  0  0
 10 24  2  0  0  0  0
 11 20  1  0  0  0  0
 11 23  1  0  0  0  0
 11 25  2  0  0  0  0
 12 17  1  0  0  0  0
 13 14  1  0  0  0  0
 13 16  1  0  0  0  0
 14 16  1  0  0  0  0
 15 17  1  0  0  0  0
 15 23  1  1  0  0  0
 16 19  1  0  0  0  0
 17 22  1  6  0  0  0
 20 27  1  0  0  0  0
  1 28  1  0  0  0  0
  2 29  1  0  0  0  0
  3 30  1  0  0  0  0
  4 31  1  0  0  0  0
 12 32  1  0  0  0  0
 12 33  1  0  0  0  0
 13 34  1  0  0  0  0
 13 35  1  0  0  0  0
 14 36  1  0  0  0  0
 14 37  1  0  0  0  0
 15 38  1  0  0  0  0
 16 39  1  0  0  0  0
 17 40  1  0  0  0  0
 18 41  1  0  0  0  0
 18 42  1  0  0  0  0
 18 43  1  0  0  0  0
 19 44  1  0  0  0  0
 19 45  1  0  0  0  0
 20 46  1  0  0  0  0
 20 47  1  0  0  0  0
 22 48  1  0  0  0  0
 23 49  1  0  0  0  0
M  END
> <Catalog ID>
Z4439378644

> <MW>
387.86

> <MW (desalted)>
387.86

> <ClogP>
2.315

> <logS>
-4.317

> <HBD>
2

> <HBA>
3

> <TPSA>
84.23

> <RotBonds>
6

> <ROCS_ShapeQuery>
A71EV2A-x0451_0A_A71EV2A-x0310_0A_A71EV2A-x0416_0A_peptide

> <ROCS_TanimotoCombo>
0.547 

> <ROCS_ShapeTanimoto>
0.370 

> <ROCS_ColorTanimoto>
0.177 

> <ROCS_RefTversky>
0.329 

> <ROCS_RefColorTversky>
0.196 

> <ROCS_RefTverskyCombo>
0.525 

> <ROCS_FitTversky>
1.508 

> <ROCS_FitColorTversky>
0.650 

> <ROCS_FitTverskyCombo>
2.158 

> <ROCS_ColorScore>
-5.979

> <ROCS_Overlap>
2287.016

> <ROCS_Rank>
48                  

$$$$
untitled-dbase-6062_8322
  -OEChem-11132309573D

 54 56  0     0  0  0  0  0  0999 V2000
   10.8667    6.4550   22.4518 C   0  0  0  0  0  0  0  0  0  0  0  0
    9.9116    5.8134   21.6633 C   0  0  0  0  0  0  0  0  0  0  0  0
   10.5913    7.7080   22.9995 C   0  0  0  0  0  0  0  0  0  0  0  0
    8.6812    6.4248   21.4224 C   0  0  0  0  0  0  0  0  0  0  0  0
    9.9165   10.6983   23.0171 C   0  0  0  0  0  0  0  0  0  0  0  0
    7.9097   13.0000   25.2449 C   0  0  0  0  0  0  0  0  0  0  0  0
    8.5532   12.0219   24.4608 C   0  0  0  0  0  0  0  0  0  0  0  0
    9.3610    8.3194   22.7586 C   0  0  0  0  0  0  0  0  0  0  0  0
    9.6459   11.9417   23.5886 C   0  0  0  0  0  0  0  0  0  0  0  0
    8.4059    7.6778   21.9701 C   0  0  0  0  0  0  0  0  0  0  0  0
    9.1003    9.6186   23.3375 C   0  0  0  0  0  0  0  0  0  0  0  0
    7.8219   10.8677   24.6937 C   0  0  0  0  0  0  0  0  0  0  0  0
    8.1732   16.4987   23.5829 C   0  0  0  0  0  0  0  0  0  0  0  0
    9.3662   17.0894   23.7008 C   0  0  0  0  0  0  0  0  0  0  0  0
   10.4666   13.0998   23.2877 C   0  0  0  0  0  0  0  0  0  0  0  0
   10.5473   16.5524   22.9736 C   0  0  0  0  0  0  0  0  0  0  0  0
    7.0764    8.3018   21.6899 C   0  0  0  0  0  0  0  0  0  0  0  0
    4.4077   10.7892   25.6797 C   0  0  0  0  0  0  0  0  0  0  0  0
    5.9215   10.2240   27.6278 C   0  0  0  0  0  0  0  0  0  0  0  0
   11.9311   14.2182   21.5838 C   0  0  0  0  0  0  0  0  0  0  0  0
   11.1565   15.3338   20.9025 C   0  0  0  0  0  0  0  0  0  0  0  0
    5.8110   10.3552   26.1076 C   0  0  0  0  0  0  0  0  0  0  0  0
    6.8611   12.5162   25.9191 N   0  0  0  0  0  0  0  0  0  0  0  0
    8.0344    9.6461   24.1738 N   0  0  0  0  0  0  0  0  0  0  0  0
    6.8327   11.2188   25.5642 N   0  0  0  0  0  0  0  0  0  0  0  0
   11.0686   13.1449   22.0231 N   0  0  0  0  0  0  0  0  0  0  0  0
   10.1911   15.9346   21.7826 N   0  0  0  0  0  0  0  0  0  0  0  0
   10.6351   13.9960   24.1360 O   0  0  0  0  0  0  0  0  0  0  0  0
   11.6913   16.6566   23.4044 O   0  0  0  0  0  0  0  0  0  0  0  0
   11.8245    5.9787   22.6396 H   0  0  0  0  0  0  0  0  0  0  0  0
   10.1262    4.8377   21.2372 H   0  0  0  0  0  0  0  0  0  0  0  0
   11.3471    8.1941   23.6121 H   0  0  0  0  0  0  0  0  0  0  0  0
    7.9441    5.9160   20.8067 H   0  0  0  0  0  0  0  0  0  0  0  0
   10.7537   10.5818   22.3334 H   0  0  0  0  0  0  0  0  0  0  0  0
    8.1584   14.0460   25.3555 H   0  0  0  0  0  0  0  0  0  0  0  0
    7.3164   16.8956   24.1174 H   0  0  0  0  0  0  0  0  0  0  0  0
    8.0136   15.6221   22.9647 H   0  0  0  0  0  0  0  0  0  0  0  0
    9.4829   17.9653   24.3297 H   0  0  0  0  0  0  0  0  0  0  0  0
    6.3515    8.0080   22.4571 H   0  0  0  0  0  0  0  0  0  0  0  0
    7.1489    9.3957   21.6761 H   0  0  0  0  0  0  0  0  0  0  0  0
    6.6944    7.9934   20.7095 H   0  0  0  0  0  0  0  0  0  0  0  0
    4.1517   11.7819   26.0648 H   0  0  0  0  0  0  0  0  0  0  0  0
    3.6569   10.0839   26.0519 H   0  0  0  0  0  0  0  0  0  0  0  0
    4.3258   10.8236   24.5876 H   0  0  0  0  0  0  0  0  0  0  0  0
    5.7564   11.1907   28.1161 H   0  0  0  0  0  0  0  0  0  0  0  0
    6.9178    9.8687   27.9116 H   0  0  0  0  0  0  0  0  0  0  0  0
    5.1886    9.5172   28.0314 H   0  0  0  0  0  0  0  0  0  0  0  0
   12.4701   14.5852   22.4630 H   0  0  0  0  0  0  0  0  0  0  0  0
   12.6551   13.7837   20.8875 H   0  0  0  0  0  0  0  0  0  0  0  0
   11.8383   16.1281   20.5833 H   0  0  0  0  0  0  0  0  0  0  0  0
   10.6168   14.9658   20.0241 H   0  0  0  0  0  0  0  0  0  0  0  0
    5.9855    9.3582   25.6827 H   0  0  0  0  0  0  0  0  0  0  0  0
   10.9510   12.3594   21.3915 H   0  0  0  0  0  0  0  0  0  0  0  0
    9.2071   15.8709   21.5251 H   0  0  0  0  0  0  0  0  0  0  0  0
  1  2  1  0  0  0  0
  1  3  2  0  0  0  0
  2  4  2  0  0  0  0
  3  8  1  0  0  0  0
  4 10  1  0  0  0  0
  5  9  2  0  0  0  0
  5 11  1  0  0  0  0
  6  7  1  0  0  0  0
  6 23  2  0  0  0  0
  7  9  1  0  0  0  0
  7 12  2  0  0  0  0
  8 10  2  0  0  0  0
  8 11  1  0  0  0  0
  9 15  1  0  0  0  0
 10 17  1  0  0  0  0
 11 24  2  0  0  0  0
 12 24  1  0  0  0  0
 12 25  1  0  0  0  0
 13 14  2  0  0  0  0
 14 16  1  0  0  0  0
 15 26  1  0  0  0  0
 15 28  2  0  0  0  0
 16 27  1  0  0  0  0
 16 29  2  0  0  0  0
 18 22  1  0  0  0  0
 19 22  1  0  0  0  0
 20 21  1  0  0  0  0
 20 26  1  0  0  0  0
 21 27  1  0  0  0  0
 22 25  1  0  0  0  0
 23 25  1  0  0  0  0
  1 30  1  0  0  0  0
  2 31  1  0  0  0  0
  3 32  1  0  0  0  0
  4 33  1  0  0  0  0
  5 34  1  0  0  0  0
  6 35  1  0  0  0  0
 13 36  1  0  0  0  0
 13 37  1  0  0  0  0
 14 38  1  0  0  0  0
 17 39  1  0  0  0  0
 17 40  1  0  0  0  0
 17 41  1  0  0  0  0
 18 42  1  0  0  0  0
 18 43  1  0  0  0  0
 18 44  1  0  0  0  0
 19 45  1  0  0  0  0
 19 46  1  0  0  0  0
 19 47  1  0  0  0  0
 20 48  1  0  0  0  0
 20 49  1  0  0  0  0
 21 50  1  0  0  0  0
 21 51  1  0  0  0  0
 22 52  1  0  0  0  0
 26 53  1  0  0  0  0
 27 54  1  0  0  0  0
M  END
> <Catalog ID>
Z1171854749

> <MW>
391.466

> <MW (desalted)>
391.466

> <ClogP>
2.886

> <logS>
-5.033

> <HBD>
2

> <HBA>
4

> <TPSA>
88.91

> <RotBonds>
7

> <ROCS_ShapeQuery>
A71EV2A-x0451_0A_A71EV2A-x0310_0A_A71EV2A-x0416_0A_peptide

> <ROCS_TanimotoCombo>
0.547 

> <ROCS_ShapeTanimoto>
0.352 

> <ROCS_ColorTanimoto>
0.195 

> <ROCS_RefTversky>
0.321 

> <ROCS_RefColorTversky>
0.227 

> <ROCS_RefTverskyCombo>
0.548 

> <ROCS_FitTversky>
1.383 

> <ROCS_FitColorTversky>
0.578 

> <ROCS_FitTverskyCombo>
1.961 

> <ROCS_ColorScore>
-6.969

> <ROCS_Overlap>
2232.473

> <ROCS_Rank>
49                  

$$$$
untitled-dbase-3798_1887
  -OEChem-11132309573D

 48 51  0     1  0  0  0  0  0999 V2000
    8.6798   12.3083   24.3101 C   0  0  0  0  0  0  0  0  0  0  0  0
    9.5376    9.8939   23.2792 C   0  0  0  0  0  0  0  0  0  0  0  0
    6.0680   10.1115   25.4166 C   0  0  0  0  0  0  0  0  0  0  0  0
    6.4933    8.9143   24.9052 C   0  0  0  0  0  0  0  0  0  0  0  0
    9.8675   12.2544   23.5828 C   0  0  0  0  0  0  0  0  0  0  0  0
    7.9122   11.1669   24.5297 C   0  0  0  0  0  0  0  0  0  0  0  0
    8.3492    9.9369   24.0045 C   0  0  0  0  0  0  0  0  0  0  0  0
   10.2984   11.0420   23.0652 C   0  0  0  0  0  0  0  0  0  0  0  0
   14.2527   18.6651   16.5919 C   0  0  0  0  0  0  0  0  0  0  0  0
   12.9715   18.3283   16.7551 C   0  0  0  0  0  0  0  0  0  0  0  0
   10.6641   13.4896   23.3663 C   0  0  0  0  0  0  0  0  0  0  0  0
   12.6430   16.9446   17.1475 C   0  0  0  0  0  0  0  0  0  0  0  0
   14.7120   15.1929   19.4934 C   0  0  0  0  0  0  0  0  0  0  0  0
   14.5881   16.5613   20.1830 C   0  0  0  0  0  0  0  0  0  0  0  0
   12.2737   14.4734   19.3041 C   0  0  0  0  0  0  0  0  0  0  0  0
   12.0659   16.7995   20.4672 C   0  0  0  0  0  0  0  0  0  0  0  0
   11.7653   15.2771   20.5318 C   0  0  0  0  0  0  0  0  0  0  0  0
   13.4838   15.0990   18.5868 C   0  0  1  0  0  0  0  0  0  0  0  0
   13.2984   17.1713   19.6237 C   0  0  2  0  0  0  0  0  0  0  0  0
   12.2426   14.6593   21.8509 C   0  0  0  0  0  0  0  0  0  0  0  0
    6.7699   11.2444   25.2347 N   0  0  0  0  0  0  0  0  0  0  0  0
    7.6329    8.8156   24.1974 N   0  0  0  0  0  0  0  0  0  0  0  0
   13.1580   16.4922   18.3431 N   0  0  0  0  0  0  0  0  0  0  0  0
   11.4128   13.5542   22.1871 N   0  0  0  0  0  0  0  0  0  0  0  0
   10.6481   14.3715   24.2210 O   0  0  0  0  0  0  0  0  0  0  0  0
   11.9340   16.2750   16.3962 O   0  0  0  0  0  0  0  0  0  0  0  0
   11.4378   10.9625   22.3642 F   0  0  0  0  0  0  0  0  0  0  0  0
    8.3437   13.2621   24.7146 H   0  0  0  0  0  0  0  0  0  0  0  0
    9.8882    8.9493   22.8681 H   0  0  0  0  0  0  0  0  0  0  0  0
    5.1530   10.2020   25.9882 H   0  0  0  0  0  0  0  0  0  0  0  0
    5.9363    7.9967   25.0460 H   0  0  0  0  0  0  0  0  0  0  0  0
   14.5565   19.6660   16.3043 H   0  0  0  0  0  0  0  0  0  0  0  0
   15.0332   17.9279   16.7474 H   0  0  0  0  0  0  0  0  0  0  0  0
   12.1652   19.0352   16.6096 H   0  0  0  0  0  0  0  0  0  0  0  0
   15.6273   15.1792   18.8892 H   0  0  0  0  0  0  0  0  0  0  0  0
   14.7819   14.3691   20.2094 H   0  0  0  0  0  0  0  0  0  0  0  0
   14.5877   16.4809   21.2738 H   0  0  0  0  0  0  0  0  0  0  0  0
   15.4489   17.1808   19.9032 H   0  0  0  0  0  0  0  0  0  0  0  0
   12.4977   13.4371   19.5843 H   0  0  0  0  0  0  0  0  0  0  0  0
   11.4502   14.4163   18.5789 H   0  0  0  0  0  0  0  0  0  0  0  0
   11.1927   17.2933   20.0194 H   0  0  0  0  0  0  0  0  0  0  0  0
   12.1625   17.2184   21.4760 H   0  0  0  0  0  0  0  0  0  0  0  0
   10.6716   15.1694   20.5526 H   0  0  0  0  0  0  0  0  0  0  0  0
   13.6958   14.5593   17.6583 H   0  0  0  0  0  0  0  0  0  0  0  0
   13.3867   18.2555   19.5257 H   0  0  0  0  0  0  0  0  0  0  0  0
   13.2702   14.3397   21.6979 H   0  0  0  0  0  0  0  0  0  0  0  0
   12.1770   15.4372   22.6074 H   0  0  0  0  0  0  0  0  0  0  0  0
   11.4122   12.7410   21.5624 H   0  0  0  0  0  0  0  0  0  0  0  0
  1  5  1  0  0  0  0
  1  6  2  0  0  0  0
  2  7  2  0  0  0  0
  2  8  1  0  0  0  0
  3  4  1  0  0  0  0
  3 21  2  0  0  0  0
  4 22  2  0  0  0  0
  5  8  2  0  0  0  0
  5 11  1  0  0  0  0
  6  7  1  0  0  0  0
  6 21  1  0  0  0  0
  7 22  1  0  0  0  0
  8 27  1  0  0  0  0
  9 10  2  0  0  0  0
 10 12  1  0  0  0  0
 11 24  1  0  0  0  0
 11 25  2  0  0  0  0
 12 23  1  0  0  0  0
 12 26  2  0  0  0  0
 13 14  1  0  0  0  0
 13 18  1  0  0  0  0
 14 19  1  0  0  0  0
 15 17  1  0  0  0  0
 15 18  1  0  0  0  0
 16 17  1  0  0  0  0
 16 19  1  0  0  0  0
 17 20  1  1  0  0  0
 18 23  1  6  0  0  0
 19 23  1  6  0  0  0
 20 24  1  0  0  0  0
  1 28  1  0  0  0  0
  2 29  1  0  0  0  0
  3 30  1  0  0  0  0
  4 31  1  0  0  0  0
  9 32  1  0  0  0  0
  9 33  1  0  0  0  0
 10 34  1  0  0  0  0
 13 35  1  0  0  0  0
 13 36  1  0  0  0  0
 14 37  1  0  0  0  0
 14 38  1  0  0  0  0
 15 39  1  0  0  0  0
 15 40  1  0  0  0  0
 16 41  1  0  0  0  0
 16 42  1  0  0  0  0
 17 43  1  0  0  0  0
 18 44  1  0  0  0  0
 19 45  1  0  0  0  0
 20 46  1  0  0  0  0
 20 47  1  0  0  0  0
 24 48  1  0  0  0  0
M  END
> <Catalog ID>
Z4615838967

> <MW>
368.405

> <MW (desalted)>
368.405

> <ClogP>
1.087

> <logS>
-3.231

> <HBD>
1

> <HBA>
4

> <TPSA>
75.19

> <RotBonds>
4

> <ROCS_ShapeQuery>
A71EV2A-x0451_0A_A71EV2A-x0310_0A_A71EV2A-x0416_0A_peptide

> <ROCS_TanimotoCombo>
0.547 

> <ROCS_ShapeTanimoto>
0.342 

> <ROCS_ColorTanimoto>
0.205 

> <ROCS_RefTversky>
0.311 

> <ROCS_RefColorTversky>
0.251 

> <ROCS_RefTverskyCombo>
0.563 

> <ROCS_FitTversky>
1.400 

> <ROCS_FitColorTversky>
0.527 

> <ROCS_FitTverskyCombo>
1.927 

> <ROCS_ColorScore>
-7.742

> <ROCS_Overlap>
2166.353

> <ROCS_Rank>
50                  

$$$$
untitled-dbase-11495_11
  -OEChem-11132309573D

 36 38  0     0  0  0  0  0  0999 V2000
    6.7935   12.8365   26.2575 C   0  0  0  0  0  0  0  0  0  0  0  0
    6.1357   11.6259   26.0700 C   0  0  0  0  0  0  0  0  0  0  0  0
    8.0100   13.0625   25.6212 C   0  0  0  0  0  0  0  0  0  0  0  0
   10.6678   14.8946   20.9131 C   0  0  0  0  0  0  0  0  0  0  0  0
    6.6952   10.6443   25.2468 C   0  0  0  0  0  0  0  0  0  0  0  0
   10.1528   14.3314   22.0806 C   0  0  0  0  0  0  0  0  0  0  0  0
   12.9044   14.6997   21.8054 C   0  0  0  0  0  0  0  0  0  0  0  0
    8.5660   12.0704   24.7949 C   0  0  0  0  0  0  0  0  0  0  0  0
   12.0436   15.0787   20.7754 C   0  0  0  0  0  0  0  0  0  0  0  0
    7.9112   10.8438   24.5976 C   0  0  0  0  0  0  0  0  0  0  0  0
   11.0137   13.9523   23.1106 C   0  0  0  0  0  0  0  0  0  0  0  0
   12.3895   14.1365   22.9730 C   0  0  0  0  0  0  0  0  0  0  0  0
    9.7781   12.2329   24.1299 C   0  0  0  0  0  0  0  0  0  0  0  0
    9.6146   10.1667   23.2206 C   0  0  0  0  0  0  0  0  0  0  0  0
   12.5805   15.6640   19.5572 C   0  0  0  0  0  0  0  0  0  0  0  0
   13.7492   12.4362   23.9301 C   0  0  0  0  0  0  0  0  0  0  0  0
   10.1883    9.1014   22.3490 C   0  0  0  0  0  0  0  0  0  0  0  0
    8.4338    9.8881   23.8094 N   0  0  0  0  0  0  0  0  0  0  0  0
   10.3297   11.2974   23.3341 N   0  0  0  0  0  0  0  0  0  0  0  0
   13.7864   15.8529   19.3750 O   0  0  0  0  0  0  0  0  0  0  0  0
   10.4916   13.3961   24.2609 O   0  0  0  0  0  0  0  0  0  0  0  0
   13.2409   13.7681   23.9707 O   0  0  0  0  0  0  0  0  0  0  0  0
    9.4146    7.9779   22.2759 F   0  0  0  0  0  0  0  0  0  0  0  0
   10.3693    9.4936   21.0531 F   0  0  0  0  0  0  0  0  0  0  0  0
   11.4124    8.6753   22.7768 F   0  0  0  0  0  0  0  0  0  0  0  0
    6.3617   13.5996   26.8976 H   0  0  0  0  0  0  0  0  0  0  0  0
    5.1857   11.4409   26.5629 H   0  0  0  0  0  0  0  0  0  0  0  0
    8.5122   14.0136   25.7777 H   0  0  0  0  0  0  0  0  0  0  0  0
    9.9876   15.1862   20.1169 H   0  0  0  0  0  0  0  0  0  0  0  0
    6.1610    9.7049   25.1171 H   0  0  0  0  0  0  0  0  0  0  0  0
    9.0802   14.1909   22.1819 H   0  0  0  0  0  0  0  0  0  0  0  0
   13.9779   14.8396   21.7003 H   0  0  0  0  0  0  0  0  0  0  0  0
   11.8555   15.9487   18.7638 H   0  0  0  0  0  0  0  0  0  0  0  0
   14.4146   12.2733   24.7815 H   0  0  0  0  0  0  0  0  0  0  0  0
   14.2923   12.2808   22.9945 H   0  0  0  0  0  0  0  0  0  0  0  0
   12.9132   11.7348   23.9847 H   0  0  0  0  0  0  0  0  0  0  0  0
  1  2  1  0  0  0  0
  1  3  2  0  0  0  0
  2  5  2  0  0  0  0
  3  8  1  0  0  0  0
  4  6  2  0  0  0  0
  4  9  1  0  0  0  0
  5 10  1  0  0  0  0
  6 11  1  0  0  0  0
  7  9  2  0  0  0  0
  7 12  1  0  0  0  0
  8 10  1  0  0  0  0
  8 13  2  0  0  0  0
  9 15  1  0  0  0  0
 10 18  2  0  0  0  0
 11 12  2  0  0  0  0
 11 21  1  0  0  0  0
 12 22  1  0  0  0  0
 13 19  1  0  0  0  0
 13 21  1  0  0  0  0
 14 17  1  0  0  0  0
 14 18  1  0  0  0  0
 14 19  2  0  0  0  0
 15 20  2  0  0  0  0
 16 22  1  0  0  0  0
 17 23  1  0  0  0  0
 17 24  1  0  0  0  0
 17 25  1  0  0  0  0
  1 26  1  0  0  0  0
  2 27  1  0  0  0  0
  3 28  1  0  0  0  0
  4 29  1  0  0  0  0
  5 30  1  0  0  0  0
  6 31  1  0  0  0  0
  7 32  1  0  0  0  0
 15 33  1  0  0  0  0
 16 34  1  0  0  0  0
 16 35  1  0  0  0  0
 16 36  1  0  0  0  0
M  END
> <Catalog ID>
Z86233690

> <MW>
348.276

> <MW (desalted)>
348.276

> <ClogP>
3.407

> <logS>
-5.18

> <HBD>
0

> <HBA>
4

> <TPSA>
61.31

> <RotBonds>
5

> <ROCS_ShapeQuery>
A71EV2A-x0451_0A_A71EV2A-x0310_0A_A71EV2A-x0416_0A_peptide

> <ROCS_TanimotoCombo>
0.546 

> <ROCS_ShapeTanimoto>
0.393 

> <ROCS_ColorTanimoto>
0.153 

> <ROCS_RefTversky>
0.342 

> <ROCS_RefColorTversky>
0.173 

> <ROCS_RefTverskyCombo>
0.515 

> <ROCS_FitTversky>
1.611 

> <ROCS_FitColorTversky>
0.573 

> <ROCS_FitTverskyCombo>
2.184 

> <ROCS_ColorScore>
-5.277

> <ROCS_Overlap>
2380.261

> <ROCS_Rank>
51                  

$$$$
untitled-dbase-5526_2940
  -OEChem-11132309573D

 56 60  0     0  0  0  0  0  0999 V2000
   13.2327   11.6375   24.1379 C   0  0  0  0  0  0  0  0  0  0  0  0
    9.2880    7.0861   21.3227 C   0  0  0  0  0  0  0  0  0  0  0  0
   13.5626   16.2641   18.5276 C   0  0  0  0  0  0  0  0  0  0  0  0
   13.9937   15.1334   19.2149 C   0  0  0  0  0  0  0  0  0  0  0  0
    9.8042    8.3472   21.0250 C   0  0  0  0  0  0  0  0  0  0  0  0
    8.5104    6.9029   22.4662 C   0  0  0  0  0  0  0  0  0  0  0  0
    9.5225   16.3702   21.2366 C   0  0  0  0  0  0  0  0  0  0  0  0
   12.3433   16.8580   18.8551 C   0  0  0  0  0  0  0  0  0  0  0  0
   13.2073   14.5921   20.2323 C   0  0  0  0  0  0  0  0  0  0  0  0
   10.3089   16.9115   20.2192 C   0  0  0  0  0  0  0  0  0  0  0  0
    9.5430    9.4252   21.8709 C   0  0  0  0  0  0  0  0  0  0  0  0
    8.2492    7.9808   23.3120 C   0  0  0  0  0  0  0  0  0  0  0  0
    9.9536   15.2394   21.9238 C   0  0  0  0  0  0  0  0  0  0  0  0
   11.5389   16.3267   19.8763 C   0  0  0  0  0  0  0  0  0  0  0  0
   11.9773   15.1768   20.5752 C   0  0  0  0  0  0  0  0  0  0  0  0
    8.7654    9.2420   23.0144 C   0  0  0  0  0  0  0  0  0  0  0  0
   11.1728   14.6455   21.5964 C   0  0  0  0  0  0  0  0  0  0  0  0
    8.4963   10.3524   23.8862 C   0  0  0  0  0  0  0  0  0  0  0  0
    9.4832   11.0710   24.5278 C   0  0  0  0  0  0  0  0  0  0  0  0
    7.2219   11.7853   24.9504 C   0  0  0  0  0  0  0  0  0  0  0  0
   10.9471   10.9251   24.5089 C   0  0  0  0  0  0  0  0  0  0  0  0
   11.8241   11.8725   24.1217 C   0  0  0  0  0  0  0  0  0  0  0  0
   11.2416   13.1874   23.6490 C   0  0  0  0  0  0  0  0  0  0  0  0
    4.7335   12.0611   25.0094 C   0  0  0  0  0  0  0  0  0  0  0  0
    6.1335   13.2542   26.6308 C   0  0  0  0  0  0  0  0  0  0  0  0
    4.0808   11.3163   26.1689 C   0  0  0  0  0  0  0  0  0  0  0  0
    5.4230   12.4766   27.7396 C   0  0  0  0  0  0  0  0  0  0  0  0
   14.3780   11.4508   24.1484 N   0  0  0  0  0  0  0  0  0  0  0  0
    7.1989   10.7604   24.1276 N   0  0  0  0  0  0  0  0  0  0  0  0
    6.0891   12.4471   25.4070 N   0  0  0  0  0  0  0  0  0  0  0  0
   11.5556   13.5108   22.3218 N   0  0  0  0  0  0  0  0  0  0  0  0
   10.5605   13.8733   24.4071 O   0  0  0  0  0  0  0  0  0  0  0  0
    4.0895   12.1370   27.3433 O   0  0  0  0  0  0  0  0  0  0  0  0
    8.7695   12.3113   25.4731 S   0  0  0  0  0  0  0  0  0  0  0  0
    9.4904    6.2469   20.6637 H   0  0  0  0  0  0  0  0  0  0  0  0
   14.1752   16.6848   17.7356 H   0  0  0  0  0  0  0  0  0  0  0  0
   14.9432   14.6718   18.9593 H   0  0  0  0  0  0  0  0  0  0  0  0
   10.4086    8.4904   20.1342 H   0  0  0  0  0  0  0  0  0  0  0  0
    8.1075    5.9212   22.6970 H   0  0  0  0  0  0  0  0  0  0  0  0
    8.5733   16.8324   21.4918 H   0  0  0  0  0  0  0  0  0  0  0  0
   12.0262   17.7412   18.3044 H   0  0  0  0  0  0  0  0  0  0  0  0
   13.5800   13.7084   20.7452 H   0  0  0  0  0  0  0  0  0  0  0  0
    9.9522   17.7960   19.6956 H   0  0  0  0  0  0  0  0  0  0  0  0
    9.9526   10.4022   21.6252 H   0  0  0  0  0  0  0  0  0  0  0  0
    7.6411    7.8215   24.1996 H   0  0  0  0  0  0  0  0  0  0  0  0
    9.3301   14.8289   22.7143 H   0  0  0  0  0  0  0  0  0  0  0  0
   11.2854    9.9546   24.8650 H   0  0  0  0  0  0  0  0  0  0  0  0
    4.7477   11.4193   24.1251 H   0  0  0  0  0  0  0  0  0  0  0  0
    4.1609   12.9639   24.7789 H   0  0  0  0  0  0  0  0  0  0  0  0
    5.6139   14.1967   26.4518 H   0  0  0  0  0  0  0  0  0  0  0  0
    7.1597   13.4643   26.9313 H   0  0  0  0  0  0  0  0  0  0  0  0
    3.0388   11.0950   25.9286 H   0  0  0  0  0  0  0  0  0  0  0  0
    4.5857   10.3685   26.3764 H   0  0  0  0  0  0  0  0  0  0  0  0
    5.9730   11.5669   28.0076 H   0  0  0  0  0  0  0  0  0  0  0  0
    5.3532   13.0972   28.6380 H   0  0  0  0  0  0  0  0  0  0  0  0
   12.1371   12.8331   21.8205 H   0  0  0  0  0  0  0  0  0  0  0  0
  1 22  1  0  0  0  0
  1 28  3  0  0  0  0
  2  5  1  0  0  0  0
  2  6  2  0  0  0  0
  3  4  1  0  0  0  0
  3  8  2  0  0  0  0
  4  9  2  0  0  0  0
  5 11  2  0  0  0  0
  6 12  1  0  0  0  0
  7 10  1  0  0  0  0
  7 13  2  0  0  0  0
  8 14  1  0  0  0  0
  9 15  1  0  0  0  0
 10 14  2  0  0  0  0
 11 16  1  0  0  0  0
 12 16  2  0  0  0  0
 13 17  1  0  0  0  0
 14 15  1  0  0  0  0
 15 17  2  0  0  0  0
 16 18  1  0  0  0  0
 17 31  1  0  0  0  0
 18 19  2  0  0  0  0
 18 29  1  0  0  0  0
 19 21  1  4  0  0  0
 19 34  1  0  0  0  0
 20 29  2  0  0  0  0
 20 30  1  0  0  0  0
 20 34  1  0  0  0  0
 21 22  2  0  0  0  0
 22 23  1  0  0  0  0
 23 31  1  0  0  0  0
 23 32  2  0  0  0  0
 24 26  1  0  0  0  0
 24 30  1  0  0  0  0
 25 27  1  0  0  0  0
 25 30  1  0  0  0  0
 26 33  1  0  0  0  0
 27 33  1  0  0  0  0
  2 35  1  0  0  0  0
  3 36  1  0  0  0  0
  4 37  1  0  0  0  0
  5 38  1  0  0  0  0
  6 39  1  0  0  0  0
  7 40  1  0  0  0  0
  8 41  1  0  0  0  0
  9 42  1  0  0  0  0
 10 43  1  0  0  0  0
 11 44  1  0  0  0  0
 12 45  1  0  0  0  0
 13 46  1  0  0  0  0
 21 47  1  0  0  0  0
 24 48  1  0  0  0  0
 24 49  1  0  0  0  0
 25 50  1  0  0  0  0
 25 51  1  0  0  0  0
 26 52  1  0  0  0  0
 26 53  1  0  0  0  0
 27 54  1  0  0  0  0
 27 55  1  0  0  0  0
 31 56  1  0  0  0  0
M  END
> <Catalog ID>
Z44325918

> <MW>
466.554

> <MW (desalted)>
466.554

> <ClogP>
4.651

> <logS>
-8.45

> <HBD>
1

> <HBA>
5

> <TPSA>
78.25

> <RotBonds>
5

> <ROCS_ShapeQuery>
A71EV2A-x0451_0A_A71EV2A-x0310_0A_A71EV2A-x0416_0A_peptide

> <ROCS_TanimotoCombo>
0.546 

> <ROCS_ShapeTanimoto>
0.371 

> <ROCS_ColorTanimoto>
0.175 

> <ROCS_RefTversky>
0.342 

> <ROCS_RefColorTversky>
0.203 

> <ROCS_RefTverskyCombo>
0.545 

> <ROCS_FitTversky>
1.299 

> <ROCS_FitColorTversky>
0.561 

> <ROCS_FitTverskyCombo>
1.859 

> <ROCS_ColorScore>
-6.218

> <ROCS_Overlap>
2384.869

> <ROCS_Rank>
52                  

$$$$
untitled-dbase-9715_8852
  -OEChem-11132309573D

 53 55  0     1  0  0  0  0  0999 V2000
   14.6491   15.9054   18.6182 C   0  0  0  0  0  0  0  0  0  0  0  0
   13.0729   17.5726   19.3753 C   0  0  0  0  0  0  0  0  0  0  0  0
   14.0755   14.9714   19.4808 C   0  0  0  0  0  0  0  0  0  0  0  0
   12.4992   16.6385   20.2379 C   0  0  0  0  0  0  0  0  0  0  0  0
    7.3863   12.7182   25.1292 C   0  0  0  0  0  0  0  0  0  0  0  0
    9.3351    9.5537   23.6215 C   0  0  0  0  0  0  0  0  0  0  0  0
    8.2621   11.8236   24.4864 C   0  0  0  0  0  0  0  0  0  0  0  0
   14.1478   17.2061   18.5655 C   0  0  0  0  0  0  0  0  0  0  0  0
   13.0006   15.3378   20.2906 C   0  0  0  0  0  0  0  0  0  0  0  0
    9.4200   11.8656   23.7170 C   0  0  0  0  0  0  0  0  0  0  0  0
    7.7319   10.5744   24.7574 C   0  0  0  0  0  0  0  0  0  0  0  0
   14.0814   16.0490   25.4948 C   0  0  0  0  0  0  0  0  0  0  0  0
   13.9148   15.1036   24.5650 C   0  0  0  0  0  0  0  0  0  0  0  0
   10.0857   13.0970   23.3536 C   0  0  0  0  0  0  0  0  0  0  0  0
   13.1352   15.3902   23.3312 C   0  0  0  0  0  0  0  0  0  0  0  0
   15.3731   19.4023   18.3953 C   0  0  0  0  0  0  0  0  0  0  0  0
   13.7685   18.7100   16.5784 C   0  0  0  0  0  0  0  0  0  0  0  0
    5.7220    9.7959   26.0461 C   0  0  0  0  0  0  0  0  0  0  0  0
   10.8752   14.5544   21.4638 C   0  0  0  0  0  0  0  0  0  0  0  0
   14.7604   18.2054   17.6435 C   0  0  0  0  0  0  0  0  0  0  0  0
   12.3754   14.3196   21.2284 C   0  0  2  0  0  0  0  0  0  0  0  0
    6.3825   12.0964   25.7575 N   0  0  0  0  0  0  0  0  0  0  0  0
    9.9624   10.7042   23.2790 N   0  0  0  0  0  0  0  0  0  0  0  0
    8.2147    9.3875   24.3571 N   0  0  0  0  0  0  0  0  0  0  0  0
    6.6191   10.7940   25.5136 N   0  0  0  0  0  0  0  0  0  0  0  0
   10.2161   13.3784   21.9848 N   0  0  0  0  0  0  0  0  0  0  0  0
   13.0857   14.2900   22.5126 N   0  0  0  0  0  0  0  0  0  0  0  0
   10.5403   13.8607   24.2296 O   0  0  0  0  0  0  0  0  0  0  0  0
   12.6226   16.4832   23.1132 O   0  0  0  0  0  0  0  0  0  0  0  0
   15.4867   15.6112   17.9912 H   0  0  0  0  0  0  0  0  0  0  0  0
   12.6753   18.5835   19.3397 H   0  0  0  0  0  0  0  0  0  0  0  0
   14.4715   13.9599   19.5141 H   0  0  0  0  0  0  0  0  0  0  0  0
   11.6621   16.9324   20.8656 H   0  0  0  0  0  0  0  0  0  0  0  0
    7.4333   13.7973   25.1692 H   0  0  0  0  0  0  0  0  0  0  0  0
    9.7958    8.6427   23.2547 H   0  0  0  0  0  0  0  0  0  0  0  0
   14.6505   15.8321   26.3928 H   0  0  0  0  0  0  0  0  0  0  0  0
   13.6674   17.0464   25.3949 H   0  0  0  0  0  0  0  0  0  0  0  0
   14.3463   14.1182   24.7037 H   0  0  0  0  0  0  0  0  0  0  0  0
   14.6200   19.9362   18.9850 H   0  0  0  0  0  0  0  0  0  0  0  0
   15.8245   20.1216   17.7034 H   0  0  0  0  0  0  0  0  0  0  0  0
   16.1556   19.0620   19.0828 H   0  0  0  0  0  0  0  0  0  0  0  0
   12.9064   19.1895   17.0555 H   0  0  0  0  0  0  0  0  0  0  0  0
   13.3942   17.8883   15.9582 H   0  0  0  0  0  0  0  0  0  0  0  0
   14.2325   19.4447   15.9113 H   0  0  0  0  0  0  0  0  0  0  0  0
    6.0883    9.5061   27.0344 H   0  0  0  0  0  0  0  0  0  0  0  0
    4.7142   10.2142   26.1194 H   0  0  0  0  0  0  0  0  0  0  0  0
    5.7033    8.9322   25.3756 H   0  0  0  0  0  0  0  0  0  0  0  0
   10.7211   15.3482   22.2036 H   0  0  0  0  0  0  0  0  0  0  0  0
   10.3479   14.8467   20.5495 H   0  0  0  0  0  0  0  0  0  0  0  0
   15.5941   17.7389   17.0848 H   0  0  0  0  0  0  0  0  0  0  0  0
   12.4908   13.3235   20.7813 H   0  0  0  0  0  0  0  0  0  0  0  0
    9.8865   12.6966   21.3093 H   0  0  0  0  0  0  0  0  0  0  0  0
   13.5577   13.4323   22.7421 H   0  0  0  0  0  0  0  0  0  0  0  0
  1  3  2  0  0  0  0
  1  8  1  0  0  0  0
  2  4  1  0  0  0  0
  2  8  2  0  0  0  0
  3  9  1  0  0  0  0
  4  9  2  0  0  0  0
  5  7  1  0  0  0  0
  5 22  2  0  0  0  0
  6 23  2  0  0  0  0
  6 24  1  0  0  0  0
  7 10  2  0  0  0  0
  7 11  1  0  0  0  0
  8 20  1  0  0  0  0
  9 21  1  0  0  0  0
 10 14  1  0  0  0  0
 10 23  1  0  0  0  0
 11 24  2  0  0  0  0
 11 25  1  0  0  0  0
 12 13  2  0  0  0  0
 13 15  1  0  0  0  0
 14 26  1  0  0  0  0
 14 28  2  0  0  0  0
 15 27  1  0  0  0  0
 15 29  2  0  0  0  0
 16 20  1  0  0  0  0
 17 20  1  0  0  0  0
 18 25  1  0  0  0  0
 19 21  1  0  0  0  0
 19 26  1  0  0  0  0
 21 27  1  0  0  0  0
 22 25  1  0  0  0  0
  1 30  1  0  0  0  0
  2 31  1  0  0  0  0
  3 32  1  0  0  0  0
  4 33  1  0  0  0  0
  5 34  1  0  0  0  0
  6 35  1  0  0  0  0
 12 36  1  0  0  0  0
 12 37  1  0  0  0  0
 13 38  1  0  0  0  0
 16 39  1  0  0  0  0
 16 40  1  0  0  0  0
 16 41  1  0  0  0  0
 17 42  1  0  0  0  0
 17 43  1  0  0  0  0
 17 44  1  0  0  0  0
 18 45  1  0  0  0  0
 18 46  1  0  0  0  0
 18 47  1  0  0  0  0
 19 48  1  0  0  0  0
 19 49  1  0  0  0  0
 20 50  1  0  0  0  0
 21 51  1  0  0  0  0
 26 52  1  0  0  0  0
 27 53  1  0  0  0  0
M  END
> <Catalog ID>
Z4425283734

> <MW>
392.454

> <MW (desalted)>
392.454

> <ClogP>
2.216

> <logS>
-5.406

> <HBD>
2

> <HBA>
5

> <TPSA>
101.8

> <RotBonds>
7

> <ROCS_ShapeQuery>
A71EV2A-x0451_0A_A71EV2A-x0310_0A_A71EV2A-x0416_0A_peptide

> <ROCS_TanimotoCombo>
0.546 

> <ROCS_ShapeTanimoto>
0.349 

> <ROCS_ColorTanimoto>
0.197 

> <ROCS_RefTversky>
0.318 

> <ROCS_RefColorTversky>
0.234 

> <ROCS_RefTverskyCombo>
0.553 

> <ROCS_FitTversky>
1.375 

> <ROCS_FitColorTversky>
0.553 

> <ROCS_FitTverskyCombo>
1.928 

> <ROCS_ColorScore>
-7.202

> <ROCS_Overlap>
2217.175

> <ROCS_Rank>
53                  

$$$$
untitled-dbase-9341_8549
  -OEChem-11132309573D

 52 54  0     1  0  0  0  0  0999 V2000
    9.6750   10.6804   23.1853 C   0  0  0  0  0  0  0  0  0  0  0  0
    9.5613   11.9777   23.6997 C   0  0  0  0  0  0  0  0  0  0  0  0
    8.4426   11.9324   24.4944 C   0  0  0  0  0  0  0  0  0  0  0  0
    7.7649   12.8783   25.3020 C   0  0  0  0  0  0  0  0  0  0  0  0
    6.6626   12.5053   25.9719 C   0  0  0  0  0  0  0  0  0  0  0  0
    6.1255   11.1452   25.8987 C   0  0  0  0  0  0  0  0  0  0  0  0
    6.7706   10.2290   25.1350 C   0  0  0  0  0  0  0  0  0  0  0  0
   14.7811   19.2714   21.3233 C   0  0  0  0  0  0  0  0  0  0  0  0
   14.8096   18.1522   22.0498 C   0  0  0  0  0  0  0  0  0  0  0  0
   10.4327   13.1573   23.4624 C   0  0  0  0  0  0  0  0  0  0  0  0
   13.6331   17.2564   22.0282 C   0  0  0  0  0  0  0  0  0  0  0  0
   13.1979   14.2352   18.8895 C   0  0  0  0  0  0  0  0  0  0  0  0
   13.7146   15.6222   18.5192 C   0  0  0  0  0  0  0  0  0  0  0  0
   11.7358   14.2308   19.3269 C   0  0  0  0  0  0  0  0  0  0  0  0
   14.2049   16.4404   19.7112 C   0  0  0  0  0  0  0  0  0  0  0  0
   11.8226   16.4752   20.5556 C   0  0  0  0  0  0  0  0  0  0  0  0
   11.4145   14.9947   20.6179 C   0  0  2  0  0  0  0  0  0  0  0  0
    4.8734   10.9277   26.6986 C   0  0  0  0  0  0  0  0  0  0  0  0
    6.3578    8.7905   24.9739 C   0  0  0  0  0  0  0  0  0  0  0  0
   11.9570   14.2771   21.8567 C   0  0  0  0  0  0  0  0  0  0  0  0
    8.7119    9.8632   23.6096 N   0  0  0  0  0  0  0  0  0  0  0  0
    7.9339   10.6312   24.4291 N   0  0  0  0  0  0  0  0  0  0  0  0
   13.2493   16.7189   20.7911 N   0  0  0  0  0  0  0  0  0  0  0  0
   11.0741   13.2236   22.2217 N   0  0  0  0  0  0  0  0  0  0  0  0
   10.5659   13.9936   24.3521 O   0  0  0  0  0  0  0  0  0  0  0  0
   13.0618   17.0406   23.0984 O   0  0  0  0  0  0  0  0  0  0  0  0
   10.4237   10.2867   22.5124 H   0  0  0  0  0  0  0  0  0  0  0  0
    8.1374   13.8943   25.3770 H   0  0  0  0  0  0  0  0  0  0  0  0
    6.1431   13.2288   26.5933 H   0  0  0  0  0  0  0  0  0  0  0  0
   15.6128   19.9675   21.2985 H   0  0  0  0  0  0  0  0  0  0  0  0
   13.9057   19.5126   20.7295 H   0  0  0  0  0  0  0  0  0  0  0  0
   15.6642   17.8773   22.6541 H   0  0  0  0  0  0  0  0  0  0  0  0
   13.3401   13.5521   18.0536 H   0  0  0  0  0  0  0  0  0  0  0  0
   13.8117   13.8622   19.7094 H   0  0  0  0  0  0  0  0  0  0  0  0
   14.5378   15.5213   17.8156 H   0  0  0  0  0  0  0  0  0  0  0  0
   12.9201   16.1586   18.0073 H   0  0  0  0  0  0  0  0  0  0  0  0
   11.1516   14.6937   18.5039 H   0  0  0  0  0  0  0  0  0  0  0  0
   11.3567   13.1879   19.3857 H   0  0  0  0  0  0  0  0  0  0  0  0
   15.0872   15.9301   20.1659 H   0  0  0  0  0  0  0  0  0  0  0  0
   14.6380   17.4016   19.3487 H   0  0  0  0  0  0  0  0  0  0  0  0
   11.5533   16.8766   19.5654 H   0  0  0  0  0  0  0  0  0  0  0  0
   11.2472   17.0725   21.2815 H   0  0  0  0  0  0  0  0  0  0  0  0
   10.2834   14.9822   20.7195 H   0  0  0  0  0  0  0  0  0  0  0  0
    4.0067   11.1424   26.0785 H   0  0  0  0  0  0  0  0  0  0  0  0
    4.8773   11.5873   27.5632 H   0  0  0  0  0  0  0  0  0  0  0  0
    4.8352    9.8948   27.0363 H   0  0  0  0  0  0  0  0  0  0  0  0
    5.6756    8.7062   24.1332 H   0  0  0  0  0  0  0  0  0  0  0  0
    5.8664    8.4549   25.8826 H   0  0  0  0  0  0  0  0  0  0  0  0
    7.2402    8.1829   24.7953 H   0  0  0  0  0  0  0  0  0  0  0  0
   12.9371   13.8876   21.5937 H   0  0  0  0  0  0  0  0  0  0  0  0
   12.0237   15.0186   22.6488 H   0  0  0  0  0  0  0  0  0  0  0  0
   10.9508   12.4454   21.5654 H   0  0  0  0  0  0  0  0  0  0  0  0
  1  2  1  0  0  0  0
  1 21  2  0  0  0  0
  2  3  2  0  0  0  0
  2 10  1  0  0  0  0
  3  4  1  0  0  0  0
  3 22  1  0  0  0  0
  4  5  2  0  0  0  0
  5  6  1  0  0  0  0
  6  7  2  0  0  0  0
  6 18  1  0  0  0  0
  7 19  1  0  0  0  0
  7 22  1  0  0  0  0
  8  9  2  0  0  0  0
  9 11  1  0  0  0  0
 10 24  1  0  0  0  0
 10 25  2  0  0  0  0
 11 23  1  0  0  0  0
 11 26  2  0  0  0  0
 12 13  1  0  0  0  0
 12 14  1  0  0  0  0
 13 15  1  0  0  0  0
 14 17  1  0  0  0  0
 15 23  1  0  0  0  0
 16 17  1  0  0  0  0
 16 23  1  0  0  0  0
 17 20  1  0  0  0  0
 20 24  1  0  0  0  0
 21 22  1  0  0  0  0
  1 27  1  0  0  0  0
  4 28  1  0  0  0  0
  5 29  1  0  0  0  0
  8 30  1  0  0  0  0
  8 31  1  0  0  0  0
  9 32  1  0  0  0  0
 12 33  1  0  0  0  0
 12 34  1  0  0  0  0
 13 35  1  0  0  0  0
 13 36  1  0  0  0  0
 14 37  1  0  0  0  0
 14 38  1  0  0  0  0
 15 39  1  0  0  0  0
 15 40  1  0  0  0  0
 16 41  1  0  0  0  0
 16 42  1  0  0  0  0
 17 43  1  0  0  0  0
 18 44  1  0  0  0  0
 18 45  1  0  0  0  0
 18 46  1  0  0  0  0
 19 47  1  0  0  0  0
 19 48  1  0  0  0  0
 19 49  1  0  0  0  0
 20 50  1  0  0  0  0
 20 51  1  0  0  0  0
 24 52  1  0  0  0  0
M  END
> <Catalog ID>
Z4750844660

> <MW>
354.446

> <MW (desalted)>
354.446

> <ClogP>
2.457

> <logS>
-3.789

> <HBD>
1

> <HBA>
3

> <TPSA>
66.71

> <RotBonds>
4

> <ROCS_ShapeQuery>
A71EV2A-x0451_0A_A71EV2A-x0310_0A_A71EV2A-x0416_0A_peptide

> <ROCS_TanimotoCombo>
0.546 

> <ROCS_ShapeTanimoto>
0.342 

> <ROCS_ColorTanimoto>
0.204 

> <ROCS_RefTversky>
0.308 

> <ROCS_RefColorTversky>
0.221 

> <ROCS_RefTverskyCombo>
0.529 

> <ROCS_FitTversky>
1.464 

> <ROCS_FitColorTversky>
0.731 

> <ROCS_FitTverskyCombo>
2.195 

> <ROCS_ColorScore>
-6.733

> <ROCS_Overlap>
2144.474

> <ROCS_Rank>
54                  

$$$$
untitled-dbase-5999_19949
  -OEChem-11132309573D

 47 49  0     0  0  0  0  0  0999 V2000
   14.2018   16.3326   18.8314 C   0  0  0  0  0  0  0  0  0  0  0  0
   14.0821   16.0032   20.1769 C   0  0  0  0  0  0  0  0  0  0  0  0
    7.1513   10.1876   24.1705 C   0  0  0  0  0  0  0  0  0  0  0  0
    8.2058    9.4369   23.6509 C   0  0  0  0  0  0  0  0  0  0  0  0
    8.6079   12.1063   24.3549 C   0  0  0  0  0  0  0  0  0  0  0  0
   13.0455   16.3773   18.0693 C   0  0  0  0  0  0  0  0  0  0  0  0
   12.8275   15.7324   20.7117 C   0  0  0  0  0  0  0  0  0  0  0  0
    9.6625   11.3556   23.8353 C   0  0  0  0  0  0  0  0  0  0  0  0
    7.3523   11.5223   24.5225 C   0  0  0  0  0  0  0  0  0  0  0  0
    9.4614   10.0209   23.4833 C   0  0  0  0  0  0  0  0  0  0  0  0
   11.7327   15.8042   19.8655 C   0  0  0  0  0  0  0  0  0  0  0  0
   12.7108   15.3826   22.1499 C   0  0  0  0  0  0  0  0  0  0  0  0
   11.2630   13.2899   23.9838 C   0  0  0  0  0  0  0  0  0  0  0  0
    4.5289   11.1026   27.0144 C   0  0  0  0  0  0  0  0  0  0  0  0
    6.3837   12.4649   27.8848 C   0  0  0  0  0  0  0  0  0  0  0  0
    3.5701   12.1554   27.5503 C   0  0  0  0  0  0  0  0  0  0  0  0
    5.3497   13.4625   28.3859 C   0  0  0  0  0  0  0  0  0  0  0  0
   12.7156   13.5761   23.6706 C   0  0  0  0  0  0  0  0  0  0  0  0
   11.8096   16.1207   18.5534 N   0  0  0  0  0  0  0  0  0  0  0  0
    5.8441   11.7311   26.7056 N   0  0  0  0  0  0  0  0  0  0  0  0
   10.9083   11.9709   23.6794 N   0  0  0  0  0  0  0  0  0  0  0  0
   12.5444   16.2129   23.0299 O   0  0  0  0  0  0  0  0  0  0  0  0
   10.5404   14.1685   24.4445 O   0  0  0  0  0  0  0  0  0  0  0  0
    6.4869   13.8292   25.3608 O   0  0  0  0  0  0  0  0  0  0  0  0
    4.8392   12.1927   24.3836 O   0  0  0  0  0  0  0  0  0  0  0  0
    4.1269   12.7926   28.7030 O   0  0  0  0  0  0  0  0  0  0  0  0
   12.8130   14.0337   22.3377 O   0  0  0  0  0  0  0  0  0  0  0  0
    6.0165   12.4726   25.1777 S   0  0  0  0  0  0  0  0  0  0  0  0
   10.7397    9.0550   22.8366 Cl  0  0  0  0  0  0  0  0  0  0  0  0
   10.1288   15.4903   20.4045 Cl  0  0  0  0  0  0  0  0  0  0  0  0
   15.1694   16.5485   18.3931 H   0  0  0  0  0  0  0  0  0  0  0  0
   14.9727   15.9626   20.7984 H   0  0  0  0  0  0  0  0  0  0  0  0
    6.1771    9.7230   24.2958 H   0  0  0  0  0  0  0  0  0  0  0  0
    8.0322    8.3979   23.3812 H   0  0  0  0  0  0  0  0  0  0  0  0
    8.7616   13.1476   24.6297 H   0  0  0  0  0  0  0  0  0  0  0  0
   13.0849   16.6299   17.0147 H   0  0  0  0  0  0  0  0  0  0  0  0
    4.6803   10.3083   27.7608 H   0  0  0  0  0  0  0  0  0  0  0  0
    4.1089   10.6520   26.1042 H   0  0  0  0  0  0  0  0  0  0  0  0
    7.3025   12.9979   27.6031 H   0  0  0  0  0  0  0  0  0  0  0  0
    6.6280   11.7387   28.6749 H   0  0  0  0  0  0  0  0  0  0  0  0
    3.3399   12.9141   26.7928 H   0  0  0  0  0  0  0  0  0  0  0  0
    2.6280   11.6862   27.8505 H   0  0  0  0  0  0  0  0  0  0  0  0
    5.7099   13.9492   29.2975 H   0  0  0  0  0  0  0  0  0  0  0  0
    5.1519   14.2452   27.6439 H   0  0  0  0  0  0  0  0  0  0  0  0
   13.1041   14.3394   24.3516 H   0  0  0  0  0  0  0  0  0  0  0  0
   13.3201   12.6713   23.7851 H   0  0  0  0  0  0  0  0  0  0  0  0
   11.6545   11.3827   23.2944 H   0  0  0  0  0  0  0  0  0  0  0  0
  1  2  2  0  0  0  0
  1  6  1  0  0  0  0
  2  7  1  0  0  0  0
  3  4  2  0  0  0  0
  3  9  1  0  0  0  0
  4 10  1  0  0  0  0
  5  8  1  0  0  0  0
  5  9  2  0  0  0  0
  6 19  2  0  0  0  0
  7 11  2  0  0  0  0
  7 12  1  0  0  0  0
  8 10  2  0  0  0  0
  8 21  1  0  0  0  0
  9 28  1  0  0  0  0
 10 29  1  0  0  0  0
 11 19  1  0  0  0  0
 11 30  1  0  0  0  0
 12 22  2  0  0  0  0
 12 27  1  0  0  0  0
 13 18  1  0  0  0  0
 13 21  1  0  0  0  0
 13 23  2  0  0  0  0
 14 16  1  0  0  0  0
 14 20  1  0  0  0  0
 15 17  1  0  0  0  0
 15 20  1  0  0  0  0
 16 26  1  0  0  0  0
 17 26  1  0  0  0  0
 18 27  1  0  0  0  0
 20 28  1  0  0  0  0
 24 28  2  0  0  0  0
 25 28  2  0  0  0  0
  1 31  1  0  0  0  0
  2 32  1  0  0  0  0
  3 33  1  0  0  0  0
  4 34  1  0  0  0  0
  5 35  1  0  0  0  0
  6 36  1  0  0  0  0
 14 37  1  0  0  0  0
 14 38  1  0  0  0  0
 15 39  1  0  0  0  0
 15 40  1  0  0  0  0
 16 41  1  0  0  0  0
 16 42  1  0  0  0  0
 17 43  1  0  0  0  0
 17 44  1  0  0  0  0
 18 45  1  0  0  0  0
 18 46  1  0  0  0  0
 21 47  1  0  0  0  0
M  END
> <Catalog ID>
Z19818758

> <MW>
474.315

> <MW (desalted)>
474.315

> <ClogP>
1.224

> <logS>
-5.018

> <HBD>
1

> <HBA>
6

> <TPSA>
114.9

> <RotBonds>
6

> <ROCS_ShapeQuery>
A71EV2A-x0451_0A_A71EV2A-x0310_0A_A71EV2A-x0416_0A_peptide

> <ROCS_TanimotoCombo>
0.546 

> <ROCS_ShapeTanimoto>
0.373 

> <ROCS_ColorTanimoto>
0.173 

> <ROCS_RefTversky>
0.334 

> <ROCS_RefColorTversky>
0.201 

> <ROCS_RefTverskyCombo>
0.535 

> <ROCS_FitTversky>
1.442 

> <ROCS_FitColorTversky>
0.555 

> <ROCS_FitTverskyCombo>
1.998 

> <ROCS_ColorScore>
-6.158

> <ROCS_Overlap>
2327.827

> <ROCS_Rank>
55                  

$$$$
untitled-dbase-11718_8672
  -OEChem-11132309573D

 52 55  0     1  0  0  0  0  0999 V2000
   13.5508   16.7120   18.3756 C   0  0  0  0  0  0  0  0  0  0  0  0
   14.6371   16.3419   19.1831 C   0  0  0  0  0  0  0  0  0  0  0  0
   12.2671   16.2377   18.6501 C   0  0  0  0  0  0  0  0  0  0  0  0
   14.4554   15.4936   20.2781 C   0  0  0  0  0  0  0  0  0  0  0  0
    9.3212   11.9051   23.8364 C   0  0  0  0  0  0  0  0  0  0  0  0
   12.0935   15.4076   19.7454 C   0  0  0  0  0  0  0  0  0  0  0  0
   13.1756   15.0397   20.5579 C   0  0  0  0  0  0  0  0  0  0  0  0
    8.0467   11.7873   24.4171 C   0  0  0  0  0  0  0  0  0  0  0  0
    9.7188   10.6066   23.6573 C   0  0  0  0  0  0  0  0  0  0  0  0
   10.0990   13.1199   23.4810 C   0  0  0  0  0  0  0  0  0  0  0  0
   13.2276   15.5463   23.5799 C   0  0  0  0  0  0  0  0  0  0  0  0
   10.8276   14.7493   20.2026 C   0  0  0  0  0  0  0  0  0  0  0  0
    7.2941   13.2144   27.2300 C   0  0  0  0  0  0  0  0  0  0  0  0
    5.8925   12.6775   26.9759 C   0  0  0  0  0  0  0  0  0  0  0  0
    7.7165   13.8222   25.9023 C   0  0  0  0  0  0  0  0  0  0  0  0
    5.7829   12.4339   25.4681 C   0  0  0  0  0  0  0  0  0  0  0  0
   12.7262   14.0928   21.6349 C   0  0  2  0  0  0  0  0  0  0  0  0
    7.1079   12.8967   24.8435 C   0  0  0  0  0  0  0  0  0  0  0  0
   11.2060   14.3681   21.6448 C   0  0  2  0  0  0  0  0  0  0  0  0
   10.9270    9.9751   23.1099 C   0  0  0  0  0  0  0  0  0  0  0  0
   13.9184   15.5558   24.9196 C   0  0  0  0  0  0  0  0  0  0  0  0
    7.6816   10.5133   24.5854 N   0  0  0  0  0  0  0  0  0  0  0  0
   10.4361   13.2607   22.1395 N   0  0  0  0  0  0  0  0  0  0  0  0
   13.3274   14.3288   22.9183 N   0  0  0  0  0  0  0  0  0  0  0  0
   10.4164   13.9095   24.3666 O   0  0  0  0  0  0  0  0  0  0  0  0
   12.6291   16.5316   23.1517 O   0  0  0  0  0  0  0  0  0  0  0  0
    8.7487    9.7666   24.1005 O   0  0  0  0  0  0  0  0  0  0  0  0
   13.1685   14.3084   25.9279 Cl  0  0  0  0  0  0  0  0  0  0  0  0
   13.7135   17.3670   17.5240 H   0  0  0  0  0  0  0  0  0  0  0  0
   15.6311   16.7133   18.9485 H   0  0  0  0  0  0  0  0  0  0  0  0
   11.4309   16.5129   18.0163 H   0  0  0  0  0  0  0  0  0  0  0  0
   15.3027   15.1992   20.8881 H   0  0  0  0  0  0  0  0  0  0  0  0
    9.9729   15.4317   20.1793 H   0  0  0  0  0  0  0  0  0  0  0  0
   10.6253   13.8697   19.5816 H   0  0  0  0  0  0  0  0  0  0  0  0
    7.2678   13.9893   28.0129 H   0  0  0  0  0  0  0  0  0  0  0  0
    7.9846   12.4274   27.5663 H   0  0  0  0  0  0  0  0  0  0  0  0
    5.7495   11.7235   27.5181 H   0  0  0  0  0  0  0  0  0  0  0  0
    5.1095   13.3680   27.3383 H   0  0  0  0  0  0  0  0  0  0  0  0
    7.3649   14.8540   25.8000 H   0  0  0  0  0  0  0  0  0  0  0  0
    8.8120   13.8398   25.8379 H   0  0  0  0  0  0  0  0  0  0  0  0
    5.5321   11.3839   25.2550 H   0  0  0  0  0  0  0  0  0  0  0  0
    4.9568   13.0435   25.0687 H   0  0  0  0  0  0  0  0  0  0  0  0
   12.9478   13.0633   21.3308 H   0  0  0  0  0  0  0  0  0  0  0  0
    6.8785   13.4955   23.9376 H   0  0  0  0  0  0  0  0  0  0  0  0
   10.9801   15.2222   22.2994 H   0  0  0  0  0  0  0  0  0  0  0  0
   11.6841    9.8022   23.8958 H   0  0  0  0  0  0  0  0  0  0  0  0
   10.7139    8.9980   22.6375 H   0  0  0  0  0  0  0  0  0  0  0  0
   11.4033   10.5897   22.3232 H   0  0  0  0  0  0  0  0  0  0  0  0
   14.9882   15.3469   24.8419 H   0  0  0  0  0  0  0  0  0  0  0  0
   13.7786   16.5312   25.3936 H   0  0  0  0  0  0  0  0  0  0  0  0
   10.1878   12.5277   21.4771 H   0  0  0  0  0  0  0  0  0  0  0  0
   13.8482   13.5725   23.3612 H   0  0  0  0  0  0  0  0  0  0  0  0
  1  2  1  0  0  0  0
  1  3  2  0  0  0  0
  2  4  2  0  0  0  0
  3  6  1  0  0  0  0
  4  7  1  0  0  0  0
  5  8  1  0  0  0  0
  5  9  2  0  0  0  0
  5 10  1  0  0  0  0
  6  7  2  0  0  0  0
  6 12  1  0  0  0  0
  7 17  1  0  0  0  0
  8 18  1  0  0  0  0
  8 22  2  0  0  0  0
  9 20  1  0  0  0  0
  9 27  1  0  0  0  0
 10 23  1  0  0  0  0
 10 25  2  0  0  0  0
 11 21  1  0  0  0  0
 11 24  1  0  0  0  0
 11 26  2  0  0  0  0
 12 19  1  0  0  0  0
 13 14  1  0  0  0  0
 13 15  1  0  0  0  0
 14 16  1  0  0  0  0
 15 18  1  0  0  0  0
 16 18  1  0  0  0  0
 17 19  1  0  0  0  0
 17 24  1  1  0  0  0
 19 23  1  6  0  0  0
 21 28  1  0  0  0  0
 22 27  1  0  0  0  0
  1 29  1  0  0  0  0
  2 30  1  0  0  0  0
  3 31  1  0  0  0  0
  4 32  1  0  0  0  0
 12 33  1  0  0  0  0
 12 34  1  0  0  0  0
 13 35  1  0  0  0  0
 13 36  1  0  0  0  0
 14 37  1  0  0  0  0
 14 38  1  0  0  0  0
 15 39  1  0  0  0  0
 15 40  1  0  0  0  0
 16 41  1  0  0  0  0
 16 42  1  0  0  0  0
 17 43  1  0  0  0  0
 18 44  1  0  0  0  0
 19 45  1  0  0  0  0
 20 46  1  0  0  0  0
 20 47  1  0  0  0  0
 20 48  1  0  0  0  0
 21 49  1  0  0  0  0
 21 50  1  0  0  0  0
 23 51  1  0  0  0  0
 24 52  1  0  0  0  0
M  END
> <Catalog ID>
Z4439378652

> <MW>
401.887

> <MW (desalted)>
401.887

> <ClogP>
2.626

> <logS>
-4.923

> <HBD>
2

> <HBA>
3

> <TPSA>
84.23

> <RotBonds>
5

> <ROCS_ShapeQuery>
A71EV2A-x0451_0A_A71EV2A-x0310_0A_A71EV2A-x0416_0A_peptide

> <ROCS_TanimotoCombo>
0.546 

> <ROCS_ShapeTanimoto>
0.354 

> <ROCS_ColorTanimoto>
0.192 

> <ROCS_RefTversky>
0.320 

> <ROCS_RefColorTversky>
0.214 

> <ROCS_RefTverskyCombo>
0.534 

> <ROCS_FitTversky>
1.428 

> <ROCS_FitColorTversky>
0.645 

> <ROCS_FitTverskyCombo>
2.073 

> <ROCS_ColorScore>
-6.546

> <ROCS_Overlap>
2228.227

> <ROCS_Rank>
56                  

$$$$
untitled-dbase-7501_13577
  -OEChem-11132309573D

 58 60  0     0  0  0  0  0  0999 V2000
    4.7532   12.4056   28.9590 C   0  0  0  0  0  0  0  0  0  0  0  0
    5.9454   11.7319   28.6941 C   0  0  0  0  0  0  0  0  0  0  0  0
    3.8340   12.6263   27.9332 C   0  0  0  0  0  0  0  0  0  0  0  0
   12.7050   15.9928   18.3328 C   0  0  0  0  0  0  0  0  0  0  0  0
   11.9223   15.0613   19.0058 C   0  0  0  0  0  0  0  0  0  0  0  0
    6.2186   11.2789   27.4034 C   0  0  0  0  0  0  0  0  0  0  0  0
    4.1072   12.1733   26.6425 C   0  0  0  0  0  0  0  0  0  0  0  0
   13.7786   16.5481   19.0101 C   0  0  0  0  0  0  0  0  0  0  0  0
   12.2328   14.7183   20.3170 C   0  0  0  0  0  0  0  0  0  0  0  0
    5.2995   11.4996   26.3776 C   0  0  0  0  0  0  0  0  0  0  0  0
   13.3277   15.3306   20.9054 C   0  0  0  0  0  0  0  0  0  0  0  0
    9.0772   12.2304   24.5625 C   0  0  0  0  0  0  0  0  0  0  0  0
    7.7454   12.2062   24.8186 C   0  0  0  0  0  0  0  0  0  0  0  0
    9.7813   10.9787   24.1587 C   0  0  0  0  0  0  0  0  0  0  0  0
    7.6260    9.7866   24.3298 C   0  0  0  0  0  0  0  0  0  0  0  0
   11.3910   13.7219   21.0261 C   0  0  0  0  0  0  0  0  0  0  0  0
   10.0278   14.1789   23.5209 C   0  0  0  0  0  0  0  0  0  0  0  0
   12.8197   13.5873   25.0501 C   0  0  0  0  0  0  0  0  0  0  0  0
   12.4116   13.2877   27.5135 C   0  0  0  0  0  0  0  0  0  0  0  0
    5.5930   11.0125   24.9881 C   0  0  0  0  0  0  0  0  0  0  0  0
    9.3643   13.7049   22.2377 C   0  0  0  0  0  0  0  0  0  0  0  0
   10.4433   13.6706   25.9545 C   0  0  0  0  0  0  0  0  0  0  0  0
   11.8457   13.0698   26.1095 C   0  0  0  0  0  0  0  0  0  0  0  0
   14.1113   16.2399   20.2836 N   0  0  0  0  0  0  0  0  0  0  0  0
    8.9888    9.8558   24.0774 N   0  0  0  0  0  0  0  0  0  0  0  0
    7.0298   11.0002   24.7037 N   0  0  0  0  0  0  0  0  0  0  0  0
    7.1056   13.3732   25.1917 N   0  0  0  0  0  0  0  0  0  0  0  0
    9.8554   13.3524   24.6469 N   0  0  0  0  0  0  0  0  0  0  0  0
   10.9869   10.9703   23.9192 O   0  0  0  0  0  0  0  0  0  0  0  0
    7.0237    8.7154   24.2210 O   0  0  0  0  0  0  0  0  0  0  0  0
   11.8265   12.6695   21.4668 O   0  0  0  0  0  0  0  0  0  0  0  0
   10.6777   15.2277   23.5315 O   0  0  0  0  0  0  0  0  0  0  0  0
   10.0964   14.1458   21.1106 O   0  0  0  0  0  0  0  0  0  0  0  0
   13.8142   14.9936   22.5214 Cl  0  0  0  0  0  0  0  0  0  0  0  0
    4.5400   12.7571   29.9643 H   0  0  0  0  0  0  0  0  0  0  0  0
    6.6608   11.5590   29.4929 H   0  0  0  0  0  0  0  0  0  0  0  0
    2.9052   13.1498   28.1393 H   0  0  0  0  0  0  0  0  0  0  0  0
   12.4824   16.2746   17.3100 H   0  0  0  0  0  0  0  0  0  0  0  0
   11.0750   14.6085   18.4976 H   0  0  0  0  0  0  0  0  0  0  0  0
    7.1503   10.7551   27.2062 H   0  0  0  0  0  0  0  0  0  0  0  0
    3.3853   12.3499   25.8496 H   0  0  0  0  0  0  0  0  0  0  0  0
   14.4205   17.2791   18.5293 H   0  0  0  0  0  0  0  0  0  0  0  0
   12.9736   14.6682   25.1309 H   0  0  0  0  0  0  0  0  0  0  0  0
   13.7970   13.1046   25.1593 H   0  0  0  0  0  0  0  0  0  0  0  0
   12.4510   13.3685   24.0425 H   0  0  0  0  0  0  0  0  0  0  0  0
   12.5390   14.3516   27.7392 H   0  0  0  0  0  0  0  0  0  0  0  0
   13.3905   12.8064   27.6128 H   0  0  0  0  0  0  0  0  0  0  0  0
   11.7494   12.8552   28.2710 H   0  0  0  0  0  0  0  0  0  0  0  0
    5.2126    9.9949   24.8473 H   0  0  0  0  0  0  0  0  0  0  0  0
    5.1088   11.6474   24.2386 H   0  0  0  0  0  0  0  0  0  0  0  0
    8.3487   14.1046   22.1692 H   0  0  0  0  0  0  0  0  0  0  0  0
    9.3357   12.6124   22.2124 H   0  0  0  0  0  0  0  0  0  0  0  0
    9.7739   13.2952   26.7360 H   0  0  0  0  0  0  0  0  0  0  0  0
   10.4883   14.7609   26.0519 H   0  0  0  0  0  0  0  0  0  0  0  0
   11.7478   11.9864   25.9599 H   0  0  0  0  0  0  0  0  0  0  0  0
    9.4464    8.9904   23.8047 H   0  0  0  0  0  0  0  0  0  0  0  0
    7.6509   14.1947   25.2590 H   0  0  0  0  0  0  0  0  0  0  0  0
    6.1350   13.3275   25.3724 H   0  0  0  0  0  0  0  0  0  0  0  0
  1  2  1  0  0  0  0
  1  3  2  0  0  0  0
  2  6  2  0  0  0  0
  3  7  1  0  0  0  0
  4  5  2  0  0  0  0
  4  8  1  0  0  0  0
  5  9  1  0  0  0  0
  6 10  1  0  0  0  0
  7 10  2  0  0  0  0
  8 24  2  0  0  0  0
  9 11  2  0  0  0  0
  9 16  1  0  0  0  0
 10 20  1  0  0  0  0
 11 24  1  0  0  0  0
 11 34  1  0  0  0  0
 12 13  2  0  0  0  0
 12 14  1  0  0  0  0
 12 28  1  0  0  0  0
 13 26  1  0  0  0  0
 13 27  1  0  0  0  0
 14 25  1  0  0  0  0
 14 29  2  0  0  0  0
 15 25  1  0  0  0  0
 15 26  1  0  0  0  0
 15 30  2  0  0  0  0
 16 31  2  0  0  0  0
 16 33  1  0  0  0  0
 17 21  1  0  0  0  0
 17 28  1  0  0  0  0
 17 32  2  0  0  0  0
 18 23  1  0  0  0  0
 19 23  1  0  0  0  0
 20 26  1  0  0  0  0
 21 33  1  0  0  0  0
 22 23  1  0  0  0  0
 22 28  1  0  0  0  0
  1 35  1  0  0  0  0
  2 36  1  0  0  0  0
  3 37  1  0  0  0  0
  4 38  1  0  0  0  0
  5 39  1  0  0  0  0
  6 40  1  0  0  0  0
  7 41  1  0  0  0  0
  8 42  1  0  0  0  0
 18 43  1  0  0  0  0
 18 44  1  0  0  0  0
 18 45  1  0  0  0  0
 19 46  1  0  0  0  0
 19 47  1  0  0  0  0
 19 48  1  0  0  0  0
 20 49  1  0  0  0  0
 20 50  1  0  0  0  0
 21 51  1  0  0  0  0
 21 52  1  0  0  0  0
 22 53  1  0  0  0  0
 22 54  1  0  0  0  0
 23 55  1  0  0  0  0
 25 56  1  0  0  0  0
 27 57  1  0  0  0  0
 27 58  1  0  0  0  0
M  END
> <Catalog ID>
Z54185429

> <MW>
485.92

> <MW (desalted)>
485.92

> <ClogP>
1.631

> <logS>
-6.395

> <HBD>
2

> <HBA>
6

> <TPSA>
134.93

> <RotBonds>
9

> <ROCS_ShapeQuery>
A71EV2A-x0451_0A_A71EV2A-x0310_0A_A71EV2A-x0416_0A_peptide

> <ROCS_TanimotoCombo>
0.546 

> <ROCS_ShapeTanimoto>
0.386 

> <ROCS_ColorTanimoto>
0.160 

> <ROCS_RefTversky>
0.351 

> <ROCS_RefColorTversky>
0.196 

> <ROCS_RefTverskyCombo>
0.547 

> <ROCS_FitTversky>
1.343 

> <ROCS_FitColorTversky>
0.463 

> <ROCS_FitTverskyCombo>
1.807 

> <ROCS_ColorScore>
-6.013

> <ROCS_Overlap>
2449.778

> <ROCS_Rank>
57                  

$$$$
untitled-dbase-1027_2496
  -OEChem-11132309573D

 42 44  0     0  0  0  0  0  0999 V2000
   11.1227   15.6542   20.9101 C   0  0  0  0  0  0  0  0  0  0  0  0
   14.9025   12.0825   23.8957 C   0  0  0  0  0  0  0  0  0  0  0  0
    8.9754    9.5428   23.5537 C   0  0  0  0  0  0  0  0  0  0  0  0
    9.7622   10.4890   22.8869 C   0  0  0  0  0  0  0  0  0  0  0  0
   14.4857   12.5935   22.6434 C   0  0  0  0  0  0  0  0  0  0  0  0
    7.0607    9.3235   25.3116 C   0  0  0  0  0  0  0  0  0  0  0  0
    8.6430   12.3113   24.0407 C   0  0  0  0  0  0  0  0  0  0  0  0
    6.3739   10.2894   26.0103 C   0  0  0  0  0  0  0  0  0  0  0  0
   14.3347   12.8961   24.8484 C   0  0  0  0  0  0  0  0  0  0  0  0
    8.0073    9.9826   24.4782 C   0  0  0  0  0  0  0  0  0  0  0  0
    7.8637   11.3539   24.6999 C   0  0  0  0  0  0  0  0  0  0  0  0
    9.5969   11.8514   23.1282 C   0  0  0  0  0  0  0  0  0  0  0  0
   13.6926   13.6828   22.9201 C   0  0  0  0  0  0  0  0  0  0  0  0
   13.0169   14.5620   21.9532 C   0  0  0  0  0  0  0  0  0  0  0  0
   11.6884   14.7800   21.8874 C   0  0  0  0  0  0  0  0  0  0  0  0
   10.8260   14.0363   22.8848 C   0  0  0  0  0  0  0  0  0  0  0  0
    5.5269   12.6155   27.3870 C   0  0  0  0  0  0  0  0  0  0  0  0
    5.7116   12.5318   29.8660 C   0  0  0  0  0  0  0  0  0  0  0  0
    6.3913   12.7752   26.1547 C   0  0  0  0  0  0  0  0  0  0  0  0
   10.6584   16.3630   20.1171 N   0  0  0  0  0  0  0  0  0  0  0  0
    6.8651   11.5108   25.6345 N   0  0  0  0  0  0  0  0  0  0  0  0
   10.3955   12.7731   22.4486 N   0  0  0  0  0  0  0  0  0  0  0  0
    6.2864   12.6618   28.5471 N   0  0  0  0  0  0  0  0  0  0  0  0
   10.5544   14.5431   23.9705 O   0  0  0  0  0  0  0  0  0  0  0  0
    4.3091   12.4629   27.3444 O   0  0  0  0  0  0  0  0  0  0  0  0
   13.5955   13.8740   24.2620 O   0  0  0  0  0  0  0  0  0  0  0  0
   15.5396   11.2297   24.0803 H   0  0  0  0  0  0  0  0  0  0  0  0
    9.1147    8.4837   23.3563 H   0  0  0  0  0  0  0  0  0  0  0  0
   10.5077   10.1432   22.1742 H   0  0  0  0  0  0  0  0  0  0  0  0
   14.7386   12.2087   21.6650 H   0  0  0  0  0  0  0  0  0  0  0  0
    6.8993    8.2572   25.3919 H   0  0  0  0  0  0  0  0  0  0  0  0
    8.5112   13.3719   24.2317 H   0  0  0  0  0  0  0  0  0  0  0  0
    5.5797   10.2070   26.7401 H   0  0  0  0  0  0  0  0  0  0  0  0
   14.3601   12.9132   25.9282 H   0  0  0  0  0  0  0  0  0  0  0  0
   13.7049   15.0608   21.2742 H   0  0  0  0  0  0  0  0  0  0  0  0
    5.4722   13.5297   30.2621 H   0  0  0  0  0  0  0  0  0  0  0  0
    4.7925   11.9303   29.8077 H   0  0  0  0  0  0  0  0  0  0  0  0
    6.4326   12.0361   30.5328 H   0  0  0  0  0  0  0  0  0  0  0  0
    7.2639   13.3943   26.3917 H   0  0  0  0  0  0  0  0  0  0  0  0
    5.8220   13.2757   25.3633 H   0  0  0  0  0  0  0  0  0  0  0  0
   10.7070   12.4919   21.5126 H   0  0  0  0  0  0  0  0  0  0  0  0
    7.2953   12.7573   28.4777 H   0  0  0  0  0  0  0  0  0  0  0  0
  1 15  1  0  0  0  0
  1 20  3  0  0  0  0
  2  5  1  0  0  0  0
  2  9  2  0  0  0  0
  3  4  2  0  0  0  0
  3 10  1  0  0  0  0
  4 12  1  0  0  0  0
  5 13  2  0  0  0  0
  6  8  2  0  0  0  0
  6 10  1  0  0  0  0
  7 11  1  0  0  0  0
  7 12  2  0  0  0  0
  8 21  1  0  0  0  0
  9 26  1  0  0  0  0
 10 11  2  0  0  0  0
 11 21  1  0  0  0  0
 12 22  1  0  0  0  0
 13 14  1  4  0  0  0
 13 26  1  0  0  0  0
 14 15  2  0  0  0  0
 15 16  1  0  0  0  0
 16 22  1  0  0  0  0
 16 24  2  0  0  0  0
 17 19  1  0  0  0  0
 17 23  1  0  0  0  0
 17 25  2  0  0  0  0
 18 23  1  0  0  0  0
 19 21  1  0  0  0  0
  2 27  1  0  0  0  0
  3 28  1  0  0  0  0
  4 29  1  0  0  0  0
  5 30  1  0  0  0  0
  6 31  1  0  0  0  0
  7 32  1  0  0  0  0
  8 33  1  0  0  0  0
  9 34  1  0  0  0  0
 14 35  1  0  0  0  0
 18 36  1  0  0  0  0
 18 37  1  0  0  0  0
 18 38  1  0  0  0  0
 19 39  1  0  0  0  0
 19 40  1  0  0  0  0
 22 41  1  0  0  0  0
 23 42  1  0  0  0  0
M  END
> <Catalog ID>
Z1303029961

> <MW>
348.355

> <MW (desalted)>
348.355

> <ClogP>
1.741

> <logS>
-3.86

> <HBD>
2

> <HBA>
3

> <TPSA>
100.06

> <RotBonds>
5

> <ROCS_ShapeQuery>
A71EV2A-x0451_0A_A71EV2A-x0310_0A_A71EV2A-x0416_0A_peptide

> <ROCS_TanimotoCombo>
0.545 

> <ROCS_ShapeTanimoto>
0.370 

> <ROCS_ColorTanimoto>
0.176 

> <ROCS_RefTversky>
0.328 

> <ROCS_RefColorTversky>
0.199 

> <ROCS_RefTverskyCombo>
0.527 

> <ROCS_FitTversky>
1.525 

> <ROCS_FitColorTversky>
0.600 

> <ROCS_FitTverskyCombo>
2.125 

> <ROCS_ColorScore>
-6.092

> <ROCS_Overlap>
2280.296

> <ROCS_Rank>
58                  

$$$$
untitled-dbase-8638_3108
  -OEChem-11132309573D

 50 53  0     0  0  0  0  0  0999 V2000
   11.5869   12.5831   24.4188 C   0  0  0  0  0  0  0  0  0  0  0  0
   13.2544   17.2275   19.8927 C   0  0  0  0  0  0  0  0  0  0  0  0
   13.7333   16.7039   18.6918 C   0  0  0  0  0  0  0  0  0  0  0  0
    6.3068   11.7953   28.0613 C   0  0  0  0  0  0  0  0  0  0  0  0
    4.1802   11.8188   26.9150 C   0  0  0  0  0  0  0  0  0  0  0  0
   12.6497   16.3876   20.8279 C   0  0  0  0  0  0  0  0  0  0  0  0
   13.6073   15.3404   18.4260 C   0  0  0  0  0  0  0  0  0  0  0  0
    5.7840   12.6307   29.0484 C   0  0  0  0  0  0  0  0  0  0  0  0
    3.6574   12.6542   27.9022 C   0  0  0  0  0  0  0  0  0  0  0  0
    5.5049   11.3894   26.9946 C   0  0  0  0  0  0  0  0  0  0  0  0
    8.7365   11.9957   23.9363 C   0  0  0  0  0  0  0  0  0  0  0  0
    7.5681   12.1154   24.7277 C   0  0  0  0  0  0  0  0  0  0  0  0
   12.5237   15.0241   20.5621 C   0  0  0  0  0  0  0  0  0  0  0  0
    4.4593   13.0601   28.9689 C   0  0  0  0  0  0  0  0  0  0  0  0
   13.0025   14.5005   19.3612 C   0  0  0  0  0  0  0  0  0  0  0  0
    9.0476   10.6548   23.8621 C   0  0  0  0  0  0  0  0  0  0  0  0
    7.1946   10.8469   25.1164 C   0  0  0  0  0  0  0  0  0  0  0  0
   10.0810    9.9043   23.2298 C   0  0  0  0  0  0  0  0  0  0  0  0
   10.1013    8.5634   23.3559 C   0  0  0  0  0  0  0  0  0  0  0  0
    9.0898    7.8572   24.1251 C   0  0  0  0  0  0  0  0  0  0  0  0
    8.1138    8.5599   24.7227 C   0  0  0  0  0  0  0  0  0  0  0  0
    9.4675   13.0395   23.3243 C   0  0  0  0  0  0  0  0  0  0  0  0
   10.7970   13.3624   23.5198 C   0  0  0  0  0  0  0  0  0  0  0  0
    6.0693   10.4879   25.9297 C   0  0  0  0  0  0  0  0  0  0  0  0
   11.3819   14.5284   22.7517 C   0  0  0  0  0  0  0  0  0  0  0  0
    6.8706   13.3730   25.0767 C   0  0  0  0  0  0  0  0  0  0  0  0
   12.2331   11.9522   25.1477 N   0  0  0  0  0  0  0  0  0  0  0  0
    8.0953    9.9487   24.5906 N   0  0  0  0  0  0  0  0  0  0  0  0
   11.9087   14.1726   21.5150 N   0  0  0  0  0  0  0  0  0  0  0  0
    5.4953    9.3863   25.7870 O   0  0  0  0  0  0  0  0  0  0  0  0
   11.3642   15.6594   23.2310 O   0  0  0  0  0  0  0  0  0  0  0  0
    3.9572   13.8622   29.9168 F   0  0  0  0  0  0  0  0  0  0  0  0
   12.8870   13.1915   19.0948 F   0  0  0  0  0  0  0  0  0  0  0  0
   13.3520   18.2893   20.0988 H   0  0  0  0  0  0  0  0  0  0  0  0
   14.2037   17.3579   17.9634 H   0  0  0  0  0  0  0  0  0  0  0  0
    7.3403   11.4666   28.1332 H   0  0  0  0  0  0  0  0  0  0  0  0
    3.5461   11.5080   26.0884 H   0  0  0  0  0  0  0  0  0  0  0  0
   12.2801   16.8071   21.7602 H   0  0  0  0  0  0  0  0  0  0  0  0
   13.9799   14.9329   17.4912 H   0  0  0  0  0  0  0  0  0  0  0  0
    6.4081   12.9466   29.8791 H   0  0  0  0  0  0  0  0  0  0  0  0
    2.6259   12.9890   27.8402 H   0  0  0  0  0  0  0  0  0  0  0  0
   10.8446   10.4132   22.6511 H   0  0  0  0  0  0  0  0  0  0  0  0
   10.8791    7.9732   22.8838 H   0  0  0  0  0  0  0  0  0  0  0  0
    9.1459    6.7782   24.2000 H   0  0  0  0  0  0  0  0  0  0  0  0
    7.3349    8.0861   25.3082 H   0  0  0  0  0  0  0  0  0  0  0  0
    8.9081   13.6583   22.5894 H   0  0  0  0  0  0  0  0  0  0  0  0
    6.1045   13.6197   24.3255 H   0  0  0  0  0  0  0  0  0  0  0  0
    6.3734   13.3074   26.0580 H   0  0  0  0  0  0  0  0  0  0  0  0
    7.5677   14.2241   25.1412 H   0  0  0  0  0  0  0  0  0  0  0  0
   11.8457   13.1893   21.2652 H   0  0  0  0  0  0  0  0  0  0  0  0
  1 23  1  0  0  0  0
  1 27  3  0  0  0  0
  2  3  1  0  0  0  0
  2  6  2  0  0  0  0
  3  7  2  0  0  0  0
  4  8  2  0  0  0  0
  4 10  1  0  0  0  0
  5  9  1  0  0  0  0
  5 10  2  0  0  0  0
  6 13  1  0  0  0  0
  7 15  1  0  0  0  0
  8 14  1  0  0  0  0
  9 14  2  0  0  0  0
 10 24  1  0  0  0  0
 11 12  1  0  0  0  0
 11 16  2  0  0  0  0
 11 22  1  4  0  0  0
 12 17  2  0  0  0  0
 12 26  1  0  0  0  0
 13 15  2  0  0  0  0
 13 29  1  0  0  0  0
 14 32  1  0  0  0  0
 15 33  1  0  0  0  0
 16 18  1  0  0  0  0
 16 28  1  0  0  0  0
 17 24  1  0  0  0  0
 17 28  1  0  0  0  0
 18 19  2  0  0  0  0
 19 20  1  0  0  0  0
 20 21  2  0  0  0  0
 21 28  1  0  0  0  0
 22 23  2  0  0  0  0
 23 25  1  0  0  0  0
 24 30  2  0  0  0  0
 25 29  1  0  0  0  0
 25 31  2  0  0  0  0
  2 34  1  0  0  0  0
  3 35  1  0  0  0  0
  4 36  1  0  0  0  0
  5 37  1  0  0  0  0
  6 38  1  0  0  0  0
  7 39  1  0  0  0  0
  8 40  1  0  0  0  0
  9 41  1  0  0  0  0
 18 42  1  0  0  0  0
 19 43  1  0  0  0  0
 20 44  1  0  0  0  0
 21 45  1  0  0  0  0
 22 46  1  0  0  0  0
 26 47  1  0  0  0  0
 26 48  1  0  0  0  0
 26 49  1  0  0  0  0
 29 50  1  0  0  0  0
M  END
> <Catalog ID>
Z46076354

> <MW>
441.429

> <MW (desalted)>
441.429

> <ClogP>
5.124

> <logS>
-7.19

> <HBD>
1

> <HBA>
3

> <TPSA>
74.37

> <RotBonds>
5

> <ROCS_ShapeQuery>
A71EV2A-x0451_0A_A71EV2A-x0310_0A_A71EV2A-x0416_0A_peptide

> <ROCS_TanimotoCombo>
0.545 

> <ROCS_ShapeTanimoto>
0.416 

> <ROCS_ColorTanimoto>
0.129 

> <ROCS_RefTversky>
0.370 

> <ROCS_RefColorTversky>
0.149 

> <ROCS_RefTverskyCombo>
0.519 

> <ROCS_FitTversky>
1.425 

> <ROCS_FitColorTversky>
0.494 

> <ROCS_FitTverskyCombo>
1.920 

> <ROCS_ColorScore>
-4.549

> <ROCS_Overlap>
2580.723

> <ROCS_Rank>
59                  

$$$$
untitled-dbase-1383_3939
  -OEChem-11132309573D

 47 49  0     0  0  0  0  0  0999 V2000
   12.3759   13.8590   20.5099 C   0  0  0  0  0  0  0  0  0  0  0  0
   13.6646   13.4940   20.8993 C   0  0  0  0  0  0  0  0  0  0  0  0
   11.3285   13.8073   21.4297 C   0  0  0  0  0  0  0  0  0  0  0  0
    6.1953   10.8964   25.6935 C   0  0  0  0  0  0  0  0  0  0  0  0
    7.0502   10.0341   25.0098 C   0  0  0  0  0  0  0  0  0  0  0  0
   13.9059   13.0770   22.2083 C   0  0  0  0  0  0  0  0  0  0  0  0
    7.6354   12.7911   25.1730 C   0  0  0  0  0  0  0  0  0  0  0  0
    6.4839   12.2653   25.7698 C   0  0  0  0  0  0  0  0  0  0  0  0
   11.5697   13.3903   22.7387 C   0  0  0  0  0  0  0  0  0  0  0  0
    8.1851   10.5657   24.4161 C   0  0  0  0  0  0  0  0  0  0  0  0
   12.8584   13.0252   23.1280 C   0  0  0  0  0  0  0  0  0  0  0  0
    8.4947   11.9275   24.5113 C   0  0  0  0  0  0  0  0  0  0  0  0
   16.7068   10.0333   26.3067 C   0  0  0  0  0  0  0  0  0  0  0  0
   16.3389   10.7236   25.2231 C   0  0  0  0  0  0  0  0  0  0  0  0
   10.4486   13.3444   23.6863 C   0  0  0  0  0  0  0  0  0  0  0  0
    5.5736   13.1520   26.4796 C   0  0  0  0  0  0  0  0  0  0  0  0
   15.3695   11.8457   25.3385 C   0  0  0  0  0  0  0  0  0  0  0  0
    9.2350    9.8187   23.6576 C   0  0  0  0  0  0  0  0  0  0  0  0
   10.0553   10.9665   23.0675 C   0  0  0  0  0  0  0  0  0  0  0  0
    4.0054   13.2723   28.2729 C   0  0  0  0  0  0  0  0  0  0  0  0
   13.1448   12.5744   24.5230 C   0  0  0  0  0  0  0  0  0  0  0  0
    9.6943   12.1849   23.8129 N   0  0  0  0  0  0  0  0  0  0  0  0
   14.2295   11.6289   24.5789 N   0  0  0  0  0  0  0  0  0  0  0  0
   10.2005   14.3950   24.2809 O   0  0  0  0  0  0  0  0  0  0  0  0
    5.3989   14.3450   26.1993 O   0  0  0  0  0  0  0  0  0  0  0  0
   15.5846   12.8352   26.0312 O   0  0  0  0  0  0  0  0  0  0  0  0
    4.9314   12.5029   27.4982 O   0  0  0  0  0  0  0  0  0  0  0  0
   12.1875   14.1840   19.4906 H   0  0  0  0  0  0  0  0  0  0  0  0
   14.4798   13.5343   20.1826 H   0  0  0  0  0  0  0  0  0  0  0  0
   10.3285   14.0933   21.1136 H   0  0  0  0  0  0  0  0  0  0  0  0
    5.3044   10.4949   26.1696 H   0  0  0  0  0  0  0  0  0  0  0  0
    6.8316    8.9735   24.9499 H   0  0  0  0  0  0  0  0  0  0  0  0
   14.9137   12.7952   22.5015 H   0  0  0  0  0  0  0  0  0  0  0  0
    7.8299   13.8575   25.2353 H   0  0  0  0  0  0  0  0  0  0  0  0
   17.4136    9.2153   26.2143 H   0  0  0  0  0  0  0  0  0  0  0  0
   16.3264   10.2549   27.2977 H   0  0  0  0  0  0  0  0  0  0  0  0
   16.7438   10.4697   24.2494 H   0  0  0  0  0  0  0  0  0  0  0  0
    9.8365    9.2114   24.3372 H   0  0  0  0  0  0  0  0  0  0  0  0
    8.7959    9.1977   22.8749 H   0  0  0  0  0  0  0  0  0  0  0  0
   11.1312   10.7817   23.1508 H   0  0  0  0  0  0  0  0  0  0  0  0
    9.8162   11.1253   22.0099 H   0  0  0  0  0  0  0  0  0  0  0  0
    3.5645   12.6406   29.0479 H   0  0  0  0  0  0  0  0  0  0  0  0
    3.2225   13.6668   27.6202 H   0  0  0  0  0  0  0  0  0  0  0  0
    4.5384   14.1026   28.7422 H   0  0  0  0  0  0  0  0  0  0  0  0
   13.4127   13.4246   25.1644 H   0  0  0  0  0  0  0  0  0  0  0  0
   12.2675   12.0960   24.9775 H   0  0  0  0  0  0  0  0  0  0  0  0
   14.1554   10.7879   24.0097 H   0  0  0  0  0  0  0  0  0  0  0  0
  1  2  1  0  0  0  0
  1  3  2  0  0  0  0
  2  6  2  0  0  0  0
  3  9  1  0  0  0  0
  4  5  2  0  0  0  0
  4  8  1  0  0  0  0
  5 10  1  0  0  0  0
  6 11  1  0  0  0  0
  7  8  2  0  0  0  0
  7 12  1  0  0  0  0
  8 16  1  0  0  0  0
  9 11  2  0  0  0  0
  9 15  1  0  0  0  0
 10 12  2  0  0  0  0
 10 18  1  0  0  0  0
 11 21  1  0  0  0  0
 12 22  1  0  0  0  0
 13 14  2  0  0  0  0
 14 17  1  0  0  0  0
 15 22  1  0  0  0  0
 15 24  2  0  0  0  0
 16 25  2  0  0  0  0
 16 27  1  0  0  0  0
 17 23  1  0  0  0  0
 17 26  2  0  0  0  0
 18 19  1  0  0  0  0
 19 22  1  0  0  0  0
 20 27  1  0  0  0  0
 21 23  1  0  0  0  0
  1 28  1  0  0  0  0
  2 29  1  0  0  0  0
  3 30  1  0  0  0  0
  4 31  1  0  0  0  0
  5 32  1  0  0  0  0
  6 33  1  0  0  0  0
  7 34  1  0  0  0  0
 13 35  1  0  0  0  0
 13 36  1  0  0  0  0
 14 37  1  0  0  0  0
 18 38  1  0  0  0  0
 18 39  1  0  0  0  0
 19 40  1  0  0  0  0
 19 41  1  0  0  0  0
 20 42  1  0  0  0  0
 20 43  1  0  0  0  0
 20 44  1  0  0  0  0
 21 45  1  0  0  0  0
 21 46  1  0  0  0  0
 23 47  1  0  0  0  0
M  END
> <Catalog ID>
Z4899903305

> <MW>
364.395

> <MW (desalted)>
364.395

> <ClogP>
1.643

> <logS>
-4.831

> <HBD>
1

> <HBA>
3

> <TPSA>
75.71

> <RotBonds>
6

> <ROCS_ShapeQuery>
A71EV2A-x0451_0A_A71EV2A-x0310_0A_A71EV2A-x0416_0A_peptide

> <ROCS_TanimotoCombo>
0.545 

> <ROCS_ShapeTanimoto>
0.361 

> <ROCS_ColorTanimoto>
0.185 

> <ROCS_RefTversky>
0.323 

> <ROCS_RefColorTversky>
0.203 

> <ROCS_RefTverskyCombo>
0.526 

> <ROCS_FitTversky>
1.472 

> <ROCS_FitColorTversky>
0.673 

> <ROCS_FitTverskyCombo>
2.145 

> <ROCS_ColorScore>
-6.194

> <ROCS_Overlap>
2248.577

> <ROCS_Rank>
60                  

$$$$
untitled-dbase-5909_8681
  -OEChem-11132309573D

 53 55  0     1  0  0  0  0  0999 V2000
   14.2848   17.9466   17.3020 C   0  0  0  0  0  0  0  0  0  0  0  0
   14.4612   18.5795   18.5289 C   0  0  0  0  0  0  0  0  0  0  0  0
   13.7746   16.6490   17.2523 C   0  0  0  0  0  0  0  0  0  0  0  0
   14.1280   17.9173   19.7108 C   0  0  0  0  0  0  0  0  0  0  0  0
   12.9191   14.6611   18.4007 C   0  0  0  0  0  0  0  0  0  0  0  0
   12.5860   13.9988   19.5826 C   0  0  0  0  0  0  0  0  0  0  0  0
   13.2726   15.9293   20.8593 C   0  0  0  0  0  0  0  0  0  0  0  0
   13.4339   15.9674   18.4320 C   0  0  0  0  0  0  0  0  0  0  0  0
   13.6133   16.6110   19.6796 C   0  0  0  0  0  0  0  0  0  0  0  0
   12.7624   14.6317   20.8095 C   0  0  0  0  0  0  0  0  0  0  0  0
    7.0850   10.8613   25.3072 C   0  0  0  0  0  0  0  0  0  0  0  0
    7.4296   11.9973   24.6876 C   0  0  0  0  0  0  0  0  0  0  0  0
    7.8291    9.6524   24.9128 C   0  0  0  0  0  0  0  0  0  0  0  0
    9.1240   10.8076   23.3829 C   0  0  0  0  0  0  0  0  0  0  0  0
   10.2574   13.5559   23.3211 C   0  0  0  0  0  0  0  0  0  0  0  0
   13.6477   12.9627   24.7234 C   0  0  0  0  0  0  0  0  0  0  0  0
    6.7247   13.2816   25.0263 C   0  0  0  0  0  0  0  0  0  0  0  0
    7.4671    8.3558   25.5894 C   0  0  0  0  0  0  0  0  0  0  0  0
    8.8057   13.2471   23.0576 C   0  0  0  0  0  0  0  0  0  0  0  0
   13.4918   12.3121   26.0742 C   0  0  0  0  0  0  0  0  0  0  0  0
   13.2010   12.6162   22.3105 C   0  0  0  0  0  0  0  0  0  0  0  0
   12.3989   13.9092   22.0951 C   0  0  2  0  0  0  0  0  0  0  0  0
    8.7682    9.6351   24.0240 N   0  0  0  0  0  0  0  0  0  0  0  0
    8.4403   11.9988   23.7267 N   0  0  0  0  0  0  0  0  0  0  0  0
   13.1687   12.1811   23.6825 N   0  0  0  0  0  0  0  0  0  0  0  0
   10.9827   13.6246   22.1402 N   0  0  0  0  0  0  0  0  0  0  0  0
   10.0183   10.7951   22.5348 O   0  0  0  0  0  0  0  0  0  0  0  0
   10.7190   13.7244   24.4467 O   0  0  0  0  0  0  0  0  0  0  0  0
   14.1395   14.0826   24.5957 O   0  0  0  0  0  0  0  0  0  0  0  0
   15.1046   12.1360   26.7832 Cl  0  0  0  0  0  0  0  0  0  0  0  0
   14.5447   18.4628   16.3826 H   0  0  0  0  0  0  0  0  0  0  0  0
   14.8589   19.5894   18.5667 H   0  0  0  0  0  0  0  0  0  0  0  0
   13.6449   16.1742   16.2818 H   0  0  0  0  0  0  0  0  0  0  0  0
   14.2746   18.4313   20.6586 H   0  0  0  0  0  0  0  0  0  0  0  0
   12.7731   14.1469   17.4528 H   0  0  0  0  0  0  0  0  0  0  0  0
   12.1894   12.9881   19.5351 H   0  0  0  0  0  0  0  0  0  0  0  0
   13.4054   16.4131   21.8257 H   0  0  0  0  0  0  0  0  0  0  0  0
    6.3093   10.8007   26.0594 H   0  0  0  0  0  0  0  0  0  0  0  0
    7.2503   13.7765   25.8381 H   0  0  0  0  0  0  0  0  0  0  0  0
    5.7041   13.0628   25.3286 H   0  0  0  0  0  0  0  0  0  0  0  0
    6.7105   13.9253   24.1510 H   0  0  0  0  0  0  0  0  0  0  0  0
    6.6881    7.8612   25.0179 H   0  0  0  0  0  0  0  0  0  0  0  0
    7.1127    8.5646   26.5942 H   0  0  0  0  0  0  0  0  0  0  0  0
    8.3475    7.7225   25.6404 H   0  0  0  0  0  0  0  0  0  0  0  0
    8.1807   14.0583   23.4423 H   0  0  0  0  0  0  0  0  0  0  0  0
    8.6386   13.1401   21.9818 H   0  0  0  0  0  0  0  0  0  0  0  0
   12.8723   12.9011   26.7551 H   0  0  0  0  0  0  0  0  0  0  0  0
   13.0447   11.3219   25.9510 H   0  0  0  0  0  0  0  0  0  0  0  0
   12.7785   11.7976   21.7167 H   0  0  0  0  0  0  0  0  0  0  0  0
   14.2531   12.7231   22.0260 H   0  0  0  0  0  0  0  0  0  0  0  0
   12.6129   14.5786   22.9386 H   0  0  0  0  0  0  0  0  0  0  0  0
   12.7797   11.2655   23.8967 H   0  0  0  0  0  0  0  0  0  0  0  0
   10.4939   13.4671   21.2637 H   0  0  0  0  0  0  0  0  0  0  0  0
  1  2  1  0  0  0  0
  1  3  2  0  0  0  0
  2  4  2  0  0  0  0
  3  8  1  0  0  0  0
  4  9  1  0  0  0  0
  5  6  2  0  0  0  0
  5  8  1  0  0  0  0
  6 10  1  0  0  0  0
  7  9  1  0  0  0  0
  7 10  2  0  0  0  0
  8  9  2  0  0  0  0
 10 22  1  0  0  0  0
 11 12  2  0  0  0  0
 11 13  1  0  0  0  0
 12 17  1  0  0  0  0
 12 24  1  0  0  0  0
 13 18  1  0  0  0  0
 13 23  2  0  0  0  0
 14 23  1  0  0  0  0
 14 24  1  0  0  0  0
 14 27  2  0  0  0  0
 15 19  1  0  0  0  0
 15 26  1  0  0  0  0
 15 28  2  0  0  0  0
 16 20  1  0  0  0  0
 16 25  1  0  0  0  0
 16 29  2  0  0  0  0
 19 24  1  0  0  0  0
 20 30  1  0  0  0  0
 21 22  1  0  0  0  0
 21 25  1  0  0  0  0
 22 26  1  0  0  0  0
  1 31  1  0  0  0  0
  2 32  1  0  0  0  0
  3 33  1  0  0  0  0
  4 34  1  0  0  0  0
  5 35  1  0  0  0  0
  6 36  1  0  0  0  0
  7 37  1  0  0  0  0
 11 38  1  0  0  0  0
 17 39  1  0  0  0  0
 17 40  1  0  0  0  0
 17 41  1  0  0  0  0
 18 42  1  0  0  0  0
 18 43  1  0  0  0  0
 18 44  1  0  0  0  0
 19 45  1  0  0  0  0
 19 46  1  0  0  0  0
 20 47  1  0  0  0  0
 20 48  1  0  0  0  0
 21 49  1  0  0  0  0
 21 50  1  0  0  0  0
 22 51  1  0  0  0  0
 25 52  1  0  0  0  0
 26 53  1  0  0  0  0
M  END
> <Catalog ID>
Z4425211933

> <MW>
426.896

> <MW (desalted)>
426.896

> <ClogP>
2.355

> <logS>
-4.99

> <HBD>
2

> <HBA>
4

> <TPSA>
90.87

> <RotBonds>
7

> <ROCS_ShapeQuery>
A71EV2A-x0451_0A_A71EV2A-x0310_0A_A71EV2A-x0416_0A_peptide

> <ROCS_TanimotoCombo>
0.545 

> <ROCS_ShapeTanimoto>
0.348 

> <ROCS_ColorTanimoto>
0.197 

> <ROCS_RefTversky>
0.319 

> <ROCS_RefColorTversky>
0.224 

> <ROCS_RefTverskyCombo>
0.543 

> <ROCS_FitTversky>
1.354 

> <ROCS_FitColorTversky>
0.618 

> <ROCS_FitTverskyCombo>
1.973 

> <ROCS_ColorScore>
-6.866

> <ROCS_Overlap>
2221.324

> <ROCS_Rank>
61                  

$$$$
untitled-dbase-4086_8473
  -OEChem-11132309573D

 59 61  0     1  0  0  0  0  0999 V2000
    9.7678   13.6849   21.0289 C   0  0  0  0  0  0  0  0  0  0  0  0
    6.6977   12.7969   25.9922 C   0  0  0  0  0  0  0  0  0  0  0  0
    6.2298   11.4962   26.1390 C   0  0  0  0  0  0  0  0  0  0  0  0
    7.7758   13.0660   25.1435 C   0  0  0  0  0  0  0  0  0  0  0  0
    6.8316   10.4641   25.4265 C   0  0  0  0  0  0  0  0  0  0  0  0
   12.1776   14.6146   19.4296 C   0  0  0  0  0  0  0  0  0  0  0  0
   12.4333   15.0461   20.7546 C   0  0  0  0  0  0  0  0  0  0  0  0
    8.4187   12.0345   24.4427 C   0  0  0  0  0  0  0  0  0  0  0  0
    7.9150   10.7292   24.5802 C   0  0  0  0  0  0  0  0  0  0  0  0
   12.9162   15.4152   18.5865 C   0  0  0  0  0  0  0  0  0  0  0  0
   13.3203   16.0974   20.6808 C   0  0  0  0  0  0  0  0  0  0  0  0
   11.8676   14.4901   21.9931 C   0  0  0  0  0  0  0  0  0  0  0  0
   10.6714   13.8903   22.1070 C   0  0  0  0  0  0  0  0  0  0  0  0
   10.3114   13.3996   23.4537 C   0  0  0  0  0  0  0  0  0  0  0  0
   10.7732    9.5534   24.0846 C   0  0  0  0  0  0  0  0  0  0  0  0
    9.6812   11.2135   22.5379 C   0  0  0  0  0  0  0  0  0  0  0  0
    9.6081    9.8410   23.1824 C   0  0  2  0  0  0  0  0  0  0  0  0
   13.0188   15.3967   17.1128 C   0  0  0  0  0  0  0  0  0  0  0  0
   13.9246   16.9204   21.7523 C   0  0  0  0  0  0  0  0  0  0  0  0
   14.8052   19.7713   18.3110 C   0  0  0  0  0  0  0  0  0  0  0  0
   11.4085    8.0868   26.0059 C   0  0  0  0  0  0  0  0  0  0  0  0
   10.1947    7.1190   24.0904 C   0  0  0  0  0  0  0  0  0  0  0  0
   13.8561   18.7165   18.8555 C   0  0  0  0  0  0  0  0  0  0  0  0
   14.5015   17.3326   18.8523 C   0  0  0  0  0  0  0  0  0  0  0  0
    9.0282   13.5145   20.1510 N   0  0  0  0  0  0  0  0  0  0  0  0
   13.6067   16.3131   19.3581 N   0  0  0  0  0  0  0  0  0  0  0  0
    9.4997   12.2678   23.5359 N   0  0  0  0  0  0  0  0  0  0  0  0
   10.7919    8.3028   24.7033 N   0  0  0  0  0  0  0  0  0  0  0  0
   10.6615   14.0768   24.4222 O   0  0  0  0  0  0  0  0  0  0  0  0
   11.6436   10.4147   24.2367 O   0  0  0  0  0  0  0  0  0  0  0  0
    8.4095    9.6345   23.9173 O   0  0  0  0  0  0  0  0  0  0  0  0
    6.2339   13.6047   26.5497 H   0  0  0  0  0  0  0  0  0  0  0  0
    5.4035   11.2855   26.8117 H   0  0  0  0  0  0  0  0  0  0  0  0
    8.0994   14.0979   25.0911 H   0  0  0  0  0  0  0  0  0  0  0  0
    6.4479    9.4514   25.5280 H   0  0  0  0  0  0  0  0  0  0  0  0
   11.5265   13.8083   19.1187 H   0  0  0  0  0  0  0  0  0  0  0  0
   12.5240   14.5794   22.8571 H   0  0  0  0  0  0  0  0  0  0  0  0
   10.6583   11.3838   22.0633 H   0  0  0  0  0  0  0  0  0  0  0  0
    8.9139   11.2753   21.7565 H   0  0  0  0  0  0  0  0  0  0  0  0
    9.6499    9.0367   22.3621 H   0  0  0  0  0  0  0  0  0  0  0  0
   12.2598   16.0511   16.6548 H   0  0  0  0  0  0  0  0  0  0  0  0
   14.0089   15.7349   16.7640 H   0  0  0  0  0  0  0  0  0  0  0  0
   12.8801   14.3823   16.7024 H   0  0  0  0  0  0  0  0  0  0  0  0
   14.8717   16.4798   22.0998 H   0  0  0  0  0  0  0  0  0  0  0  0
   14.1338   17.9472   21.4116 H   0  0  0  0  0  0  0  0  0  0  0  0
   13.2556   17.0150   22.6229 H   0  0  0  0  0  0  0  0  0  0  0  0
   15.1218   19.5254   17.2924 H   0  0  0  0  0  0  0  0  0  0  0  0
   15.6996   19.8368   18.9385 H   0  0  0  0  0  0  0  0  0  0  0  0
   14.3286   20.7567   18.2946 H   0  0  0  0  0  0  0  0  0  0  0  0
   10.6615    8.2479   26.7971 H   0  0  0  0  0  0  0  0  0  0  0  0
   11.7887    7.0562   26.0651 H   0  0  0  0  0  0  0  0  0  0  0  0
   12.2414    8.7930   26.1389 H   0  0  0  0  0  0  0  0  0  0  0  0
   10.9470    6.6058   23.4734 H   0  0  0  0  0  0  0  0  0  0  0  0
    9.8402    6.4379   24.8781 H   0  0  0  0  0  0  0  0  0  0  0  0
    9.3468    7.4216   23.4584 H   0  0  0  0  0  0  0  0  0  0  0  0
   13.5578   18.9906   19.8746 H   0  0  0  0  0  0  0  0  0  0  0  0
   12.9410   18.7069   18.2511 H   0  0  0  0  0  0  0  0  0  0  0  0
   15.4060   17.3190   19.4720 H   0  0  0  0  0  0  0  0  0  0  0  0
   14.8003   17.0402   17.8386 H   0  0  0  0  0  0  0  0  0  0  0  0
  1 13  1  0  0  0  0
  1 25  3  0  0  0  0
  2  3  1  0  0  0  0
  2  4  2  0  0  0  0
  3  5  2  0  0  0  0
  4  8  1  0  0  0  0
  5  9  1  0  0  0  0
  6  7  1  0  0  0  0
  6 10  2  0  0  0  0
  7 11  2  0  0  0  0
  7 12  1  4  0  0  0
  8  9  2  0  0  0  0
  8 27  1  0  0  0  0
  9 31  1  0  0  0  0
 10 18  1  0  0  0  0
 10 26  1  0  0  0  0
 11 19  1  0  0  0  0
 11 26  1  0  0  0  0
 12 13  2  0  0  0  0
 13 14  1  0  0  0  0
 14 27  1  0  0  0  0
 14 29  2  0  0  0  0
 15 17  1  0  0  0  0
 15 28  1  0  0  0  0
 15 30  2  0  0  0  0
 16 17  1  0  0  0  0
 16 27  1  0  0  0  0
 17 31  1  0  0  0  0
 20 23  1  0  0  0  0
 21 28  1  0  0  0  0
 22 28  1  0  0  0  0
 23 24  1  0  0  0  0
 24 26  1  0  0  0  0
  2 32  1  0  0  0  0
  3 33  1  0  0  0  0
  4 34  1  0  0  0  0
  5 35  1  0  0  0  0
  6 36  1  0  0  0  0
 12 37  1  0  0  0  0
 16 38  1  0  0  0  0
 16 39  1  0  0  0  0
 17 40  1  0  0  0  0
 18 41  1  0  0  0  0
 18 42  1  0  0  0  0
 18 43  1  0  0  0  0
 19 44  1  0  0  0  0
 19 45  1  0  0  0  0
 19 46  1  0  0  0  0
 20 47  1  0  0  0  0
 20 48  1  0  0  0  0
 20 49  1  0  0  0  0
 21 50  1  0  0  0  0
 21 51  1  0  0  0  0
 21 52  1  0  0  0  0
 22 53  1  0  0  0  0
 22 54  1  0  0  0  0
 22 55  1  0  0  0  0
 23 56  1  0  0  0  0
 23 57  1  0  0  0  0
 24 58  1  0  0  0  0
 24 59  1  0  0  0  0
M  END
> <Catalog ID>
Z131580190

> <MW>
420.504

> <MW (desalted)>
420.504

> <ClogP>
3.92

> <logS>
-4.33

> <HBD>
0

> <HBA>
4

> <TPSA>
78.57

> <RotBonds>
5

> <ROCS_ShapeQuery>
A71EV2A-x0451_0A_A71EV2A-x0310_0A_A71EV2A-x0416_0A_peptide

> <ROCS_TanimotoCombo>
0.545 

> <ROCS_ShapeTanimoto>
0.377 

> <ROCS_ColorTanimoto>
0.167 

> <ROCS_RefTversky>
0.340 

> <ROCS_RefColorTversky>
0.186 

> <ROCS_RefTverskyCombo>
0.527 

> <ROCS_FitTversky>
1.404 

> <ROCS_FitColorTversky>
0.619 

> <ROCS_FitTverskyCombo>
2.023 

> <ROCS_ColorScore>
-5.689

> <ROCS_Overlap>
2371.747

> <ROCS_Rank>
62                  

$$$$
untitled-dbase-3692_10119
  -OEChem-11132309573D

 52 54  0     0  0  0  0  0  0999 V2000
   11.7359   15.1361   21.4674 C   0  0  0  0  0  0  0  0  0  0  0  0
    5.0582   11.9977   28.3685 C   0  0  0  0  0  0  0  0  0  0  0  0
   13.5304    9.4372   22.5638 C   0  0  0  0  0  0  0  0  0  0  0  0
    5.2812   13.0434   27.4729 C   0  0  0  0  0  0  0  0  0  0  0  0
    5.6410   10.7505   28.1436 C   0  0  0  0  0  0  0  0  0  0  0  0
   13.5922    9.3685   23.9556 C   0  0  0  0  0  0  0  0  0  0  0  0
   13.3166   10.6637   21.9349 C   0  0  0  0  0  0  0  0  0  0  0  0
    6.0869   12.8420   26.3522 C   0  0  0  0  0  0  0  0  0  0  0  0
    6.4467   10.5491   27.0230 C   0  0  0  0  0  0  0  0  0  0  0  0
   13.4402   10.5263   24.7185 C   0  0  0  0  0  0  0  0  0  0  0  0
   13.1646   11.8216   22.6977 C   0  0  0  0  0  0  0  0  0  0  0  0
    6.6697   11.5948   26.1272 C   0  0  0  0  0  0  0  0  0  0  0  0
   13.2264   11.7529   24.0896 C   0  0  0  0  0  0  0  0  0  0  0  0
    9.2789   11.5972   23.5472 C   0  0  0  0  0  0  0  0  0  0  0  0
    9.0079   10.2980   23.7234 C   0  0  0  0  0  0  0  0  0  0  0  0
    8.2768   12.3519   24.3439 C   0  0  0  0  0  0  0  0  0  0  0  0
   12.9404   13.1029   22.0104 C   0  0  0  0  0  0  0  0  0  0  0  0
   11.8716   13.9058   22.1787 C   0  0  0  0  0  0  0  0  0  0  0  0
   10.8123   13.4283   23.1402 C   0  0  0  0  0  0  0  0  0  0  0  0
   14.8613   13.0583   26.4518 C   0  0  0  0  0  0  0  0  0  0  0  0
    9.7165    9.1352   23.1145 C   0  0  0  0  0  0  0  0  0  0  0  0
    6.8666    9.1380   24.2086 C   0  0  0  0  0  0  0  0  0  0  0  0
   14.2651   13.5937   25.1796 C   0  0  0  0  0  0  0  0  0  0  0  0
   11.6215   16.1365   20.8903 N   0  0  0  0  0  0  0  0  0  0  0  0
    7.4884   11.3904   24.9886 N   0  0  0  0  0  0  0  0  0  0  0  0
    7.8954   10.1168   24.5463 N   0  0  0  0  0  0  0  0  0  0  0  0
   10.2431   12.1958   22.8136 N   0  0  0  0  0  0  0  0  0  0  0  0
    8.2697   13.5691   24.4285 O   0  0  0  0  0  0  0  0  0  0  0  0
   10.4900   14.0891   24.1266 O   0  0  0  0  0  0  0  0  0  0  0  0
   14.2384   12.5745   27.3850 O   0  0  0  0  0  0  0  0  0  0  0  0
   16.2120   13.1851   26.4258 O   0  0  0  0  0  0  0  0  0  0  0  0
   13.0800   12.8688   24.8594 O   0  0  0  0  0  0  0  0  0  0  0  0
    4.4315   12.1543   29.2417 H   0  0  0  0  0  0  0  0  0  0  0  0
   13.6474    8.5351   21.9703 H   0  0  0  0  0  0  0  0  0  0  0  0
    4.8283   14.0148   27.6481 H   0  0  0  0  0  0  0  0  0  0  0  0
    5.4680    9.9366   28.8418 H   0  0  0  0  0  0  0  0  0  0  0  0
   13.7584    8.4131   24.4442 H   0  0  0  0  0  0  0  0  0  0  0  0
   13.2700   10.6992   20.8490 H   0  0  0  0  0  0  0  0  0  0  0  0
    6.2537   13.6645   25.6611 H   0  0  0  0  0  0  0  0  0  0  0  0
    6.8958    9.5728   26.8579 H   0  0  0  0  0  0  0  0  0  0  0  0
   13.4902   10.4654   25.8023 H   0  0  0  0  0  0  0  0  0  0  0  0
   13.7498   13.3766   21.3370 H   0  0  0  0  0  0  0  0  0  0  0  0
   10.5364    8.8196   23.7607 H   0  0  0  0  0  0  0  0  0  0  0  0
   10.1169    9.4129   22.1384 H   0  0  0  0  0  0  0  0  0  0  0  0
    9.0227    8.3035   22.9843 H   0  0  0  0  0  0  0  0  0  0  0  0
    6.0814    9.1501   24.9789 H   0  0  0  0  0  0  0  0  0  0  0  0
    6.4266    9.3907   23.2326 H   0  0  0  0  0  0  0  0  0  0  0  0
    7.3165    8.1355   24.1595 H   0  0  0  0  0  0  0  0  0  0  0  0
   14.9785   13.4625   24.3618 H   0  0  0  0  0  0  0  0  0  0  0  0
   14.0144   14.6514   25.2971 H   0  0  0  0  0  0  0  0  0  0  0  0
   10.5592   11.7039   21.9793 H   0  0  0  0  0  0  0  0  0  0  0  0
   16.6277   12.8419   27.2456 H   0  0  0  0  0  0  0  0  0  0  0  0
  1 18  1  0  0  0  0
  1 24  3  0  0  0  0
  2  4  1  0  0  0  0
  2  5  2  0  0  0  0
  3  6  1  0  0  0  0
  3  7  2  0  0  0  0
  4  8  2  0  0  0  0
  5  9  1  0  0  0  0
  6 10  2  0  0  0  0
  7 11  1  0  0  0  0
  8 12  1  0  0  0  0
  9 12  2  0  0  0  0
 10 13  1  0  0  0  0
 11 13  2  0  0  0  0
 11 17  1  4  0  0  0
 12 25  1  0  0  0  0
 13 32  1  0  0  0  0
 14 15  2  0  0  0  0
 14 16  1  0  0  0  0
 14 27  1  0  0  0  0
 15 21  1  0  0  0  0
 15 26  1  0  0  0  0
 16 25  1  0  0  0  0
 16 28  2  0  0  0  0
 17 18  2  0  0  0  0
 18 19  1  0  0  0  0
 19 27  1  0  0  0  0
 19 29  2  0  0  0  0
 20 23  1  0  0  0  0
 20 30  2  0  0  0  0
 20 31  1  0  0  0  0
 22 26  1  0  0  0  0
 23 32  1  0  0  0  0
 25 26  1  0  0  0  0
  2 33  1  0  0  0  0
  3 34  1  0  0  0  0
  4 35  1  0  0  0  0
  5 36  1  0  0  0  0
  6 37  1  0  0  0  0
  7 38  1  0  0  0  0
  8 39  1  0  0  0  0
  9 40  1  0  0  0  0
 10 41  1  0  0  0  0
 17 42  1  0  0  0  0
 21 43  1  0  0  0  0
 21 44  1  0  0  0  0
 21 45  1  0  0  0  0
 22 46  1  0  0  0  0
 22 47  1  0  0  0  0
 22 48  1  0  0  0  0
 23 49  1  0  0  0  0
 23 50  1  0  0  0  0
 27 51  1  0  0  0  0
 31 52  1  0  0  0  0
M  END
> <Catalog ID>
Z44385649

> <MW>
432.429

> <MW (desalted)>
432.429

> <ClogP>
0.994

> <logS>
-4.138

> <HBD>
2

> <HBA>
7

> <TPSA>
122.97

> <RotBonds>
7

> <ROCS_ShapeQuery>
A71EV2A-x0451_0A_A71EV2A-x0310_0A_A71EV2A-x0416_0A_peptide

> <ROCS_TanimotoCombo>
0.545 

> <ROCS_ShapeTanimoto>
0.395 

> <ROCS_ColorTanimoto>
0.150 

> <ROCS_RefTversky>
0.355 

> <ROCS_RefColorTversky>
0.182 

> <ROCS_RefTverskyCombo>
0.536 

> <ROCS_FitTversky>
1.403 

> <ROCS_FitColorTversky>
0.462 

> <ROCS_FitTverskyCombo>
1.866 

> <ROCS_ColorScore>
-5.571

> <ROCS_Overlap>
2470.793

> <ROCS_Rank>
63                  

$$$$
untitled-dbase-564_4456
  -OEChem-11132309573D

 52 54  0     0  0  0  0  0  0999 V2000
    9.0333    9.4624   24.0043 C   0  0  0  0  0  0  0  0  0  0  0  0
    8.1307    9.5225   25.0665 C   0  0  0  0  0  0  0  0  0  0  0  0
    6.5459   10.7962   26.4335 C   0  0  0  0  0  0  0  0  0  0  0  0
    9.2751   10.5937   23.2305 C   0  0  0  0  0  0  0  0  0  0  0  0
    5.8861   11.9918   26.7190 C   0  0  0  0  0  0  0  0  0  0  0  0
    7.0304   13.0631   24.8830 C   0  0  0  0  0  0  0  0  0  0  0  0
    7.4576   10.7176   25.3682 C   0  0  0  0  0  0  0  0  0  0  0  0
    7.7035   11.8680   24.5813 C   0  0  0  0  0  0  0  0  0  0  0  0
    8.6152   11.7893   23.5160 C   0  0  0  0  0  0  0  0  0  0  0  0
    6.1279   13.1231   25.9452 C   0  0  0  0  0  0  0  0  0  0  0  0
   10.2566   13.6244   22.9541 C   0  0  0  0  0  0  0  0  0  0  0  0
   11.4789   17.0599   22.3331 C   0  0  0  0  0  0  0  0  0  0  0  0
   13.9960   16.6998   19.5020 C   0  0  0  0  0  0  0  0  0  0  0  0
   13.0241   15.9657   18.5780 C   0  0  0  0  0  0  0  0  0  0  0  0
   13.9019   16.0019   20.8580 C   0  0  0  0  0  0  0  0  0  0  0  0
   12.3923   14.8583   19.4200 C   0  0  0  0  0  0  0  0  0  0  0  0
   12.5137   15.3523   20.8657 C   0  0  0  0  0  0  0  0  0  0  0  0
    4.5736   14.2794   27.3247 C   0  0  0  0  0  0  0  0  0  0  0  0
    8.9233   12.9739   22.6390 C   0  0  0  0  0  0  0  0  0  0  0  0
   10.3359   18.0399   22.4062 C   0  0  0  0  0  0  0  0  0  0  0  0
   12.4152   14.2132   21.8751 C   0  0  0  0  0  0  0  0  0  0  0  0
   11.4897   16.3392   21.1557 N   0  0  0  0  0  0  0  0  0  0  0  0
   11.1064   13.6517   21.8438 N   0  0  0  0  0  0  0  0  0  0  0  0
   10.5463   14.0761   24.0590 O   0  0  0  0  0  0  0  0  0  0  0  0
   12.3029   16.9554   23.2400 O   0  0  0  0  0  0  0  0  0  0  0  0
    5.4828   14.2887   26.2253 O   0  0  0  0  0  0  0  0  0  0  0  0
    8.9877   17.3746   21.4710 Cl  0  0  0  0  0  0  0  0  0  0  0  0
    9.5461    8.5314   23.7811 H   0  0  0  0  0  0  0  0  0  0  0  0
    7.9573    8.6258   25.6578 H   0  0  0  0  0  0  0  0  0  0  0  0
    6.3416    9.9239   27.0508 H   0  0  0  0  0  0  0  0  0  0  0  0
    9.9806   10.5346   22.4059 H   0  0  0  0  0  0  0  0  0  0  0  0
    5.1836   12.0325   27.5473 H   0  0  0  0  0  0  0  0  0  0  0  0
    7.1971   13.9651   24.2980 H   0  0  0  0  0  0  0  0  0  0  0  0
   15.0198   16.6763   19.1151 H   0  0  0  0  0  0  0  0  0  0  0  0
   13.7047   17.7528   19.5900 H   0  0  0  0  0  0  0  0  0  0  0  0
   12.2553   16.6598   18.2191 H   0  0  0  0  0  0  0  0  0  0  0  0
   13.5303   15.5556   17.6982 H   0  0  0  0  0  0  0  0  0  0  0  0
   14.6857   15.2363   20.9235 H   0  0  0  0  0  0  0  0  0  0  0  0
   14.0570   16.6964   21.6906 H   0  0  0  0  0  0  0  0  0  0  0  0
   11.3594   14.6509   19.1204 H   0  0  0  0  0  0  0  0  0  0  0  0
   12.9629   13.9308   19.2813 H   0  0  0  0  0  0  0  0  0  0  0  0
    4.1282   15.2707   27.4385 H   0  0  0  0  0  0  0  0  0  0  0  0
    5.1066   14.0007   28.2372 H   0  0  0  0  0  0  0  0  0  0  0  0
    3.7854   13.5487   27.1280 H   0  0  0  0  0  0  0  0  0  0  0  0
    8.9217   12.6625   21.5866 H   0  0  0  0  0  0  0  0  0  0  0  0
    8.1325   13.7276   22.7428 H   0  0  0  0  0  0  0  0  0  0  0  0
    9.9984   18.2157   23.4306 H   0  0  0  0  0  0  0  0  0  0  0  0
   10.6440   18.9910   21.9634 H   0  0  0  0  0  0  0  0  0  0  0  0
   13.1584   13.4679   21.5958 H   0  0  0  0  0  0  0  0  0  0  0  0
   12.6290   14.6317   22.8575 H   0  0  0  0  0  0  0  0  0  0  0  0
   10.7608   16.5042   20.4734 H   0  0  0  0  0  0  0  0  0  0  0  0
   10.7707   13.2476   20.9635 H   0  0  0  0  0  0  0  0  0  0  0  0
  1  2  2  0  0  0  0
  1  4  1  0  0  0  0
  2  7  1  0  0  0  0
  3  5  2  0  0  0  0
  3  7  1  0  0  0  0
  4  9  2  0  0  0  0
  5 10  1  0  0  0  0
  6  8  1  0  0  0  0
  6 10  2  0  0  0  0
  7  8  2  0  0  0  0
  8  9  1  0  0  0  0
  9 19  1  0  0  0  0
 10 26  1  0  0  0  0
 11 19  1  0  0  0  0
 11 23  1  0  0  0  0
 11 24  2  0  0  0  0
 12 20  1  0  0  0  0
 12 22  1  0  0  0  0
 12 25  2  0  0  0  0
 13 14  1  0  0  0  0
 13 15  1  0  0  0  0
 14 16  1  0  0  0  0
 15 17  1  0  0  0  0
 16 17  1  0  0  0  0
 17 21  1  0  0  0  0
 17 22  1  0  0  0  0
 18 26  1  0  0  0  0
 20 27  1  0  0  0  0
 21 23  1  0  0  0  0
  1 28  1  0  0  0  0
  2 29  1  0  0  0  0
  3 30  1  0  0  0  0
  4 31  1  0  0  0  0
  5 32  1  0  0  0  0
  6 33  1  0  0  0  0
 13 34  1  0  0  0  0
 13 35  1  0  0  0  0
 14 36  1  0  0  0  0
 14 37  1  0  0  0  0
 15 38  1  0  0  0  0
 15 39  1  0  0  0  0
 16 40  1  0  0  0  0
 16 41  1  0  0  0  0
 18 42  1  0  0  0  0
 18 43  1  0  0  0  0
 18 44  1  0  0  0  0
 19 45  1  0  0  0  0
 19 46  1  0  0  0  0
 20 47  1  0  0  0  0
 20 48  1  0  0  0  0
 21 49  1  0  0  0  0
 21 50  1  0  0  0  0
 22 51  1  0  0  0  0
 23 52  1  0  0  0  0
M  END
> <Catalog ID>
Z4425211332

> <MW>
388.888

> <MW (desalted)>
388.888

> <ClogP>
3.443

> <logS>
-5.04

> <HBD>
2

> <HBA>
3

> <TPSA>
67.43

> <RotBonds>
7

> <ROCS_ShapeQuery>
A71EV2A-x0451_0A_A71EV2A-x0310_0A_A71EV2A-x0416_0A_peptide

> <ROCS_TanimotoCombo>
0.545 

> <ROCS_ShapeTanimoto>
0.346 

> <ROCS_ColorTanimoto>
0.199 

> <ROCS_RefTversky>
0.312 

> <ROCS_RefColorTversky>
0.216 

> <ROCS_RefTverskyCombo>
0.528 

> <ROCS_FitTversky>
1.447 

> <ROCS_FitColorTversky>
0.716 

> <ROCS_FitTverskyCombo>
2.164 

> <ROCS_ColorScore>
-6.585

> <ROCS_Overlap>
2172.719

> <ROCS_Rank>
64                  

$$$$
untitled-dbase-7992_3517
  -OEChem-11132309573D

 59 61  0     0  0  0  0  0  0999 V2000
   13.0116   13.9113   25.8613 C   0  0  0  0  0  0  0  0  0  0  0  0
   14.9403   13.6364   24.4325 C   0  0  0  0  0  0  0  0  0  0  0  0
   13.5173   12.9444   26.7300 C   0  0  0  0  0  0  0  0  0  0  0  0
   15.4461   12.6695   25.3013 C   0  0  0  0  0  0  0  0  0  0  0  0
   10.1303   10.4364   22.8453 C   0  0  0  0  0  0  0  0  0  0  0  0
    9.1508    9.5097   23.2020 C   0  0  0  0  0  0  0  0  0  0  0  0
    8.9333   12.1617   24.0401 C   0  0  0  0  0  0  0  0  0  0  0  0
   13.7231   14.2573   24.7124 C   0  0  0  0  0  0  0  0  0  0  0  0
   14.7346   12.3235   26.4501 C   0  0  0  0  0  0  0  0  0  0  0  0
   10.0216   11.7624   23.2644 C   0  0  0  0  0  0  0  0  0  0  0  0
    8.0624    9.9090   23.9777 C   0  0  0  0  0  0  0  0  0  0  0  0
    7.9537   11.2350   24.3967 C   0  0  0  0  0  0  0  0  0  0  0  0
   15.1548    9.2701   30.3006 C   0  0  0  0  0  0  0  0  0  0  0  0
   15.5283    9.8437   29.1524 C   0  0  0  0  0  0  0  0  0  0  0  0
   14.6729   10.8835   28.5101 C   0  0  0  0  0  0  0  0  0  0  0  0
   11.0558   14.0349   23.2564 C   0  0  0  0  0  0  0  0  0  0  0  0
    5.6125   13.2854   26.3736 C   0  0  0  0  0  0  0  0  0  0  0  0
    3.9708   11.2158   29.1372 C   0  0  0  0  0  0  0  0  0  0  0  0
    4.1715   12.6785   29.3994 C   0  0  0  0  0  0  0  0  0  0  0  0
    4.0723   12.1771   27.9847 C   0  0  0  0  0  0  0  0  0  0  0  0
    7.2978    7.6607   23.8502 C   0  0  0  0  0  0  0  0  0  0  0  0
   13.1758   15.3033   23.7726 C   0  0  0  0  0  0  0  0  0  0  0  0
   12.2806   14.7245   22.6755 C   0  0  0  0  0  0  0  0  0  0  0  0
    6.8460   12.9993   25.5440 C   0  0  0  0  0  0  0  0  0  0  0  0
   15.2409   11.3565   27.3190 N   0  0  0  0  0  0  0  0  0  0  0  0
   11.0014   12.6894   22.9068 N   0  0  0  0  0  0  0  0  0  0  0  0
    5.2204   12.1767   27.1073 N   0  0  0  0  0  0  0  0  0  0  0  0
   13.6138   11.2360   29.0155 O   0  0  0  0  0  0  0  0  0  0  0  0
   10.2722   14.6589   23.9664 O   0  0  0  0  0  0  0  0  0  0  0  0
    5.0516   14.3779   26.3746 O   0  0  0  0  0  0  0  0  0  0  0  0
    7.1119    8.9948   24.3189 O   0  0  0  0  0  0  0  0  0  0  0  0
    6.8851   11.6411   25.1607 O   0  0  0  0  0  0  0  0  0  0  0  0
   12.0613   14.3884   26.0861 H   0  0  0  0  0  0  0  0  0  0  0  0
   15.5009   13.8994   23.5393 H   0  0  0  0  0  0  0  0  0  0  0  0
   12.9546   12.6828   27.6227 H   0  0  0  0  0  0  0  0  0  0  0  0
   16.3953   12.1911   25.0729 H   0  0  0  0  0  0  0  0  0  0  0  0
   10.9742   10.1140   22.2406 H   0  0  0  0  0  0  0  0  0  0  0  0
    9.2414    8.4781   22.8725 H   0  0  0  0  0  0  0  0  0  0  0  0
    8.8438   13.1948   24.3683 H   0  0  0  0  0  0  0  0  0  0  0  0
   15.7500    8.5115   30.7963 H   0  0  0  0  0  0  0  0  0  0  0  0
   14.2220    9.5597   30.7732 H   0  0  0  0  0  0  0  0  0  0  0  0
   16.4607    9.5549   28.6795 H   0  0  0  0  0  0  0  0  0  0  0  0
    4.8040   10.5511   29.3304 H   0  0  0  0  0  0  0  0  0  0  0  0
    2.9983   10.7922   29.3562 H   0  0  0  0  0  0  0  0  0  0  0  0
    3.3342   13.2402   29.7950 H   0  0  0  0  0  0  0  0  0  0  0  0
    5.1393   12.9953   29.7685 H   0  0  0  0  0  0  0  0  0  0  0  0
    3.1528   12.3986   27.4537 H   0  0  0  0  0  0  0  0  0  0  0  0
    6.4701    7.0347   24.1926 H   0  0  0  0  0  0  0  0  0  0  0  0
    8.2454    7.2693   24.2288 H   0  0  0  0  0  0  0  0  0  0  0  0
    7.3190    7.6673   22.7579 H   0  0  0  0  0  0  0  0  0  0  0  0
   12.6257   16.0620   24.3438 H   0  0  0  0  0  0  0  0  0  0  0  0
   14.0208   15.8292   23.3102 H   0  0  0  0  0  0  0  0  0  0  0  0
   11.9200   15.5368   22.0326 H   0  0  0  0  0  0  0  0  0  0  0  0
   12.8351   14.0363   22.0272 H   0  0  0  0  0  0  0  0  0  0  0  0
    6.8233   13.6147   24.6396 H   0  0  0  0  0  0  0  0  0  0  0  0
    7.7475   13.2382   26.1166 H   0  0  0  0  0  0  0  0  0  0  0  0
   16.1413   10.9396   27.0531 H   0  0  0  0  0  0  0  0  0  0  0  0
   11.7628   12.3191   22.3393 H   0  0  0  0  0  0  0  0  0  0  0  0
    5.7658   11.3237   27.0243 H   0  0  0  0  0  0  0  0  0  0  0  0
  1  3  2  0  0  0  0
  1  8  1  0  0  0  0
  2  4  1  0  0  0  0
  2  8  2  0  0  0  0
  3  9  1  0  0  0  0
  4  9  2  0  0  0  0
  5  6  2  0  0  0  0
  5 10  1  0  0  0  0
  6 11  1  0  0  0  0
  7 10  2  0  0  0  0
  7 12  1  0  0  0  0
  8 22  1  0  0  0  0
  9 25  1  0  0  0  0
 10 26  1  0  0  0  0
 11 12  2  0  0  0  0
 11 31  1  0  0  0  0
 12 32  1  0  0  0  0
 13 14  2  0  0  0  0
 14 15  1  0  0  0  0
 15 25  1  0  0  0  0
 15 28  2  0  0  0  0
 16 23  1  0  0  0  0
 16 26  1  0  0  0  0
 16 29  2  0  0  0  0
 17 24  1  0  0  0  0
 17 27  1  0  0  0  0
 17 30  2  0  0  0  0
 18 19  1  0  0  0  0
 18 20  1  0  0  0  0
 19 20  1  0  0  0  0
 20 27  1  0  0  0  0
 21 31  1  0  0  0  0
 22 23  1  0  0  0  0
 24 32  1  0  0  0  0
  1 33  1  0  0  0  0
  2 34  1  0  0  0  0
  3 35  1  0  0  0  0
  4 36  1  0  0  0  0
  5 37  1  0  0  0  0
  6 38  1  0  0  0  0
  7 39  1  0  0  0  0
 13 40  1  0  0  0  0
 13 41  1  0  0  0  0
 14 42  1  0  0  0  0
 18 43  1  0  0  0  0
 18 44  1  0  0  0  0
 19 45  1  0  0  0  0
 19 46  1  0  0  0  0
 20 47  1  0  0  0  0
 21 48  1  0  0  0  0
 21 49  1  0  0  0  0
 21 50  1  0  0  0  0
 22 51  1  0  0  0  0
 22 52  1  0  0  0  0
 23 53  1  0  0  0  0
 23 54  1  0  0  0  0
 24 55  1  0  0  0  0
 24 56  1  0  0  0  0
 25 57  1  0  0  0  0
 26 58  1  0  0  0  0
 27 59  1  0  0  0  0
M  END
> <Catalog ID>
Z4899712435

> <MW>
437.488

> <MW (desalted)>
437.488

> <ClogP>
1.628

> <logS>
-4.8

> <HBD>
3

> <HBA>
5

> <TPSA>
105.76

> <RotBonds>
11

> <ROCS_ShapeQuery>
A71EV2A-x0451_0A_A71EV2A-x0310_0A_A71EV2A-x0416_0A_peptide

> <ROCS_TanimotoCombo>
0.544 

> <ROCS_ShapeTanimoto>
0.381 

> <ROCS_ColorTanimoto>
0.164 

> <ROCS_RefTversky>
0.343 

> <ROCS_RefColorTversky>
0.196 

> <ROCS_RefTverskyCombo>
0.539 

> <ROCS_FitTversky>
1.400 

> <ROCS_FitColorTversky>
0.499 

> <ROCS_FitTverskyCombo>
1.899 

> <ROCS_ColorScore>
-6.012

> <ROCS_Overlap>
2391.880

> <ROCS_Rank>
65                  

$$$$
untitled-dbase-3379_2280
  -OEChem-11132309573D

 47 49  0     0  0  0  0  0  0999 V2000
   14.1457    9.8432   23.0820 C   0  0  0  0  0  0  0  0  0  0  0  0
   13.4012   10.9470   22.6661 C   0  0  0  0  0  0  0  0  0  0  0  0
   14.8309    9.8816   24.2964 C   0  0  0  0  0  0  0  0  0  0  0  0
   14.0273   12.1277   24.6789 C   0  0  0  0  0  0  0  0  0  0  0  0
    8.3561   11.8255   24.3993 C   0  0  0  0  0  0  0  0  0  0  0  0
   13.3420   12.0892   23.4645 C   0  0  0  0  0  0  0  0  0  0  0  0
   14.7717   11.0238   25.0948 C   0  0  0  0  0  0  0  0  0  0  0  0
    7.6071   10.6530   24.6564 C   0  0  0  0  0  0  0  0  0  0  0  0
    9.3678   11.4125   23.5683 C   0  0  0  0  0  0  0  0  0  0  0  0
   15.9661   11.7963   29.3841 C   0  0  0  0  0  0  0  0  0  0  0  0
   16.6617   11.7992   28.2426 C   0  0  0  0  0  0  0  0  0  0  0  0
   16.0075   12.1767   26.9562 C   0  0  0  0  0  0  0  0  0  0  0  0
   11.0920   13.2469   23.4843 C   0  0  0  0  0  0  0  0  0  0  0  0
    8.0349   13.1524   24.9803 C   0  0  0  0  0  0  0  0  0  0  0  0
    6.3843   10.6239   25.4997 C   0  0  0  0  0  0  0  0  0  0  0  0
    6.6016   13.1720   25.5448 C   0  0  0  0  0  0  0  0  0  0  0  0
    6.2775   11.9018   26.3539 C   0  0  0  0  0  0  0  0  0  0  0  0
    9.9746    9.1796   22.5816 C   0  0  0  0  0  0  0  0  0  0  0  0
   12.5380   13.2810   23.0149 C   0  0  0  0  0  0  0  0  0  0  0  0
    8.0979    9.5798   24.0322 N   0  0  0  0  0  0  0  0  0  0  0  0
    9.1686   10.0735   23.3814 N   0  0  0  0  0  0  0  0  0  0  0  0
   15.4567   11.0616   26.3097 N   0  0  0  0  0  0  0  0  0  0  0  0
   10.4031   12.1028   22.9978 N   0  0  0  0  0  0  0  0  0  0  0  0
   15.9900   13.3393   26.5694 O   0  0  0  0  0  0  0  0  0  0  0  0
   10.6132   14.1235   24.1967 O   0  0  0  0  0  0  0  0  0  0  0  0
   14.1914    8.9536   22.4606 H   0  0  0  0  0  0  0  0  0  0  0  0
   12.8714   10.9079   21.7183 H   0  0  0  0  0  0  0  0  0  0  0  0
   15.4081    9.0155   24.6105 H   0  0  0  0  0  0  0  0  0  0  0  0
   13.9802   13.0199   25.2995 H   0  0  0  0  0  0  0  0  0  0  0  0
   16.4075   11.5279   30.3374 H   0  0  0  0  0  0  0  0  0  0  0  0
   14.9161   12.0698   29.3799 H   0  0  0  0  0  0  0  0  0  0  0  0
   17.7114   11.5263   28.2459 H   0  0  0  0  0  0  0  0  0  0  0  0
    8.7447   13.3664   25.7886 H   0  0  0  0  0  0  0  0  0  0  0  0
    8.1439   13.9425   24.2292 H   0  0  0  0  0  0  0  0  0  0  0  0
    5.5060   10.5511   24.8469 H   0  0  0  0  0  0  0  0  0  0  0  0
    6.3832    9.7445   26.1533 H   0  0  0  0  0  0  0  0  0  0  0  0
    6.4706   14.0593   26.1745 H   0  0  0  0  0  0  0  0  0  0  0  0
    5.8849   13.2578   24.7178 H   0  0  0  0  0  0  0  0  0  0  0  0
    5.2683   11.9746   26.7747 H   0  0  0  0  0  0  0  0  0  0  0  0
    6.9731   11.8339   27.2004 H   0  0  0  0  0  0  0  0  0  0  0  0
   10.7579    8.7669   23.2228 H   0  0  0  0  0  0  0  0  0  0  0  0
    9.3448    8.3790   22.1839 H   0  0  0  0  0  0  0  0  0  0  0  0
   10.4142    9.7363   21.7493 H   0  0  0  0  0  0  0  0  0  0  0  0
   13.0061   14.2020   23.3851 H   0  0  0  0  0  0  0  0  0  0  0  0
   12.5520   13.3409   21.9193 H   0  0  0  0  0  0  0  0  0  0  0  0
   15.5715   10.1608   26.7899 H   0  0  0  0  0  0  0  0  0  0  0  0
   10.7310   11.7400   22.0817 H   0  0  0  0  0  0  0  0  0  0  0  0
  1  2  2  0  0  0  0
  1  3  1  0  0  0  0
  2  6  1  0  0  0  0
  3  7  2  0  0  0  0
  4  6  2  0  0  0  0
  4  7  1  0  0  0  0
  5  8  1  0  0  0  0
  5  9  2  0  0  0  0
  5 14  1  0  0  0  0
  6 19  1  0  0  0  0
  7 22  1  0  0  0  0
  8 15  1  0  0  0  0
  8 20  2  0  0  0  0
  9 21  1  0  0  0  0
  9 23  1  0  0  0  0
 10 11  2  0  0  0  0
 11 12  1  0  0  0  0
 12 22  1  0  0  0  0
 12 24  2  0  0  0  0
 13 19  1  0  0  0  0
 13 23  1  0  0  0  0
 13 25  2  0  0  0  0
 14 16  1  0  0  0  0
 15 17  1  0  0  0  0
 16 17  1  0  0  0  0
 18 21  1  0  0  0  0
 20 21  1  0  0  0  0
  1 26  1  0  0  0  0
  2 27  1  0  0  0  0
  3 28  1  0  0  0  0
  4 29  1  0  0  0  0
 10 30  1  0  0  0  0
 10 31  1  0  0  0  0
 11 32  1  0  0  0  0
 14 33  1  0  0  0  0
 14 34  1  0  0  0  0
 15 35  1  0  0  0  0
 15 36  1  0  0  0  0
 16 37  1  0  0  0  0
 16 38  1  0  0  0  0
 17 39  1  0  0  0  0
 17 40  1  0  0  0  0
 18 41  1  0  0  0  0
 18 42  1  0  0  0  0
 18 43  1  0  0  0  0
 19 44  1  0  0  0  0
 19 45  1  0  0  0  0
 22 46  1  0  0  0  0
 23 47  1  0  0  0  0
M  END
> <Catalog ID>
Z4898998900

> <MW>
338.404

> <MW (desalted)>
338.404

> <ClogP>
1.607

> <logS>
-3.715

> <HBD>
2

> <HBA>
3

> <TPSA>
76.02

> <RotBonds>
5

> <ROCS_ShapeQuery>
A71EV2A-x0451_0A_A71EV2A-x0310_0A_A71EV2A-x0416_0A_peptide

> <ROCS_TanimotoCombo>
0.544 

> <ROCS_ShapeTanimoto>
0.335 

> <ROCS_ColorTanimoto>
0.209 

> <ROCS_RefTversky>
0.303 

> <ROCS_RefColorTversky>
0.230 

> <ROCS_RefTverskyCombo>
0.533 

> <ROCS_FitTversky>
1.469 

> <ROCS_FitColorTversky>
0.693 

> <ROCS_FitTverskyCombo>
2.162 

> <ROCS_ColorScore>
-7.038

> <ROCS_Overlap>
2105.849

> <ROCS_Rank>
66                  

$$$$
untitled-dbase-1926_204
  -OEChem-11132309573D

 42 45  0     1  0  0  0  0  0999 V2000
   13.1913   14.4397   21.8355 C   0  0  0  0  0  0  0  0  0  0  0  0
   11.8220   14.4082   21.8525 C   0  0  0  0  0  0  0  0  0  0  0  0
   13.4951   15.1228   20.6452 C   0  0  0  0  0  0  0  0  0  0  0  0
   14.0671   13.8881   22.8245 C   0  0  0  0  0  0  0  0  0  0  0  0
   10.8450   13.8403   22.8169 C   0  0  0  0  0  0  0  0  0  0  0  0
    7.6458   11.8198   25.7282 C   0  0  0  0  0  0  0  0  0  0  0  0
    8.1505   12.5874   23.3943 C   0  0  0  0  0  0  0  0  0  0  0  0
   10.0075   11.7903   24.8848 C   0  0  0  0  0  0  0  0  0  0  0  0
    6.9255   10.4329   23.7684 C   0  0  0  0  0  0  0  0  0  0  0  0
    8.7818    9.6361   25.2554 C   0  0  0  0  0  0  0  0  0  0  0  0
    9.2899   10.4007   22.9210 C   0  0  0  0  0  0  0  0  0  0  0  0
    7.1206   11.8678   24.2831 C   0  0  1  0  0  0  0  0  0  0  0  0
    8.9860   11.0664   25.7793 C   0  0  2  0  0  0  0  0  0  0  0  0
    9.5044   11.8429   23.4247 C   0  0  0  0  0  0  0  0  0  0  0  0
    8.2634    9.6740   23.8080 C   0  0  0  0  0  0  0  0  0  0  0  0
   14.8235   15.4532   20.1013 C   0  0  0  0  0  0  0  0  0  0  0  0
   12.3982   15.4871   19.9753 N   0  0  0  0  0  0  0  0  0  0  0  0
   10.4654   12.5276   22.5887 N   0  0  0  0  0  0  0  0  0  0  0  0
   13.7781   13.7885   24.0332 O   0  0  0  0  0  0  0  0  0  0  0  0
   10.4203   14.5471   23.7271 O   0  0  0  0  0  0  0  0  0  0  0  0
   11.3370   15.0301   20.7475 O   0  0  0  0  0  0  0  0  0  0  0  0
    8.0594    8.3516   23.3312 O   0  0  0  0  0  0  0  0  0  0  0  0
   15.0769   13.5216   22.4992 H   0  0  0  0  0  0  0  0  0  0  0  0
    7.7742   12.8385   26.1140 H   0  0  0  0  0  0  0  0  0  0  0  0
    6.9128   11.3238   26.3763 H   0  0  0  0  0  0  0  0  0  0  0  0
    7.7701   12.6433   22.3660 H   0  0  0  0  0  0  0  0  0  0  0  0
    8.2766   13.6203   23.7443 H   0  0  0  0  0  0  0  0  0  0  0  0
   10.1729   12.8057   25.2681 H   0  0  0  0  0  0  0  0  0  0  0  0
   10.9724   11.2691   24.9355 H   0  0  0  0  0  0  0  0  0  0  0  0
    6.1753    9.9072   24.3734 H   0  0  0  0  0  0  0  0  0  0  0  0
    6.5271   10.4430   22.7456 H   0  0  0  0  0  0  0  0  0  0  0  0
    9.7226    9.0728   25.3064 H   0  0  0  0  0  0  0  0  0  0  0  0
    8.0757    9.0906   25.8948 H   0  0  0  0  0  0  0  0  0  0  0  0
    8.9415   10.3986   21.8792 H   0  0  0  0  0  0  0  0  0  0  0  0
   10.2378    9.8452   22.9180 H   0  0  0  0  0  0  0  0  0  0  0  0
    6.1662   12.4051   24.2538 H   0  0  0  0  0  0  0  0  0  0  0  0
    9.3538   11.0344   26.8107 H   0  0  0  0  0  0  0  0  0  0  0  0
   15.1983   14.6498   19.4443 H   0  0  0  0  0  0  0  0  0  0  0  0
   14.8119   16.3869   19.5113 H   0  0  0  0  0  0  0  0  0  0  0  0
   15.5732   15.6085   20.8977 H   0  0  0  0  0  0  0  0  0  0  0  0
   10.8114   12.0254   21.7781 H   0  0  0  0  0  0  0  0  0  0  0  0
    7.7300    8.4289   22.4209 H   0  0  0  0  0  0  0  0  0  0  0  0
  1  2  2  0  0  0  0
  1  3  1  0  0  0  0
  1  4  1  0  0  0  0
  2  5  1  0  0  0  0
  2 21  1  0  0  0  0
  3 16  1  0  0  0  0
  3 17  2  0  0  0  0
  4 19  2  0  0  0  0
  5 18  1  0  0  0  0
  5 20  2  0  0  0  0
  6 12  1  0  0  0  0
  6 13  1  0  0  0  0
  7 12  1  0  0  0  0
  7 14  1  0  0  0  0
  8 13  1  0  0  0  0
  8 14  1  0  0  0  0
  9 12  1  0  0  0  0
  9 15  1  0  0  0  0
 10 13  1  0  0  0  0
 10 15  1  0  0  0  0
 11 14  1  0  0  0  0
 11 15  1  0  0  0  0
 14 18  1  0  0  0  0
 15 22  1  0  0  0  0
 17 21  1  0  0  0  0
  4 23  1  0  0  0  0
  6 24  1  0  0  0  0
  6 25  1  0  0  0  0
  7 26  1  0  0  0  0
  7 27  1  0  0  0  0
  8 28  1  0  0  0  0
  8 29  1  0  0  0  0
  9 30  1  0  0  0  0
  9 31  1  0  0  0  0
 10 32  1  0  0  0  0
 10 33  1  0  0  0  0
 11 34  1  0  0  0  0
 11 35  1  0  0  0  0
 12 36  1  0  0  0  0
 13 37  1  0  0  0  0
 16 38  1  0  0  0  0
 16 39  1  0  0  0  0
 16 40  1  0  0  0  0
 18 41  1  0  0  0  0
 22 42  1  0  0  0  0
M  END
> <Catalog ID>
Z6375251336

> <MW>
304.341

> <MW (desalted)>
304.341

> <ClogP>
0.923

> <logS>
-2.168

> <HBD>
2

> <HBA>
4

> <TPSA>
92.43

> <RotBonds>
3

> <ROCS_ShapeQuery>
A71EV2A-x0451_0A_A71EV2A-x0310_0A_A71EV2A-x0416_0A_peptide

> <ROCS_TanimotoCombo>
0.544 

> <ROCS_ShapeTanimoto>
0.329 

> <ROCS_ColorTanimoto>
0.216 

> <ROCS_RefTversky>
0.295 

> <ROCS_RefColorTversky>
0.260 

> <ROCS_RefTverskyCombo>
0.555 

> <ROCS_FitTversky>
1.540 

> <ROCS_FitColorTversky>
0.557 

> <ROCS_FitTverskyCombo>
2.097 

> <ROCS_ColorScore>
-8.012

> <ROCS_Overlap>
2047.294

> <ROCS_Rank>
67                  

$$$$
untitled-dbase-1204_2977
  -OEChem-11132309573D

 37 38  0     1  0  0  0  0  0999 V2000
    9.5129   10.6463   23.3820 C   0  0  0  0  0  0  0  0  0  0  0  0
    9.4302   11.9939   23.7625 C   0  0  0  0  0  0  0  0  0  0  0  0
    8.3121   12.0564   24.5575 C   0  0  0  0  0  0  0  0  0  0  0  0
    7.6469   13.0945   25.2714 C   0  0  0  0  0  0  0  0  0  0  0  0
    5.9984   11.4535   26.0279 C   0  0  0  0  0  0  0  0  0  0  0  0
    6.6261   10.4758   25.3552 C   0  0  0  0  0  0  0  0  0  0  0  0
    6.5363   12.8021   25.9762 C   0  0  0  0  0  0  0  0  0  0  0  0
    5.8768   13.8936   26.6972 C   0  0  0  0  0  0  0  0  0  0  0  0
   10.2956   13.0820   23.4192 C   0  0  0  0  0  0  0  0  0  0  0  0
    8.5344   14.4207   20.9622 C   0  0  0  0  0  0  0  0  0  0  0  0
    9.4280   13.2315   21.0625 C   0  0  0  0  0  0  0  0  0  0  0  0
   11.7066   14.0409   21.5641 C   0  0  0  0  0  0  0  0  0  0  0  0
   11.6626   15.5632   21.6473 C   0  0  2  0  0  0  0  0  0  0  0  0
   12.6955   16.2016   20.7402 C   0  0  0  0  0  0  0  0  0  0  0  0
    8.5314    9.8974   23.8864 N   0  0  0  0  0  0  0  0  0  0  0  0
    7.7803   10.7640   24.6187 N   0  0  0  0  0  0  0  0  0  0  0  0
   10.4698   13.4396   22.0583 N   0  0  0  0  0  0  0  0  0  0  0  0
    4.7201   14.2279   26.4727 O   0  0  0  0  0  0  0  0  0  0  0  0
   10.8630   13.6925   24.3488 O   0  0  0  0  0  0  0  0  0  0  0  0
   11.9351   15.9529   22.9918 O   0  0  0  0  0  0  0  0  0  0  0  0
   12.6964   17.5466   20.8561 F   0  0  0  0  0  0  0  0  0  0  0  0
   13.9384   15.7600   21.0328 F   0  0  0  0  0  0  0  0  0  0  0  0
   12.4519   15.8978   19.4462 F   0  0  0  0  0  0  0  0  0  0  0  0
   10.2520   10.1704   22.7529 H   0  0  0  0  0  0  0  0  0  0  0  0
    8.0508   14.1012   25.2308 H   0  0  0  0  0  0  0  0  0  0  0  0
    5.1032   11.2530   26.6047 H   0  0  0  0  0  0  0  0  0  0  0  0
    6.2774    9.4502   25.3526 H   0  0  0  0  0  0  0  0  0  0  0  0
    6.4981   14.3947   27.4579 H   0  0  0  0  0  0  0  0  0  0  0  0
    9.1271   15.3023   20.6766 H   0  0  0  0  0  0  0  0  0  0  0  0
    7.7622   14.2358   20.2010 H   0  0  0  0  0  0  0  0  0  0  0  0
    8.0542   14.6014   21.9352 H   0  0  0  0  0  0  0  0  0  0  0  0
    8.8282   12.3548   21.3483 H   0  0  0  0  0  0  0  0  0  0  0  0
    9.8973   13.0515   20.0841 H   0  0  0  0  0  0  0  0  0  0  0  0
   12.5196   13.6314   22.1722 H   0  0  0  0  0  0  0  0  0  0  0  0
   11.8305   13.7054   20.5298 H   0  0  0  0  0  0  0  0  0  0  0  0
   10.6631   15.9299   21.3873 H   0  0  0  0  0  0  0  0  0  0  0  0
   11.8997   16.9215   23.0102 H   0  0  0  0  0  0  0  0  0  0  0  0
  1  2  1  0  0  0  0
  1 15  2  0  0  0  0
  2  3  2  0  0  0  0
  2  9  1  0  0  0  0
  3  4  1  0  0  0  0
  3 16  1  0  0  0  0
  4  7  2  0  0  0  0
  5  6  2  0  0  0  0
  5  7  1  0  0  0  0
  6 16  1  0  0  0  0
  7  8  1  0  0  0  0
  8 18  2  0  0  0  0
  9 17  1  0  0  0  0
  9 19  2  0  0  0  0
 10 11  1  0  0  0  0
 11 17  1  0  0  0  0
 12 13  1  0  0  0  0
 12 17  1  0  0  0  0
 13 14  1  0  0  0  0
 13 20  1  0  0  0  0
 14 21  1  0  0  0  0
 14 22  1  0  0  0  0
 14 23  1  0  0  0  0
 15 16  1  0  0  0  0
  1 24  1  0  0  0  0
  4 25  1  0  0  0  0
  5 26  1  0  0  0  0
  6 27  1  0  0  0  0
  8 28  1  0  0  0  0
 10 29  1  0  0  0  0
 10 30  1  0  0  0  0
 10 31  1  0  0  0  0
 11 32  1  0  0  0  0
 11 33  1  0  0  0  0
 12 34  1  0  0  0  0
 12 35  1  0  0  0  0
 13 36  1  0  0  0  0
 20 37  1  0  0  0  0
M  END
> <Catalog ID>
Z2453049735

> <MW>
329.274

> <MW (desalted)>
329.274

> <ClogP>
0.892

> <logS>
-2.656

> <HBD>
1

> <HBA>
4

> <TPSA>
74.91

> <RotBonds>
6

> <ROCS_ShapeQuery>
A71EV2A-x0451_0A_A71EV2A-x0310_0A_A71EV2A-x0416_0A_peptide

> <ROCS_TanimotoCombo>
0.544 

> <ROCS_ShapeTanimoto>
0.341 

> <ROCS_ColorTanimoto>
0.203 

> <ROCS_RefTversky>
0.304 

> <ROCS_RefColorTversky>
0.214 

> <ROCS_RefTverskyCombo>
0.518 

> <ROCS_FitTversky>
1.557 

> <ROCS_FitColorTversky>
0.791 

> <ROCS_FitTverskyCombo>
2.348 

> <ROCS_ColorScore>
-6.532

> <ROCS_Overlap>
2112.443

> <ROCS_Rank>
68                  

$$$$
untitled-dbase-2757_433
  -OEChem-11132309573D

 46 49  0     1  0  0  0  0  0999 V2000
   12.9769   16.3973   18.2696 C   0  0  0  0  0  0  0  0  0  0  0  0
    5.7618   10.6317   26.0801 C   0  0  0  0  0  0  0  0  0  0  0  0
    6.7374    9.8240   26.6842 C   0  0  0  0  0  0  0  0  0  0  0  0
   14.2962   16.5352   18.7064 C   0  0  0  0  0  0  0  0  0  0  0  0
   12.0322   15.7500   19.0714 C   0  0  0  0  0  0  0  0  0  0  0  0
    6.0891   11.4555   25.0019 C   0  0  0  0  0  0  0  0  0  0  0  0
    8.0542    9.8268   26.2177 C   0  0  0  0  0  0  0  0  0  0  0  0
   14.6773   16.0271   19.9464 C   0  0  0  0  0  0  0  0  0  0  0  0
   12.4056   15.2374   20.3160 C   0  0  0  0  0  0  0  0  0  0  0  0
    7.3940   11.4424   24.5374 C   0  0  0  0  0  0  0  0  0  0  0  0
    8.3707   10.6327   25.1349 C   0  0  0  0  0  0  0  0  0  0  0  0
   13.7247   15.3844   20.7346 C   0  0  0  0  0  0  0  0  0  0  0  0
   11.4623   14.5555   21.1884 C   0  0  0  0  0  0  0  0  0  0  0  0
   11.8664   14.0817   22.3706 C   0  0  0  0  0  0  0  0  0  0  0  0
   13.2609   14.2242   22.8396 C   0  0  0  0  0  0  0  0  0  0  0  0
   12.1911    7.6332   22.9822 C   0  0  0  0  0  0  0  0  0  0  0  0
   10.9808    7.4478   23.5180 C   0  0  0  0  0  0  0  0  0  0  0  0
   10.8377   13.4046   23.1811 C   0  0  0  0  0  0  0  0  0  0  0  0
    9.9990    8.5641   23.5643 C   0  0  0  0  0  0  0  0  0  0  0  0
    7.9798   12.2676   23.4325 C   0  0  0  0  0  0  0  0  0  0  0  0
    9.7060   10.8499   24.4804 C   0  0  2  0  0  0  0  0  0  0  0  0
    9.2704   11.4820   23.1396 C   0  0  2  0  0  0  0  0  0  0  0  0
   10.2894   12.3024   22.5461 N   0  0  0  0  0  0  0  0  0  0  0  0
   10.4730    9.6502   24.2895 N   0  0  0  0  0  0  0  0  0  0  0  0
   13.6299   13.7889   23.9248 O   0  0  0  0  0  0  0  0  0  0  0  0
   10.5453   13.8230   24.2960 O   0  0  0  0  0  0  0  0  0  0  0  0
    8.9026    8.5020   23.0174 O   0  0  0  0  0  0  0  0  0  0  0  0
   14.1407   14.8812   21.9834 O   0  0  0  0  0  0  0  0  0  0  0  0
   12.6833   16.7946   17.3021 H   0  0  0  0  0  0  0  0  0  0  0  0
    4.7444   10.6211   26.4618 H   0  0  0  0  0  0  0  0  0  0  0  0
    6.4664    9.1961   27.5287 H   0  0  0  0  0  0  0  0  0  0  0  0
   15.0252   17.0392   18.0787 H   0  0  0  0  0  0  0  0  0  0  0  0
   11.0105   15.6529   18.7123 H   0  0  0  0  0  0  0  0  0  0  0  0
    5.3372   12.0903   24.5455 H   0  0  0  0  0  0  0  0  0  0  0  0
    8.8064    9.2117   26.7001 H   0  0  0  0  0  0  0  0  0  0  0  0
   15.7023   16.1335   20.2875 H   0  0  0  0  0  0  0  0  0  0  0  0
   10.4390   14.4521   20.8412 H   0  0  0  0  0  0  0  0  0  0  0  0
   12.9023    6.8144   22.9530 H   0  0  0  0  0  0  0  0  0  0  0  0
   12.5058    8.5830   22.5641 H   0  0  0  0  0  0  0  0  0  0  0  0
   10.7054    6.4810   23.9252 H   0  0  0  0  0  0  0  0  0  0  0  0
    7.3280   12.3094   22.5550 H   0  0  0  0  0  0  0  0  0  0  0  0
    8.1855   13.2795   23.7985 H   0  0  0  0  0  0  0  0  0  0  0  0
   10.2975   11.5492   25.0827 H   0  0  0  0  0  0  0  0  0  0  0  0
    9.0382   10.6948   22.4078 H   0  0  0  0  0  0  0  0  0  0  0  0
   10.6248   12.0621   21.6134 H   0  0  0  0  0  0  0  0  0  0  0  0
   11.3895    9.5921   24.7341 H   0  0  0  0  0  0  0  0  0  0  0  0
  1  4  1  0  0  0  0
  1  5  2  0  0  0  0
  2  3  1  0  0  0  0
  2  6  2  0  0  0  0
  3  7  2  0  0  0  0
  4  8  2  0  0  0  0
  5  9  1  0  0  0  0
  6 10  1  0  0  0  0
  7 11  1  0  0  0  0
  8 12  1  0  0  0  0
  9 12  2  0  0  0  0
  9 13  1  0  0  0  0
 10 11  2  0  0  0  0
 10 20  1  0  0  0  0
 11 21  1  0  0  0  0
 12 28  1  0  0  0  0
 13 14  2  0  0  0  0
 14 15  1  0  0  0  0
 14 18  1  0  0  0  0
 15 25  2  0  0  0  0
 15 28  1  0  0  0  0
 16 17  2  0  0  0  0
 17 19  1  0  0  0  0
 18 23  1  0  0  0  0
 18 26  2  0  0  0  0
 19 24  1  0  0  0  0
 19 27  2  0  0  0  0
 20 22  1  0  0  0  0
 21 22  1  0  0  0  0
 21 24  1  1  0  0  0
 22 23  1  6  0  0  0
  1 29  1  0  0  0  0
  2 30  1  0  0  0  0
  3 31  1  0  0  0  0
  4 32  1  0  0  0  0
  5 33  1  0  0  0  0
  6 34  1  0  0  0  0
  7 35  1  0  0  0  0
  8 36  1  0  0  0  0
 13 37  1  0  0  0  0
 16 38  1  0  0  0  0
 16 39  1  0  0  0  0
 17 40  1  0  0  0  0
 20 41  1  0  0  0  0
 20 42  1  0  0  0  0
 21 43  1  0  0  0  0
 22 44  1  0  0  0  0
 23 45  1  0  0  0  0
 24 46  1  0  0  0  0
M  END
> <Catalog ID>
Z3709006781

> <MW>
374.389

> <MW (desalted)>
374.389

> <ClogP>
2.359

> <logS>
-5.901

> <HBD>
2

> <HBA>
3

> <TPSA>
84.5

> <RotBonds>
4

> <ROCS_ShapeQuery>
A71EV2A-x0451_0A_A71EV2A-x0310_0A_A71EV2A-x0416_0A_peptide

> <ROCS_TanimotoCombo>
0.544 

> <ROCS_ShapeTanimoto>
0.352 

> <ROCS_ColorTanimoto>
0.192 

> <ROCS_RefTversky>
0.320 

> <ROCS_RefColorTversky>
0.219 

> <ROCS_RefTverskyCombo>
0.539 

> <ROCS_FitTversky>
1.401 

> <ROCS_FitColorTversky>
0.605 

> <ROCS_FitTverskyCombo>
2.006 

> <ROCS_ColorScore>
-6.720

> <ROCS_Overlap>
2225.542

> <ROCS_Rank>
69                  

$$$$
untitled-dbase-2821_667
  -OEChem-11132309573D

 45 48  0     1  0  0  0  0  0999 V2000
   13.8766   16.6361   18.4897 C   0  0  0  0  0  0  0  0  0  0  0  0
   14.8107   16.4637   19.5226 C   0  0  0  0  0  0  0  0  0  0  0  0
   12.6012   16.0767   18.5841 C   0  0  0  0  0  0  0  0  0  0  0  0
   14.4825   15.7310   20.6658 C   0  0  0  0  0  0  0  0  0  0  0  0
    6.0564   11.2667   26.1434 C   0  0  0  0  0  0  0  0  0  0  0  0
    6.6719   10.2278   25.4411 C   0  0  0  0  0  0  0  0  0  0  0  0
    7.6758   12.8571   25.2973 C   0  0  0  0  0  0  0  0  0  0  0  0
    8.3182   11.8262   24.5770 C   0  0  0  0  0  0  0  0  0  0  0  0
   12.2798   15.3628   19.7268 C   0  0  0  0  0  0  0  0  0  0  0  0
   13.2086   15.1927   20.7636 C   0  0  0  0  0  0  0  0  0  0  0  0
    6.5499   12.5650   26.0739 C   0  0  0  0  0  0  0  0  0  0  0  0
    7.8011   10.5319   24.6651 C   0  0  0  0  0  0  0  0  0  0  0  0
    9.4639   11.8224   23.7173 C   0  0  0  0  0  0  0  0  0  0  0  0
   10.2816   13.0165   23.3815 C   0  0  0  0  0  0  0  0  0  0  0  0
   12.6413   16.0396   23.6537 C   0  0  0  0  0  0  0  0  0  0  0  0
   10.9999   14.6437   20.0262 C   0  0  0  0  0  0  0  0  0  0  0  0
   12.6291   14.3352   21.8531 C   0  0  2  0  0  0  0  0  0  0  0  0
   11.1197   14.4650   21.5500 C   0  0  2  0  0  0  0  0  0  0  0  0
    5.8753   13.6576   26.8342 C   0  0  0  0  0  0  0  0  0  0  0  0
   13.0588   16.2653   25.0844 C   0  0  0  0  0  0  0  0  0  0  0  0
    9.8283   10.6645   23.1764 N   0  0  0  0  0  0  0  0  0  0  0  0
   10.3501   13.3527   22.0342 N   0  0  0  0  0  0  0  0  0  0  0  0
   12.9535   14.7701   23.1835 N   0  0  0  0  0  0  0  0  0  0  0  0
   10.8588   13.6209   24.2816 O   0  0  0  0  0  0  0  0  0  0  0  0
   12.0676   16.9093   23.0004 O   0  0  0  0  0  0  0  0  0  0  0  0
    8.7750    9.4968   23.6954 S   0  0  0  0  0  0  0  0  0  0  0  0
   11.6053   16.6416   26.0228 Cl  0  0  0  0  0  0  0  0  0  0  0  0
   14.1529   17.2033   17.6050 H   0  0  0  0  0  0  0  0  0  0  0  0
   15.8021   16.8984   19.4275 H   0  0  0  0  0  0  0  0  0  0  0  0
   11.8853   16.1984   17.7783 H   0  0  0  0  0  0  0  0  0  0  0  0
   15.2154   15.5885   21.4529 H   0  0  0  0  0  0  0  0  0  0  0  0
    5.1793   11.0458   26.7473 H   0  0  0  0  0  0  0  0  0  0  0  0
    6.2837    9.2157   25.4990 H   0  0  0  0  0  0  0  0  0  0  0  0
    8.0550   13.8750   25.2492 H   0  0  0  0  0  0  0  0  0  0  0  0
   10.1191   15.2353   19.7599 H   0  0  0  0  0  0  0  0  0  0  0  0
   10.9844   13.6845   19.4971 H   0  0  0  0  0  0  0  0  0  0  0  0
   12.9781   13.3035   21.7294 H   0  0  0  0  0  0  0  0  0  0  0  0
   10.7116   15.3623   22.0372 H   0  0  0  0  0  0  0  0  0  0  0  0
    6.3103   13.7490   27.8366 H   0  0  0  0  0  0  0  0  0  0  0  0
    5.9782   14.6217   26.3202 H   0  0  0  0  0  0  0  0  0  0  0  0
    4.7998   13.4649   26.9370 H   0  0  0  0  0  0  0  0  0  0  0  0
   13.5423   15.3894   25.5239 H   0  0  0  0  0  0  0  0  0  0  0  0
   13.7460   17.1145   25.1327 H   0  0  0  0  0  0  0  0  0  0  0  0
    9.8920   12.7616   21.3425 H   0  0  0  0  0  0  0  0  0  0  0  0
   13.4319   14.1212   23.8075 H   0  0  0  0  0  0  0  0  0  0  0  0
  1  2  1  0  0  0  0
  1  3  2  0  0  0  0
  2  4  2  0  0  0  0
  3  9  1  0  0  0  0
  4 10  1  0  0  0  0
  5  6  2  0  0  0  0
  5 11  1  0  0  0  0
  6 12  1  0  0  0  0
  7  8  1  0  0  0  0
  7 11  2  0  0  0  0
  8 12  2  0  0  0  0
  8 13  1  0  0  0  0
  9 10  2  0  0  0  0
  9 16  1  0  0  0  0
 10 17  1  0  0  0  0
 11 19  1  0  0  0  0
 12 26  1  0  0  0  0
 13 14  1  0  0  0  0
 13 21  2  0  0  0  0
 14 22  1  0  0  0  0
 14 24  2  0  0  0  0
 15 20  1  0  0  0  0
 15 23  1  0  0  0  0
 15 25  2  0  0  0  0
 16 18  1  0  0  0  0
 17 18  1  0  0  0  0
 17 23  1  1  0  0  0
 18 22  1  6  0  0  0
 20 27  1  0  0  0  0
 21 26  1  0  0  0  0
  1 28  1  0  0  0  0
  2 29  1  0  0  0  0
  3 30  1  0  0  0  0
  4 31  1  0  0  0  0
  5 32  1  0  0  0  0
  6 33  1  0  0  0  0
  7 34  1  0  0  0  0
 16 35  1  0  0  0  0
 16 36  1  0  0  0  0
 17 37  1  0  0  0  0
 18 38  1  0  0  0  0
 19 39  1  0  0  0  0
 19 40  1  0  0  0  0
 19 41  1  0  0  0  0
 20 42  1  0  0  0  0
 20 43  1  0  0  0  0
 22 44  1  0  0  0  0
 23 45  1  0  0  0  0
M  END
> <Catalog ID>
Z4439378388

> <MW>
399.894

> <MW (desalted)>
399.894

> <ClogP>
3.76

> <logS>
-5.932

> <HBD>
2

> <HBA>
3

> <TPSA>
71.09

> <RotBonds>
4

> <ROCS_ShapeQuery>
A71EV2A-x0451_0A_A71EV2A-x0310_0A_A71EV2A-x0416_0A_peptide

> <ROCS_TanimotoCombo>
0.544 

> <ROCS_ShapeTanimoto>
0.364 

> <ROCS_ColorTanimoto>
0.179 

> <ROCS_RefTversky>
0.325 

> <ROCS_RefColorTversky>
0.203 

> <ROCS_RefTverskyCombo>
0.528 

> <ROCS_FitTversky>
1.491 

> <ROCS_FitColorTversky>
0.610 

> <ROCS_FitTverskyCombo>
2.101 

> <ROCS_ColorScore>
-6.196

> <ROCS_Overlap>
2263.383

> <ROCS_Rank>
70                  

$$$$
untitled-dbase-6335_3108
  -OEChem-11132309573D

 46 48  0     1  0  0  0  0  0999 V2000
   13.6915   16.1467   18.5241 B   0  0  0  0  0  0  0  0  0  0  0  0
   11.9290   14.6231   19.5186 C   0  0  0  0  0  0  0  0  0  0  0  0
   11.2461   14.0132   20.5709 C   0  0  0  0  0  0  0  0  0  0  0  0
   12.6591   15.1657   22.1559 C   0  0  0  0  0  0  0  0  0  0  0  0
    6.4852    9.8147   25.7300 C   0  0  0  0  0  0  0  0  0  0  0  0
   12.9770   15.5043   19.7850 C   0  0  0  0  0  0  0  0  0  0  0  0
   11.6111   14.2845   21.8895 C   0  0  0  0  0  0  0  0  0  0  0  0
   13.3420   15.7756   21.1036 C   0  0  0  0  0  0  0  0  0  0  0  0
    5.9306   11.0033   26.2477 C   0  0  0  0  0  0  0  0  0  0  0  0
    7.4708   10.2366   24.8676 C   0  0  0  0  0  0  0  0  0  0  0  0
   14.4296   16.6869   21.4527 C   0  0  0  0  0  0  0  0  0  0  0  0
   10.8830   13.6349   23.0098 C   0  0  0  0  0  0  0  0  0  0  0  0
    4.8557   11.1248   27.1908 C   0  0  0  0  0  0  0  0  0  0  0  0
    8.3525   12.4748   24.2123 C   0  0  0  0  0  0  0  0  0  0  0  0
    9.0451   10.3338   23.1300 C   0  0  0  0  0  0  0  0  0  0  0  0
    9.5422   11.6656   23.7004 C   0  0  1  0  0  0  0  0  0  0  0  0
    3.8789    8.8080   29.8863 C   0  0  0  0  0  0  0  0  0  0  0  0
    3.7632   10.0622   29.0466 C   0  0  0  0  0  0  0  0  0  0  0  0
    6.5195   12.1024   25.7664 N   0  0  0  0  0  0  0  0  0  0  0  0
    7.4569   11.6029   24.9448 N   0  0  0  0  0  0  0  0  0  0  0  0
   10.3005   12.4060   22.7274 N   0  0  0  0  0  0  0  0  0  0  0  0
   14.7426   17.6502   20.7543 O   0  0  0  0  0  0  0  0  0  0  0  0
   10.8152   14.2082   24.0939 O   0  0  0  0  0  0  0  0  0  0  0  0
    4.0493   12.0772   27.2438 O   0  0  0  0  0  0  0  0  0  0  0  0
    8.3366    9.5584   24.1106 O   0  0  0  0  0  0  0  0  0  0  0  0
   12.9721   16.9118   17.6372 O   0  0  0  0  0  0  0  0  0  0  0  0
   15.0338   15.9420   18.3114 O   0  0  0  0  0  0  0  0  0  0  0  0
    4.7971   10.0575   28.0564 O   0  0  0  0  0  0  0  0  0  0  0  0
   11.6170   14.3885   18.5024 H   0  0  0  0  0  0  0  0  0  0  0  0
   10.4316   13.3269   20.3525 H   0  0  0  0  0  0  0  0  0  0  0  0
   12.9409   15.3759   23.1858 H   0  0  0  0  0  0  0  0  0  0  0  0
    6.2082    8.7929   25.9462 H   0  0  0  0  0  0  0  0  0  0  0  0
   14.9804   16.4788   22.3921 H   0  0  0  0  0  0  0  0  0  0  0  0
    8.6761   13.2776   24.8833 H   0  0  0  0  0  0  0  0  0  0  0  0
    7.7656   12.9019   23.3908 H   0  0  0  0  0  0  0  0  0  0  0  0
    8.3835   10.4885   22.2679 H   0  0  0  0  0  0  0  0  0  0  0  0
    9.8909    9.7247   22.7920 H   0  0  0  0  0  0  0  0  0  0  0  0
   10.2174   11.4583   24.5404 H   0  0  0  0  0  0  0  0  0  0  0  0
    3.7661    7.9128   29.2684 H   0  0  0  0  0  0  0  0  0  0  0  0
    4.8500    8.7693   30.3907 H   0  0  0  0  0  0  0  0  0  0  0  0
    3.1131    8.7957   30.6690 H   0  0  0  0  0  0  0  0  0  0  0  0
    3.8769   10.9537   29.6706 H   0  0  0  0  0  0  0  0  0  0  0  0
    2.7927   10.0988   28.5428 H   0  0  0  0  0  0  0  0  0  0  0  0
   10.3486   12.0262   21.7848 H   0  0  0  0  0  0  0  0  0  0  0  0
   12.0336   16.9976   17.8733 H   0  0  0  0  0  0  0  0  0  0  0  0
   15.4530   15.3892   18.9916 H   0  0  0  0  0  0  0  0  0  0  0  0
  1  6  1  0  0  0  0
  1 26  1  0  0  0  0
  1 27  1  0  0  0  0
  2  3  2  0  0  0  0
  2  6  1  0  0  0  0
  3  7  1  0  0  0  0
  4  7  2  0  0  0  0
  4  8  1  0  0  0  0
  5  9  1  0  0  0  0
  5 10  2  0  0  0  0
  6  8  2  0  0  0  0
  7 12  1  0  0  0  0
  8 11  1  0  0  0  0
  9 13  1  0  0  0  0
  9 19  2  0  0  0  0
 10 20  1  0  0  0  0
 10 25  1  0  0  0  0
 11 22  2  0  0  0  0
 12 21  1  0  0  0  0
 12 23  2  0  0  0  0
 13 24  2  0  0  0  0
 13 28  1  0  0  0  0
 14 16  1  0  0  0  0
 14 20  1  0  0  0  0
 15 16  1  0  0  0  0
 15 25  1  0  0  0  0
 16 21  1  0  0  0  0
 17 18  1  0  0  0  0
 18 28  1  0  0  0  0
 19 20  1  0  0  0  0
  2 29  1  0  0  0  0
  3 30  1  0  0  0  0
  4 31  1  0  0  0  0
  5 32  1  0  0  0  0
 11 33  1  0  0  0  0
 14 34  1  0  0  0  0
 14 35  1  0  0  0  0
 15 36  1  0  0  0  0
 15 37  1  0  0  0  0
 16 38  1  0  0  0  0
 17 39  1  0  0  0  0
 17 40  1  0  0  0  0
 17 41  1  0  0  0  0
 18 42  1  0  0  0  0
 18 43  1  0  0  0  0
 21 44  1  0  0  0  0
 26 45  1  0  0  0  0
 27 46  1  0  0  0  0
M  END
> <Catalog ID>
Z7158434131

> <MW>
387.152

> <MW (desalted)>
387.152

> <ClogP>
1.373

> <logS>
-2.761

> <HBD>
3

> <HBA>
7

> <TPSA>
139.98

> <RotBonds>
7

> <ROCS_ShapeQuery>
A71EV2A-x0451_0A_A71EV2A-x0310_0A_A71EV2A-x0416_0A_peptide

> <ROCS_TanimotoCombo>
0.543 

> <ROCS_ShapeTanimoto>
0.348 

> <ROCS_ColorTanimoto>
0.195 

> <ROCS_RefTversky>
0.316 

> <ROCS_RefColorTversky>
0.218 

> <ROCS_RefTverskyCombo>
0.534 

> <ROCS_FitTversky>
1.402 

> <ROCS_FitColorTversky>
0.655 

> <ROCS_FitTverskyCombo>
2.057 

> <ROCS_ColorScore>
-6.656

> <ROCS_Overlap>
2202.584

> <ROCS_Rank>
71                  

$$$$
untitled-dbase-2144_6818
  -OEChem-11132309573D

 53 55  0     1  0  0  0  0  0999 V2000
   12.1172   14.9557   22.1985 C   0  0  0  0  0  0  0  0  0  0  0  0
   12.9938   15.8186   21.5409 C   0  0  0  0  0  0  0  0  0  0  0  0
   11.6093   13.8721   20.0996 C   0  0  0  0  0  0  0  0  0  0  0  0
    8.0612   12.1971   24.4837 C   0  0  0  0  0  0  0  0  0  0  0  0
    9.2874   12.0076   23.8946 C   0  0  0  0  0  0  0  0  0  0  0  0
   11.4250   13.9824   21.4779 C   0  0  0  0  0  0  0  0  0  0  0  0
   12.4859   14.7351   19.4420 C   0  0  0  0  0  0  0  0  0  0  0  0
   13.1782   15.7084   20.1626 C   0  0  0  0  0  0  0  0  0  0  0  0
    9.4032   10.6106   23.7646 C   0  0  0  0  0  0  0  0  0  0  0  0
   13.3979   15.9234   14.7428 C   0  0  0  0  0  0  0  0  0  0  0  0
   13.0983   15.1077   15.7585 C   0  0  0  0  0  0  0  0  0  0  0  0
   10.2018   13.0429   23.5188 C   0  0  0  0  0  0  0  0  0  0  0  0
   12.9897   15.6358   17.1494 C   0  0  0  0  0  0  0  0  0  0  0  0
    6.3351   10.3365   26.7687 C   0  0  0  0  0  0  0  0  0  0  0  0
    6.2050   11.6610   27.5079 C   0  0  0  0  0  0  0  0  0  0  0  0
    5.1205   11.6753   25.0651 C   0  0  0  0  0  0  0  0  0  0  0  0
    6.2360   10.6313   25.2613 C   0  0  1  0  0  0  0  0  0  0  0  0
   10.1295    9.0288   21.9414 C   0  0  0  0  0  0  0  0  0  0  0  0
   11.2039    8.9061   24.2186 C   0  0  0  0  0  0  0  0  0  0  0  0
   10.5267    9.8465   23.1934 C   0  0  0  0  0  0  0  0  0  0  0  0
    8.3358    9.9589   24.2335 N   0  0  0  0  0  0  0  0  0  0  0  0
    7.5376   10.9507   24.6640 N   0  0  0  0  0  0  0  0  0  0  0  0
   10.5340   13.1054   22.1465 N   0  0  0  0  0  0  0  0  0  0  0  0
   12.6689   14.6227   18.0632 N   0  0  0  0  0  0  0  0  0  0  0  0
   10.7096   13.8281   24.3498 O   0  0  0  0  0  0  0  0  0  0  0  0
   13.1708   16.8227   17.3943 O   0  0  0  0  0  0  0  0  0  0  0  0
    3.6689   12.2614   27.1864 O   0  0  0  0  0  0  0  0  0  0  0  0
    5.4163   13.9307   26.4268 O   0  0  0  0  0  0  0  0  0  0  0  0
   14.0229   16.5435   19.5414 F   0  0  0  0  0  0  0  0  0  0  0  0
    4.9623   12.5683   26.6098 S   0  0  0  0  0  0  0  0  0  0  0  0
   11.9815   15.0511   23.2729 H   0  0  0  0  0  0  0  0  0  0  0  0
   13.5333   16.5762   22.1015 H   0  0  0  0  0  0  0  0  0  0  0  0
   11.0689   13.1126   19.5379 H   0  0  0  0  0  0  0  0  0  0  0  0
    7.5287   13.0899   24.7831 H   0  0  0  0  0  0  0  0  0  0  0  0
   13.4853   15.5758   13.7195 H   0  0  0  0  0  0  0  0  0  0  0  0
   13.5649   16.9796   14.9267 H   0  0  0  0  0  0  0  0  0  0  0  0
   12.9310   14.0518   15.5755 H   0  0  0  0  0  0  0  0  0  0  0  0
    7.3113    9.8714   26.9997 H   0  0  0  0  0  0  0  0  0  0  0  0
    5.5653    9.6172   27.0966 H   0  0  0  0  0  0  0  0  0  0  0  0
    5.8387   11.5069   28.5261 H   0  0  0  0  0  0  0  0  0  0  0  0
    7.1383   12.2256   27.5249 H   0  0  0  0  0  0  0  0  0  0  0  0
    5.3777   12.4028   24.2780 H   0  0  0  0  0  0  0  0  0  0  0  0
    4.1583   11.2072   24.8080 H   0  0  0  0  0  0  0  0  0  0  0  0
    5.9285    9.6688   24.7451 H   0  0  0  0  0  0  0  0  0  0  0  0
    9.3318    8.3134   22.1691 H   0  0  0  0  0  0  0  0  0  0  0  0
   10.9752    8.4647   21.5333 H   0  0  0  0  0  0  0  0  0  0  0  0
    9.7628    9.6986   21.1554 H   0  0  0  0  0  0  0  0  0  0  0  0
   10.4736    8.1903   24.6123 H   0  0  0  0  0  0  0  0  0  0  0  0
   11.6240    9.4571   25.0670 H   0  0  0  0  0  0  0  0  0  0  0  0
   12.0173    8.3344   23.7584 H   0  0  0  0  0  0  0  0  0  0  0  0
   11.3333   10.5317   22.8499 H   0  0  0  0  0  0  0  0  0  0  0  0
   10.0670   12.4237   21.5537 H   0  0  0  0  0  0  0  0  0  0  0  0
   12.5544   13.6810   17.6693 H   0  0  0  0  0  0  0  0  0  0  0  0
  1  2  2  0  0  0  0
  1  6  1  0  0  0  0
  2  8  1  0  0  0  0
  3  6  2  0  0  0  0
  3  7  1  0  0  0  0
  4  5  2  0  0  0  0
  4 22  1  0  0  0  0
  5  9  1  0  0  0  0
  5 12  1  0  0  0  0
  6 23  1  0  0  0  0
  7  8  2  0  0  0  0
  7 24  1  0  0  0  0
  8 29  1  0  0  0  0
  9 20  1  0  0  0  0
  9 21  2  0  0  0  0
 10 11  2  0  0  0  0
 11 13  1  0  0  0  0
 12 23  1  0  0  0  0
 12 25  2  0  0  0  0
 13 24  1  0  0  0  0
 13 26  2  0  0  0  0
 14 15  1  0  0  0  0
 14 17  1  0  0  0  0
 15 30  1  0  0  0  0
 16 17  1  0  0  0  0
 16 30  1  0  0  0  0
 17 22  1  0  0  0  0
 18 20  1  0  0  0  0
 19 20  1  0  0  0  0
 21 22  1  0  0  0  0
 27 30  2  0  0  0  0
 28 30  2  0  0  0  0
  1 31  1  0  0  0  0
  2 32  1  0  0  0  0
  3 33  1  0  0  0  0
  4 34  1  0  0  0  0
 10 35  1  0  0  0  0
 10 36  1  0  0  0  0
 11 37  1  0  0  0  0
 14 38  1  0  0  0  0
 14 39  1  0  0  0  0
 15 40  1  0  0  0  0
 15 41  1  0  0  0  0
 16 42  1  0  0  0  0
 16 43  1  0  0  0  0
 17 44  1  0  0  0  0
 18 45  1  0  0  0  0
 18 46  1  0  0  0  0
 18 47  1  0  0  0  0
 19 48  1  0  0  0  0
 19 49  1  0  0  0  0
 19 50  1  0  0  0  0
 20 51  1  0  0  0  0
 23 52  1  0  0  0  0
 24 53  1  0  0  0  0
M  END
> <Catalog ID>
Z1410271722

> <MW>
434.484

> <MW (desalted)>
434.484

> <ClogP>
-0.912

> <logS>
-4

> <HBD>
2

> <HBA>
5

> <TPSA>
110.16

> <RotBonds>
6

> <ROCS_ShapeQuery>
A71EV2A-x0451_0A_A71EV2A-x0310_0A_A71EV2A-x0416_0A_peptide

> <ROCS_TanimotoCombo>
0.543 

> <ROCS_ShapeTanimoto>
0.365 

> <ROCS_ColorTanimoto>
0.178 

> <ROCS_RefTversky>
0.330 

> <ROCS_RefColorTversky>
0.215 

> <ROCS_RefTverskyCombo>
0.545 

> <ROCS_FitTversky>
1.412 

> <ROCS_FitColorTversky>
0.509 

> <ROCS_FitTverskyCombo>
1.921 

> <ROCS_ColorScore>
-6.615

> <ROCS_Overlap>
2295.199

> <ROCS_Rank>
72                  

$$$$
untitled-dbase-9237_1670
  -OEChem-11132309573D

 44 46  0     0  0  0  0  0  0999 V2000
    6.9843   12.2843   26.1743 C   0  0  0  0  0  0  0  0  0  0  0  0
    8.1020   12.7056   25.4488 C   0  0  0  0  0  0  0  0  0  0  0  0
    6.4157   11.0253   25.9449 C   0  0  0  0  0  0  0  0  0  0  0  0
    8.0733   10.5882   24.2691 C   0  0  0  0  0  0  0  0  0  0  0  0
    8.6344   11.8498   24.4943 C   0  0  0  0  0  0  0  0  0  0  0  0
    6.9616   10.1678   24.9899 C   0  0  0  0  0  0  0  0  0  0  0  0
   12.9460   15.9427   19.7072 C   0  0  0  0  0  0  0  0  0  0  0  0
   12.1375   16.4059   20.6660 C   0  0  0  0  0  0  0  0  0  0  0  0
   11.9206   15.6116   21.9087 C   0  0  0  0  0  0  0  0  0  0  0  0
   10.5522   13.1740   23.6112 C   0  0  0  0  0  0  0  0  0  0  0  0
    9.3923    7.4407   22.9961 C   0  0  0  0  0  0  0  0  0  0  0  0
    7.9967    7.6793   22.4489 C   0  0  0  0  0  0  0  0  0  0  0  0
    9.6386    8.6475   23.8949 C   0  0  0  0  0  0  0  0  0  0  0  0
    8.0033    9.1693   22.1310 C   0  0  0  0  0  0  0  0  0  0  0  0
    9.7913   10.9172   22.6905 C   0  0  0  0  0  0  0  0  0  0  0  0
    8.8590    9.8117   23.2392 C   0  0  0  0  0  0  0  0  0  0  0  0
   10.4959   14.1351   20.5424 C   0  0  0  0  0  0  0  0  0  0  0  0
   11.6038   13.1714   22.5271 C   0  0  0  0  0  0  0  0  0  0  0  0
    9.7279   12.0574   23.6289 N   0  0  0  0  0  0  0  0  0  0  0  0
   11.3664   14.3236   21.7130 N   0  0  0  0  0  0  0  0  0  0  0  0
   12.2020   16.1015   23.0036 O   0  0  0  0  0  0  0  0  0  0  0  0
   10.4981   14.1231   24.3937 O   0  0  0  0  0  0  0  0  0  0  0  0
    6.3916    8.9766   24.7969 F   0  0  0  0  0  0  0  0  0  0  0  0
    6.5467   12.9431   26.9202 H   0  0  0  0  0  0  0  0  0  0  0  0
    8.5063   13.6904   25.6453 H   0  0  0  0  0  0  0  0  0  0  0  0
    5.5447   10.7165   26.5152 H   0  0  0  0  0  0  0  0  0  0  0  0
   13.1333   16.4858   18.7875 H   0  0  0  0  0  0  0  0  0  0  0  0
   13.4499   14.9903   19.8360 H   0  0  0  0  0  0  0  0  0  0  0  0
   11.6721   17.3772   20.5521 H   0  0  0  0  0  0  0  0  0  0  0  0
    9.4340    6.5188   23.5698 H   0  0  0  0  0  0  0  0  0  0  0  0
   10.1351    7.3767   22.2058 H   0  0  0  0  0  0  0  0  0  0  0  0
    7.8260    7.1023   21.5493 H   0  0  0  0  0  0  0  0  0  0  0  0
    7.2358    7.4208   23.1703 H   0  0  0  0  0  0  0  0  0  0  0  0
    9.3381    8.4522   24.9297 H   0  0  0  0  0  0  0  0  0  0  0  0
   10.7138    8.8669   23.8970 H   0  0  0  0  0  0  0  0  0  0  0  0
    8.4795    9.3173   21.1580 H   0  0  0  0  0  0  0  0  0  0  0  0
    6.9943    9.5789   22.0770 H   0  0  0  0  0  0  0  0  0  0  0  0
   10.8279   10.5859   22.5788 H   0  0  0  0  0  0  0  0  0  0  0  0
    9.4491   11.2902   21.7176 H   0  0  0  0  0  0  0  0  0  0  0  0
   11.1025   13.8201   19.6806 H   0  0  0  0  0  0  0  0  0  0  0  0
    9.7453   13.3622   20.7645 H   0  0  0  0  0  0  0  0  0  0  0  0
    9.9883   15.0821   20.3068 H   0  0  0  0  0  0  0  0  0  0  0  0
   11.4959   12.2549   21.9563 H   0  0  0  0  0  0  0  0  0  0  0  0
   12.5778   13.2172   23.0031 H   0  0  0  0  0  0  0  0  0  0  0  0
  1  2  1  0  0  0  0
  1  3  2  0  0  0  0
  2  5  2  0  0  0  0
  3  6  1  0  0  0  0
  4  5  1  0  0  0  0
  4  6  2  0  0  0  0
  4 16  1  0  0  0  0
  5 19  1  0  0  0  0
  6 23  1  0  0  0  0
  7  8  2  0  0  0  0
  8  9  1  0  0  0  0
  9 20  1  0  0  0  0
  9 21  2  0  0  0  0
 10 18  1  0  0  0  0
 10 19  1  0  0  0  0
 10 22  2  0  0  0  0
 11 12  1  0  0  0  0
 11 13  1  0  0  0  0
 12 14  1  0  0  0  0
 13 16  1  0  0  0  0
 14 16  1  0  0  0  0
 15 16  1  0  0  0  0
 15 19  1  0  0  0  0
 17 20  1  0  0  0  0
 18 20  1  0  0  0  0
  1 24  1  0  0  0  0
  2 25  1  0  0  0  0
  3 26  1  0  0  0  0
  7 27  1  0  0  0  0
  7 28  1  0  0  0  0
  8 29  1  0  0  0  0
 11 30  1  0  0  0  0
 11 31  1  0  0  0  0
 12 32  1  0  0  0  0
 12 33  1  0  0  0  0
 13 34  1  0  0  0  0
 13 35  1  0  0  0  0
 14 36  1  0  0  0  0
 14 37  1  0  0  0  0
 15 38  1  0  0  0  0
 15 39  1  0  0  0  0
 17 40  1  0  0  0  0
 17 41  1  0  0  0  0
 17 42  1  0  0  0  0
 18 43  1  0  0  0  0
 18 44  1  0  0  0  0
M  END
> <Catalog ID>
Z2702529793

> <MW>
316.37

> <MW (desalted)>
316.37

> <ClogP>
3.121

> <logS>
-4.346

> <HBD>
0

> <HBA>
2

> <TPSA>
40.62

> <RotBonds>
3

> <ROCS_ShapeQuery>
A71EV2A-x0451_0A_A71EV2A-x0310_0A_A71EV2A-x0416_0A_peptide

> <ROCS_TanimotoCombo>
0.543 

> <ROCS_ShapeTanimoto>
0.380 

> <ROCS_ColorTanimoto>
0.163 

> <ROCS_RefTversky>
0.329 

> <ROCS_RefColorTversky>
0.174 

> <ROCS_RefTverskyCombo>
0.503 

> <ROCS_FitTversky>
1.688 

> <ROCS_FitColorTversky>
0.725 

> <ROCS_FitTverskyCombo>
2.413 

> <ROCS_ColorScore>
-5.295

> <ROCS_Overlap>
2284.690

> <ROCS_Rank>
73                  

$$$$
untitled-dbase-1980_890
  -OEChem-11132309573D

 47 48  0     0  0  0  0  0  0999 V2000
    4.7732   12.3952   28.6086 C   0  0  0  0  0  0  0  0  0  0  0  0
    5.2089   13.4344   27.7866 C   0  0  0  0  0  0  0  0  0  0  0  0
    5.1184   11.0773   28.3090 C   0  0  0  0  0  0  0  0  0  0  0  0
    5.9897   13.1558   26.6649 C   0  0  0  0  0  0  0  0  0  0  0  0
    5.8992   10.7987   27.1872 C   0  0  0  0  0  0  0  0  0  0  0  0
    6.3349   11.8379   26.3651 C   0  0  0  0  0  0  0  0  0  0  0  0
    8.9603   11.5118   23.8225 C   0  0  0  0  0  0  0  0  0  0  0  0
    8.4476   10.2781   23.9093 C   0  0  0  0  0  0  0  0  0  0  0  0
    8.0976   12.3899   24.6551 C   0  0  0  0  0  0  0  0  0  0  0  0
   11.8983   16.3074   19.4372 C   0  0  0  0  0  0  0  0  0  0  0  0
   11.2888   16.4822   20.6137 C   0  0  0  0  0  0  0  0  0  0  0  0
   11.7342   15.7230   21.8125 C   0  0  0  0  0  0  0  0  0  0  0  0
   10.8384   13.0638   23.5549 C   0  0  0  0  0  0  0  0  0  0  0  0
    8.8750    9.1999   21.7149 C   0  0  0  0  0  0  0  0  0  0  0  0
   10.3647    8.7055   23.6783 C   0  0  0  0  0  0  0  0  0  0  0  0
    6.1164    9.5127   24.2912 C   0  0  0  0  0  0  0  0  0  0  0  0
   11.9940   13.4041   22.6497 C   0  0  0  0  0  0  0  0  0  0  0  0
    8.9413    9.0434   23.2335 C   0  0  0  0  0  0  0  0  0  0  0  0
    7.1284   11.5551   25.2254 N   0  0  0  0  0  0  0  0  0  0  0  0
    7.3013   10.2579   24.7050 N   0  0  0  0  0  0  0  0  0  0  0  0
   10.0367   11.9635   23.1416 N   0  0  0  0  0  0  0  0  0  0  0  0
   11.6289   14.3469   21.6357 N   0  0  0  0  0  0  0  0  0  0  0  0
    8.3156   13.5791   24.8196 O   0  0  0  0  0  0  0  0  0  0  0  0
   12.1411   16.2748   22.8299 O   0  0  0  0  0  0  0  0  0  0  0  0
   10.5934   13.6845   24.5829 O   0  0  0  0  0  0  0  0  0  0  0  0
    4.1658   12.6118   29.4826 H   0  0  0  0  0  0  0  0  0  0  0  0
    4.9411   14.4606   28.0201 H   0  0  0  0  0  0  0  0  0  0  0  0
    4.7798   10.2683   28.9499 H   0  0  0  0  0  0  0  0  0  0  0  0
    6.3237   13.9739   26.0316 H   0  0  0  0  0  0  0  0  0  0  0  0
    6.1621    9.7677   26.9636 H   0  0  0  0  0  0  0  0  0  0  0  0
   11.5670   16.8641   18.5669 H   0  0  0  0  0  0  0  0  0  0  0  0
   12.7278   15.6215   19.3051 H   0  0  0  0  0  0  0  0  0  0  0  0
   10.4625   17.1790   20.7032 H   0  0  0  0  0  0  0  0  0  0  0  0
    9.5100   10.0235   21.3690 H   0  0  0  0  0  0  0  0  0  0  0  0
    7.8499    9.4060   21.3876 H   0  0  0  0  0  0  0  0  0  0  0  0
    9.2072    8.2851   21.2124 H   0  0  0  0  0  0  0  0  0  0  0  0
   11.0588    9.5105   23.4119 H   0  0  0  0  0  0  0  0  0  0  0  0
   10.7239    7.7829   23.2083 H   0  0  0  0  0  0  0  0  0  0  0  0
   10.4127    8.5703   24.7641 H   0  0  0  0  0  0  0  0  0  0  0  0
    5.3288    9.6238   25.0511 H   0  0  0  0  0  0  0  0  0  0  0  0
    5.7549    9.9040   23.3288 H   0  0  0  0  0  0  0  0  0  0  0  0
    6.3724    8.4486   24.1814 H   0  0  0  0  0  0  0  0  0  0  0  0
   12.3436   12.4945   22.1547 H   0  0  0  0  0  0  0  0  0  0  0  0
   12.7996   13.8430   23.2440 H   0  0  0  0  0  0  0  0  0  0  0  0
    8.2894    8.2081   23.5232 H   0  0  0  0  0  0  0  0  0  0  0  0
   10.2586   11.4731   22.2985 H   0  0  0  0  0  0  0  0  0  0  0  0
   11.2470   13.9880   20.7583 H   0  0  0  0  0  0  0  0  0  0  0  0
  1  2  1  0  0  0  0
  1  3  2  0  0  0  0
  2  4  2  0  0  0  0
  3  5  1  0  0  0  0
  4  6  1  0  0  0  0
  5  6  2  0  0  0  0
  6 19  1  0  0  0  0
  7  8  2  0  0  0  0
  7  9  1  0  0  0  0
  7 21  1  0  0  0  0
  8 18  1  0  0  0  0
  8 20  1  0  0  0  0
  9 19  1  0  0  0  0
  9 23  2  0  0  0  0
 10 11  2  0  0  0  0
 11 12  1  0  0  0  0
 12 22  1  0  0  0  0
 12 24  2  0  0  0  0
 13 17  1  0  0  0  0
 13 21  1  0  0  0  0
 13 25  2  0  0  0  0
 14 18  1  0  0  0  0
 15 18  1  0  0  0  0
 16 20  1  0  0  0  0
 17 22  1  0  0  0  0
 19 20  1  0  0  0  0
  1 26  1  0  0  0  0
  2 27  1  0  0  0  0
  3 28  1  0  0  0  0
  4 29  1  0  0  0  0
  5 30  1  0  0  0  0
 10 31  1  0  0  0  0
 10 32  1  0  0  0  0
 11 33  1  0  0  0  0
 14 34  1  0  0  0  0
 14 35  1  0  0  0  0
 14 36  1  0  0  0  0
 15 37  1  0  0  0  0
 15 38  1  0  0  0  0
 15 39  1  0  0  0  0
 16 40  1  0  0  0  0
 16 41  1  0  0  0  0
 16 42  1  0  0  0  0
 17 43  1  0  0  0  0
 17 44  1  0  0  0  0
 18 45  1  0  0  0  0
 21 46  1  0  0  0  0
 22 47  1  0  0  0  0
M  END
> <Catalog ID>
Z3707881750

> <MW>
342.392

> <MW (desalted)>
342.392

> <ClogP>
0.039

> <logS>
-3.427

> <HBD>
2

> <HBA>
4

> <TPSA>
81.75

> <RotBonds>
6

> <ROCS_ShapeQuery>
A71EV2A-x0451_0A_A71EV2A-x0310_0A_A71EV2A-x0416_0A_peptide

> <ROCS_TanimotoCombo>
0.543 

> <ROCS_ShapeTanimoto>
0.385 

> <ROCS_ColorTanimoto>
0.158 

> <ROCS_RefTversky>
0.335 

> <ROCS_RefColorTversky>
0.182 

> <ROCS_RefTverskyCombo>
0.517 

> <ROCS_FitTversky>
1.630 

> <ROCS_FitColorTversky>
0.547 

> <ROCS_FitTverskyCombo>
2.177 

> <ROCS_ColorScore>
-5.552

> <ROCS_Overlap>
2330.398

> <ROCS_Rank>
74                  

$$$$
untitled-dbase-3032_4291
  -OEChem-11132309573D

 63 66  0     0  0  0  0  0  0999 V2000
   13.0963   13.0705   22.1094 C   0  0  0  0  0  0  0  0  0  0  0  0
   12.3780   15.4712   18.9812 C   0  0  0  0  0  0  0  0  0  0  0  0
   14.0345   15.7458   20.7184 C   0  0  0  0  0  0  0  0  0  0  0  0
    8.0072    9.8449   24.6087 C   0  0  0  0  0  0  0  0  0  0  0  0
   13.3034   15.9018   18.0306 C   0  0  0  0  0  0  0  0  0  0  0  0
   14.9600   16.1764   19.7677 C   0  0  0  0  0  0  0  0  0  0  0  0
    7.0271   10.6860   25.1356 C   0  0  0  0  0  0  0  0  0  0  0  0
    8.1709   12.6006   24.2065 C   0  0  0  0  0  0  0  0  0  0  0  0
   12.7434   15.3933   20.3251 C   0  0  0  0  0  0  0  0  0  0  0  0
    9.0691   10.3816   23.8808 C   0  0  0  0  0  0  0  0  0  0  0  0
    9.1510   11.7595   23.6796 C   0  0  0  0  0  0  0  0  0  0  0  0
   14.5944   16.2544   18.4238 C   0  0  0  0  0  0  0  0  0  0  0  0
    7.1090   12.0639   24.9345 C   0  0  0  0  0  0  0  0  0  0  0  0
   11.7672   14.9392   21.3278 C   0  0  0  0  0  0  0  0  0  0  0  0
   11.9166   13.8749   22.1412 C   0  0  0  0  0  0  0  0  0  0  0  0
   10.7836   13.5888   23.1035 C   0  0  0  0  0  0  0  0  0  0  0  0
   11.0730    7.6085   22.3951 C   0  0  0  0  0  0  0  0  0  0  0  0
   12.1391    8.6534   22.6554 C   0  0  0  0  0  0  0  0  0  0  0  0
    9.7883    8.4291   22.4035 C   0  0  0  0  0  0  0  0  0  0  0  0
   11.4771    9.5596   23.6871 C   0  0  0  0  0  0  0  0  0  0  0  0
    6.1797   12.5294   28.2282 C   0  0  0  0  0  0  0  0  0  0  0  0
    3.9476   12.1668   27.2600 C   0  0  0  0  0  0  0  0  0  0  0  0
    5.8357   11.4853   29.2811 C   0  0  0  0  0  0  0  0  0  0  0  0
    3.6973   11.1382   28.3539 C   0  0  0  0  0  0  0  0  0  0  0  0
   15.0572   16.7306   16.1402 C   0  0  0  0  0  0  0  0  0  0  0  0
   14.0534   12.4145   22.0878 N   0  0  0  0  0  0  0  0  0  0  0  0
   10.0471    9.5139   23.3582 N   0  0  0  0  0  0  0  0  0  0  0  0
    5.4129   12.2266   26.9843 N   0  0  0  0  0  0  0  0  0  0  0  0
   10.2052   12.3194   22.9524 N   0  0  0  0  0  0  0  0  0  0  0  0
   10.4391   14.4336   23.9262 O   0  0  0  0  0  0  0  0  0  0  0  0
    6.5131   14.3510   26.0241 O   0  0  0  0  0  0  0  0  0  0  0  0
    4.7575   13.1528   24.6714 O   0  0  0  0  0  0  0  0  0  0  0  0
    4.4288   11.4798   29.5333 O   0  0  0  0  0  0  0  0  0  0  0  0
   15.4975   16.6745   17.4962 O   0  0  0  0  0  0  0  0  0  0  0  0
    5.8669   13.1270   25.6007 S   0  0  0  0  0  0  0  0  0  0  0  0
   11.3754   15.1998   18.6593 H   0  0  0  0  0  0  0  0  0  0  0  0
   14.3343   15.6903   21.7621 H   0  0  0  0  0  0  0  0  0  0  0  0
    7.9335    8.7727   24.7724 H   0  0  0  0  0  0  0  0  0  0  0  0
   13.0129   15.9605   16.9852 H   0  0  0  0  0  0  0  0  0  0  0  0
   15.9642   16.4497   20.0801 H   0  0  0  0  0  0  0  0  0  0  0  0
    6.2047   10.2568   25.7017 H   0  0  0  0  0  0  0  0  0  0  0  0
    8.2332   13.6754   24.0506 H   0  0  0  0  0  0  0  0  0  0  0  0
   10.8810   15.5679   21.3782 H   0  0  0  0  0  0  0  0  0  0  0  0
   11.2254    7.0836   21.4480 H   0  0  0  0  0  0  0  0  0  0  0  0
   11.0574    6.8690   23.2044 H   0  0  0  0  0  0  0  0  0  0  0  0
   13.0710    8.2154   23.0234 H   0  0  0  0  0  0  0  0  0  0  0  0
   12.3562    9.2146   21.7390 H   0  0  0  0  0  0  0  0  0  0  0  0
    9.5844    8.8617   21.4135 H   0  0  0  0  0  0  0  0  0  0  0  0
    8.9245    7.8176   22.6988 H   0  0  0  0  0  0  0  0  0  0  0  0
   11.6240    9.1762   24.7071 H   0  0  0  0  0  0  0  0  0  0  0  0
   11.8787   10.5810   23.6402 H   0  0  0  0  0  0  0  0  0  0  0  0
    5.9066   13.5312   28.5794 H   0  0  0  0  0  0  0  0  0  0  0  0
    7.2537   12.5015   28.0190 H   0  0  0  0  0  0  0  0  0  0  0  0
    3.4098   11.8768   26.3518 H   0  0  0  0  0  0  0  0  0  0  0  0
    3.6053   13.1574   27.5810 H   0  0  0  0  0  0  0  0  0  0  0  0
    6.1526   10.4820   28.9719 H   0  0  0  0  0  0  0  0  0  0  0  0
    6.3432   11.7209   30.2217 H   0  0  0  0  0  0  0  0  0  0  0  0
    2.6343   11.1194   28.6136 H   0  0  0  0  0  0  0  0  0  0  0  0
    3.9809   10.1294   28.0308 H   0  0  0  0  0  0  0  0  0  0  0  0
   15.8744   17.0813   15.5052 H   0  0  0  0  0  0  0  0  0  0  0  0
   14.2035   17.4083   16.0611 H   0  0  0  0  0  0  0  0  0  0  0  0
   14.7559   15.7295   15.8227 H   0  0  0  0  0  0  0  0  0  0  0  0
   10.6058   11.7289   22.2166 H   0  0  0  0  0  0  0  0  0  0  0  0
  1 15  1  0  0  0  0
  1 26  3  0  0  0  0
  2  5  2  0  0  0  0
  2  9  1  0  0  0  0
  3  6  1  0  0  0  0
  3  9  2  0  0  0  0
  4  7  2  0  0  0  0
  4 10  1  0  0  0  0
  5 12  1  0  0  0  0
  6 12  2  0  0  0  0
  7 13  1  0  0  0  0
  8 11  1  0  0  0  0
  8 13  2  0  0  0  0
  9 14  1  4  0  0  0
 10 11  2  0  0  0  0
 10 27  1  0  0  0  0
 11 29  1  0  0  0  0
 12 34  1  0  0  0  0
 13 35  1  0  0  0  0
 14 15  2  0  0  0  0
 15 16  1  0  0  0  0
 16 29  1  0  0  0  0
 16 30  2  0  0  0  0
 17 18  1  0  0  0  0
 17 19  1  0  0  0  0
 18 20  1  0  0  0  0
 19 27  1  0  0  0  0
 20 27  1  0  0  0  0
 21 23  1  0  0  0  0
 21 28  1  0  0  0  0
 22 24  1  0  0  0  0
 22 28  1  0  0  0  0
 23 33  1  0  0  0  0
 24 33  1  0  0  0  0
 25 34  1  0  0  0  0
 28 35  1  0  0  0  0
 31 35  2  0  0  0  0
 32 35  2  0  0  0  0
  2 36  1  0  0  0  0
  3 37  1  0  0  0  0
  4 38  1  0  0  0  0
  5 39  1  0  0  0  0
  6 40  1  0  0  0  0
  7 41  1  0  0  0  0
  8 42  1  0  0  0  0
 14 43  1  0  0  0  0
 17 44  1  0  0  0  0
 17 45  1  0  0  0  0
 18 46  1  0  0  0  0
 18 47  1  0  0  0  0
 19 48  1  0  0  0  0
 19 49  1  0  0  0  0
 20 50  1  0  0  0  0
 20 51  1  0  0  0  0
 21 52  1  0  0  0  0
 21 53  1  0  0  0  0
 22 54  1  0  0  0  0
 22 55  1  0  0  0  0
 23 56  1  0  0  0  0
 23 57  1  0  0  0  0
 24 58  1  0  0  0  0
 24 59  1  0  0  0  0
 25 60  1  0  0  0  0
 25 61  1  0  0  0  0
 25 62  1  0  0  0  0
 29 63  1  0  0  0  0
M  END
> <Catalog ID>
Z56400313

> <MW>
496.579

> <MW (desalted)>
496.579

> <ClogP>
2.877

> <logS>
-5

> <HBD>
1

> <HBA>
7

> <TPSA>
111.97

> <RotBonds>
6

> <ROCS_ShapeQuery>
A71EV2A-x0451_0A_A71EV2A-x0310_0A_A71EV2A-x0416_0A_peptide

> <ROCS_TanimotoCombo>
0.543 

> <ROCS_ShapeTanimoto>
0.391 

> <ROCS_ColorTanimoto>
0.152 

> <ROCS_RefTversky>
0.355 

> <ROCS_RefColorTversky>
0.183 

> <ROCS_RefTverskyCombo>
0.539 

> <ROCS_FitTversky>
1.348 

> <ROCS_FitColorTversky>
0.467 

> <ROCS_FitTverskyCombo>
1.815 

> <ROCS_ColorScore>
-5.620

> <ROCS_Overlap>
2478.322

> <ROCS_Rank>
75                  

$$$$
untitled-dbase-4119_450
  -OEChem-11132309573D

 42 44  0     1  0  0  0  0  0999 V2000
    9.3677   11.4286   23.4085 C   0  0  0  0  0  0  0  0  0  0  0  0
    9.2222   10.0396   23.2916 C   0  0  0  0  0  0  0  0  0  0  0  0
    8.4248   11.8051   24.3377 C   0  0  0  0  0  0  0  0  0  0  0  0
    6.3712   11.8309   26.2177 C   0  0  0  0  0  0  0  0  0  0  0  0
    6.7442   10.6706   25.6686 C   0  0  0  0  0  0  0  0  0  0  0  0
    7.1299   13.0135   25.7374 C   0  0  0  0  0  0  0  0  0  0  0  0
    9.1971   16.4031   19.0000 C   0  0  0  0  0  0  0  0  0  0  0  0
   10.1041   15.5143   18.5893 C   0  0  0  0  0  0  0  0  0  0  0  0
   11.5161   15.7050   18.9772 C   0  0  0  0  0  0  0  0  0  0  0  0
   10.8174   13.4735   23.2059 C   0  0  0  0  0  0  0  0  0  0  0  0
   13.7355   15.5735   21.9056 C   0  0  0  0  0  0  0  0  0  0  0  0
   12.8468   14.8448   22.9078 C   0  0  0  0  0  0  0  0  0  0  0  0
   12.9255   16.4648   20.9652 C   0  0  0  0  0  0  0  0  0  0  0  0
   10.9418   15.0111   21.2693 C   0  0  0  0  0  0  0  0  0  0  0  0
   11.7328   14.0847   22.1904 C   0  0  2  0  0  0  0  0  0  0  0  0
    9.9858    9.1210   22.4276 C   0  0  0  0  0  0  0  0  0  0  0  0
    8.2647    9.5498   24.0783 N   0  0  0  0  0  0  0  0  0  0  0  0
    8.0894   13.0185   24.8623 N   0  0  0  0  0  0  0  0  0  0  0  0
    7.7687   10.6361   24.7266 N   0  0  0  0  0  0  0  0  0  0  0  0
   11.8197   15.7252   20.3375 N   0  0  0  0  0  0  0  0  0  0  0  0
   10.2715   12.2855   22.7367 N   0  0  0  0  0  0  0  0  0  0  0  0
   12.3427   15.8297   18.0718 O   0  0  0  0  0  0  0  0  0  0  0  0
   10.6311   14.0155   24.2905 O   0  0  0  0  0  0  0  0  0  0  0  0
    5.5872   11.9374   26.9526 H   0  0  0  0  0  0  0  0  0  0  0  0
    6.2766    9.7282   25.9272 H   0  0  0  0  0  0  0  0  0  0  0  0
    6.8251   13.9721   26.1890 H   0  0  0  0  0  0  0  0  0  0  0  0
    8.1456   16.3168   18.7474 H   0  0  0  0  0  0  0  0  0  0  0  0
    9.5003   17.2485   19.6085 H   0  0  0  0  0  0  0  0  0  0  0  0
    9.8405   14.6584   17.9818 H   0  0  0  0  0  0  0  0  0  0  0  0
   14.4733   16.1804   22.4425 H   0  0  0  0  0  0  0  0  0  0  0  0
   14.2967   14.8391   21.3143 H   0  0  0  0  0  0  0  0  0  0  0  0
   13.4523   14.1540   23.5070 H   0  0  0  0  0  0  0  0  0  0  0  0
   12.4182   15.5706   23.6114 H   0  0  0  0  0  0  0  0  0  0  0  0
   12.4795   17.2987   21.5197 H   0  0  0  0  0  0  0  0  0  0  0  0
   13.6073   16.8860   20.2252 H   0  0  0  0  0  0  0  0  0  0  0  0
   10.1787   14.4401   20.7287 H   0  0  0  0  0  0  0  0  0  0  0  0
   10.4051   15.7738   21.8485 H   0  0  0  0  0  0  0  0  0  0  0  0
   12.1653   13.2646   21.6040 H   0  0  0  0  0  0  0  0  0  0  0  0
   10.8806    8.7369   22.9457 H   0  0  0  0  0  0  0  0  0  0  0  0
    9.3841    8.2509   22.1117 H   0  0  0  0  0  0  0  0  0  0  0  0
   10.3233    9.6100   21.4969 H   0  0  0  0  0  0  0  0  0  0  0  0
   10.5454   11.9847   21.8036 H   0  0  0  0  0  0  0  0  0  0  0  0
  1  2  1  0  0  0  0
  1  3  2  0  0  0  0
  1 21  1  0  0  0  0
  2 16  1  0  0  0  0
  2 17  2  0  0  0  0
  3 18  1  0  0  0  0
  3 19  1  0  0  0  0
  4  5  2  0  0  0  0
  4  6  1  0  0  0  0
  5 19  1  0  0  0  0
  6 18  2  0  0  0  0
  7  8  2  0  0  0  0
  8  9  1  0  0  0  0
  9 20  1  0  0  0  0
  9 22  2  0  0  0  0
 10 15  1  6  0  0  0
 10 21  1  0  0  0  0
 10 23  2  0  0  0  0
 11 12  1  0  0  0  0
 11 13  1  0  0  0  0
 12 15  1  0  0  0  0
 13 20  1  0  0  0  0
 14 15  1  0  0  0  0
 14 20  1  0  0  0  0
 17 19  1  0  0  0  0
  4 24  1  0  0  0  0
  5 25  1  0  0  0  0
  6 26  1  0  0  0  0
  7 27  1  0  0  0  0
  7 28  1  0  0  0  0
  8 29  1  0  0  0  0
 11 30  1  0  0  0  0
 11 31  1  0  0  0  0
 12 32  1  0  0  0  0
 12 33  1  0  0  0  0
 13 34  1  0  0  0  0
 13 35  1  0  0  0  0
 14 36  1  0  0  0  0
 14 37  1  0  0  0  0
 15 38  1  0  0  0  0
 16 39  1  0  0  0  0
 16 40  1  0  0  0  0
 16 41  1  0  0  0  0
 21 42  1  0  0  0  0
M  END
> <Catalog ID>
Z5032351659

> <MW>
313.354

> <MW (desalted)>
313.354

> <ClogP>
0.405

> <logS>
-2.577

> <HBD>
1

> <HBA>
4

> <TPSA>
79.6

> <RotBonds>
3

> <ROCS_ShapeQuery>
A71EV2A-x0451_0A_A71EV2A-x0310_0A_A71EV2A-x0416_0A_peptide

> <ROCS_TanimotoCombo>
0.543 

> <ROCS_ShapeTanimoto>
0.367 

> <ROCS_ColorTanimoto>
0.176 

> <ROCS_RefTversky>
0.321 

> <ROCS_RefColorTversky>
0.200 

> <ROCS_RefTverskyCombo>
0.520 

> <ROCS_FitTversky>
1.638 

> <ROCS_FitColorTversky>
0.601 

> <ROCS_FitTverskyCombo>
2.239 

> <ROCS_ColorScore>
-6.103

> <ROCS_Overlap>
2228.541

> <ROCS_Rank>
76                  

$$$$
untitled-dbase-1478_1964
  -OEChem-11132309573D

 46 48  0     0  0  0  0  0  0999 V2000
    7.1963   12.8743   26.1500 C   0  0  0  0  0  0  0  0  0  0  0  0
    6.5492   11.6500   26.2881 C   0  0  0  0  0  0  0  0  0  0  0  0
    8.2373   13.0146   25.2318 C   0  0  0  0  0  0  0  0  0  0  0  0
    6.9405   10.5612   25.5085 C   0  0  0  0  0  0  0  0  0  0  0  0
   10.0815   10.9636   22.7299 C   0  0  0  0  0  0  0  0  0  0  0  0
    9.4344    9.7393   22.8681 C   0  0  0  0  0  0  0  0  0  0  0  0
    8.6444   11.9293   24.4388 C   0  0  0  0  0  0  0  0  0  0  0  0
    7.9863   10.6842   24.5793 C   0  0  0  0  0  0  0  0  0  0  0  0
    9.6901   12.0524   23.5095 C   0  0  0  0  0  0  0  0  0  0  0  0
    8.3934    9.5990   23.7863 C   0  0  0  0  0  0  0  0  0  0  0  0
   10.4291   13.3248   23.3044 C   0  0  0  0  0  0  0  0  0  0  0  0
   13.6052   12.7699   23.9216 C   0  0  0  0  0  0  0  0  0  0  0  0
   10.8261   15.9620   21.9165 C   0  0  0  0  0  0  0  0  0  0  0  0
   12.0771   14.6394   20.1894 C   0  0  0  0  0  0  0  0  0  0  0  0
   11.4328   17.2150   21.2938 C   0  0  0  0  0  0  0  0  0  0  0  0
   12.6142   15.9666   19.6644 C   0  0  0  0  0  0  0  0  0  0  0  0
   11.6930   14.7094   21.6805 C   0  0  0  0  0  0  0  0  0  0  0  0
   14.1625   11.3738   23.8104 C   0  0  0  0  0  0  0  0  0  0  0  0
   12.9478   14.7386   22.5673 C   0  0  0  0  0  0  0  0  0  0  0  0
   10.9261   13.5244   22.0323 N   0  0  0  0  0  0  0  0  0  0  0  0
   13.4702   13.4225   22.6940 N   0  0  0  0  0  0  0  0  0  0  0  0
   10.5714   14.0952   24.2503 O   0  0  0  0  0  0  0  0  0  0  0  0
   13.2909   13.2585   25.0055 O   0  0  0  0  0  0  0  0  0  0  0  0
   11.6825   17.0196   19.9034 O   0  0  0  0  0  0  0  0  0  0  0  0
    7.7864    8.4079   23.9005 F   0  0  0  0  0  0  0  0  0  0  0  0
   15.0601   11.0258   25.2964 Cl  0  0  0  0  0  0  0  0  0  0  0  0
    6.8912   13.7219   26.7569 H   0  0  0  0  0  0  0  0  0  0  0  0
    5.7383   11.5419   27.0025 H   0  0  0  0  0  0  0  0  0  0  0  0
    8.7168   13.9876   25.1535 H   0  0  0  0  0  0  0  0  0  0  0  0
    6.4201    9.6144   25.6351 H   0  0  0  0  0  0  0  0  0  0  0  0
   10.8912   11.0573   22.0102 H   0  0  0  0  0  0  0  0  0  0  0  0
    9.7397    8.8916   22.2617 H   0  0  0  0  0  0  0  0  0  0  0  0
   10.7387   16.1286   23.0010 H   0  0  0  0  0  0  0  0  0  0  0  0
    9.8042   15.8093   21.5409 H   0  0  0  0  0  0  0  0  0  0  0  0
   11.2271   14.3070   19.5792 H   0  0  0  0  0  0  0  0  0  0  0  0
   12.8663   13.8836   20.0671 H   0  0  0  0  0  0  0  0  0  0  0  0
   10.7889   18.0921   21.4321 H   0  0  0  0  0  0  0  0  0  0  0  0
   12.3919   17.4373   21.7740 H   0  0  0  0  0  0  0  0  0  0  0  0
   13.5415   16.2210   20.1875 H   0  0  0  0  0  0  0  0  0  0  0  0
   12.8477   15.9198   18.5952 H   0  0  0  0  0  0  0  0  0  0  0  0
   13.3822   10.6187   23.6876 H   0  0  0  0  0  0  0  0  0  0  0  0
   14.8463   11.3224   22.9586 H   0  0  0  0  0  0  0  0  0  0  0  0
   13.6631   15.3953   22.0799 H   0  0  0  0  0  0  0  0  0  0  0  0
   12.6420   15.1299   23.5336 H   0  0  0  0  0  0  0  0  0  0  0  0
   10.8279   12.8210   21.3142 H   0  0  0  0  0  0  0  0  0  0  0  0
   13.7620   12.9284   21.8432 H   0  0  0  0  0  0  0  0  0  0  0  0
  1  2  1  0  0  0  0
  1  3  2  0  0  0  0
  2  4  2  0  0  0  0
  3  7  1  0  0  0  0
  4  8  1  0  0  0  0
  5  6  2  0  0  0  0
  5  9  1  0  0  0  0
  6 10  1  0  0  0  0
  7  8  1  0  0  0  0
  7  9  2  0  0  0  0
  8 10  2  0  0  0  0
  9 11  1  0  0  0  0
 10 25  1  0  0  0  0
 11 20  1  0  0  0  0
 11 22  2  0  0  0  0
 12 18  1  0  0  0  0
 12 21  1  0  0  0  0
 12 23  2  0  0  0  0
 13 15  1  0  0  0  0
 13 17  1  0  0  0  0
 14 16  1  0  0  0  0
 14 17  1  0  0  0  0
 15 24  1  0  0  0  0
 16 24  1  0  0  0  0
 17 19  1  0  0  0  0
 17 20  1  0  0  0  0
 18 26  1  0  0  0  0
 19 21  1  0  0  0  0
  1 27  1  0  0  0  0
  2 28  1  0  0  0  0
  3 29  1  0  0  0  0
  4 30  1  0  0  0  0
  5 31  1  0  0  0  0
  6 32  1  0  0  0  0
 13 33  1  0  0  0  0
 13 34  1  0  0  0  0
 14 35  1  0  0  0  0
 14 36  1  0  0  0  0
 15 37  1  0  0  0  0
 15 38  1  0  0  0  0
 16 39  1  0  0  0  0
 16 40  1  0  0  0  0
 18 41  1  0  0  0  0
 18 42  1  0  0  0  0
 19 43  1  0  0  0  0
 19 44  1  0  0  0  0
 20 45  1  0  0  0  0
 21 46  1  0  0  0  0
M  END
> <Catalog ID>
Z4425210748

> <MW>
378.825

> <MW (desalted)>
378.825

> <ClogP>
2.018

> <logS>
-5.439

> <HBD>
2

> <HBA>
3

> <TPSA>
67.43

> <RotBonds>
5

> <ROCS_ShapeQuery>
A71EV2A-x0451_0A_A71EV2A-x0310_0A_A71EV2A-x0416_0A_peptide

> <ROCS_TanimotoCombo>
0.543 

> <ROCS_ShapeTanimoto>
0.391 

> <ROCS_ColorTanimoto>
0.151 

> <ROCS_RefTversky>
0.341 

> <ROCS_RefColorTversky>
0.171 

> <ROCS_RefTverskyCombo>
0.512 

> <ROCS_FitTversky>
1.613 

> <ROCS_FitColorTversky>
0.568 

> <ROCS_FitTverskyCombo>
2.181 

> <ROCS_ColorScore>
-5.219

> <ROCS_Overlap>
2369.667

> <ROCS_Rank>
77                  

$$$$
untitled-dbase-2194_16798
  -OEChem-11132309573D

 61 63  0     1  0  0  0  0  0999 V2000
   13.3720   13.6666   22.3125 C   0  0  0  0  0  0  0  0  0  0  0  0
    8.3001    9.7365   23.8660 C   0  0  0  0  0  0  0  0  0  0  0  0
    9.3491   10.4109   23.2412 C   0  0  0  0  0  0  0  0  0  0  0  0
    7.4043   10.4364   24.6744 C   0  0  0  0  0  0  0  0  0  0  0  0
    4.8889   11.6761   29.3675 C   0  0  0  0  0  0  0  0  0  0  0  0
   14.1291   16.3448   20.5755 C   0  0  0  0  0  0  0  0  0  0  0  0
    8.6068   12.4849   24.2333 C   0  0  0  0  0  0  0  0  0  0  0  0
    4.0678   11.3575   28.2693 C   0  0  0  0  0  0  0  0  0  0  0  0
    5.5408   12.8236   28.9873 C   0  0  0  0  0  0  0  0  0  0  0  0
   12.9376   15.6777   20.1983 C   0  0  0  0  0  0  0  0  0  0  0  0
    9.5025   11.7850   23.4249 C   0  0  0  0  0  0  0  0  0  0  0  0
    7.5577   11.8106   24.8581 C   0  0  0  0  0  0  0  0  0  0  0  0
   14.8069   16.6617   19.4190 C   0  0  0  0  0  0  0  0  0  0  0  0
   12.9236   15.6069   18.8227 C   0  0  0  0  0  0  0  0  0  0  0  0
   11.8953   15.1496   21.0923 C   0  0  0  0  0  0  0  0  0  0  0  0
   12.0831   14.2253   22.0551 C   0  0  0  0  0  0  0  0  0  0  0  0
   10.8666   13.8264   22.8629 C   0  0  0  0  0  0  0  0  0  0  0  0
    6.6515   13.8816   25.9696 C   0  0  0  0  0  0  0  0  0  0  0  0
   16.0976   17.3576   19.2392 C   0  0  0  0  0  0  0  0  0  0  0  0
   11.9247   15.0199   17.9018 C   0  0  0  0  0  0  0  0  0  0  0  0
   14.5553   17.8751   14.9728 C   0  0  0  0  0  0  0  0  0  0  0  0
    5.8123   15.4788   27.7590 C   0  0  0  0  0  0  0  0  0  0  0  0
   14.1757   17.7543   16.4395 C   0  0  0  0  0  0  0  0  0  0  0  0
   14.4315   16.3439   16.9658 C   0  0  0  0  0  0  0  0  0  0  0  0
    5.4935   14.2547   26.8998 C   0  0  2  0  0  0  0  0  0  0  0  0
   14.4175   13.2103   22.5259 N   0  0  0  0  0  0  0  0  0  0  0  0
    4.1853   12.2322   27.2667 N   0  0  0  0  0  0  0  0  0  0  0  0
    5.0879   13.1117   27.7335 N   0  0  0  0  0  0  0  0  0  0  0  0
   14.0650   16.2080   18.3598 N   0  0  0  0  0  0  0  0  0  0  0  0
   10.5518   12.4590   22.7993 N   0  0  0  0  0  0  0  0  0  0  0  0
    6.6613   12.5101   25.6667 N   0  0  0  0  0  0  0  0  0  0  0  0
   10.2416   14.6693   23.5018 O   0  0  0  0  0  0  0  0  0  0  0  0
    7.4483   14.7240   25.5664 O   0  0  0  0  0  0  0  0  0  0  0  0
    8.1800    8.6668   23.7221 H   0  0  0  0  0  0  0  0  0  0  0  0
   10.0414    9.8547   22.6142 H   0  0  0  0  0  0  0  0  0  0  0  0
    6.5912    9.8997   25.1567 H   0  0  0  0  0  0  0  0  0  0  0  0
    4.9934   11.1474   30.3033 H   0  0  0  0  0  0  0  0  0  0  0  0
   14.4613   16.5720   21.5799 H   0  0  0  0  0  0  0  0  0  0  0  0
    8.7267   13.5569   24.3769 H   0  0  0  0  0  0  0  0  0  0  0  0
    3.3887   10.5242   28.1597 H   0  0  0  0  0  0  0  0  0  0  0  0
    6.2706   13.4424   29.4910 H   0  0  0  0  0  0  0  0  0  0  0  0
   10.9181   15.5960   20.9215 H   0  0  0  0  0  0  0  0  0  0  0  0
   16.9356   16.6422   19.2322 H   0  0  0  0  0  0  0  0  0  0  0  0
   16.1321   17.9250   18.2940 H   0  0  0  0  0  0  0  0  0  0  0  0
   16.2869   18.0896   20.0423 H   0  0  0  0  0  0  0  0  0  0  0  0
   11.1674   15.7660   17.6157 H   0  0  0  0  0  0  0  0  0  0  0  0
   12.3916   14.6404   16.9787 H   0  0  0  0  0  0  0  0  0  0  0  0
   11.4013   14.1635   18.3569 H   0  0  0  0  0  0  0  0  0  0  0  0
   13.9969   17.1577   14.3630 H   0  0  0  0  0  0  0  0  0  0  0  0
   15.6232   17.6756   14.8397 H   0  0  0  0  0  0  0  0  0  0  0  0
   14.3481   18.8817   14.5957 H   0  0  0  0  0  0  0  0  0  0  0  0
    6.6640   15.2763   28.4174 H   0  0  0  0  0  0  0  0  0  0  0  0
    6.0643   16.3414   27.1325 H   0  0  0  0  0  0  0  0  0  0  0  0
    4.9671   15.7651   28.3947 H   0  0  0  0  0  0  0  0  0  0  0  0
   14.7504   18.4840   17.0225 H   0  0  0  0  0  0  0  0  0  0  0  0
   13.1178   18.0160   16.5618 H   0  0  0  0  0  0  0  0  0  0  0  0
   15.4905   16.0752   16.8723 H   0  0  0  0  0  0  0  0  0  0  0  0
   13.8587   15.6017   16.3971 H   0  0  0  0  0  0  0  0  0  0  0  0
    4.6366   14.5134   26.2633 H   0  0  0  0  0  0  0  0  0  0  0  0
   11.1720   11.8829   22.2194 H   0  0  0  0  0  0  0  0  0  0  0  0
    5.9142   11.9515   26.0945 H   0  0  0  0  0  0  0  0  0  0  0  0
  1 16  1  0  0  0  0
  1 26  3  0  0  0  0
  2  3  2  0  0  0  0
  2  4  1  0  0  0  0
  3 11  1  0  0  0  0
  4 12  2  0  0  0  0
  5  8  1  0  0  0  0
  5  9  2  0  0  0  0
  6 10  1  0  0  0  0
  6 13  2  0  0  0  0
  7 11  2  0  0  0  0
  7 12  1  0  0  0  0
  8 27  2  0  0  0  0
  9 28  1  0  0  0  0
 10 14  2  0  0  0  0
 10 15  1  4  0  0  0
 11 30  1  0  0  0  0
 12 31  1  0  0  0  0
 13 19  1  0  0  0  0
 13 29  1  0  0  0  0
 14 20  1  0  0  0  0
 14 29  1  0  0  0  0
 15 16  2  0  0  0  0
 16 17  1  0  0  0  0
 17 30  1  0  0  0  0
 17 32  2  0  0  0  0
 18 25  1  0  0  0  0
 18 31  1  0  0  0  0
 18 33  2  0  0  0  0
 21 23  1  0  0  0  0
 22 25  1  0  0  0  0
 23 24  1  0  0  0  0
 24 29  1  0  0  0  0
 25 28  1  0  0  0  0
 27 28  1  0  0  0  0
  2 34  1  0  0  0  0
  3 35  1  0  0  0  0
  4 36  1  0  0  0  0
  5 37  1  0  0  0  0
  6 38  1  0  0  0  0
  7 39  1  0  0  0  0
  8 40  1  0  0  0  0
  9 41  1  0  0  0  0
 15 42  1  0  0  0  0
 19 43  1  0  0  0  0
 19 44  1  0  0  0  0
 19 45  1  0  0  0  0
 20 46  1  0  0  0  0
 20 47  1  0  0  0  0
 20 48  1  0  0  0  0
 21 49  1  0  0  0  0
 21 50  1  0  0  0  0
 21 51  1  0  0  0  0
 22 52  1  0  0  0  0
 22 53  1  0  0  0  0
 22 54  1  0  0  0  0
 23 55  1  0  0  0  0
 23 56  1  0  0  0  0
 24 57  1  0  0  0  0
 24 58  1  0  0  0  0
 25 59  1  0  0  0  0
 30 60  1  0  0  0  0
 31 61  1  0  0  0  0
M  END
> <Catalog ID>
Z381157702

> <MW>
444.529

> <MW (desalted)>
444.529

> <ClogP>
3.501

> <logS>
-3.949

> <HBD>
2

> <HBA>
4

> <TPSA>
104.74

> <RotBonds>
8

> <ROCS_ShapeQuery>
A71EV2A-x0451_0A_A71EV2A-x0310_0A_A71EV2A-x0416_0A_peptide

> <ROCS_TanimotoCombo>
0.543 

> <ROCS_ShapeTanimoto>
0.351 

> <ROCS_ColorTanimoto>
0.191 

> <ROCS_RefTversky>
0.326 

> <ROCS_RefColorTversky>
0.219 

> <ROCS_RefTverskyCombo>
0.545 

> <ROCS_FitTversky>
1.283 

> <ROCS_FitColorTversky>
0.604 

> <ROCS_FitTverskyCombo>
1.888 

> <ROCS_ColorScore>
-6.699

> <ROCS_Overlap>
2272.780

> <ROCS_Rank>
78                  

$$$$
untitled-dbase-3395_1099
  -OEChem-11132309573D

 41 42  0     1  0  0  0  0  0999 V2000
    6.4198   10.7730   25.1529 C   0  0  0  0  0  0  0  0  0  0  0  0
    6.0768   11.9549   25.8071 C   0  0  0  0  0  0  0  0  0  0  0  0
    8.2698   12.8439   25.3362 C   0  0  0  0  0  0  0  0  0  0  0  0
    8.6284   11.6585   24.6742 C   0  0  0  0  0  0  0  0  0  0  0  0
    7.6875   10.6255   24.5804 C   0  0  0  0  0  0  0  0  0  0  0  0
    7.0013   12.9914   25.8977 C   0  0  0  0  0  0  0  0  0  0  0  0
   14.8604   16.4709   22.6361 C   0  0  0  0  0  0  0  0  0  0  0  0
   13.9498   16.0656   21.7457 C   0  0  0  0  0  0  0  0  0  0  0  0
   12.5647   15.7416   22.1799 C   0  0  0  0  0  0  0  0  0  0  0  0
   10.5404   13.6832   22.9757 C   0  0  0  0  0  0  0  0  0  0  0  0
   10.3013   10.0466   23.7922 C   0  0  0  0  0  0  0  0  0  0  0  0
   10.0074   11.5173   24.0879 C   0  0  1  0  0  0  0  0  0  0  0  0
    9.1055    9.3119   23.1607 C   0  0  0  0  0  0  0  0  0  0  0  0
    8.7739    9.7878   21.7391 C   0  0  0  0  0  0  0  0  0  0  0  0
    9.4329    7.8111   23.1002 C   0  0  0  0  0  0  0  0  0  0  0  0
   10.6434   14.2869   21.5983 C   0  0  0  0  0  0  0  0  0  0  0  0
   12.0111   14.7785   21.3763 N   0  0  0  0  0  0  0  0  0  0  0  0
   10.1769   12.3453   22.9165 N   0  0  0  0  0  0  0  0  0  0  0  0
   12.0269   16.2912   23.1358 O   0  0  0  0  0  0  0  0  0  0  0  0
   10.7577   14.3129   24.0075 O   0  0  0  0  0  0  0  0  0  0  0  0
    7.9228    9.4213   23.9721 O   0  0  0  0  0  0  0  0  0  0  0  0
    6.6729   14.1289   26.5227 F   0  0  0  0  0  0  0  0  0  0  0  0
    5.6968    9.9624   25.1041 H   0  0  0  0  0  0  0  0  0  0  0  0
    5.0929   12.0628   26.2547 H   0  0  0  0  0  0  0  0  0  0  0  0
    8.9744   13.6663   25.4166 H   0  0  0  0  0  0  0  0  0  0  0  0
   15.8692   16.7044   22.3119 H   0  0  0  0  0  0  0  0  0  0  0  0
   14.6369   16.5818   23.6914 H   0  0  0  0  0  0  0  0  0  0  0  0
   14.2146   15.9683   20.6984 H   0  0  0  0  0  0  0  0  0  0  0  0
   11.1506    9.9896   23.0878 H   0  0  0  0  0  0  0  0  0  0  0  0
   10.6274    9.5354   24.7132 H   0  0  0  0  0  0  0  0  0  0  0  0
   10.7259   11.8945   24.8353 H   0  0  0  0  0  0  0  0  0  0  0  0
    7.9242    9.2276   21.3606 H   0  0  0  0  0  0  0  0  0  0  0  0
    9.6328    9.6248   21.0951 H   0  0  0  0  0  0  0  0  0  0  0  0
    8.5312   10.8460   21.7608 H   0  0  0  0  0  0  0  0  0  0  0  0
    8.5977    7.2778   22.6563 H   0  0  0  0  0  0  0  0  0  0  0  0
    9.6083    7.4398   24.1053 H   0  0  0  0  0  0  0  0  0  0  0  0
   10.3227    7.6605   22.4963 H   0  0  0  0  0  0  0  0  0  0  0  0
   10.4063   13.5295   20.8454 H   0  0  0  0  0  0  0  0  0  0  0  0
    9.9423   15.1215   21.5058 H   0  0  0  0  0  0  0  0  0  0  0  0
   12.4994   14.3924   20.5879 H   0  0  0  0  0  0  0  0  0  0  0  0
   10.0221   11.9271   22.0034 H   0  0  0  0  0  0  0  0  0  0  0  0
  1  2  2  0  0  0  0
  1  5  1  0  0  0  0
  2  6  1  0  0  0  0
  3  4  1  0  0  0  0
  3  6  2  0  0  0  0
  4  5  2  0  0  0  0
  4 12  1  0  0  0  0
  5 21  1  0  0  0  0
  6 22  1  0  0  0  0
  7  8  2  0  0  0  0
  8  9  1  0  0  0  0
  9 17  1  0  0  0  0
  9 19  2  0  0  0  0
 10 16  1  0  0  0  0
 10 18  1  0  0  0  0
 10 20  2  0  0  0  0
 11 12  1  0  0  0  0
 11 13  1  0  0  0  0
 12 18  1  1  0  0  0
 13 14  1  0  0  0  0
 13 15  1  0  0  0  0
 13 21  1  0  0  0  0
 16 17  1  0  0  0  0
  1 23  1  0  0  0  0
  2 24  1  0  0  0  0
  3 25  1  0  0  0  0
  7 26  1  0  0  0  0
  7 27  1  0  0  0  0
  8 28  1  0  0  0  0
 11 29  1  0  0  0  0
 11 30  1  0  0  0  0
 12 31  1  0  0  0  0
 14 32  1  0  0  0  0
 14 33  1  0  0  0  0
 14 34  1  0  0  0  0
 15 35  1  0  0  0  0
 15 36  1  0  0  0  0
 15 37  1  0  0  0  0
 16 38  1  0  0  0  0
 16 39  1  0  0  0  0
 17 40  1  0  0  0  0
 18 41  1  0  0  0  0
M  END
> <Catalog ID>
Z3707866120

> <MW>
306.332

> <MW (desalted)>
306.332

> <ClogP>
1.772

> <logS>
-3.964

> <HBD>
2

> <HBA>
3

> <TPSA>
67.43

> <RotBonds>
4

> <ROCS_ShapeQuery>
A71EV2A-x0451_0A_A71EV2A-x0310_0A_A71EV2A-x0416_0A_peptide

> <ROCS_TanimotoCombo>
0.542 

> <ROCS_ShapeTanimoto>
0.354 

> <ROCS_ColorTanimoto>
0.188 

> <ROCS_RefTversky>
0.310 

> <ROCS_RefColorTversky>
0.211 

> <ROCS_RefTverskyCombo>
0.521 

> <ROCS_FitTversky>
1.673 

> <ROCS_FitColorTversky>
0.635 

> <ROCS_FitTverskyCombo>
2.308 

> <ROCS_ColorScore>
-6.441

> <ROCS_Overlap>
2152.814

> <ROCS_Rank>
79                  

$$$$
untitled-dbase-4825_505
  -OEChem-11132309573D

 38 40  0     0  0  0  0  0  0999 V2000
   11.7264   15.9155   22.9164 C   0  0  0  0  0  0  0  0  0  0  0  0
    6.1754   11.9864   25.8162 C   0  0  0  0  0  0  0  0  0  0  0  0
    6.8434   13.0964   25.3078 C   0  0  0  0  0  0  0  0  0  0  0  0
    9.2458    9.0516   23.4432 C   0  0  0  0  0  0  0  0  0  0  0  0
    6.6023   10.7008   25.4824 C   0  0  0  0  0  0  0  0  0  0  0  0
    7.9409   12.9251   24.4636 C   0  0  0  0  0  0  0  0  0  0  0  0
    8.1484    9.2229   24.2874 C   0  0  0  0  0  0  0  0  0  0  0  0
    9.9139   10.1616   22.9347 C   0  0  0  0  0  0  0  0  0  0  0  0
   12.6651   15.9276   18.0655 C   0  0  0  0  0  0  0  0  0  0  0  0
   13.8975   16.5116   18.3581 C   0  0  0  0  0  0  0  0  0  0  0  0
   13.8385   15.5304   20.5651 C   0  0  0  0  0  0  0  0  0  0  0  0
    7.7050   10.5096   24.6340 C   0  0  0  0  0  0  0  0  0  0  0  0
    8.3843   11.6384   24.1170 C   0  0  0  0  0  0  0  0  0  0  0  0
   12.6060   14.9464   20.2725 C   0  0  0  0  0  0  0  0  0  0  0  0
    9.4870   11.4472   23.2686 C   0  0  0  0  0  0  0  0  0  0  0  0
   12.0193   15.1450   19.0227 C   0  0  0  0  0  0  0  0  0  0  0  0
   14.4843   16.3130   19.6079 C   0  0  0  0  0  0  0  0  0  0  0  0
   11.9446   14.1254   21.2987 C   0  0  0  0  0  0  0  0  0  0  0  0
   11.5468   14.5577   22.5118 C   0  0  0  0  0  0  0  0  0  0  0  0
   10.8815   13.5396   23.4132 C   0  0  0  0  0  0  0  0  0  0  0  0
   11.8694   17.0181   23.2493 N   0  0  0  0  0  0  0  0  0  0  0  0
   10.1975   12.5259   22.7283 N   0  0  0  0  0  0  0  0  0  0  0  0
   10.9649   13.6430   24.6345 O   0  0  0  0  0  0  0  0  0  0  0  0
   10.8152   14.5861   18.7107 O   0  0  0  0  0  0  0  0  0  0  0  0
   16.0051   17.0338   19.9679 Cl  0  0  0  0  0  0  0  0  0  0  0  0
    5.3210   12.1204   26.4733 H   0  0  0  0  0  0  0  0  0  0  0  0
    6.5104   14.0969   25.5684 H   0  0  0  0  0  0  0  0  0  0  0  0
    9.5785    8.0508   23.1832 H   0  0  0  0  0  0  0  0  0  0  0  0
    6.0649    9.8476   25.8913 H   0  0  0  0  0  0  0  0  0  0  0  0
    8.4355   13.8179   24.0879 H   0  0  0  0  0  0  0  0  0  0  0  0
    7.6416    8.3409   24.6734 H   0  0  0  0  0  0  0  0  0  0  0  0
   10.7675   10.0125   22.2781 H   0  0  0  0  0  0  0  0  0  0  0  0
   12.2137   16.0865   17.0899 H   0  0  0  0  0  0  0  0  0  0  0  0
   14.3893   17.1188   17.6025 H   0  0  0  0  0  0  0  0  0  0  0  0
   14.2981   15.3767   21.5397 H   0  0  0  0  0  0  0  0  0  0  0  0
   11.7766   13.0982   20.9827 H   0  0  0  0  0  0  0  0  0  0  0  0
   10.2203   12.5810   21.7060 H   0  0  0  0  0  0  0  0  0  0  0  0
   10.5596   14.8271   17.8070 H   0  0  0  0  0  0  0  0  0  0  0  0
  1 19  1  0  0  0  0
  1 21  3  0  0  0  0
  2  3  1  0  0  0  0
  2  5  2  0  0  0  0
  3  6  2  0  0  0  0
  4  7  1  0  0  0  0
  4  8  2  0  0  0  0
  5 12  1  0  0  0  0
  6 13  1  0  0  0  0
  7 12  2  0  0  0  0
  8 15  1  0  0  0  0
  9 10  2  0  0  0  0
  9 16  1  0  0  0  0
 10 17  1  0  0  0  0
 11 14  1  0  0  0  0
 11 17  2  0  0  0  0
 12 13  1  0  0  0  0
 13 15  2  0  0  0  0
 14 16  2  0  0  0  0
 14 18  1  4  0  0  0
 15 22  1  0  0  0  0
 16 24  1  0  0  0  0
 17 25  1  0  0  0  0
 18 19  2  0  0  0  0
 19 20  1  0  0  0  0
 20 22  1  0  0  0  0
 20 23  2  0  0  0  0
  2 26  1  0  0  0  0
  3 27  1  0  0  0  0
  4 28  1  0  0  0  0
  5 29  1  0  0  0  0
  6 30  1  0  0  0  0
  7 31  1  0  0  0  0
  8 32  1  0  0  0  0
  9 33  1  0  0  0  0
 10 34  1  0  0  0  0
 11 35  1  0  0  0  0
 18 36  1  0  0  0  0
 22 37  1  0  0  0  0
 24 38  1  0  0  0  0
M  END
> <Catalog ID>
Z54319001

> <MW>
348.782

> <MW (desalted)>
348.782

> <ClogP>
4.504

> <logS>
-6.42

> <HBD>
2

> <HBA>
3

> <TPSA>
73.12

> <RotBonds>
3

> <ROCS_ShapeQuery>
A71EV2A-x0451_0A_A71EV2A-x0310_0A_A71EV2A-x0416_0A_peptide

> <ROCS_TanimotoCombo>
0.542 

> <ROCS_ShapeTanimoto>
0.381 

> <ROCS_ColorTanimoto>
0.161 

> <ROCS_RefTversky>
0.333 

> <ROCS_RefColorTversky>
0.180 

> <ROCS_RefTverskyCombo>
0.513 

> <ROCS_FitTversky>
1.611 

> <ROCS_FitColorTversky>
0.599 

> <ROCS_FitTverskyCombo>
2.210 

> <ROCS_ColorScore>
-5.505

> <ROCS_Overlap>
2315.049

> <ROCS_Rank>
80                  

$$$$
untitled-dbase-11603_6292
  -OEChem-11132309573D

 51 53  0     1  0  0  0  0  0999 V2000
    6.7115   12.6509   25.4182 C   0  0  0  0  0  0  0  0  0  0  0  0
    7.8590   13.2452   24.8604 C   0  0  0  0  0  0  0  0  0  0  0  0
    6.5657   11.2599   25.4504 C   0  0  0  0  0  0  0  0  0  0  0  0
    8.7119   11.0902   24.3696 C   0  0  0  0  0  0  0  0  0  0  0  0
    8.8812   12.4600   24.3250 C   0  0  0  0  0  0  0  0  0  0  0  0
    7.5800   10.4862   24.9192 C   0  0  0  0  0  0  0  0  0  0  0  0
    9.6059   10.0322   23.8898 C   0  0  0  0  0  0  0  0  0  0  0  0
   14.1841   13.0120   26.9226 C   0  0  0  0  0  0  0  0  0  0  0  0
   13.8454   12.1769   25.9356 C   0  0  0  0  0  0  0  0  0  0  0  0
   10.0847   13.1065   23.7413 C   0  0  0  0  0  0  0  0  0  0  0  0
   13.6432   12.6877   24.5535 C   0  0  0  0  0  0  0  0  0  0  0  0
    7.6849    9.0035   24.8227 C   0  0  0  0  0  0  0  0  0  0  0  0
   12.0828   16.0405   19.9686 C   0  0  0  0  0  0  0  0  0  0  0  0
   10.8434   15.6006   20.7415 C   0  0  0  0  0  0  0  0  0  0  0  0
   13.2481   15.0761   20.1666 C   0  0  0  0  0  0  0  0  0  0  0  0
   10.4488   14.1637   20.4045 C   0  0  0  0  0  0  0  0  0  0  0  0
   12.8544   13.6391   19.8291 C   0  0  0  0  0  0  0  0  0  0  0  0
   11.6022   13.1653   20.5817 C   0  0  0  0  0  0  0  0  0  0  0  0
   13.0518   11.9188   22.2722 C   0  0  0  0  0  0  0  0  0  0  0  0
   11.8981   12.9004   22.0605 C   0  0  2  0  0  0  0  0  0  0  0  0
    8.9703    8.8298   24.1729 N   0  0  0  0  0  0  0  0  0  0  0  0
   10.7015   12.4130   22.7141 N   0  0  0  0  0  0  0  0  0  0  0  0
   13.2981   11.6750   23.6752 N   0  0  0  0  0  0  0  0  0  0  0  0
   10.6845   10.2071   23.3544 O   0  0  0  0  0  0  0  0  0  0  0  0
   10.4711   14.1789   24.1987 O   0  0  0  0  0  0  0  0  0  0  0  0
   13.7775   13.8715   24.2609 O   0  0  0  0  0  0  0  0  0  0  0  0
    5.9287   13.2833   25.8292 H   0  0  0  0  0  0  0  0  0  0  0  0
    7.9372   14.3300   24.8530 H   0  0  0  0  0  0  0  0  0  0  0  0
    5.6790   10.8079   25.8814 H   0  0  0  0  0  0  0  0  0  0  0  0
   14.3288   12.6321   27.9286 H   0  0  0  0  0  0  0  0  0  0  0  0
   14.3260   14.0756   26.7653 H   0  0  0  0  0  0  0  0  0  0  0  0
   13.7137   11.1190   26.1355 H   0  0  0  0  0  0  0  0  0  0  0  0
    7.7176    8.5212   25.8029 H   0  0  0  0  0  0  0  0  0  0  0  0
    6.9081    8.5694   24.1884 H   0  0  0  0  0  0  0  0  0  0  0  0
   11.8437   16.1153   18.9004 H   0  0  0  0  0  0  0  0  0  0  0  0
   12.3808   17.0446   20.2989 H   0  0  0  0  0  0  0  0  0  0  0  0
   11.0303   15.6887   21.8178 H   0  0  0  0  0  0  0  0  0  0  0  0
   10.0084   16.2723   20.5065 H   0  0  0  0  0  0  0  0  0  0  0  0
   14.0881   15.3825   19.5311 H   0  0  0  0  0  0  0  0  0  0  0  0
   13.5971   15.1287   21.2041 H   0  0  0  0  0  0  0  0  0  0  0  0
    9.5979   13.8664   21.0416 H   0  0  0  0  0  0  0  0  0  0  0  0
   10.0781   14.1253   19.3667 H   0  0  0  0  0  0  0  0  0  0  0  0
   12.6901   13.5559   18.7419 H   0  0  0  0  0  0  0  0  0  0  0  0
   13.7023   12.9711   20.0597 H   0  0  0  0  0  0  0  0  0  0  0  0
   11.2843   12.2017   20.1300 H   0  0  0  0  0  0  0  0  0  0  0  0
   13.9682   12.3149   21.8203 H   0  0  0  0  0  0  0  0  0  0  0  0
   12.8305   10.9661   21.7787 H   0  0  0  0  0  0  0  0  0  0  0  0
   12.1726   13.8538   22.5256 H   0  0  0  0  0  0  0  0  0  0  0  0
    9.3654    7.9225   23.9466 H   0  0  0  0  0  0  0  0  0  0  0  0
   10.3625   11.5011   22.4300 H   0  0  0  0  0  0  0  0  0  0  0  0
   13.2403   10.7148   24.0017 H   0  0  0  0  0  0  0  0  0  0  0  0
  1  2  2  0  0  0  0
  1  3  1  0  0  0  0
  2  5  1  0  0  0  0
  3  6  2  0  0  0  0
  4  5  2  0  0  0  0
  4  6  1  0  0  0  0
  4  7  1  0  0  0  0
  5 10  1  0  0  0  0
  6 12  1  0  0  0  0
  7 21  1  0  0  0  0
  7 24  2  0  0  0  0
  8  9  2  0  0  0  0
  9 11  1  0  0  0  0
 10 22  1  0  0  0  0
 10 25  2  0  0  0  0
 11 23  1  0  0  0  0
 11 26  2  0  0  0  0
 12 21  1  0  0  0  0
 13 14  1  0  0  0  0
 13 15  1  0  0  0  0
 14 16  1  0  0  0  0
 15 17  1  0  0  0  0
 16 18  1  0  0  0  0
 17 18  1  0  0  0  0
 18 20  1  0  0  0  0
 19 20  1  0  0  0  0
 19 23  1  0  0  0  0
 20 22  1  0  0  0  0
  1 27  1  0  0  0  0
  2 28  1  0  0  0  0
  3 29  1  0  0  0  0
  8 30  1  0  0  0  0
  8 31  1  0  0  0  0
  9 32  1  0  0  0  0
 12 33  1  0  0  0  0
 12 34  1  0  0  0  0
 13 35  1  0  0  0  0
 13 36  1  0  0  0  0
 14 37  1  0  0  0  0
 14 38  1  0  0  0  0
 15 39  1  0  0  0  0
 15 40  1  0  0  0  0
 16 41  1  0  0  0  0
 16 42  1  0  0  0  0
 17 43  1  0  0  0  0
 17 44  1  0  0  0  0
 18 45  1  0  0  0  0
 19 46  1  0  0  0  0
 19 47  1  0  0  0  0
 20 48  1  0  0  0  0
 21 49  1  0  0  0  0
 22 50  1  0  0  0  0
 23 51  1  0  0  0  0
M  END
> <Catalog ID>
Z4425282862

> <MW>
355.431

> <MW (desalted)>
355.431

> <ClogP>
2.228

> <logS>
-5.249

> <HBD>
3

> <HBA>
3

> <TPSA>
87.3

> <RotBonds>
6

> <ROCS_ShapeQuery>
A71EV2A-x0451_0A_A71EV2A-x0310_0A_A71EV2A-x0416_0A_peptide

> <ROCS_TanimotoCombo>
0.542 

> <ROCS_ShapeTanimoto>
0.365 

> <ROCS_ColorTanimoto>
0.177 

> <ROCS_RefTversky>
0.324 

> <ROCS_RefColorTversky>
0.205 

> <ROCS_RefTverskyCombo>
0.529 

> <ROCS_FitTversky>
1.538 

> <ROCS_FitColorTversky>
0.565 

> <ROCS_FitTverskyCombo>
2.103 

> <ROCS_ColorScore>
-6.268

> <ROCS_Overlap>
2252.262

> <ROCS_Rank>
81                  

$$$$
untitled-dbase-11_1401
  -OEChem-11132309573D

 48 50  0     1  0  0  0  0  0999 V2000
    6.3956   10.7395   25.1004 C   0  0  0  0  0  0  0  0  0  0  0  0
    6.0314   11.9265   25.7332 C   0  0  0  0  0  0  0  0  0  0  0  0
    8.2225   12.8318   25.2821 C   0  0  0  0  0  0  0  0  0  0  0  0
    8.6024   11.6416   24.6414 C   0  0  0  0  0  0  0  0  0  0  0  0
    7.6724   10.5992   24.5474 C   0  0  0  0  0  0  0  0  0  0  0  0
    6.9440   12.9738   25.8223 C   0  0  0  0  0  0  0  0  0  0  0  0
   15.3203   11.7831   23.5317 C   0  0  0  0  0  0  0  0  0  0  0  0
   14.6343   12.3056   22.5107 C   0  0  0  0  0  0  0  0  0  0  0  0
   13.6967   13.4382   22.7348 C   0  0  0  0  0  0  0  0  0  0  0  0
   10.5723   13.7075   23.0942 C   0  0  0  0  0  0  0  0  0  0  0  0
    7.9201    8.6058   21.1141 C   0  0  0  0  0  0  0  0  0  0  0  0
    8.3475    7.3652   21.8942 C   0  0  0  0  0  0  0  0  0  0  0  0
    8.7284    9.7692   21.6881 C   0  0  0  0  0  0  0  0  0  0  0  0
    9.4046    7.8385   22.8891 C   0  0  0  0  0  0  0  0  0  0  0  0
   10.2925   10.0417   23.7396 C   0  0  0  0  0  0  0  0  0  0  0  0
    9.9932   11.5008   24.0848 C   0  0  1  0  0  0  0  0  0  0  0  0
    9.0932    9.3265   23.1111 C   0  0  0  0  0  0  0  0  0  0  0  0
   10.7241   14.3863   21.7447 C   0  0  0  0  0  0  0  0  0  0  0  0
   12.1300   14.9248   21.5180 C   0  0  0  0  0  0  0  0  0  0  0  0
   13.0808   13.8408   21.5607 N   0  0  0  0  0  0  0  0  0  0  0  0
   10.2030   12.3774   22.9575 N   0  0  0  0  0  0  0  0  0  0  0  0
   13.5155   13.9361   23.8413 O   0  0  0  0  0  0  0  0  0  0  0  0
   10.7603   14.2845   24.1617 O   0  0  0  0  0  0  0  0  0  0  0  0
    7.9330    9.3913   23.9575 O   0  0  0  0  0  0  0  0  0  0  0  0
    6.4948   14.4421   26.5987 Cl  0  0  0  0  0  0  0  0  0  0  0  0
    5.6823    9.9207   25.0503 H   0  0  0  0  0  0  0  0  0  0  0  0
    5.0354   12.0164   26.1592 H   0  0  0  0  0  0  0  0  0  0  0  0
    8.9302   13.6538   25.3589 H   0  0  0  0  0  0  0  0  0  0  0  0
   16.0016   10.9562   23.3606 H   0  0  0  0  0  0  0  0  0  0  0  0
   15.2292   12.1529   24.5471 H   0  0  0  0  0  0  0  0  0  0  0  0
   14.7550   11.9062   21.5095 H   0  0  0  0  0  0  0  0  0  0  0  0
    8.0965    8.4930   20.0391 H   0  0  0  0  0  0  0  0  0  0  0  0
    6.8463    8.7810   21.2516 H   0  0  0  0  0  0  0  0  0  0  0  0
    7.4856    6.9430   22.4227 H   0  0  0  0  0  0  0  0  0  0  0  0
    8.7429    6.5858   21.2359 H   0  0  0  0  0  0  0  0  0  0  0  0
    9.6296    9.9187   21.0801 H   0  0  0  0  0  0  0  0  0  0  0  0
    8.1424   10.6948   21.6692 H   0  0  0  0  0  0  0  0  0  0  0  0
    9.3590    7.2412   23.8061 H   0  0  0  0  0  0  0  0  0  0  0  0
   10.4025    7.7142   22.4491 H   0  0  0  0  0  0  0  0  0  0  0  0
   11.1343   10.0023   23.0202 H   0  0  0  0  0  0  0  0  0  0  0  0
   10.6387    9.5065   24.6437 H   0  0  0  0  0  0  0  0  0  0  0  0
   10.6947   11.8439   24.8701 H   0  0  0  0  0  0  0  0  0  0  0  0
   10.4689   13.6605   20.9625 H   0  0  0  0  0  0  0  0  0  0  0  0
    9.9943   15.2035   21.6848 H   0  0  0  0  0  0  0  0  0  0  0  0
   12.3878   15.6628   22.2853 H   0  0  0  0  0  0  0  0  0  0  0  0
   12.1976   15.4275   20.5471 H   0  0  0  0  0  0  0  0  0  0  0  0
   13.3184   13.3868   20.6822 H   0  0  0  0  0  0  0  0  0  0  0  0
   10.0744   12.0035   22.0218 H   0  0  0  0  0  0  0  0  0  0  0  0
  1  2  2  0  0  0  0
  1  5  1  0  0  0  0
  2  6  1  0  0  0  0
  3  4  1  0  0  0  0
  3  6  2  0  0  0  0
  4  5  2  0  0  0  0
  4 16  1  0  0  0  0
  5 24  1  0  0  0  0
  6 25  1  0  0  0  0
  7  8  2  0  0  0  0
  8  9  1  0  0  0  0
  9 20  1  0  0  0  0
  9 22  2  0  0  0  0
 10 18  1  0  0  0  0
 10 21  1  0  0  0  0
 10 23  2  0  0  0  0
 11 12  1  0  0  0  0
 11 13  1  0  0  0  0
 12 14  1  0  0  0  0
 13 17  1  0  0  0  0
 14 17  1  0  0  0  0
 15 16  1  0  0  0  0
 15 17  1  0  0  0  0
 16 21  1  1  0  0  0
 17 24  1  0  0  0  0
 18 19  1  0  0  0  0
 19 20  1  0  0  0  0
  1 26  1  0  0  0  0
  2 27  1  0  0  0  0
  3 28  1  0  0  0  0
  7 29  1  0  0  0  0
  7 30  1  0  0  0  0
  8 31  1  0  0  0  0
 11 32  1  0  0  0  0
 11 33  1  0  0  0  0
 12 34  1  0  0  0  0
 12 35  1  0  0  0  0
 13 36  1  0  0  0  0
 13 37  1  0  0  0  0
 14 38  1  0  0  0  0
 14 39  1  0  0  0  0
 15 40  1  0  0  0  0
 15 41  1  0  0  0  0
 16 42  1  0  0  0  0
 18 43  1  0  0  0  0
 18 44  1  0  0  0  0
 19 45  1  0  0  0  0
 19 46  1  0  0  0  0
 20 47  1  0  0  0  0
 21 48  1  0  0  0  0
M  END
> <Catalog ID>
Z3608086105

> <MW>
362.851

> <MW (desalted)>
362.851

> <ClogP>
2.995

> <logS>
-4.876

> <HBD>
2

> <HBA>
3

> <TPSA>
67.43

> <RotBonds>
5

> <ROCS_ShapeQuery>
A71EV2A-x0451_0A_A71EV2A-x0310_0A_A71EV2A-x0416_0A_peptide

> <ROCS_TanimotoCombo>
0.542 

> <ROCS_ShapeTanimoto>
0.356 

> <ROCS_ColorTanimoto>
0.186 

> <ROCS_RefTversky>
0.316 

> <ROCS_RefColorTversky>
0.209 

> <ROCS_RefTverskyCombo>
0.525 

> <ROCS_FitTversky>
1.555 

> <ROCS_FitColorTversky>
0.630 

> <ROCS_FitTverskyCombo>
2.186 

> <ROCS_ColorScore>
-6.393

> <ROCS_Overlap>
2193.267

> <ROCS_Rank>
82                  

$$$$
untitled-dbase-1585_10461
  -OEChem-11132309573D

 49 51  0     0  0  0  0  0  0999 V2000
   13.2522   13.9135   22.9347 C   0  0  0  0  0  0  0  0  0  0  0  0
    8.3914    9.3333   24.0867 C   0  0  0  0  0  0  0  0  0  0  0  0
   14.3405   16.5541   18.7138 C   0  0  0  0  0  0  0  0  0  0  0  0
    9.4117   10.1082   23.5353 C   0  0  0  0  0  0  0  0  0  0  0  0
   13.8621   15.2582   18.5200 C   0  0  0  0  0  0  0  0  0  0  0  0
    7.2732    9.9498   24.6483 C   0  0  0  0  0  0  0  0  0  0  0  0
   13.9120   17.2987   19.8128 C   0  0  0  0  0  0  0  0  0  0  0  0
    8.1957   12.1161   24.1071 C   0  0  0  0  0  0  0  0  0  0  0  0
   12.5266   15.4516   20.5241 C   0  0  0  0  0  0  0  0  0  0  0  0
    9.3139   11.4996   23.5455 C   0  0  0  0  0  0  0  0  0  0  0  0
   12.9551   14.7070   19.4251 C   0  0  0  0  0  0  0  0  0  0  0  0
    7.1754   11.3412   24.6585 C   0  0  0  0  0  0  0  0  0  0  0  0
   13.0051   16.7474   20.7179 C   0  0  0  0  0  0  0  0  0  0  0  0
   11.5694   14.8284   21.4514 C   0  0  0  0  0  0  0  0  0  0  0  0
   11.8920   14.1175   22.5501 C   0  0  0  0  0  0  0  0  0  0  0  0
   10.7425   13.5662   23.3664 C   0  0  0  0  0  0  0  0  0  0  0  0
    4.3761   13.0388   29.0533 C   0  0  0  0  0  0  0  0  0  0  0  0
    3.8543   11.8866   28.1969 C   0  0  0  0  0  0  0  0  0  0  0  0
    5.4814   13.8060   28.3303 C   0  0  0  0  0  0  0  0  0  0  0  0
    4.9910   10.9834   27.7321 C   0  0  0  0  0  0  0  0  0  0  0  0
    6.5903   12.8701   27.8631 C   0  0  0  0  0  0  0  0  0  0  0  0
   14.3559   13.7459   23.2517 N   0  0  0  0  0  0  0  0  0  0  0  0
    6.0313   11.7768   27.0202 N   0  0  0  0  0  0  0  0  0  0  0  0
   10.3342   12.2748   22.9938 N   0  0  0  0  0  0  0  0  0  0  0  0
   10.2435   14.2356   24.2676 O   0  0  0  0  0  0  0  0  0  0  0  0
    5.8872   13.5464   25.1594 O   0  0  0  0  0  0  0  0  0  0  0  0
    4.5854   11.4017   24.9285 O   0  0  0  0  0  0  0  0  0  0  0  0
   12.5058   13.4596   19.2221 F   0  0  0  0  0  0  0  0  0  0  0  0
    5.7607   12.1207   25.3700 S   0  0  0  0  0  0  0  0  0  0  0  0
   12.5076   17.7148   22.0622 Cl  0  0  0  0  0  0  0  0  0  0  0  0
    8.4670    8.2499   24.0784 H   0  0  0  0  0  0  0  0  0  0  0  0
   15.0467   16.9831   18.0089 H   0  0  0  0  0  0  0  0  0  0  0  0
   10.2780    9.6167   23.0999 H   0  0  0  0  0  0  0  0  0  0  0  0
   14.1954   14.6786   17.6643 H   0  0  0  0  0  0  0  0  0  0  0  0
    6.4842    9.3367   25.0756 H   0  0  0  0  0  0  0  0  0  0  0  0
   14.2949   18.3070   19.9485 H   0  0  0  0  0  0  0  0  0  0  0  0
    8.1186   13.2012   24.1153 H   0  0  0  0  0  0  0  0  0  0  0  0
   10.5314   15.0083   21.1803 H   0  0  0  0  0  0  0  0  0  0  0  0
    3.5501   13.7223   29.2916 H   0  0  0  0  0  0  0  0  0  0  0  0
    4.7551   12.6512   30.0071 H   0  0  0  0  0  0  0  0  0  0  0  0
    3.1356   11.3000   28.7825 H   0  0  0  0  0  0  0  0  0  0  0  0
    3.3168   12.2844   27.3293 H   0  0  0  0  0  0  0  0  0  0  0  0
    5.0600   14.3406   27.4720 H   0  0  0  0  0  0  0  0  0  0  0  0
    5.8990   14.5603   29.0086 H   0  0  0  0  0  0  0  0  0  0  0  0
    5.4397   10.4965   28.6102 H   0  0  0  0  0  0  0  0  0  0  0  0
    4.6098   10.1932   27.0676 H   0  0  0  0  0  0  0  0  0  0  0  0
    7.3504   13.4253   27.2925 H   0  0  0  0  0  0  0  0  0  0  0  0
    7.0836   12.4359   28.7450 H   0  0  0  0  0  0  0  0  0  0  0  0
   10.8519   11.8476   22.2177 H   0  0  0  0  0  0  0  0  0  0  0  0
  1 15  1  0  0  0  0
  1 22  3  0  0  0  0
  2  4  2  0  0  0  0
  2  6  1  0  0  0  0
  3  5  2  0  0  0  0
  3  7  1  0  0  0  0
  4 10  1  0  0  0  0
  5 11  1  0  0  0  0
  6 12  2  0  0  0  0
  7 13  2  0  0  0  0
  8 10  2  0  0  0  0
  8 12  1  0  0  0  0
  9 11  2  0  0  0  0
  9 13  1  0  0  0  0
  9 14  1  4  0  0  0
 10 24  1  0  0  0  0
 11 28  1  0  0  0  0
 12 29  1  0  0  0  0
 13 30  1  0  0  0  0
 14 15  2  0  0  0  0
 15 16  1  0  0  0  0
 16 24  1  0  0  0  0
 16 25  2  0  0  0  0
 17 18  1  0  0  0  0
 17 19  1  0  0  0  0
 18 20  1  0  0  0  0
 19 21  1  0  0  0  0
 20 23  1  0  0  0  0
 21 23  1  0  0  0  0
 23 29  1  0  0  0  0
 26 29  2  0  0  0  0
 27 29  2  0  0  0  0
  2 31  1  0  0  0  0
  3 32  1  0  0  0  0
  4 33  1  0  0  0  0
  5 34  1  0  0  0  0
  6 35  1  0  0  0  0
  7 36  1  0  0  0  0
  8 37  1  0  0  0  0
 14 38  1  0  0  0  0
 17 39  1  0  0  0  0
 17 40  1  0  0  0  0
 18 41  1  0  0  0  0
 18 42  1  0  0  0  0
 19 43  1  0  0  0  0
 19 44  1  0  0  0  0
 20 45  1  0  0  0  0
 20 46  1  0  0  0  0
 21 47  1  0  0  0  0
 21 48  1  0  0  0  0
 24 49  1  0  0  0  0
M  END
> <Catalog ID>
Z44371568

> <MW>
447.91

> <MW (desalted)>
447.91

> <ClogP>
4.691

> <logS>
-6.013

> <HBD>
1

> <HBA>
4

> <TPSA>
90.27

> <RotBonds>
4

> <ROCS_ShapeQuery>
A71EV2A-x0451_0A_A71EV2A-x0310_0A_A71EV2A-x0416_0A_peptide

> <ROCS_TanimotoCombo>
0.542 

> <ROCS_ShapeTanimoto>
0.360 

> <ROCS_ColorTanimoto>
0.181 

> <ROCS_RefTversky>
0.326 

> <ROCS_RefColorTversky>
0.200 

> <ROCS_RefTverskyCombo>
0.526 

> <ROCS_FitTversky>
1.412 

> <ROCS_FitColorTversky>
0.664 

> <ROCS_FitTverskyCombo>
2.075 

> <ROCS_ColorScore>
-6.098

> <ROCS_Overlap>
2270.173

> <ROCS_Rank>
83                  

$$$$
untitled-dbase-6564_1389
  -OEChem-11132309573D

 47 49  0     1  0  0  0  0  0999 V2000
   12.7221   16.9489   17.1581 C   0  0  0  0  0  0  0  0  0  0  0  0
    9.9387   15.0982   21.1880 C   0  0  0  0  0  0  0  0  0  0  0  0
   12.1318   15.6453   19.2139 C   0  0  0  0  0  0  0  0  0  0  0  0
   12.9677   16.4432   18.4643 C   0  0  0  0  0  0  0  0  0  0  0  0
   12.7842   15.3878   20.4447 C   0  0  0  0  0  0  0  0  0  0  0  0
   13.9990   16.0363   20.4100 C   0  0  0  0  0  0  0  0  0  0  0  0
   12.2777   14.5809   21.5658 C   0  0  0  0  0  0  0  0  0  0  0  0
   10.9816   14.4377   21.9052 C   0  0  0  0  0  0  0  0  0  0  0  0
   10.6873   13.5627   23.0973 C   0  0  0  0  0  0  0  0  0  0  0  0
    8.6805    9.5594   22.6213 C   0  0  0  0  0  0  0  0  0  0  0  0
   10.0731    9.8438   23.1591 C   0  0  0  0  0  0  0  0  0  0  0  0
    7.6251    9.5855   23.7230 C   0  0  0  0  0  0  0  0  0  0  0  0
    7.9742   12.6496   24.0517 C   0  0  0  0  0  0  0  0  0  0  0  0
    6.7585   12.4631   24.9409 C   0  0  0  0  0  0  0  0  0  0  0  0
    8.9361   11.6206   24.6231 C   0  0  2  0  0  0  0  0  0  0  0  0
   10.1719   11.2321   23.7999 C   0  0  2  0  0  0  0  0  0  0  0  0
    7.9772   10.4732   24.9253 C   0  0  1  0  0  0  0  0  0  0  0  0
   15.0782   16.1067   21.4204 C   0  0  0  0  0  0  0  0  0  0  0  0
   15.2304   17.4715   18.7722 C   0  0  0  0  0  0  0  0  0  0  0  0
   12.5218   17.3616   16.0921 N   0  0  0  0  0  0  0  0  0  0  0  0
    9.0882   15.6338   20.6079 N   0  0  0  0  0  0  0  0  0  0  0  0
   14.0996   16.6747   19.2015 N   0  0  0  0  0  0  0  0  0  0  0  0
   10.4650   12.2287   22.7897 N   0  0  0  0  0  0  0  0  0  0  0  0
   10.6564   14.0167   24.2401 O   0  0  0  0  0  0  0  0  0  0  0  0
    6.7633   11.0968   25.3863 O   0  0  0  0  0  0  0  0  0  0  0  0
   11.1570   15.2875   18.9071 H   0  0  0  0  0  0  0  0  0  0  0  0
   13.0665   14.0997   22.1399 H   0  0  0  0  0  0  0  0  0  0  0  0
    8.4207   10.3025   21.8521 H   0  0  0  0  0  0  0  0  0  0  0  0
    8.6640    8.5776   22.1220 H   0  0  0  0  0  0  0  0  0  0  0  0
   10.3357    9.0729   23.9024 H   0  0  0  0  0  0  0  0  0  0  0  0
   10.8097    9.7460   22.3442 H   0  0  0  0  0  0  0  0  0  0  0  0
    6.6553    9.9010   23.2914 H   0  0  0  0  0  0  0  0  0  0  0  0
    7.4341    8.5563   24.0808 H   0  0  0  0  0  0  0  0  0  0  0  0
    7.7159   12.4220   23.0119 H   0  0  0  0  0  0  0  0  0  0  0  0
    8.3570   13.6734   24.0868 H   0  0  0  0  0  0  0  0  0  0  0  0
    6.8163   13.1013   25.8285 H   0  0  0  0  0  0  0  0  0  0  0  0
    5.8223   12.6760   24.4182 H   0  0  0  0  0  0  0  0  0  0  0  0
    9.2877   12.0257   25.5970 H   0  0  0  0  0  0  0  0  0  0  0  0
   11.0390   11.2324   24.4694 H   0  0  0  0  0  0  0  0  0  0  0  0
    8.3693    9.8451   25.7373 H   0  0  0  0  0  0  0  0  0  0  0  0
   15.8006   15.2876   21.2820 H   0  0  0  0  0  0  0  0  0  0  0  0
   15.6307   17.0584   21.3642 H   0  0  0  0  0  0  0  0  0  0  0  0
   14.6832   16.0400   22.4470 H   0  0  0  0  0  0  0  0  0  0  0  0
   15.0527   18.5043   19.0833 H   0  0  0  0  0  0  0  0  0  0  0  0
   16.1438   17.0853   19.2329 H   0  0  0  0  0  0  0  0  0  0  0  0
   15.3240   17.4094   17.6844 H   0  0  0  0  0  0  0  0  0  0  0  0
   10.5096   11.9388   21.8178 H   0  0  0  0  0  0  0  0  0  0  0  0
  1  4  1  0  0  0  0
  1 20  3  0  0  0  0
  2  8  1  0  0  0  0
  2 21  3  0  0  0  0
  3  4  2  0  0  0  0
  3  5  1  0  0  0  0
  4 22  1  0  0  0  0
  5  6  2  0  0  0  0
  5  7  1  4  0  0  0
  6 18  1  0  0  0  0
  6 22  1  0  0  0  0
  7  8  2  0  0  0  0
  8  9  1  0  0  0  0
  9 23  1  0  0  0  0
  9 24  2  0  0  0  0
 10 11  1  0  0  0  0
 10 12  1  0  0  0  0
 11 16  1  0  0  0  0
 12 17  1  0  0  0  0
 13 14  1  0  0  0  0
 13 15  1  0  0  0  0
 14 25  1  0  0  0  0
 15 16  1  0  0  0  0
 15 17  1  0  0  0  0
 16 23  1  0  0  0  0
 17 25  1  0  0  0  0
 19 22  1  0  0  0  0
  3 26  1  0  0  0  0
  7 27  1  0  0  0  0
 10 28  1  0  0  0  0
 10 29  1  0  0  0  0
 11 30  1  0  0  0  0
 11 31  1  0  0  0  0
 12 32  1  0  0  0  0
 12 33  1  0  0  0  0
 13 34  1  0  0  0  0
 13 35  1  0  0  0  0
 14 36  1  0  0  0  0
 14 37  1  0  0  0  0
 15 38  1  0  0  0  0
 16 39  1  0  0  0  0
 17 40  1  0  0  0  0
 18 41  1  0  0  0  0
 18 42  1  0  0  0  0
 18 43  1  0  0  0  0
 19 44  1  0  0  0  0
 19 45  1  0  0  0  0
 19 46  1  0  0  0  0
 23 47  1  0  0  0  0
M  END
> <Catalog ID>
Z1422873120

> <MW>
338.404

> <MW (desalted)>
338.404

> <ClogP>
1.5

> <logS>
-2.962

> <HBD>
1

> <HBA>
4

> <TPSA>
90.84

> <RotBonds>
3

> <ROCS_ShapeQuery>
A71EV2A-x0451_0A_A71EV2A-x0310_0A_A71EV2A-x0416_0A_peptide

> <ROCS_TanimotoCombo>
0.542 

> <ROCS_ShapeTanimoto>
0.344 

> <ROCS_ColorTanimoto>
0.197 

> <ROCS_RefTversky>
0.309 

> <ROCS_RefColorTversky>
0.214 

> <ROCS_RefTverskyCombo>
0.523 

> <ROCS_FitTversky>
1.510 

> <ROCS_FitColorTversky>
0.710 

> <ROCS_FitTverskyCombo>
2.220 

> <ROCS_ColorScore>
-6.545

> <ROCS_Overlap>
2145.185

> <ROCS_Rank>
84                  

$$$$
untitled-dbase-11334_1831
  -OEChem-11132309573D

 52 55  0     1  0  0  0  0  0999 V2000
    5.9864   12.3391   25.8587 C   0  0  0  0  0  0  0  0  0  0  0  0
    6.6211   13.4935   25.4094 C   0  0  0  0  0  0  0  0  0  0  0  0
   14.7262   16.4831   18.1344 C   0  0  0  0  0  0  0  0  0  0  0  0
   13.9243   15.7117   17.2981 C   0  0  0  0  0  0  0  0  0  0  0  0
    6.4834   11.0871   25.5024 C   0  0  0  0  0  0  0  0  0  0  0  0
    7.7607   13.4004   24.6082 C   0  0  0  0  0  0  0  0  0  0  0  0
   14.2779   16.8211   19.4106 C   0  0  0  0  0  0  0  0  0  0  0  0
   12.6720   15.2821   17.7363 C   0  0  0  0  0  0  0  0  0  0  0  0
    7.6296   10.9910   24.7029 C   0  0  0  0  0  0  0  0  0  0  0  0
    8.2943   12.1499   24.2596 C   0  0  0  0  0  0  0  0  0  0  0  0
   13.0268   16.3804   19.8632 C   0  0  0  0  0  0  0  0  0  0  0  0
   12.2111   15.6148   19.0188 C   0  0  0  0  0  0  0  0  0  0  0  0
    8.1103    9.6451   24.2964 C   0  0  0  0  0  0  0  0  0  0  0  0
    7.8745   15.5522   19.2668 C   0  0  0  0  0  0  0  0  0  0  0  0
    8.1168   14.8551   20.3789 C   0  0  0  0  0  0  0  0  0  0  0  0
    9.1482   15.3447   21.3179 C   0  0  0  0  0  0  0  0  0  0  0  0
   10.4719   13.1586   23.4999 C   0  0  0  0  0  0  0  0  0  0  0  0
   12.5388   16.7667   21.2297 C   0  0  0  0  0  0  0  0  0  0  0  0
   10.8450   15.1495   19.4496 C   0  0  0  0  0  0  0  0  0  0  0  0
   10.2526   10.7314   23.6564 C   0  0  0  0  0  0  0  0  0  0  0  0
    9.5026   12.0250   23.3581 C   0  0  1  0  0  0  0  0  0  0  0  0
   11.5310   15.7626   21.7998 C   0  0  2  0  0  0  0  0  0  0  0  0
   12.1968   14.4664   22.2764 C   0  0  0  0  0  0  0  0  0  0  0  0
    9.3590    9.5956   23.7082 N   0  0  0  0  0  0  0  0  0  0  0  0
   10.4560   15.4706   20.8347 N   0  0  0  0  0  0  0  0  0  0  0  0
   11.2232   13.4329   22.3574 N   0  0  0  0  0  0  0  0  0  0  0  0
    7.4103    8.6520   24.4705 O   0  0  0  0  0  0  0  0  0  0  0  0
    8.7956   15.6057   22.4693 O   0  0  0  0  0  0  0  0  0  0  0  0
   10.5479   13.7588   24.5655 O   0  0  0  0  0  0  0  0  0  0  0  0
    5.1060   12.4141   26.4896 H   0  0  0  0  0  0  0  0  0  0  0  0
    6.2320   14.4701   25.6847 H   0  0  0  0  0  0  0  0  0  0  0  0
   15.6990   16.8239   17.7925 H   0  0  0  0  0  0  0  0  0  0  0  0
   14.2710   15.4488   16.3030 H   0  0  0  0  0  0  0  0  0  0  0  0
    5.9658   10.1981   25.8540 H   0  0  0  0  0  0  0  0  0  0  0  0
    8.2349   14.3153   24.2557 H   0  0  0  0  0  0  0  0  0  0  0  0
   14.9110   17.4291   20.0520 H   0  0  0  0  0  0  0  0  0  0  0  0
   12.0521   14.6872   17.0699 H   0  0  0  0  0  0  0  0  0  0  0  0
    7.1304   15.2437   18.5401 H   0  0  0  0  0  0  0  0  0  0  0  0
    8.4294   16.4619   19.0630 H   0  0  0  0  0  0  0  0  0  0  0  0
    7.5842   13.9437   20.6170 H   0  0  0  0  0  0  0  0  0  0  0  0
   13.3859   16.8644   21.9198 H   0  0  0  0  0  0  0  0  0  0  0  0
   12.0662   17.7545   21.1544 H   0  0  0  0  0  0  0  0  0  0  0  0
   10.1076   15.5991   18.7755 H   0  0  0  0  0  0  0  0  0  0  0  0
   10.7890   14.0584   19.3532 H   0  0  0  0  0  0  0  0  0  0  0  0
   10.9823   10.5184   22.8679 H   0  0  0  0  0  0  0  0  0  0  0  0
   10.7838   10.7834   24.6112 H   0  0  0  0  0  0  0  0  0  0  0  0
    9.1906   11.9903   22.3084 H   0  0  0  0  0  0  0  0  0  0  0  0
   11.0859   16.2259   22.6892 H   0  0  0  0  0  0  0  0  0  0  0  0
   12.9652   14.2188   21.5486 H   0  0  0  0  0  0  0  0  0  0  0  0
   12.6264   14.6716   23.2535 H   0  0  0  0  0  0  0  0  0  0  0  0
    9.6621    8.7221   23.2939 H   0  0  0  0  0  0  0  0  0  0  0  0
   11.0640   12.8540   21.5249 H   0  0  0  0  0  0  0  0  0  0  0  0
  1  2  1  0  0  0  0
  1  5  2  0  0  0  0
  2  6  2  0  0  0  0
  3  4  1  0  0  0  0
  3  7  2  0  0  0  0
  4  8  2  0  0  0  0
  5  9  1  0  0  0  0
  6 10  1  0  0  0  0
  7 11  1  0  0  0  0
  8 12  1  0  0  0  0
  9 10  2  0  0  0  0
  9 13  1  0  0  0  0
 10 21  1  0  0  0  0
 11 12  2  0  0  0  0
 11 18  1  0  0  0  0
 12 19  1  0  0  0  0
 13 24  1  0  0  0  0
 13 27  2  0  0  0  0
 14 15  2  0  0  0  0
 15 16  1  0  0  0  0
 16 25  1  0  0  0  0
 16 28  2  0  0  0  0
 17 21  1  0  0  0  0
 17 26  1  0  0  0  0
 17 29  2  0  0  0  0
 18 22  1  0  0  0  0
 19 25  1  0  0  0  0
 20 21  1  0  0  0  0
 20 24  1  0  0  0  0
 22 23  1  0  0  0  0
 22 25  1  0  0  0  0
 23 26  1  0  0  0  0
  1 30  1  0  0  0  0
  2 31  1  0  0  0  0
  3 32  1  0  0  0  0
  4 33  1  0  0  0  0
  5 34  1  0  0  0  0
  6 35  1  0  0  0  0
  7 36  1  0  0  0  0
  8 37  1  0  0  0  0
 14 38  1  0  0  0  0
 14 39  1  0  0  0  0
 15 40  1  0  0  0  0
 18 41  1  0  0  0  0
 18 42  1  0  0  0  0
 19 43  1  0  0  0  0
 19 44  1  0  0  0  0
 20 45  1  0  0  0  0
 20 46  1  0  0  0  0
 21 47  1  0  0  0  0
 22 48  1  0  0  0  0
 23 49  1  0  0  0  0
 23 50  1  0  0  0  0
 24 51  1  0  0  0  0
 26 52  1  0  0  0  0
M  END
> <Catalog ID>
Z4942813085

> <MW>
389.447

> <MW (desalted)>
389.447

> <ClogP>
1.715

> <logS>
-4.314

> <HBD>
2

> <HBA>
3

> <TPSA>
78.51

> <RotBonds>
4

> <ROCS_ShapeQuery>
A71EV2A-x0451_0A_A71EV2A-x0310_0A_A71EV2A-x0416_0A_peptide

> <ROCS_TanimotoCombo>
0.541 

> <ROCS_ShapeTanimoto>
0.378 

> <ROCS_ColorTanimoto>
0.163 

> <ROCS_RefTversky>
0.338 

> <ROCS_RefColorTversky>
0.191 

> <ROCS_RefTverskyCombo>
0.529 

> <ROCS_FitTversky>
1.451 

> <ROCS_FitColorTversky>
0.527 

> <ROCS_FitTverskyCombo>
1.979 

> <ROCS_ColorScore>
-5.848

> <ROCS_Overlap>
2354.936

> <ROCS_Rank>
85                  

$$$$
untitled-dbase-7173_5882
  -OEChem-11132309573D

 52 54  0     0  0  0  0  0  0999 V2000
   13.2351   13.9277   22.9605 C   0  0  0  0  0  0  0  0  0  0  0  0
    8.4258    9.2909   24.1021 C   0  0  0  0  0  0  0  0  0  0  0  0
   12.5417   15.0540   19.1769 C   0  0  0  0  0  0  0  0  0  0  0  0
   13.4113   16.3905   20.9920 C   0  0  0  0  0  0  0  0  0  0  0  0
   13.4527   15.6476   18.3033 C   0  0  0  0  0  0  0  0  0  0  0  0
   14.3224   16.9841   20.1184 C   0  0  0  0  0  0  0  0  0  0  0  0
    9.4424   10.0739   23.5553 C   0  0  0  0  0  0  0  0  0  0  0  0
    7.2910    9.8976   24.6405 C   0  0  0  0  0  0  0  0  0  0  0  0
    8.1894   12.0705   24.0854 C   0  0  0  0  0  0  0  0  0  0  0  0
   12.5209   15.4255   20.5213 C   0  0  0  0  0  0  0  0  0  0  0  0
   14.3431   16.6127   18.7740 C   0  0  0  0  0  0  0  0  0  0  0  0
    9.3242   11.4638   23.5469 C   0  0  0  0  0  0  0  0  0  0  0  0
    7.1729   11.2874   24.6322 C   0  0  0  0  0  0  0  0  0  0  0  0
   11.5600   14.7996   21.4429 C   0  0  0  0  0  0  0  0  0  0  0  0
   11.8776   14.1069   22.5547 C   0  0  0  0  0  0  0  0  0  0  0  0
   10.7250   13.5488   23.3619 C   0  0  0  0  0  0  0  0  0  0  0  0
    4.2772   12.6200   29.0394 C   0  0  0  0  0  0  0  0  0  0  0  0
    4.5363   11.2517   28.4117 C   0  0  0  0  0  0  0  0  0  0  0  0
    4.6308   13.7465   28.0704 C   0  0  0  0  0  0  0  0  0  0  0  0
    5.9617   11.1468   27.8816 C   0  0  0  0  0  0  0  0  0  0  0  0
    6.0546   13.5990   27.5460 C   0  0  0  0  0  0  0  0  0  0  0  0
   15.3184   17.2452   17.8398 C   0  0  0  0  0  0  0  0  0  0  0  0
   14.3366   13.7802   23.2947 N   0  0  0  0  0  0  0  0  0  0  0  0
    6.2487   12.2566   26.9307 N   0  0  0  0  0  0  0  0  0  0  0  0
   10.3408   12.2471   22.9997 N   0  0  0  0  0  0  0  0  0  0  0  0
   10.2038   14.2217   24.2478 O   0  0  0  0  0  0  0  0  0  0  0  0
    5.5956   13.3565   24.6994 O   0  0  0  0  0  0  0  0  0  0  0  0
    4.6581   11.0916   25.2817 O   0  0  0  0  0  0  0  0  0  0  0  0
    5.7372   12.0547   25.3145 S   0  0  0  0  0  0  0  0  0  0  0  0
    8.5173    8.2087   24.1083 H   0  0  0  0  0  0  0  0  0  0  0  0
   11.8536   14.3034   18.7952 H   0  0  0  0  0  0  0  0  0  0  0  0
   13.4076   16.6902   22.0373 H   0  0  0  0  0  0  0  0  0  0  0  0
   13.4621   15.3518   17.2576 H   0  0  0  0  0  0  0  0  0  0  0  0
   15.0126   17.7353   20.4934 H   0  0  0  0  0  0  0  0  0  0  0  0
   10.3217    9.5899   23.1379 H   0  0  0  0  0  0  0  0  0  0  0  0
    6.5052    9.2783   25.0645 H   0  0  0  0  0  0  0  0  0  0  0  0
    8.0965   13.1543   24.0791 H   0  0  0  0  0  0  0  0  0  0  0  0
   10.5234   14.9609   21.1554 H   0  0  0  0  0  0  0  0  0  0  0  0
    3.2193   12.6989   29.3240 H   0  0  0  0  0  0  0  0  0  0  0  0
    4.8642   12.7237   29.9605 H   0  0  0  0  0  0  0  0  0  0  0  0
    4.3667   10.4725   29.1651 H   0  0  0  0  0  0  0  0  0  0  0  0
    3.8233   11.0766   27.5989 H   0  0  0  0  0  0  0  0  0  0  0  0
    3.9246   13.7492   27.2329 H   0  0  0  0  0  0  0  0  0  0  0  0
    4.5270   14.7097   28.5849 H   0  0  0  0  0  0  0  0  0  0  0  0
    6.6608   11.2012   28.7288 H   0  0  0  0  0  0  0  0  0  0  0  0
    6.1170   10.1800   27.3791 H   0  0  0  0  0  0  0  0  0  0  0  0
    6.2768   14.3814   26.8045 H   0  0  0  0  0  0  0  0  0  0  0  0
    6.7562   13.7218   28.3841 H   0  0  0  0  0  0  0  0  0  0  0  0
   14.8839   18.1438   17.3849 H   0  0  0  0  0  0  0  0  0  0  0  0
   16.2416   17.5307   18.3607 H   0  0  0  0  0  0  0  0  0  0  0  0
   15.6074   16.5540   17.0374 H   0  0  0  0  0  0  0  0  0  0  0  0
   10.8754   11.8181   22.2362 H   0  0  0  0  0  0  0  0  0  0  0  0
  1 15  1  0  0  0  0
  1 23  3  0  0  0  0
  2  7  2  0  0  0  0
  2  8  1  0  0  0  0
  3  5  2  0  0  0  0
  3 10  1  0  0  0  0
  4  6  1  0  0  0  0
  4 10  2  0  0  0  0
  5 11  1  0  0  0  0
  6 11  2  0  0  0  0
  7 12  1  0  0  0  0
  8 13  2  0  0  0  0
  9 12  2  0  0  0  0
  9 13  1  0  0  0  0
 10 14  1  4  0  0  0
 11 22  1  0  0  0  0
 12 25  1  0  0  0  0
 13 29  1  0  0  0  0
 14 15  2  0  0  0  0
 15 16  1  0  0  0  0
 16 25  1  0  0  0  0
 16 26  2  0  0  0  0
 17 18  1  0  0  0  0
 17 19  1  0  0  0  0
 18 20  1  0  0  0  0
 19 21  1  0  0  0  0
 20 24  1  0  0  0  0
 21 24  1  0  0  0  0
 24 29  1  0  0  0  0
 27 29  2  0  0  0  0
 28 29  2  0  0  0  0
  2 30  1  0  0  0  0
  3 31  1  0  0  0  0
  4 32  1  0  0  0  0
  5 33  1  0  0  0  0
  6 34  1  0  0  0  0
  7 35  1  0  0  0  0
  8 36  1  0  0  0  0
  9 37  1  0  0  0  0
 14 38  1  0  0  0  0
 17 39  1  0  0  0  0
 17 40  1  0  0  0  0
 18 41  1  0  0  0  0
 18 42  1  0  0  0  0
 19 43  1  0  0  0  0
 19 44  1  0  0  0  0
 20 45  1  0  0  0  0
 20 46  1  0  0  0  0
 21 47  1  0  0  0  0
 21 48  1  0  0  0  0
 22 49  1  0  0  0  0
 22 50  1  0  0  0  0
 22 51  1  0  0  0  0
 25 52  1  0  0  0  0
M  END
> <Catalog ID>
Z44371628

> <MW>
409.501

> <MW (desalted)>
409.501

> <ClogP>
4.334

> <logS>
-5.56

> <HBD>
1

> <HBA>
4

> <TPSA>
90.27

> <RotBonds>
4

> <ROCS_ShapeQuery>
A71EV2A-x0451_0A_A71EV2A-x0310_0A_A71EV2A-x0416_0A_peptide

> <ROCS_TanimotoCombo>
0.541 

> <ROCS_ShapeTanimoto>
0.364 

> <ROCS_ColorTanimoto>
0.177 

> <ROCS_RefTversky>
0.327 

> <ROCS_RefColorTversky>
0.195 

> <ROCS_RefTverskyCombo>
0.523 

> <ROCS_FitTversky>
1.453 

> <ROCS_FitColorTversky>
0.649 

> <ROCS_FitTverskyCombo>
2.102 

> <ROCS_ColorScore>
-5.965

> <ROCS_Overlap>
2276.305

> <ROCS_Rank>
86                  

$$$$
untitled-dbase-7255_860
  -OEChem-11132309573D

 40 42  0     1  0  0  0  0  0999 V2000
    4.6736   12.4728   27.0935 C   0  0  0  0  0  0  0  0  0  0  0  0
    5.6524   13.3903   26.7118 C   0  0  0  0  0  0  0  0  0  0  0  0
    4.7497   11.1500   26.6576 C   0  0  0  0  0  0  0  0  0  0  0  0
    6.7074   12.9850   25.8943 C   0  0  0  0  0  0  0  0  0  0  0  0
    5.8047   10.7447   25.8400 C   0  0  0  0  0  0  0  0  0  0  0  0
    8.8448   12.0585   24.2074 C   0  0  0  0  0  0  0  0  0  0  0  0
    9.6489   11.2526   23.4391 C   0  0  0  0  0  0  0  0  0  0  0  0
    6.7835   11.6622   25.4583 C   0  0  0  0  0  0  0  0  0  0  0  0
    9.0269    9.9905   23.4829 C   0  0  0  0  0  0  0  0  0  0  0  0
   10.8454   14.0793   23.1804 C   0  0  0  0  0  0  0  0  0  0  0  0
   12.0445   15.8196   21.7135 C   0  0  0  0  0  0  0  0  0  0  0  0
   10.8579   15.4158   22.5156 C   0  0  2  0  0  0  0  0  0  0  0  0
    8.4438    8.2134   21.7930 C   0  0  0  0  0  0  0  0  0  0  0  0
    9.7990    7.6166   23.8332 C   0  0  0  0  0  0  0  0  0  0  0  0
   10.8831   11.6338   22.7324 C   0  0  0  0  0  0  0  0  0  0  0  0
    9.4636    8.7446   22.8285 C   0  0  0  0  0  0  0  0  0  0  0  0
    7.9136    9.9897   24.2209 N   0  0  0  0  0  0  0  0  0  0  0  0
    7.8298   11.2612   24.6479 N   0  0  0  0  0  0  0  0  0  0  0  0
   10.8852   13.0163   22.3009 N   0  0  0  0  0  0  0  0  0  0  0  0
   10.8041   14.0131   24.4034 O   0  0  0  0  0  0  0  0  0  0  0  0
   11.8512   16.2781   23.0566 O   0  0  0  0  0  0  0  0  0  0  0  0
    3.8530   12.7874   27.7314 H   0  0  0  0  0  0  0  0  0  0  0  0
    5.5941   14.4200   27.0522 H   0  0  0  0  0  0  0  0  0  0  0  0
    3.9879   10.4357   26.9564 H   0  0  0  0  0  0  0  0  0  0  0  0
    7.4642   13.7101   25.6048 H   0  0  0  0  0  0  0  0  0  0  0  0
    5.8523    9.7104   25.5080 H   0  0  0  0  0  0  0  0  0  0  0  0
    8.9123   13.1067   24.4684 H   0  0  0  0  0  0  0  0  0  0  0  0
   12.8424   15.1103   21.5357 H   0  0  0  0  0  0  0  0  0  0  0  0
   11.8823   16.5314   20.9145 H   0  0  0  0  0  0  0  0  0  0  0  0
    9.8929   15.8121   22.2817 H   0  0  0  0  0  0  0  0  0  0  0  0
    7.4719    8.0139   22.2572 H   0  0  0  0  0  0  0  0  0  0  0  0
    8.7830    7.2852   21.3202 H   0  0  0  0  0  0  0  0  0  0  0  0
    8.2898    8.9557   21.0019 H   0  0  0  0  0  0  0  0  0  0  0  0
    8.9210    7.3865   24.4472 H   0  0  0  0  0  0  0  0  0  0  0  0
   10.6157    7.8958   24.5078 H   0  0  0  0  0  0  0  0  0  0  0  0
   10.0951    6.6974   23.3160 H   0  0  0  0  0  0  0  0  0  0  0  0
   11.7814   11.4987   23.3634 H   0  0  0  0  0  0  0  0  0  0  0  0
   11.0568   11.0231   21.8270 H   0  0  0  0  0  0  0  0  0  0  0  0
   10.4022    8.9105   22.2539 H   0  0  0  0  0  0  0  0  0  0  0  0
   10.9175   13.2124   21.3063 H   0  0  0  0  0  0  0  0  0  0  0  0
  1  2  1  0  0  0  0
  1  3  2  0  0  0  0
  2  4  2  0  0  0  0
  3  5  1  0  0  0  0
  4  8  1  0  0  0  0
  5  8  2  0  0  0  0
  6  7  2  0  0  0  0
  6 18  1  0  0  0  0
  7  9  1  0  0  0  0
  7 15  1  0  0  0  0
  8 18  1  0  0  0  0
  9 16  1  0  0  0  0
  9 17  2  0  0  0  0
 10 12  1  0  0  0  0
 10 19  1  0  0  0  0
 10 20  2  0  0  0  0
 11 12  1  0  0  0  0
 11 21  1  0  0  0  0
 12 21  1  0  0  0  0
 13 16  1  0  0  0  0
 14 16  1  0  0  0  0
 15 19  1  0  0  0  0
 17 18  1  0  0  0  0
  1 22  1  0  0  0  0
  2 23  1  0  0  0  0
  3 24  1  0  0  0  0
  4 25  1  0  0  0  0
  5 26  1  0  0  0  0
  6 27  1  0  0  0  0
 11 28  1  0  0  0  0
 11 29  1  0  0  0  0
 12 30  1  0  0  0  0
 13 31  1  0  0  0  0
 13 32  1  0  0  0  0
 13 33  1  0  0  0  0
 14 34  1  0  0  0  0
 14 35  1  0  0  0  0
 14 36  1  0  0  0  0
 15 37  1  0  0  0  0
 15 38  1  0  0  0  0
 16 39  1  0  0  0  0
 19 40  1  0  0  0  0
M  END
> <Catalog ID>
Z3687614152

> <MW>
285.341

> <MW (desalted)>
285.341

> <ClogP>
2.756

> <logS>
-3.1

> <HBD>
1

> <HBA>
3

> <TPSA>
59.45

> <RotBonds>
5

> <ROCS_ShapeQuery>
A71EV2A-x0451_0A_A71EV2A-x0310_0A_A71EV2A-x0416_0A_peptide

> <ROCS_TanimotoCombo>
0.541 

> <ROCS_ShapeTanimoto>
0.354 

> <ROCS_ColorTanimoto>
0.187 

> <ROCS_RefTversky>
0.309 

> <ROCS_RefColorTversky>
0.200 

> <ROCS_RefTverskyCombo>
0.509 

> <ROCS_FitTversky>
1.701 

> <ROCS_FitColorTversky>
0.740 

> <ROCS_FitTverskyCombo>
2.441 

> <ROCS_ColorScore>
-6.092

> <ROCS_Overlap>
2144.812

> <ROCS_Rank>
87                  

$$$$
untitled-dbase-1402_2623
  -OEChem-11132309573D

 47 49  0     1  0  0  0  0  0999 V2000
   13.1771   15.5006   18.1436 C   0  0  0  0  0  0  0  0  0  0  0  0
   14.2588   15.9047   18.9259 C   0  0  0  0  0  0  0  0  0  0  0  0
   11.9674   15.1596   18.7488 C   0  0  0  0  0  0  0  0  0  0  0  0
    9.9008   10.7650   23.0466 C   0  0  0  0  0  0  0  0  0  0  0  0
    8.9248   10.1066   23.7956 C   0  0  0  0  0  0  0  0  0  0  0  0
   12.9214   15.6268   20.9187 C   0  0  0  0  0  0  0  0  0  0  0  0
    8.9261   12.8971   23.6384 C   0  0  0  0  0  0  0  0  0  0  0  0
   14.1310   15.9678   20.3135 C   0  0  0  0  0  0  0  0  0  0  0  0
   11.8396   15.2227   20.1363 C   0  0  0  0  0  0  0  0  0  0  0  0
    9.9011   12.1582   22.9678 C   0  0  0  0  0  0  0  0  0  0  0  0
    7.9439   12.2349   24.3774 C   0  0  0  0  0  0  0  0  0  0  0  0
    7.9395   10.8431   24.4537 C   0  0  0  0  0  0  0  0  0  0  0  0
    5.9542   12.3598   25.7521 C   0  0  0  0  0  0  0  0  0  0  0  0
   10.7301   15.0362   23.3160 C   0  0  0  0  0  0  0  0  0  0  0  0
    5.8534   10.8649   25.5021 C   0  0  0  0  0  0  0  0  0  0  0  0
   15.2877   16.4015   21.1492 C   0  0  0  0  0  0  0  0  0  0  0  0
   12.3771   12.5652   22.6580 C   0  0  0  0  0  0  0  0  0  0  0  0
   10.5378   14.8551   20.7876 C   0  0  0  0  0  0  0  0  0  0  0  0
   10.5029   16.5268   23.1625 C   0  0  0  0  0  0  0  0  0  0  0  0
   10.9502   12.8580   22.1712 C   0  0  2  0  0  0  0  0  0  0  0  0
    6.9860   12.9732   25.0799 N   0  0  0  0  0  0  0  0  0  0  0  0
   10.7337   14.2941   22.1249 N   0  0  0  0  0  0  0  0  0  0  0  0
    5.1296   12.9612   26.4370 O   0  0  0  0  0  0  0  0  0  0  0  0
   10.8995   14.5233   24.4250 O   0  0  0  0  0  0  0  0  0  0  0  0
    7.0378   10.1486   25.2101 O   0  0  0  0  0  0  0  0  0  0  0  0
    8.7749   16.9160   23.2753 Cl  0  0  0  0  0  0  0  0  0  0  0  0
   13.2767   15.4516   17.0631 H   0  0  0  0  0  0  0  0  0  0  0  0
   15.1973   16.1690   18.4455 H   0  0  0  0  0  0  0  0  0  0  0  0
   11.1301   14.8451   18.1314 H   0  0  0  0  0  0  0  0  0  0  0  0
   10.6616   10.1840   22.5319 H   0  0  0  0  0  0  0  0  0  0  0  0
    8.9397    9.0220   23.8615 H   0  0  0  0  0  0  0  0  0  0  0  0
   12.8208   15.6768   22.0003 H   0  0  0  0  0  0  0  0  0  0  0  0
    8.9345   13.9831   23.5835 H   0  0  0  0  0  0  0  0  0  0  0  0
    5.4190   10.4111   26.3999 H   0  0  0  0  0  0  0  0  0  0  0  0
    5.1422   10.7103   24.6813 H   0  0  0  0  0  0  0  0  0  0  0  0
   15.2707   17.4891   21.2899 H   0  0  0  0  0  0  0  0  0  0  0  0
   15.2675   15.9225   22.1367 H   0  0  0  0  0  0  0  0  0  0  0  0
   16.2422   16.1259   20.6820 H   0  0  0  0  0  0  0  0  0  0  0  0
   12.4962   12.8593   23.7065 H   0  0  0  0  0  0  0  0  0  0  0  0
   12.6139   11.4984   22.5758 H   0  0  0  0  0  0  0  0  0  0  0  0
   13.1248   13.1071   22.0680 H   0  0  0  0  0  0  0  0  0  0  0  0
    9.8914   15.7345   20.8821 H   0  0  0  0  0  0  0  0  0  0  0  0
    9.9948   14.1150   20.1904 H   0  0  0  0  0  0  0  0  0  0  0  0
   11.0140   17.0702   23.9612 H   0  0  0  0  0  0  0  0  0  0  0  0
   10.8521   16.8619   22.1826 H   0  0  0  0  0  0  0  0  0  0  0  0
   10.9033   12.5390   21.1150 H   0  0  0  0  0  0  0  0  0  0  0  0
    7.0669   13.9853   25.1048 H   0  0  0  0  0  0  0  0  0  0  0  0
  1  2  1  0  0  0  0
  1  3  2  0  0  0  0
  2  8  2  0  0  0  0
  3  9  1  0  0  0  0
  4  5  2  0  0  0  0
  4 10  1  0  0  0  0
  5 12  1  0  0  0  0
  6  8  1  0  0  0  0
  6  9  2  0  0  0  0
  7 10  2  0  0  0  0
  7 11  1  0  0  0  0
  8 16  1  0  0  0  0
  9 18  1  0  0  0  0
 10 20  1  0  0  0  0
 11 12  2  0  0  0  0
 11 21  1  0  0  0  0
 12 25  1  0  0  0  0
 13 15  1  0  0  0  0
 13 21  1  0  0  0  0
 13 23  2  0  0  0  0
 14 19  1  0  0  0  0
 14 22  1  0  0  0  0
 14 24  2  0  0  0  0
 15 25  1  0  0  0  0
 17 20  1  0  0  0  0
 18 22  1  0  0  0  0
 19 26  1  0  0  0  0
 20 22  1  0  0  0  0
  1 27  1  0  0  0  0
  2 28  1  0  0  0  0
  3 29  1  0  0  0  0
  4 30  1  0  0  0  0
  5 31  1  0  0  0  0
  6 32  1  0  0  0  0
  7 33  1  0  0  0  0
 15 34  1  0  0  0  0
 15 35  1  0  0  0  0
 16 36  1  0  0  0  0
 16 37  1  0  0  0  0
 16 38  1  0  0  0  0
 17 39  1  0  0  0  0
 17 40  1  0  0  0  0
 17 41  1  0  0  0  0
 18 42  1  0  0  0  0
 18 43  1  0  0  0  0
 19 44  1  0  0  0  0
 19 45  1  0  0  0  0
 20 46  1  0  0  0  0
 21 47  1  0  0  0  0
M  END
> <Catalog ID>
Z4408352199

> <MW>
372.845

> <MW (desalted)>
372.845

> <ClogP>
2.785

> <logS>
-4.709

> <HBD>
1

> <HBA>
3

> <TPSA>
58.64

> <RotBonds>
5

> <ROCS_ShapeQuery>
A71EV2A-x0451_0A_A71EV2A-x0310_0A_A71EV2A-x0416_0A_peptide

> <ROCS_TanimotoCombo>
0.541 

> <ROCS_ShapeTanimoto>
0.365 

> <ROCS_ColorTanimoto>
0.176 

> <ROCS_RefTversky>
0.324 

> <ROCS_RefColorTversky>
0.190 

> <ROCS_RefTverskyCombo>
0.514 

> <ROCS_FitTversky>
1.531 

> <ROCS_FitColorTversky>
0.702 

> <ROCS_FitTverskyCombo>
2.234 

> <ROCS_ColorScore>
-5.788

> <ROCS_Overlap>
2252.711

> <ROCS_Rank>
88                  

$$$$
untitled-dbase-1252_9779
  -OEChem-11132309573D

 70 73  0     0  0  0  0  0  0999 V2000
   11.4228   16.3271   29.0224 C   0  0  0  0  0  0  0  0  0  0  0  0
    8.8696    7.6041   21.3428 C   0  0  0  0  0  0  0  0  0  0  0  0
   12.7161   15.8916   29.3106 C   0  0  0  0  0  0  0  0  0  0  0  0
   10.5926   15.5567   28.2081 C   0  0  0  0  0  0  0  0  0  0  0  0
    9.8594    8.0230   22.2318 C   0  0  0  0  0  0  0  0  0  0  0  0
    7.6161    8.2159   21.3557 C   0  0  0  0  0  0  0  0  0  0  0  0
   13.1795   14.6857   28.7844 C   0  0  0  0  0  0  0  0  0  0  0  0
   11.0560   14.3509   27.6819 C   0  0  0  0  0  0  0  0  0  0  0  0
    9.5957    9.0537   23.1339 C   0  0  0  0  0  0  0  0  0  0  0  0
    7.3525    9.2466   22.2578 C   0  0  0  0  0  0  0  0  0  0  0  0
    6.1998   11.1009   27.7990 C   0  0  0  0  0  0  0  0  0  0  0  0
    4.4363   13.2606   27.7074 C   0  0  0  0  0  0  0  0  0  0  0  0
    8.1366   12.5756   25.1626 C   0  0  0  0  0  0  0  0  0  0  0  0
    6.2043   11.9588   26.6992 C   0  0  0  0  0  0  0  0  0  0  0  0
   12.3494   13.9154   27.9700 C   0  0  0  0  0  0  0  0  0  0  0  0
    5.3135   11.3228   28.8530 C   0  0  0  0  0  0  0  0  0  0  0  0
    5.3226   13.0386   26.6533 C   0  0  0  0  0  0  0  0  0  0  0  0
    4.4318   12.4027   28.8072 C   0  0  0  0  0  0  0  0  0  0  0  0
    8.3422    9.6655   23.1469 C   0  0  0  0  0  0  0  0  0  0  0  0
    7.1286   11.7081   25.6243 C   0  0  0  0  0  0  0  0  0  0  0  0
    8.7381   11.8879   24.1370 C   0  0  0  0  0  0  0  0  0  0  0  0
   12.8383   12.6417   27.4139 C   0  0  0  0  0  0  0  0  0  0  0  0
   12.4578   12.1260   26.2385 C   0  0  0  0  0  0  0  0  0  0  0  0
   10.5364   13.4438   23.3182 C   0  0  0  0  0  0  0  0  0  0  0  0
   13.5757   12.6538   23.3056 C   0  0  0  0  0  0  0  0  0  0  0  0
    5.3265   10.3912   30.0203 C   0  0  0  0  0  0  0  0  0  0  0  0
    5.2982   13.9795   25.4914 C   0  0  0  0  0  0  0  0  0  0  0  0
    3.4740   12.6602   29.9238 C   0  0  0  0  0  0  0  0  0  0  0  0
   11.6145   13.4592   22.2564 C   0  0  0  0  0  0  0  0  0  0  0  0
   14.4760   11.4582   23.5103 C   0  0  0  0  0  0  0  0  0  0  0  0
    7.0887   10.5573   24.9475 N   0  0  0  0  0  0  0  0  0  0  0  0
    8.0792   10.6970   24.0499 N   0  0  0  0  0  0  0  0  0  0  0  0
    9.8150   12.2570   23.2965 N   0  0  0  0  0  0  0  0  0  0  0  0
   14.5979   11.0714   24.8863 N   0  0  0  0  0  0  0  0  0  0  0  0
   10.3816   14.4074   24.0625 O   0  0  0  0  0  0  0  0  0  0  0  0
   13.8051   13.7405   23.8263 O   0  0  0  0  0  0  0  0  0  0  0  0
   13.6044    9.9251   26.9719 O   0  0  0  0  0  0  0  0  0  0  0  0
   12.2512    9.9589   24.8573 O   0  0  0  0  0  0  0  0  0  0  0  0
   12.5162   12.3738   22.4978 O   0  0  0  0  0  0  0  0  0  0  0  0
   13.1690   10.6163   25.7711 S   0  0  0  0  0  0  0  0  0  0  0  0
   11.0616   17.2653   29.4331 H   0  0  0  0  0  0  0  0  0  0  0  0
    9.0750    6.8029   20.6390 H   0  0  0  0  0  0  0  0  0  0  0  0
   13.3623   16.4907   29.9457 H   0  0  0  0  0  0  0  0  0  0  0  0
    9.5852   15.8951   27.9845 H   0  0  0  0  0  0  0  0  0  0  0  0
   10.8359    7.5477   22.2210 H   0  0  0  0  0  0  0  0  0  0  0  0
    6.8464    7.8901   20.6621 H   0  0  0  0  0  0  0  0  0  0  0  0
   14.1902   14.3595   29.0180 H   0  0  0  0  0  0  0  0  0  0  0  0
   10.3969   13.7616   27.0487 H   0  0  0  0  0  0  0  0  0  0  0  0
   10.3763    9.3711   23.8210 H   0  0  0  0  0  0  0  0  0  0  0  0
    6.3714    9.7154   22.2567 H   0  0  0  0  0  0  0  0  0  0  0  0
    6.8849   10.2564   27.8416 H   0  0  0  0  0  0  0  0  0  0  0  0
    3.7485   14.1025   27.6722 H   0  0  0  0  0  0  0  0  0  0  0  0
    8.3937   13.5624   25.5215 H   0  0  0  0  0  0  0  0  0  0  0  0
   13.5734   12.1182   28.0220 H   0  0  0  0  0  0  0  0  0  0  0  0
   11.7485   12.5982   25.5711 H   0  0  0  0  0  0  0  0  0  0  0  0
    6.0306   10.7462   30.7817 H   0  0  0  0  0  0  0  0  0  0  0  0
    4.3313   10.3110   30.4745 H   0  0  0  0  0  0  0  0  0  0  0  0
    5.6212    9.3791   29.7162 H   0  0  0  0  0  0  0  0  0  0  0  0
    5.9928   14.8093   25.6622 H   0  0  0  0  0  0  0  0  0  0  0  0
    5.5827   13.4687   24.5640 H   0  0  0  0  0  0  0  0  0  0  0  0
    4.2930   14.3891   25.3365 H   0  0  0  0  0  0  0  0  0  0  0  0
    2.5296   12.1338   29.7432 H   0  0  0  0  0  0  0  0  0  0  0  0
    3.8842   12.3230   30.8836 H   0  0  0  0  0  0  0  0  0  0  0  0
    3.2629   13.7320   30.0257 H   0  0  0  0  0  0  0  0  0  0  0  0
   11.1667   13.3524   21.2637 H   0  0  0  0  0  0  0  0  0  0  0  0
   12.1701   14.4013   22.2848 H   0  0  0  0  0  0  0  0  0  0  0  0
   15.4776   11.7019   23.1466 H   0  0  0  0  0  0  0  0  0  0  0  0
   14.0669   10.6042   22.9647 H   0  0  0  0  0  0  0  0  0  0  0  0
   10.0931   11.5740   22.5951 H   0  0  0  0  0  0  0  0  0  0  0  0
   15.2748   11.6320   25.4530 H   0  0  0  0  0  0  0  0  0  0  0  0
  1  3  1  0  0  0  0
  1  4  2  0  0  0  0
  2  5  1  0  0  0  0
  2  6  2  0  0  0  0
  3  7  2  0  0  0  0
  4  8  1  0  0  0  0
  5  9  2  0  0  0  0
  6 10  1  0  0  0  0
  7 15  1  0  0  0  0
  8 15  2  0  0  0  0
  9 19  1  0  0  0  0
 10 19  2  0  0  0  0
 11 14  2  0  0  0  0
 11 16  1  0  0  0  0
 12 17  2  0  0  0  0
 12 18  1  0  0  0  0
 13 20  1  0  0  0  0
 13 21  2  0  0  0  0
 14 17  1  0  0  0  0
 14 20  1  0  0  0  0
 15 22  1  0  0  0  0
 16 18  2  0  0  0  0
 16 26  1  0  0  0  0
 17 27  1  0  0  0  0
 18 28  1  0  0  0  0
 19 32  1  0  0  0  0
 20 31  2  0  0  0  0
 21 32  1  0  0  0  0
 21 33  1  0  0  0  0
 22 23  2  0  0  0  0
 23 40  1  4  0  0  0
 24 29  1  0  0  0  0
 24 33  1  0  0  0  0
 24 35  2  0  0  0  0
 25 30  1  0  0  0  0
 25 36  2  0  0  0  0
 25 39  1  0  0  0  0
 29 39  1  0  0  0  0
 30 34  1  0  0  0  0
 31 32  1  0  0  0  0
 34 40  1  0  0  0  0
 37 40  2  0  0  0  0
 38 40  2  0  0  0  0
  1 41  1  0  0  0  0
  2 42  1  0  0  0  0
  3 43  1  0  0  0  0
  4 44  1  0  0  0  0
  5 45  1  0  0  0  0
  6 46  1  0  0  0  0
  7 47  1  0  0  0  0
  8 48  1  0  0  0  0
  9 49  1  0  0  0  0
 10 50  1  0  0  0  0
 11 51  1  0  0  0  0
 12 52  1  0  0  0  0
 13 53  1  0  0  0  0
 22 54  1  0  0  0  0
 23 55  1  0  0  0  0
 26 56  1  0  0  0  0
 26 57  1  0  0  0  0
 26 58  1  0  0  0  0
 27 59  1  0  0  0  0
 27 60  1  0  0  0  0
 27 61  1  0  0  0  0
 28 62  1  0  0  0  0
 28 63  1  0  0  0  0
 28 64  1  0  0  0  0
 29 65  1  0  0  0  0
 29 66  1  0  0  0  0
 30 67  1  0  0  0  0
 30 68  1  0  0  0  0
 33 69  1  0  0  0  0
 34 70  1  0  0  0  0
M  END
> <Catalog ID>
Z24396427

> <MW>
558.648

> <MW (desalted)>
558.648

> <ClogP>
6.066

> <logS>
-8.24

> <HBD>
2

> <HBA>
5

> <TPSA>
119.39

> <RotBonds>
10

> <ROCS_ShapeQuery>
A71EV2A-x0451_0A_A71EV2A-x0310_0A_A71EV2A-x0416_0A_peptide

> <ROCS_TanimotoCombo>
0.540 

> <ROCS_ShapeTanimoto>
0.368 

> <ROCS_ColorTanimoto>
0.172 

> <ROCS_RefTversky>
0.349 

> <ROCS_RefColorTversky>
0.204 

> <ROCS_RefTverskyCombo>
0.553 

> <ROCS_FitTversky>
1.178 

> <ROCS_FitColorTversky>
0.521 

> <ROCS_FitTverskyCombo>
1.699 

> <ROCS_ColorScore>
-6.269

> <ROCS_Overlap>
2437.865

> <ROCS_Rank>
89                  

$$$$
untitled-dbase-10045_3821
  -OEChem-11132309573D

 47 49  0     0  0  0  0  0  0999 V2000
    8.2086    5.9706   22.6889 C   0  0  0  0  0  0  0  0  0  0  0  0
    9.4827    6.5379   22.6769 C   0  0  0  0  0  0  0  0  0  0  0  0
    7.1012    6.7498   23.0239 C   0  0  0  0  0  0  0  0  0  0  0  0
    8.4168   11.9989   24.5230 C   0  0  0  0  0  0  0  0  0  0  0  0
    9.6496    7.8846   23.0000 C   0  0  0  0  0  0  0  0  0  0  0  0
    8.5423    8.6639   23.3350 C   0  0  0  0  0  0  0  0  0  0  0  0
    7.2681    8.0964   23.3470 C   0  0  0  0  0  0  0  0  0  0  0  0
    9.5084   11.9749   23.6606 C   0  0  0  0  0  0  0  0  0  0  0  0
    7.9213   10.7315   24.4970 C   0  0  0  0  0  0  0  0  0  0  0  0
    9.6404   17.2376   24.9770 C   0  0  0  0  0  0  0  0  0  0  0  0
    9.6010   17.1301   23.6454 C   0  0  0  0  0  0  0  0  0  0  0  0
   10.3928   13.0500   23.3172 C   0  0  0  0  0  0  0  0  0  0  0  0
   10.7239   16.4918   22.9081 C   0  0  0  0  0  0  0  0  0  0  0  0
    7.6362   12.8689   25.4148 C   0  0  0  0  0  0  0  0  0  0  0  0
    6.7454   10.4926   25.3409 C   0  0  0  0  0  0  0  0  0  0  0  0
    6.7381   11.8235   26.1760 C   0  0  0  0  0  0  0  0  0  0  0  0
   11.0288    8.4611   22.9779 C   0  0  0  0  0  0  0  0  0  0  0  0
   11.9056   14.0307   21.5510 C   0  0  0  0  0  0  0  0  0  0  0  0
   11.1977   15.1824   20.8572 C   0  0  0  0  0  0  0  0  0  0  0  0
    9.6885   10.7546   23.1216 N   0  0  0  0  0  0  0  0  0  0  0  0
    8.6902   10.0083   23.6593 N   0  0  0  0  0  0  0  0  0  0  0  0
   10.9786   13.0335   22.0357 N   0  0  0  0  0  0  0  0  0  0  0  0
   10.2978   15.8724   21.7412 N   0  0  0  0  0  0  0  0  0  0  0  0
   10.6548   13.9648   24.1344 O   0  0  0  0  0  0  0  0  0  0  0  0
   11.8818   16.5238   23.3123 O   0  0  0  0  0  0  0  0  0  0  0  0
    6.1936    8.8326   23.6667 F   0  0  0  0  0  0  0  0  0  0  0  0
    8.0789    4.9221   22.4370 H   0  0  0  0  0  0  0  0  0  0  0  0
   10.3386    5.9219   22.4150 H   0  0  0  0  0  0  0  0  0  0  0  0
    6.1091    6.3083   23.0334 H   0  0  0  0  0  0  0  0  0  0  0  0
    8.8179   17.7055   25.5078 H   0  0  0  0  0  0  0  0  0  0  0  0
   10.4723   16.8714   25.5685 H   0  0  0  0  0  0  0  0  0  0  0  0
    8.7493   17.5093   23.0912 H   0  0  0  0  0  0  0  0  0  0  0  0
    8.2569   13.4355   26.1140 H   0  0  0  0  0  0  0  0  0  0  0  0
    7.0102   13.5582   24.8390 H   0  0  0  0  0  0  0  0  0  0  0  0
    5.8346   10.4127   24.7400 H   0  0  0  0  0  0  0  0  0  0  0  0
    6.8411    9.6195   25.9908 H   0  0  0  0  0  0  0  0  0  0  0  0
    7.1807   11.6273   27.1616 H   0  0  0  0  0  0  0  0  0  0  0  0
    5.7233   12.1987   26.3426 H   0  0  0  0  0  0  0  0  0  0  0  0
   11.2565    8.8594   21.9830 H   0  0  0  0  0  0  0  0  0  0  0  0
   11.1305    9.2697   23.7113 H   0  0  0  0  0  0  0  0  0  0  0  0
   11.7781    7.7019   23.2319 H   0  0  0  0  0  0  0  0  0  0  0  0
   12.4891   14.3793   22.4090 H   0  0  0  0  0  0  0  0  0  0  0  0
   12.5809   13.5284   20.8513 H   0  0  0  0  0  0  0  0  0  0  0  0
   11.9272   15.9175   20.5034 H   0  0  0  0  0  0  0  0  0  0  0  0
   10.6134   14.8329   19.9999 H   0  0  0  0  0  0  0  0  0  0  0  0
   10.7910   12.2433   21.4273 H   0  0  0  0  0  0  0  0  0  0  0  0
    9.3062   15.8736   21.5058 H   0  0  0  0  0  0  0  0  0  0  0  0
  1  2  2  0  0  0  0
  1  3  1  0  0  0  0
  2  5  1  0  0  0  0
  3  7  2  0  0  0  0
  4  8  1  0  0  0  0
  4  9  2  0  0  0  0
  4 14  1  0  0  0  0
  5  6  2  0  0  0  0
  5 17  1  0  0  0  0
  6  7  1  0  0  0  0
  6 21  1  0  0  0  0
  7 26  1  0  0  0  0
  8 12  1  0  0  0  0
  8 20  2  0  0  0  0
  9 15  1  0  0  0  0
  9 21  1  0  0  0  0
 10 11  2  0  0  0  0
 11 13  1  0  0  0  0
 12 22  1  0  0  0  0
 12 24  2  0  0  0  0
 13 23  1  0  0  0  0
 13 25  2  0  0  0  0
 14 16  1  0  0  0  0
 15 16  1  0  0  0  0
 18 19  1  0  0  0  0
 18 22  1  0  0  0  0
 19 23  1  0  0  0  0
 20 21  1  0  0  0  0
  1 27  1  0  0  0  0
  2 28  1  0  0  0  0
  3 29  1  0  0  0  0
 10 30  1  0  0  0  0
 10 31  1  0  0  0  0
 11 32  1  0  0  0  0
 14 33  1  0  0  0  0
 14 34  1  0  0  0  0
 15 35  1  0  0  0  0
 15 36  1  0  0  0  0
 16 37  1  0  0  0  0
 16 38  1  0  0  0  0
 17 39  1  0  0  0  0
 17 40  1  0  0  0  0
 17 41  1  0  0  0  0
 18 42  1  0  0  0  0
 18 43  1  0  0  0  0
 19 44  1  0  0  0  0
 19 45  1  0  0  0  0
 22 46  1  0  0  0  0
 23 47  1  0  0  0  0
M  END
> <Catalog ID>
Z2372936088

> <MW>
356.394

> <MW (desalted)>
356.394

> <ClogP>
2.327

> <logS>
-4.092

> <HBD>
2

> <HBA>
3

> <TPSA>
76.02

> <RotBonds>
5

> <ROCS_ShapeQuery>
A71EV2A-x0451_0A_A71EV2A-x0310_0A_A71EV2A-x0416_0A_peptide

> <ROCS_TanimotoCombo>
0.540 

> <ROCS_ShapeTanimoto>
0.354 

> <ROCS_ColorTanimoto>
0.186 

> <ROCS_RefTversky>
0.317 

> <ROCS_RefColorTversky>
0.209 

> <ROCS_RefTverskyCombo>
0.526 

> <ROCS_FitTversky>
1.482 

> <ROCS_FitColorTversky>
0.628 

> <ROCS_FitTverskyCombo>
2.110 

> <ROCS_ColorScore>
-6.392

> <ROCS_Overlap>
2206.795

> <ROCS_Rank>
90                  

$$$$
untitled-dbase-1037_12661
  -OEChem-11132309573D

 49 51  0     0  0  0  0  0  0999 V2000
   13.2768   13.9396   22.9229 C   0  0  0  0  0  0  0  0  0  0  0  0
    8.4185    9.3509   24.0514 C   0  0  0  0  0  0  0  0  0  0  0  0
    9.4386   10.1290   23.5041 C   0  0  0  0  0  0  0  0  0  0  0  0
    7.2994    9.9641   24.6148 C   0  0  0  0  0  0  0  0  0  0  0  0
   14.0024   16.9791   19.4823 C   0  0  0  0  0  0  0  0  0  0  0  0
    8.2208   12.1335   24.0838 C   0  0  0  0  0  0  0  0  0  0  0  0
   14.0842   15.8938   18.6379 C   0  0  0  0  0  0  0  0  0  0  0  0
   13.1149   16.7439   20.5719 C   0  0  0  0  0  0  0  0  0  0  0  0
    9.3398   11.5202   23.5203 C   0  0  0  0  0  0  0  0  0  0  0  0
    7.2006   11.3554   24.6311 C   0  0  0  0  0  0  0  0  0  0  0  0
   12.5519   15.4877   20.5185 C   0  0  0  0  0  0  0  0  0  0  0  0
   11.5944   14.8597   21.4424 C   0  0  0  0  0  0  0  0  0  0  0  0
   11.9168   14.1442   22.5382 C   0  0  0  0  0  0  0  0  0  0  0  0
   10.7671   13.5886   23.3513 C   0  0  0  0  0  0  0  0  0  0  0  0
    4.3970   13.0318   29.0313 C   0  0  0  0  0  0  0  0  0  0  0  0
    3.8766   11.8830   28.1694 C   0  0  0  0  0  0  0  0  0  0  0  0
    5.5023   13.8029   28.3124 C   0  0  0  0  0  0  0  0  0  0  0  0
    5.0143   10.9826   27.7015 C   0  0  0  0  0  0  0  0  0  0  0  0
    6.6122   12.8699   27.8419 C   0  0  0  0  0  0  0  0  0  0  0  0
   12.8437   17.7488   21.6297 C   0  0  0  0  0  0  0  0  0  0  0  0
   14.3804   13.7713   23.2399 N   0  0  0  0  0  0  0  0  0  0  0  0
    6.0545   11.7799   26.9939 N   0  0  0  0  0  0  0  0  0  0  0  0
   10.3600   12.2986   22.9727 N   0  0  0  0  0  0  0  0  0  0  0  0
   10.2670   14.2537   24.2551 O   0  0  0  0  0  0  0  0  0  0  0  0
    5.9106   13.5575   25.1407 O   0  0  0  0  0  0  0  0  0  0  0  0
    4.6104   11.4129   24.8995 O   0  0  0  0  0  0  0  0  0  0  0  0
   13.0935   14.5981   19.1593 S   0  0  0  0  0  0  0  0  0  0  0  0
    5.7848   12.1308   25.3450 S   0  0  0  0  0  0  0  0  0  0  0  0
    8.4948    8.2676   24.0384 H   0  0  0  0  0  0  0  0  0  0  0  0
   10.3056    9.6399   23.0672 H   0  0  0  0  0  0  0  0  0  0  0  0
    6.5106    9.3486   25.0389 H   0  0  0  0  0  0  0  0  0  0  0  0
   14.5553   17.8963   19.3210 H   0  0  0  0  0  0  0  0  0  0  0  0
    8.1429   13.2184   24.0967 H   0  0  0  0  0  0  0  0  0  0  0  0
   14.6779   15.7998   17.7396 H   0  0  0  0  0  0  0  0  0  0  0  0
   10.5565   15.0401   21.1714 H   0  0  0  0  0  0  0  0  0  0  0  0
    3.5703   13.7137   29.2720 H   0  0  0  0  0  0  0  0  0  0  0  0
    4.7756   12.6403   29.9836 H   0  0  0  0  0  0  0  0  0  0  0  0
    3.1580   11.2933   28.7519 H   0  0  0  0  0  0  0  0  0  0  0  0
    3.3394   12.2842   27.3033 H   0  0  0  0  0  0  0  0  0  0  0  0
    5.0811   14.3410   27.4562 H   0  0  0  0  0  0  0  0  0  0  0  0
    5.9189   14.5545   28.9943 H   0  0  0  0  0  0  0  0  0  0  0  0
    5.4627   10.4922   28.5777 H   0  0  0  0  0  0  0  0  0  0  0  0
    4.6342   10.1951   27.0333 H   0  0  0  0  0  0  0  0  0  0  0  0
    7.3722   13.4281   27.2743 H   0  0  0  0  0  0  0  0  0  0  0  0
    7.1051   12.4322   28.7223 H   0  0  0  0  0  0  0  0  0  0  0  0
   11.9919   18.3861   21.3520 H   0  0  0  0  0  0  0  0  0  0  0  0
   12.6131   17.2710   22.5938 H   0  0  0  0  0  0  0  0  0  0  0  0
   13.7143   18.3988   21.8047 H   0  0  0  0  0  0  0  0  0  0  0  0
   10.8785   11.8751   22.1951 H   0  0  0  0  0  0  0  0  0  0  0  0
  1 13  1  0  0  0  0
  1 21  3  0  0  0  0
  2  3  2  0  0  0  0
  2  4  1  0  0  0  0
  3  9  1  0  0  0  0
  4 10  2  0  0  0  0
  5  7  2  0  0  0  0
  5  8  1  0  0  0  0
  6  9  2  0  0  0  0
  6 10  1  0  0  0  0
  7 27  1  0  0  0  0
  8 11  2  0  0  0  0
  8 20  1  0  0  0  0
  9 23  1  0  0  0  0
 10 28  1  0  0  0  0
 11 12  1  4  0  0  0
 11 27  1  0  0  0  0
 12 13  2  0  0  0  0
 13 14  1  0  0  0  0
 14 23  1  0  0  0  0
 14 24  2  0  0  0  0
 15 16  1  0  0  0  0
 15 17  1  0  0  0  0
 16 18  1  0  0  0  0
 17 19  1  0  0  0  0
 18 22  1  0  0  0  0
 19 22  1  0  0  0  0
 22 28  1  0  0  0  0
 25 28  2  0  0  0  0
 26 28  2  0  0  0  0
  2 29  1  0  0  0  0
  3 30  1  0  0  0  0
  4 31  1  0  0  0  0
  5 32  1  0  0  0  0
  6 33  1  0  0  0  0
  7 34  1  0  0  0  0
 12 35  1  0  0  0  0
 15 36  1  0  0  0  0
 15 37  1  0  0  0  0
 16 38  1  0  0  0  0
 16 39  1  0  0  0  0
 17 40  1  0  0  0  0
 17 41  1  0  0  0  0
 18 42  1  0  0  0  0
 18 43  1  0  0  0  0
 19 44  1  0  0  0  0
 19 45  1  0  0  0  0
 20 46  1  0  0  0  0
 20 47  1  0  0  0  0
 20 48  1  0  0  0  0
 23 49  1  0  0  0  0
M  END
> <Catalog ID>
Z44371619

> <MW>
415.529

> <MW (desalted)>
415.529

> <ClogP>
3.98

> <logS>
-5.229

> <HBD>
1

> <HBA>
4

> <TPSA>
90.27

> <RotBonds>
4

> <ROCS_ShapeQuery>
A71EV2A-x0451_0A_A71EV2A-x0310_0A_A71EV2A-x0416_0A_peptide

> <ROCS_TanimotoCombo>
0.540 

> <ROCS_ShapeTanimoto>
0.357 

> <ROCS_ColorTanimoto>
0.183 

> <ROCS_RefTversky>
0.320 

> <ROCS_RefColorTversky>
0.201 

> <ROCS_RefTverskyCombo>
0.521 

> <ROCS_FitTversky>
1.475 

> <ROCS_FitColorTversky>
0.668 

> <ROCS_FitTverskyCombo>
2.143 

> <ROCS_ColorScore>
-6.134

> <ROCS_Overlap>
2227.781

> <ROCS_Rank>
91                  

$$$$
untitled-dbase-2115_1639
  -OEChem-11132309573D

 59 62  0     0  0  0  0  0  0999 V2000
   11.9033   14.6474   21.0863 C   0  0  0  0  0  0  0  0  0  0  0  0
   14.3120   11.2468   26.1339 C   0  0  0  0  0  0  0  0  0  0  0  0
   14.6243   10.7394   24.8727 C   0  0  0  0  0  0  0  0  0  0  0  0
   13.6879   12.4888   26.2511 C   0  0  0  0  0  0  0  0  0  0  0  0
   14.3125   11.4740   23.7286 C   0  0  0  0  0  0  0  0  0  0  0  0
   13.3762   13.2234   25.1070 C   0  0  0  0  0  0  0  0  0  0  0  0
    8.1938    9.6008   24.2070 C   0  0  0  0  0  0  0  0  0  0  0  0
    7.2112   10.3727   24.8268 C   0  0  0  0  0  0  0  0  0  0  0  0
    8.3636   12.3848   24.1480 C   0  0  0  0  0  0  0  0  0  0  0  0
   13.6884   12.7160   23.8458 C   0  0  0  0  0  0  0  0  0  0  0  0
    9.2614   10.2209   23.5577 C   0  0  0  0  0  0  0  0  0  0  0  0
    9.3462   11.6129   23.5282 C   0  0  0  0  0  0  0  0  0  0  0  0
    7.2960   11.7647   24.7973 C   0  0  0  0  0  0  0  0  0  0  0  0
   13.3594   13.4912   22.6394 C   0  0  0  0  0  0  0  0  0  0  0  0
   12.1249   13.8959   22.2804 C   0  0  0  0  0  0  0  0  0  0  0  0
   10.9849   13.4959   23.1925 C   0  0  0  0  0  0  0  0  0  0  0  0
   11.2892    7.9005   21.4563 C   0  0  0  0  0  0  0  0  0  0  0  0
   12.3205    8.3975   22.4489 C   0  0  0  0  0  0  0  0  0  0  0  0
   10.1974    8.9606   21.5459 C   0  0  0  0  0  0  0  0  0  0  0  0
   11.4605    8.9271   23.5908 C   0  0  0  0  0  0  0  0  0  0  0  0
    6.3199   11.7928   28.1292 C   0  0  0  0  0  0  0  0  0  0  0  0
    4.1274   11.4811   27.0570 C   0  0  0  0  0  0  0  0  0  0  0  0
    5.6916   12.8852   28.9820 C   0  0  0  0  0  0  0  0  0  0  0  0
    3.5880   12.5862   27.9530 C   0  0  0  0  0  0  0  0  0  0  0  0
   11.7182   15.2574   20.1165 N   0  0  0  0  0  0  0  0  0  0  0  0
   10.2419    9.4221   22.9389 N   0  0  0  0  0  0  0  0  0  0  0  0
    5.5874   11.6805   26.8365 N   0  0  0  0  0  0  0  0  0  0  0  0
   10.4061   12.2559   22.8825 N   0  0  0  0  0  0  0  0  0  0  0  0
   10.6359   14.2337   24.1106 O   0  0  0  0  0  0  0  0  0  0  0  0
    6.6954   13.9016   26.1561 O   0  0  0  0  0  0  0  0  0  0  0  0
    4.9477   12.8825   24.6546 O   0  0  0  0  0  0  0  0  0  0  0  0
    4.3031   12.6146   29.1908 O   0  0  0  0  0  0  0  0  0  0  0  0
    6.0507   12.7403   25.5810 S   0  0  0  0  0  0  0  0  0  0  0  0
   14.5536   10.6743   27.0246 H   0  0  0  0  0  0  0  0  0  0  0  0
   15.1092    9.7718   24.7811 H   0  0  0  0  0  0  0  0  0  0  0  0
   13.4437   12.8835   27.2329 H   0  0  0  0  0  0  0  0  0  0  0  0
   14.5622   11.0652   22.7523 H   0  0  0  0  0  0  0  0  0  0  0  0
   12.8897   14.1899   25.2148 H   0  0  0  0  0  0  0  0  0  0  0  0
    8.1178    8.5168   24.2370 H   0  0  0  0  0  0  0  0  0  0  0  0
    6.3843    9.8788   25.3302 H   0  0  0  0  0  0  0  0  0  0  0  0
    8.4282   13.4704   24.1260 H   0  0  0  0  0  0  0  0  0  0  0  0
   14.2318   13.7407   22.0395 H   0  0  0  0  0  0  0  0  0  0  0  0
   11.6949    7.8052   20.4453 H   0  0  0  0  0  0  0  0  0  0  0  0
   10.8985    6.9246   21.7679 H   0  0  0  0  0  0  0  0  0  0  0  0
   13.0019    7.6062   22.7736 H   0  0  0  0  0  0  0  0  0  0  0  0
   12.9132    9.2089   22.0104 H   0  0  0  0  0  0  0  0  0  0  0  0
   10.4086    9.8086   20.8787 H   0  0  0  0  0  0  0  0  0  0  0  0
    9.2149    8.5470   21.2800 H   0  0  0  0  0  0  0  0  0  0  0  0
   11.1922    8.1247   24.2930 H   0  0  0  0  0  0  0  0  0  0  0  0
   11.9792    9.7174   24.1503 H   0  0  0  0  0  0  0  0  0  0  0  0
    7.3745   12.0293   27.9215 H   0  0  0  0  0  0  0  0  0  0  0  0
    6.2753   10.8353   28.6667 H   0  0  0  0  0  0  0  0  0  0  0  0
    3.9524   10.5051   27.5309 H   0  0  0  0  0  0  0  0  0  0  0  0
    3.6151   11.4946   26.0831 H   0  0  0  0  0  0  0  0  0  0  0  0
    6.1928   12.9769   29.9530 H   0  0  0  0  0  0  0  0  0  0  0  0
    5.7708   13.8505   28.4724 H   0  0  0  0  0  0  0  0  0  0  0  0
    3.7198   13.5587   27.4689 H   0  0  0  0  0  0  0  0  0  0  0  0
    2.5184   12.4550   28.1557 H   0  0  0  0  0  0  0  0  0  0  0  0
   10.8110   11.7596   22.0823 H   0  0  0  0  0  0  0  0  0  0  0  0
  1 15  1  0  0  0  0
  1 25  3  0  0  0  0
  2  3  1  0  0  0  0
  2  4  2  0  0  0  0
  3  5  2  0  0  0  0
  4  6  1  0  0  0  0
  5 10  1  0  0  0  0
  6 10  2  0  0  0  0
  7  8  2  0  0  0  0
  7 11  1  0  0  0  0
  8 13  1  0  0  0  0
  9 12  1  0  0  0  0
  9 13  2  0  0  0  0
 10 14  1  4  0  0  0
 11 12  2  0  0  0  0
 11 26  1  0  0  0  0
 12 28  1  0  0  0  0
 13 33  1  0  0  0  0
 14 15  2  0  0  0  0
 15 16  1  0  0  0  0
 16 28  1  0  0  0  0
 16 29  2  0  0  0  0
 17 18  1  0  0  0  0
 17 19  1  0  0  0  0
 18 20  1  0  0  0  0
 19 26  1  0  0  0  0
 20 26  1  0  0  0  0
 21 23  1  0  0  0  0
 21 27  1  0  0  0  0
 22 24  1  0  0  0  0
 22 27  1  0  0  0  0
 23 32  1  0  0  0  0
 24 32  1  0  0  0  0
 27 33  1  0  0  0  0
 30 33  2  0  0  0  0
 31 33  2  0  0  0  0
  2 34  1  0  0  0  0
  3 35  1  0  0  0  0
  4 36  1  0  0  0  0
  5 37  1  0  0  0  0
  6 38  1  0  0  0  0
  7 39  1  0  0  0  0
  8 40  1  0  0  0  0
  9 41  1  0  0  0  0
 14 42  1  0  0  0  0
 17 43  1  0  0  0  0
 17 44  1  0  0  0  0
 18 45  1  0  0  0  0
 18 46  1  0  0  0  0
 19 47  1  0  0  0  0
 19 48  1  0  0  0  0
 20 49  1  0  0  0  0
 20 50  1  0  0  0  0
 21 51  1  0  0  0  0
 21 52  1  0  0  0  0
 22 53  1  0  0  0  0
 22 54  1  0  0  0  0
 23 55  1  0  0  0  0
 23 56  1  0  0  0  0
 24 57  1  0  0  0  0
 24 58  1  0  0  0  0
 28 59  1  0  0  0  0
M  END
> <Catalog ID>
Z56400312

> <MW>
466.553

> <MW (desalted)>
466.553

> <ClogP>
2.958

> <logS>
-5.05

> <HBD>
1

> <HBA>
6

> <TPSA>
102.74

> <RotBonds>
5

> <ROCS_ShapeQuery>
A71EV2A-x0451_0A_A71EV2A-x0310_0A_A71EV2A-x0416_0A_peptide

> <ROCS_TanimotoCombo>
0.540 

> <ROCS_ShapeTanimoto>
0.395 

> <ROCS_ColorTanimoto>
0.144 

> <ROCS_RefTversky>
0.355 

> <ROCS_RefColorTversky>
0.172 

> <ROCS_RefTverskyCombo>
0.526 

> <ROCS_FitTversky>
1.408 

> <ROCS_FitColorTversky>
0.475 

> <ROCS_FitTverskyCombo>
1.883 

> <ROCS_ColorScore>
-5.263

> <ROCS_Overlap>
2471.430

> <ROCS_Rank>
92                  

$$$$
untitled-dbase-6027_1380
  -OEChem-11132309573D

 41 44  0     1  0  0  0  0  0999 V2000
   10.2885    6.4316   21.5992 C   0  0  0  0  0  0  0  0  0  0  0  0
    4.6811   12.5064   27.1134 C   0  0  0  0  0  0  0  0  0  0  0  0
   11.1173    7.0635   22.5262 C   0  0  0  0  0  0  0  0  0  0  0  0
    9.0402    6.9749   21.2954 C   0  0  0  0  0  0  0  0  0  0  0  0
    5.6632   13.4184   26.7270 C   0  0  0  0  0  0  0  0  0  0  0  0
    4.7490   11.1826   26.6792 C   0  0  0  0  0  0  0  0  0  0  0  0
   10.6978    8.2388   23.1494 C   0  0  0  0  0  0  0  0  0  0  0  0
    8.6207    8.1502   21.9186 C   0  0  0  0  0  0  0  0  0  0  0  0
    6.7131   13.0066   25.9061 C   0  0  0  0  0  0  0  0  0  0  0  0
    5.7989   10.7708   25.8584 C   0  0  0  0  0  0  0  0  0  0  0  0
    8.8480   12.0631   24.2062 C   0  0  0  0  0  0  0  0  0  0  0  0
    9.4495    8.7821   22.8457 C   0  0  0  0  0  0  0  0  0  0  0  0
    9.6456   11.2508   23.4379 C   0  0  0  0  0  0  0  0  0  0  0  0
    6.7810   11.6828   25.4718 C   0  0  0  0  0  0  0  0  0  0  0  0
    9.0173    9.9920   23.4873 C   0  0  0  0  0  0  0  0  0  0  0  0
   10.8437   14.0763   23.1805 C   0  0  0  0  0  0  0  0  0  0  0  0
   12.0431   15.8178   21.7152 C   0  0  0  0  0  0  0  0  0  0  0  0
   10.8565   15.4135   22.5171 C   0  0  2  0  0  0  0  0  0  0  0  0
   10.8806   11.6313   22.7299 C   0  0  0  0  0  0  0  0  0  0  0  0
    7.9062    9.9991   24.2285 N   0  0  0  0  0  0  0  0  0  0  0  0
    7.8301   11.2722   24.6520 N   0  0  0  0  0  0  0  0  0  0  0  0
   10.8831   13.0138   22.3000 N   0  0  0  0  0  0  0  0  0  0  0  0
   10.8026   14.0089   24.4033 O   0  0  0  0  0  0  0  0  0  0  0  0
   11.8501   16.2750   23.0588 O   0  0  0  0  0  0  0  0  0  0  0  0
   10.6154    5.5170   21.1130 H   0  0  0  0  0  0  0  0  0  0  0  0
    3.8644   12.8260   27.7540 H   0  0  0  0  0  0  0  0  0  0  0  0
   12.0897    6.6413   22.7620 H   0  0  0  0  0  0  0  0  0  0  0  0
    8.3957    6.4833   20.5726 H   0  0  0  0  0  0  0  0  0  0  0  0
    5.6113   14.4489   27.0660 H   0  0  0  0  0  0  0  0  0  0  0  0
    3.9846   10.4726   26.9818 H   0  0  0  0  0  0  0  0  0  0  0  0
   11.3554    8.7196   23.8700 H   0  0  0  0  0  0  0  0  0  0  0  0
    7.6447    8.5610   21.6708 H   0  0  0  0  0  0  0  0  0  0  0  0
    7.4725   13.7275   25.6129 H   0  0  0  0  0  0  0  0  0  0  0  0
    5.8401    9.7358   25.5277 H   0  0  0  0  0  0  0  0  0  0  0  0
    8.9219   13.1111   24.4652 H   0  0  0  0  0  0  0  0  0  0  0  0
   12.8408   15.1085   21.5365 H   0  0  0  0  0  0  0  0  0  0  0  0
   11.8810   16.5305   20.9169 H   0  0  0  0  0  0  0  0  0  0  0  0
    9.8916   15.8104   22.2838 H   0  0  0  0  0  0  0  0  0  0  0  0
   11.7783   11.4944   23.3606 H   0  0  0  0  0  0  0  0  0  0  0  0
   11.0518   11.0208   21.8245 H   0  0  0  0  0  0  0  0  0  0  0  0
   10.9153   13.2109   21.3054 H   0  0  0  0  0  0  0  0  0  0  0  0
  1  3  1  0  0  0  0
  1  4  2  0  0  0  0
  2  5  1  0  0  0  0
  2  6  2  0  0  0  0
  3  7  2  0  0  0  0
  4  8  1  0  0  0  0
  5  9  2  0  0  0  0
  6 10  1  0  0  0  0
  7 12  1  0  0  0  0
  8 12  2  0  0  0  0
  9 14  1  0  0  0  0
 10 14  2  0  0  0  0
 11 13  2  0  0  0  0
 11 21  1  0  0  0  0
 12 15  1  0  0  0  0
 13 15  1  0  0  0  0
 13 19  1  0  0  0  0
 14 21  1  0  0  0  0
 15 20  2  0  0  0  0
 16 18  1  0  0  0  0
 16 22  1  0  0  0  0
 16 23  2  0  0  0  0
 17 18  1  0  0  0  0
 17 24  1  0  0  0  0
 18 24  1  0  0  0  0
 19 22  1  0  0  0  0
 20 21  1  0  0  0  0
  1 25  1  0  0  0  0
  2 26  1  0  0  0  0
  3 27  1  0  0  0  0
  4 28  1  0  0  0  0
  5 29  1  0  0  0  0
  6 30  1  0  0  0  0
  7 31  1  0  0  0  0
  8 32  1  0  0  0  0
  9 33  1  0  0  0  0
 10 34  1  0  0  0  0
 11 35  1  0  0  0  0
 17 36  1  0  0  0  0
 17 37  1  0  0  0  0
 18 38  1  0  0  0  0
 19 39  1  0  0  0  0
 19 40  1  0  0  0  0
 22 41  1  0  0  0  0
M  END
> <Catalog ID>
Z3687615257

> <MW>
319.357

> <MW (desalted)>
319.357

> <ClogP>
3.407

> <logS>
-4.323

> <HBD>
1

> <HBA>
3

> <TPSA>
59.45

> <RotBonds>
5

> <ROCS_ShapeQuery>
A71EV2A-x0451_0A_A71EV2A-x0310_0A_A71EV2A-x0416_0A_peptide

> <ROCS_TanimotoCombo>
0.540 

> <ROCS_ShapeTanimoto>
0.353 

> <ROCS_ColorTanimoto>
0.187 

> <ROCS_RefTversky>
0.314 

> <ROCS_RefColorTversky>
0.200 

> <ROCS_RefTverskyCombo>
0.514 

> <ROCS_FitTversky>
1.542 

> <ROCS_FitColorTversky>
0.740 

> <ROCS_FitTverskyCombo>
2.282 

> <ROCS_ColorScore>
-6.092

> <ROCS_Overlap>
2181.980

> <ROCS_Rank>
93                  

$$$$
untitled-dbase-3270_864
  -OEChem-11132309573D

 35 35  0     0  0  0  0  0  0999 V2000
    8.4746   12.2558   24.5981 C   0  0  0  0  0  0  0  0  0  0  0  0
    9.8351   10.8925   23.1396 C   0  0  0  0  0  0  0  0  0  0  0  0
    9.5740   12.1189   23.7507 C   0  0  0  0  0  0  0  0  0  0  0  0
    7.6363   11.1662   24.8345 C   0  0  0  0  0  0  0  0  0  0  0  0
    8.9968    9.8030   23.3759 C   0  0  0  0  0  0  0  0  0  0  0  0
    7.8974    9.9399   24.2234 C   0  0  0  0  0  0  0  0  0  0  0  0
    6.4945   11.3320   25.7236 C   0  0  0  0  0  0  0  0  0  0  0  0
   10.4473   13.2551   23.5029 C   0  0  0  0  0  0  0  0  0  0  0  0
    9.2924    8.4984   22.7121 C   0  0  0  0  0  0  0  0  0  0  0  0
   12.0525   14.3228   21.9004 C   0  0  0  0  0  0  0  0  0  0  0  0
   13.4537   13.9614   22.3581 C   0  0  0  0  0  0  0  0  0  0  0  0
   14.5878   13.0896   24.2227 C   0  0  0  0  0  0  0  0  0  0  0  0
   14.3075   12.5740   25.6103 C   0  0  0  0  0  0  0  0  0  0  0  0
   11.1324   13.2757   22.2825 N   0  0  0  0  0  0  0  0  0  0  0  0
    6.2288   12.3976   26.2840 O   0  0  0  0  0  0  0  0  0  0  0  0
   10.5810   14.1471   24.3594 O   0  0  0  0  0  0  0  0  0  0  0  0
    7.0809    8.8718   24.4550 O   0  0  0  0  0  0  0  0  0  0  0  0
   13.4732   13.8489   23.7755 O   0  0  0  0  0  0  0  0  0  0  0  0
   14.0896   13.5986   26.4635 F   0  0  0  0  0  0  0  0  0  0  0  0
   15.3478   11.8572   26.0858 F   0  0  0  0  0  0  0  0  0  0  0  0
   13.2123   11.7853   25.6276 F   0  0  0  0  0  0  0  0  0  0  0  0
    8.2716   13.2129   25.0740 H   0  0  0  0  0  0  0  0  0  0  0  0
   10.6918   10.7849   22.4779 H   0  0  0  0  0  0  0  0  0  0  0  0
    5.8465   10.4455   25.8910 H   0  0  0  0  0  0  0  0  0  0  0  0
    9.9510    7.8911   23.3439 H   0  0  0  0  0  0  0  0  0  0  0  0
    8.3719    7.9327   22.5217 H   0  0  0  0  0  0  0  0  0  0  0  0
    9.7808    8.6492   21.7413 H   0  0  0  0  0  0  0  0  0  0  0  0
   11.7152   15.2590   22.3564 H   0  0  0  0  0  0  0  0  0  0  0  0
   12.0216   14.4233   20.8113 H   0  0  0  0  0  0  0  0  0  0  0  0
   14.1565   14.7501   22.0721 H   0  0  0  0  0  0  0  0  0  0  0  0
   13.7864   13.0124   21.9250 H   0  0  0  0  0  0  0  0  0  0  0  0
   15.4737   13.7314   24.2231 H   0  0  0  0  0  0  0  0  0  0  0  0
   14.7491   12.2589   23.5293 H   0  0  0  0  0  0  0  0  0  0  0  0
   11.0358   12.4913   21.6461 H   0  0  0  0  0  0  0  0  0  0  0  0
    7.3947    8.0991   23.9608 H   0  0  0  0  0  0  0  0  0  0  0  0
  1  3  1  0  0  0  0
  1  4  2  0  0  0  0
  2  3  2  0  0  0  0
  2  5  1  0  0  0  0
  3  8  1  0  0  0  0
  4  6  1  0  0  0  0
  4  7  1  0  0  0  0
  5  6  2  0  0  0  0
  5  9  1  0  0  0  0
  6 17  1  0  0  0  0
  7 15  2  0  0  0  0
  8 14  1  0  0  0  0
  8 16  2  0  0  0  0
 10 11  1  0  0  0  0
 10 14  1  0  0  0  0
 11 18  1  0  0  0  0
 12 13  1  0  0  0  0
 12 18  1  0  0  0  0
 13 19  1  0  0  0  0
 13 20  1  0  0  0  0
 13 21  1  0  0  0  0
  1 22  1  0  0  0  0
  2 23  1  0  0  0  0
  7 24  1  0  0  0  0
  9 25  1  0  0  0  0
  9 26  1  0  0  0  0
  9 27  1  0  0  0  0
 10 28  1  0  0  0  0
 10 29  1  0  0  0  0
 11 30  1  0  0  0  0
 11 31  1  0  0  0  0
 12 32  1  0  0  0  0
 12 33  1  0  0  0  0
 14 34  1  0  0  0  0
 17 35  1  0  0  0  0
M  END
> <Catalog ID>
Z3016324100

> <MW>
305.25

> <MW (desalted)>
305.25

> <ClogP>
2.122

> <logS>
-2.932

> <HBD>
2

> <HBA>
4

> <TPSA>
75.63

> <RotBonds>
7

> <ROCS_ShapeQuery>
A71EV2A-x0451_0A_A71EV2A-x0310_0A_A71EV2A-x0416_0A_peptide

> <ROCS_TanimotoCombo>
0.540 

> <ROCS_ShapeTanimoto>
0.338 

> <ROCS_ColorTanimoto>
0.201 

> <ROCS_RefTversky>
0.298 

> <ROCS_RefColorTversky>
0.213 

> <ROCS_RefTverskyCombo>
0.511 

> <ROCS_FitTversky>
1.666 

> <ROCS_FitColorTversky>
0.787 

> <ROCS_FitTverskyCombo>
2.453 

> <ROCS_ColorScore>
-6.485

> <ROCS_Overlap>
2068.749

> <ROCS_Rank>
94                  

$$$$
untitled-dbase-8475_898
  -OEChem-11132309573D

 45 47  0     1  0  0  0  0  0999 V2000
   15.2269   12.4391   25.9907 C   0  0  0  0  0  0  0  0  0  0  0  0
    6.5796   13.0656   25.3306 C   0  0  0  0  0  0  0  0  0  0  0  0
    6.1155   11.9063   25.9572 C   0  0  0  0  0  0  0  0  0  0  0  0
    7.6149   13.0126   24.3872 C   0  0  0  0  0  0  0  0  0  0  0  0
    6.6660   10.6546   25.6662 C   0  0  0  0  0  0  0  0  0  0  0  0
    8.1831   11.7642   24.0790 C   0  0  0  0  0  0  0  0  0  0  0  0
    9.2094   11.3006   23.2142 C   0  0  0  0  0  0  0  0  0  0  0  0
    7.6932   10.6334   24.7245 C   0  0  0  0  0  0  0  0  0  0  0  0
    9.2759    9.9374   23.3872 C   0  0  0  0  0  0  0  0  0  0  0  0
   10.5859   14.5019   22.7371 C   0  0  0  0  0  0  0  0  0  0  0  0
   12.5460   11.3797   23.5266 C   0  0  0  0  0  0  0  0  0  0  0  0
   13.1245   13.3772   24.0295 C   0  0  0  0  0  0  0  0  0  0  0  0
   13.8200   11.9984   24.1546 C   0  0  1  0  0  0  0  0  0  0  0  0
   11.7710   12.6331   23.9890 C   0  0  1  0  0  0  0  0  0  0  0  0
   10.3977    7.7261   23.7589 C   0  0  0  0  0  0  0  0  0  0  0  0
   14.1545   11.5459   25.5678 C   0  0  0  0  0  0  0  0  0  0  0  0
   10.0556   12.1303   22.2925 C   0  0  0  0  0  0  0  0  0  0  0  0
   10.1159    8.8860   22.7945 C   0  0  0  0  0  0  0  0  0  0  0  0
   10.1495   14.8081   21.3183 C   0  0  0  0  0  0  0  0  0  0  0  0
   16.0815   13.1363   26.3517 N   0  0  0  0  0  0  0  0  0  0  0  0
   10.8184   13.1447   23.0155 N   0  0  0  0  0  0  0  0  0  0  0  0
   10.7216   15.3973   23.5746 O   0  0  0  0  0  0  0  0  0  0  0  0
    8.3604    9.5229   24.3014 O   0  0  0  0  0  0  0  0  0  0  0  0
   11.3653   14.2517   20.1510 Cl  0  0  0  0  0  0  0  0  0  0  0  0
    6.1321   14.0249   25.5780 H   0  0  0  0  0  0  0  0  0  0  0  0
    5.3108   11.9800   26.6846 H   0  0  0  0  0  0  0  0  0  0  0  0
    7.9641   13.9227   23.9089 H   0  0  0  0  0  0  0  0  0  0  0  0
    6.3112    9.7514   26.1481 H   0  0  0  0  0  0  0  0  0  0  0  0
   12.6145   11.2618   22.4381 H   0  0  0  0  0  0  0  0  0  0  0  0
   12.2083   10.4329   23.9580 H   0  0  0  0  0  0  0  0  0  0  0  0
   13.2590   14.0621   24.8718 H   0  0  0  0  0  0  0  0  0  0  0  0
   13.3808   13.9080   23.1044 H   0  0  0  0  0  0  0  0  0  0  0  0
   14.7049   11.9039   23.5125 H   0  0  0  0  0  0  0  0  0  0  0  0
   11.3091   12.5165   24.9771 H   0  0  0  0  0  0  0  0  0  0  0  0
   10.8569    8.0945   24.6826 H   0  0  0  0  0  0  0  0  0  0  0  0
   11.0750    6.9906   23.3136 H   0  0  0  0  0  0  0  0  0  0  0  0
    9.4683    7.2125   24.0274 H   0  0  0  0  0  0  0  0  0  0  0  0
   14.4728   10.5087   25.5419 H   0  0  0  0  0  0  0  0  0  0  0  0
   13.2710   11.6444   26.1902 H   0  0  0  0  0  0  0  0  0  0  0  0
   10.7659   11.4990   21.7474 H   0  0  0  0  0  0  0  0  0  0  0  0
    9.4384   12.6433   21.5475 H   0  0  0  0  0  0  0  0  0  0  0  0
    9.6533    8.4669   21.8775 H   0  0  0  0  0  0  0  0  0  0  0  0
   11.0892    9.2916   22.4497 H   0  0  0  0  0  0  0  0  0  0  0  0
    9.2152   14.2888   21.0910 H   0  0  0  0  0  0  0  0  0  0  0  0
   10.0345   15.8867   21.1844 H   0  0  0  0  0  0  0  0  0  0  0  0
  1 16  1  0  0  0  0
  1 20  3  0  0  0  0
  2  3  1  0  0  0  0
  2  4  2  0  0  0  0
  3  5  2  0  0  0  0
  4  6  1  0  0  0  0
  5  8  1  0  0  0  0
  6  7  1  0  0  0  0
  6  8  2  0  0  0  0
  7  9  2  0  0  0  0
  7 17  1  0  0  0  0
  8 23  1  0  0  0  0
  9 18  1  0  0  0  0
  9 23  1  0  0  0  0
 10 19  1  0  0  0  0
 10 21  1  0  0  0  0
 10 22  2  0  0  0  0
 11 13  1  0  0  0  0
 11 14  1  0  0  0  0
 12 13  1  0  0  0  0
 12 14  1  0  0  0  0
 13 16  1  6  0  0  0
 14 21  1  1  0  0  0
 15 18  1  0  0  0  0
 17 21  1  0  0  0  0
 19 24  1  0  0  0  0
  2 25  1  0  0  0  0
  3 26  1  0  0  0  0
  4 27  1  0  0  0  0
  5 28  1  0  0  0  0
 11 29  1  0  0  0  0
 11 30  1  0  0  0  0
 12 31  1  0  0  0  0
 12 32  1  0  0  0  0
 13 33  1  0  0  0  0
 14 34  1  0  0  0  0
 15 35  1  0  0  0  0
 15 36  1  0  0  0  0
 15 37  1  0  0  0  0
 16 38  1  0  0  0  0
 16 39  1  0  0  0  0
 17 40  1  0  0  0  0
 17 41  1  0  0  0  0
 18 42  1  0  0  0  0
 18 43  1  0  0  0  0
 19 44  1  0  0  0  0
 19 45  1  0  0  0  0
M  END
> <Catalog ID>
Z4937396440

> <MW>
344.835

> <MW (desalted)>
344.835

> <ClogP>
2.932

> <logS>
-4.385

> <HBD>
0

> <HBA>
2

> <TPSA>
57.24

> <RotBonds>
6

> <ROCS_ShapeQuery>
A71EV2A-x0451_0A_A71EV2A-x0310_0A_A71EV2A-x0416_0A_peptide

> <ROCS_TanimotoCombo>
0.540 

> <ROCS_ShapeTanimoto>
0.384 

> <ROCS_ColorTanimoto>
0.156 

> <ROCS_RefTversky>
0.332 

> <ROCS_RefColorTversky>
0.172 

> <ROCS_RefTverskyCombo>
0.503 

> <ROCS_FitTversky>
1.684 

> <ROCS_FitColorTversky>
0.633 

> <ROCS_FitTverskyCombo>
2.317 

> <ROCS_ColorScore>
-5.226

> <ROCS_Overlap>
2305.943

> <ROCS_Rank>
95                  

$$$$
untitled-dbase-6086_206
  -OEChem-11132309573D

 43 45  0     0  0  0  0  0  0999 V2000
   13.3050   16.9566   18.1240 C   0  0  0  0  0  0  0  0  0  0  0  0
   12.3617   16.0822   18.6560 C   0  0  0  0  0  0  0  0  0  0  0  0
    9.6828   10.7844   23.2424 C   0  0  0  0  0  0  0  0  0  0  0  0
    8.8373    9.7168   23.5440 C   0  0  0  0  0  0  0  0  0  0  0  0
   14.4822   17.2016   18.8200 C   0  0  0  0  0  0  0  0  0  0  0  0
   11.6620   14.5647   20.4473 C   0  0  0  0  0  0  0  0  0  0  0  0
    8.3344   12.2415   24.6192 C   0  0  0  0  0  0  0  0  0  0  0  0
   12.5944   15.4493   19.8888 C   0  0  0  0  0  0  0  0  0  0  0  0
    9.4314   12.0467   23.7801 C   0  0  0  0  0  0  0  0  0  0  0  0
   13.7873   15.6935   20.6010 C   0  0  0  0  0  0  0  0  0  0  0  0
   11.9213   13.9556   21.6667 C   0  0  0  0  0  0  0  0  0  0  0  0
    7.4888   11.1739   24.9208 C   0  0  0  0  0  0  0  0  0  0  0  0
    7.7402    9.9116   24.3832 C   0  0  0  0  0  0  0  0  0  0  0  0
   14.7134   16.5722   20.0456 C   0  0  0  0  0  0  0  0  0  0  0  0
   13.1158   14.2565   22.2890 C   0  0  0  0  0  0  0  0  0  0  0  0
    4.2379   13.4124   27.8784 C   0  0  0  0  0  0  0  0  0  0  0  0
    4.7712   12.3872   27.2066 C   0  0  0  0  0  0  0  0  0  0  0  0
   10.3252   13.1733   23.4614 C   0  0  0  0  0  0  0  0  0  0  0  0
    6.0000   12.5769   26.3824 C   0  0  0  0  0  0  0  0  0  0  0  0
   13.4611   13.6378   23.6044 C   0  0  0  0  0  0  0  0  0  0  0  0
   14.0418   15.1038   21.7845 N   0  0  0  0  0  0  0  0  0  0  0  0
   10.9945   13.0752   22.2243 N   0  0  0  0  0  0  0  0  0  0  0  0
    6.3941   11.3842   25.7626 N   0  0  0  0  0  0  0  0  0  0  0  0
   10.4813   14.1005   24.2531 O   0  0  0  0  0  0  0  0  0  0  0  0
    6.5481   13.6699   26.3012 O   0  0  0  0  0  0  0  0  0  0  0  0
    6.9255    8.8555   24.6639 O   0  0  0  0  0  0  0  0  0  0  0  0
   15.8588   16.8288   20.6961 F   0  0  0  0  0  0  0  0  0  0  0  0
   13.1215   17.4434   17.1712 H   0  0  0  0  0  0  0  0  0  0  0  0
   11.4436   15.8969   18.1025 H   0  0  0  0  0  0  0  0  0  0  0  0
   10.5348   10.6218   22.5872 H   0  0  0  0  0  0  0  0  0  0  0  0
    9.0400    8.7360   23.1224 H   0  0  0  0  0  0  0  0  0  0  0  0
   15.2237   17.8829   18.4135 H   0  0  0  0  0  0  0  0  0  0  0  0
   10.7312   14.3518   19.9245 H   0  0  0  0  0  0  0  0  0  0  0  0
    8.1393   13.2267   25.0380 H   0  0  0  0  0  0  0  0  0  0  0  0
    3.3463   13.3124   28.4872 H   0  0  0  0  0  0  0  0  0  0  0  0
    4.6990   14.3932   27.8265 H   0  0  0  0  0  0  0  0  0  0  0  0
    4.3112   11.4063   27.2582 H   0  0  0  0  0  0  0  0  0  0  0  0
   14.0005   12.6963   23.4507 H   0  0  0  0  0  0  0  0  0  0  0  0
   14.0896   14.3075   24.2040 H   0  0  0  0  0  0  0  0  0  0  0  0
   12.5593   13.4326   24.1941 H   0  0  0  0  0  0  0  0  0  0  0  0
   10.7702   12.2472   21.6601 H   0  0  0  0  0  0  0  0  0  0  0  0
    5.8062   10.5639   25.9501 H   0  0  0  0  0  0  0  0  0  0  0  0
    7.2424    8.0590   24.2104 H   0  0  0  0  0  0  0  0  0  0  0  0
  1  2  2  0  0  0  0
  1  5  1  0  0  0  0
  2  8  1  0  0  0  0
  3  4  2  0  0  0  0
  3  9  1  0  0  0  0
  4 13  1  0  0  0  0
  5 14  2  0  0  0  0
  6  8  2  0  0  0  0
  6 11  1  0  0  0  0
  7  9  2  0  0  0  0
  7 12  1  0  0  0  0
  8 10  1  0  0  0  0
  9 18  1  0  0  0  0
 10 14  1  0  0  0  0
 10 21  2  0  0  0  0
 11 15  2  0  0  0  0
 11 22  1  0  0  0  0
 12 13  2  0  0  0  0
 12 23  1  0  0  0  0
 13 26  1  0  0  0  0
 14 27  1  0  0  0  0
 15 20  1  0  0  0  0
 15 21  1  0  0  0  0
 16 17  2  0  0  0  0
 17 19  1  0  0  0  0
 18 22  1  0  0  0  0
 18 24  2  0  0  0  0
 19 23  1  0  0  0  0
 19 25  2  0  0  0  0
  1 28  1  0  0  0  0
  2 29  1  0  0  0  0
  3 30  1  0  0  0  0
  4 31  1  0  0  0  0
  5 32  1  0  0  0  0
  6 33  1  0  0  0  0
  7 34  1  0  0  0  0
 16 35  1  0  0  0  0
 16 36  1  0  0  0  0
 17 37  1  0  0  0  0
 20 38  1  0  0  0  0
 20 39  1  0  0  0  0
 20 40  1  0  0  0  0
 22 41  1  0  0  0  0
 23 42  1  0  0  0  0
 26 43  1  0  0  0  0
M  END
> <Catalog ID>
Z3756848940

> <MW>
365.358

> <MW (desalted)>
365.358

> <ClogP>
2.708

> <logS>
-4.871

> <HBD>
3

> <HBA>
4

> <TPSA>
91.32

> <RotBonds>
4

> <ROCS_ShapeQuery>
A71EV2A-x0451_0A_A71EV2A-x0310_0A_A71EV2A-x0416_0A_peptide

> <ROCS_TanimotoCombo>
0.539 

> <ROCS_ShapeTanimoto>
0.369 

> <ROCS_ColorTanimoto>
0.171 

> <ROCS_RefTversky>
0.329 

> <ROCS_RefColorTversky>
0.203 

> <ROCS_RefTverskyCombo>
0.532 

> <ROCS_FitTversky>
1.483 

> <ROCS_FitColorTversky>
0.517 

> <ROCS_FitTverskyCombo>
2.001 

> <ROCS_ColorScore>
-6.228

> <ROCS_Overlap>
2290.138

> <ROCS_Rank>
96                  

$$$$
untitled-dbase-10491_205
  -OEChem-11132309573D

 47 51  0     1  0  0  0  0  0999 V2000
   12.9060   17.1520   20.5954 C   0  0  0  0  0  0  0  0  0  0  0  0
   13.1971   15.1329   19.3010 C   0  0  0  0  0  0  0  0  0  0  0  0
   13.6095   17.8723   19.6301 C   0  0  0  0  0  0  0  0  0  0  0  0
   13.9006   15.8532   18.3356 C   0  0  0  0  0  0  0  0  0  0  0  0
   12.6998   15.7822   20.4309 C   0  0  0  0  0  0  0  0  0  0  0  0
   14.1068   17.2229   18.5002 C   0  0  0  0  0  0  0  0  0  0  0  0
    9.7647   10.2012   23.4309 C   0  0  0  0  0  0  0  0  0  0  0  0
    6.8819   10.7823   26.0099 C   0  0  0  0  0  0  0  0  0  0  0  0
    7.0079   12.2958   25.7305 C   0  0  0  0  0  0  0  0  0  0  0  0
    6.9577   11.1346   23.6618 C   0  0  0  0  0  0  0  0  0  0  0  0
   11.8576   13.5015   23.8873 C   0  0  0  0  0  0  0  0  0  0  0  0
   12.4173   13.5404   21.5435 C   0  0  0  0  0  0  0  0  0  0  0  0
   11.3889   14.9502   23.7761 C   0  0  0  0  0  0  0  0  0  0  0  0
   11.9355   14.9999   21.4779 C   0  0  1  0  0  0  0  0  0  0  0  0
    8.9712   10.3656   24.7501 C   0  0  2  0  0  0  0  0  0  0  0  0
    7.4477   10.1486   24.7234 C   0  0  1  0  0  0  0  0  0  0  0  0
    7.6434   12.3313   24.3253 C   0  0  2  0  0  0  0  0  0  0  0  0
    9.1052   11.8897   24.4994 C   0  0  2  0  0  0  0  0  0  0  0  0
   10.4001   12.3948   22.2834 C   0  0  0  0  0  0  0  0  0  0  0  0
    9.8082   11.5468   23.2717 N   0  0  0  0  0  0  0  0  0  0  0  0
   11.7717   12.7699   22.6166 N   0  0  2  0  0  0  0  0  0  0  0  0
   10.1827    9.2782   22.7710 O   0  0  0  0  0  0  0  0  0  0  0  0
   12.1138   15.6319   22.7524 O   0  0  0  0  0  0  0  0  0  0  0  0
   14.7801   17.9151   17.5719 F   0  0  0  0  0  0  0  0  0  0  0  0
   12.5230   17.6665   21.4728 H   0  0  0  0  0  0  0  0  0  0  0  0
   13.0410   14.0660   19.1641 H   0  0  0  0  0  0  0  0  0  0  0  0
   13.7695   18.9387   19.7577 H   0  0  0  0  0  0  0  0  0  0  0  0
   14.2883   15.3479   17.4561 H   0  0  0  0  0  0  0  0  0  0  0  0
    7.4386   10.4887   26.9057 H   0  0  0  0  0  0  0  0  0  0  0  0
    5.8292   10.5129   26.1503 H   0  0  0  0  0  0  0  0  0  0  0  0
    6.0158   12.7608   25.7241 H   0  0  0  0  0  0  0  0  0  0  0  0
    7.6217   12.7969   26.4858 H   0  0  0  0  0  0  0  0  0  0  0  0
    7.3258   10.9174   22.6551 H   0  0  0  0  0  0  0  0  0  0  0  0
    5.8665   11.2263   23.6287 H   0  0  0  0  0  0  0  0  0  0  0  0
   12.9020   13.4872   24.2577 H   0  0  0  0  0  0  0  0  0  0  0  0
   11.2437   12.9928   24.6543 H   0  0  0  0  0  0  0  0  0  0  0  0
   12.2216   13.0538   20.5678 H   0  0  0  0  0  0  0  0  0  0  0  0
   13.5181   13.5172   21.6825 H   0  0  0  0  0  0  0  0  0  0  0  0
   10.3143   15.0119   23.5665 H   0  0  0  0  0  0  0  0  0  0  0  0
   11.5731   15.4736   24.7195 H   0  0  0  0  0  0  0  0  0  0  0  0
   10.8623   15.0436   21.2049 H   0  0  0  0  0  0  0  0  0  0  0  0
    9.4976    9.9727   25.6253 H   0  0  0  0  0  0  0  0  0  0  0  0
    7.1544    9.1082   24.5714 H   0  0  0  0  0  0  0  0  0  0  0  0
    7.5270   13.2872   23.8107 H   0  0  0  0  0  0  0  0  0  0  0  0
    9.7214   12.4523   25.2065 H   0  0  0  0  0  0  0  0  0  0  0  0
    9.7996   13.3040   22.2004 H   0  0  0  0  0  0  0  0  0  0  0  0
   10.4055   11.8665   21.3268 H   0  0  0  0  0  0  0  0  0  0  0  0
  1  3  2  0  0  0  0
  1  5  1  0  0  0  0
  2  4  1  0  0  0  0
  2  5  2  0  0  0  0
  3  6  1  0  0  0  0
  4  6  2  0  0  0  0
  5 14  1  0  0  0  0
  6 24  1  0  0  0  0
  7 15  1  0  0  0  0
  7 20  1  0  0  0  0
  7 22  2  0  0  0  0
  8  9  1  0  0  0  0
  8 16  1  0  0  0  0
  9 17  1  0  0  0  0
 10 16  1  0  0  0  0
 10 17  1  0  0  0  0
 11 13  1  0  0  0  0
 11 21  1  0  0  0  0
 12 14  1  0  0  0  0
 12 21  1  0  0  0  0
 13 23  1  0  0  0  0
 14 23  1  0  0  0  0
 15 16  1  0  0  0  0
 15 18  1  0  0  0  0
 17 18  1  0  0  0  0
 18 20  1  0  0  0  0
 19 20  1  0  0  0  0
 19 21  1  0  0  0  0
  1 25  1  0  0  0  0
  2 26  1  0  0  0  0
  3 27  1  0  0  0  0
  4 28  1  0  0  0  0
  8 29  1  0  0  0  0
  8 30  1  0  0  0  0
  9 31  1  0  0  0  0
  9 32  1  0  0  0  0
 10 33  1  0  0  0  0
 10 34  1  0  0  0  0
 11 35  1  0  0  0  0
 11 36  1  0  0  0  0
 12 37  1  0  0  0  0
 12 38  1  0  0  0  0
 13 39  1  0  0  0  0
 13 40  1  0  0  0  0
 14 41  1  0  0  0  0
 15 42  1  0  0  0  0
 16 43  1  0  0  0  0
 17 44  1  0  0  0  0
 18 45  1  0  0  0  0
 19 46  1  0  0  0  0
 19 47  1  0  0  0  0
M  END
> <Catalog ID>
Z1230716997

> <MW>
330.397

> <MW (desalted)>
330.397

> <ClogP>
2.951

> <logS>
-3.738

> <HBD>
0

> <HBA>
3

> <TPSA>
32.78

> <RotBonds>
3

> <ROCS_ShapeQuery>
A71EV2A-x0451_0A_A71EV2A-x0310_0A_A71EV2A-x0416_0A_peptide

> <ROCS_TanimotoCombo>
0.539 

> <ROCS_ShapeTanimoto>
0.348 

> <ROCS_ColorTanimoto>
0.191 

> <ROCS_RefTversky>
0.311 

> <ROCS_RefColorTversky>
0.250 

> <ROCS_RefTverskyCombo>
0.561 

> <ROCS_FitTversky>
1.525 

> <ROCS_FitColorTversky>
0.446 

> <ROCS_FitTverskyCombo>
1.971 

> <ROCS_ColorScore>
-7.749

> <ROCS_Overlap>
2162.302

> <ROCS_Rank>
97                  

$$$$
untitled-dbase-4589_2187
  -OEChem-11132309573D

 31 33  0     1  0  0  0  0  0999 V2000
   10.2890   10.6891   23.6026 C   0  0  0  0  0  0  0  0  0  0  0  0
    8.7520   12.8767   24.5250 C   0  0  0  0  0  0  0  0  0  0  0  0
   10.8054   11.9866   23.5662 C   0  0  0  0  0  0  0  0  0  0  0  0
    9.0135   10.5214   24.1012 C   0  0  0  0  0  0  0  0  0  0  0  0
    8.2656   11.5858   24.5501 C   0  0  0  0  0  0  0  0  0  0  0  0
   10.0414   13.0741   24.0248 C   0  0  0  0  0  0  0  0  0  0  0  0
   14.1260   12.6668   24.5140 C   0  0  0  0  0  0  0  0  0  0  0  0
   14.7816   12.0218   26.9166 C   0  0  0  0  0  0  0  0  0  0  0  0
    7.0993    9.7783   24.7838 C   0  0  0  0  0  0  0  0  0  0  0  0
   15.0864   12.0258   25.4600 C   0  0  2  0  0  0  0  0  0  0  0  0
   12.1839   12.2034   23.0321 C   0  0  0  0  0  0  0  0  0  0  0  0
   10.3184   15.0996   22.8091 C   0  0  0  0  0  0  0  0  0  0  0  0
   13.2008   11.7943   23.9658 N   0  0  0  0  0  0  0  0  0  0  0  0
   14.2090   13.8689   24.2910 O   0  0  0  0  0  0  0  0  0  0  0  0
    8.3494    9.3390   24.2142 O   0  0  0  0  0  0  0  0  0  0  0  0
    7.0396   11.2031   25.0001 O   0  0  0  0  0  0  0  0  0  0  0  0
   15.6883   12.9682   26.3389 O   0  0  0  0  0  0  0  0  0  0  0  0
   10.5497   14.3392   23.9875 O   0  0  0  0  0  0  0  0  0  0  0  0
   11.3674   15.9491   22.6600 F   0  0  0  0  0  0  0  0  0  0  0  0
   10.3361   14.2730   21.7347 F   0  0  0  0  0  0  0  0  0  0  0  0
   10.8677    9.8411   23.2522 H   0  0  0  0  0  0  0  0  0  0  0  0
    8.1543   13.7087   24.8813 H   0  0  0  0  0  0  0  0  0  0  0  0
   13.8276   12.3919   27.2692 H   0  0  0  0  0  0  0  0  0  0  0  0
   15.2056   11.2208   27.5084 H   0  0  0  0  0  0  0  0  0  0  0  0
    6.2855    9.4912   24.1082 H   0  0  0  0  0  0  0  0  0  0  0  0
    6.9545    9.2714   25.7447 H   0  0  0  0  0  0  0  0  0  0  0  0
   15.6866   11.2492   25.0361 H   0  0  0  0  0  0  0  0  0  0  0  0
   12.3393   11.6384   22.1035 H   0  0  0  0  0  0  0  0  0  0  0  0
   12.3598   13.2608   22.7958 H   0  0  0  0  0  0  0  0  0  0  0  0
    9.3948   15.6874   22.8432 H   0  0  0  0  0  0  0  0  0  0  0  0
   13.2417   10.8138   24.2368 H   0  0  0  0  0  0  0  0  0  0  0  0
  1  3  1  0  0  0  0
  1  4  2  0  0  0  0
  2  5  2  0  0  0  0
  2  6  1  0  0  0  0
  3  6  2  0  0  0  0
  3 11  1  0  0  0  0
  4  5  1  0  0  0  0
  4 15  1  0  0  0  0
  5 16  1  0  0  0  0
  6 18  1  0  0  0  0
  7 10  1  0  0  0  0
  7 13  1  0  0  0  0
  7 14  2  0  0  0  0
  8 10  1  0  0  0  0
  8 17  1  0  0  0  0
  9 15  1  0  0  0  0
  9 16  1  0  0  0  0
 10 17  1  0  0  0  0
 11 13  1  0  0  0  0
 12 18  1  0  0  0  0
 12 19  1  0  0  0  0
 12 20  1  0  0  0  0
  1 21  1  0  0  0  0
  2 22  1  0  0  0  0
  8 23  1  0  0  0  0
  8 24  1  0  0  0  0
  9 25  1  0  0  0  0
  9 26  1  0  0  0  0
 10 27  1  0  0  0  0
 11 28  1  0  0  0  0
 11 29  1  0  0  0  0
 12 30  1  0  0  0  0
 13 31  1  0  0  0  0
M  END
> <Catalog ID>
Z3687634403

> <MW>
287.216

> <MW (desalted)>
287.216

> <ClogP>
1.958

> <logS>
-3.135

> <HBD>
1

> <HBA>
5

> <TPSA>
69.32

> <RotBonds>
5

> <ROCS_ShapeQuery>
A71EV2A-x0451_0A_A71EV2A-x0310_0A_A71EV2A-x0416_0A_peptide

> <ROCS_TanimotoCombo>
0.539 

> <ROCS_ShapeTanimoto>
0.318 

> <ROCS_ColorTanimoto>
0.221 

> <ROCS_RefTversky>
0.284 

> <ROCS_RefColorTversky>
0.236 

> <ROCS_RefTverskyCombo>
0.520 

> <ROCS_FitTversky>
1.598 

> <ROCS_FitColorTversky>
0.780 

> <ROCS_FitTverskyCombo>
2.378 

> <ROCS_ColorScore>
-7.190

> <ROCS_Overlap>
1972.413

> <ROCS_Rank>
98                  

$$$$
untitled-dbase-5116_11599
  -OEChem-11132309573D

 52 54  0     0  0  0  0  0  0999 V2000
   12.7781   15.5296   23.0945 C   0  0  0  0  0  0  0  0  0  0  0  0
   11.8621   16.1978   19.2850 C   0  0  0  0  0  0  0  0  0  0  0  0
   13.8787   15.1563   20.1131 C   0  0  0  0  0  0  0  0  0  0  0  0
    9.9185   10.2428   22.8244 C   0  0  0  0  0  0  0  0  0  0  0  0
   12.6139   16.9120   18.3521 C   0  0  0  0  0  0  0  0  0  0  0  0
   14.6306   15.8705   19.1801 C   0  0  0  0  0  0  0  0  0  0  0  0
    9.0887    9.2380   23.3217 C   0  0  0  0  0  0  0  0  0  0  0  0
    8.6720   11.8916   24.0753 C   0  0  0  0  0  0  0  0  0  0  0  0
   12.4945   15.3200   20.1655 C   0  0  0  0  0  0  0  0  0  0  0  0
    7.8421   10.8868   24.5726 C   0  0  0  0  0  0  0  0  0  0  0  0
    9.7102   11.5696   23.2012 C   0  0  0  0  0  0  0  0  0  0  0  0
   13.9982   16.7483   18.2997 C   0  0  0  0  0  0  0  0  0  0  0  0
    8.0504    9.5600   24.1958 C   0  0  0  0  0  0  0  0  0  0  0  0
   11.7014   14.5668   21.1495 C   0  0  0  0  0  0  0  0  0  0  0  0
   11.8297   14.6503   22.4886 C   0  0  0  0  0  0  0  0  0  0  0  0
    6.7488   11.2774   25.4996 C   0  0  0  0  0  0  0  0  0  0  0  0
   10.9050   13.7839   23.3168 C   0  0  0  0  0  0  0  0  0  0  0  0
    3.4133   12.5493   28.6849 C   0  0  0  0  0  0  0  0  0  0  0  0
    4.1787   13.7593   28.1566 C   0  0  0  0  0  0  0  0  0  0  0  0
    4.3553   11.4891   29.2483 C   0  0  0  0  0  0  0  0  0  0  0  0
    5.2404   13.3529   27.1360 C   0  0  0  0  0  0  0  0  0  0  0  0
    5.4168   11.0796   28.2286 C   0  0  0  0  0  0  0  0  0  0  0  0
    6.1910   12.2963   27.7098 C   0  0  0  0  0  0  0  0  0  0  0  0
   13.5466   16.2432   23.5914 N   0  0  0  0  0  0  0  0  0  0  0  0
   10.5405   12.5741   22.7030 N   0  0  0  0  0  0  0  0  0  0  0  0
    7.1453   11.8778   26.6848 N   0  0  0  0  0  0  0  0  0  0  0  0
    5.5848   11.0379   25.1892 O   0  0  0  0  0  0  0  0  0  0  0  0
   10.5330   14.1566   24.4267 O   0  0  0  0  0  0  0  0  0  0  0  0
   14.7318   17.4452   17.3894 O   0  0  0  0  0  0  0  0  0  0  0  0
    7.0457    8.2865   24.7883 Cl  0  0  0  0  0  0  0  0  0  0  0  0
   10.7839   16.3361   19.3137 H   0  0  0  0  0  0  0  0  0  0  0  0
   14.3860   14.4758   20.7927 H   0  0  0  0  0  0  0  0  0  0  0  0
   10.7248    9.9801   22.1441 H   0  0  0  0  0  0  0  0  0  0  0  0
   12.1157   17.5944   17.6689 H   0  0  0  0  0  0  0  0  0  0  0  0
   15.7086   15.7388   19.1440 H   0  0  0  0  0  0  0  0  0  0  0  0
    9.2654    8.2091   23.0187 H   0  0  0  0  0  0  0  0  0  0  0  0
    8.5094   12.9274   24.3666 H   0  0  0  0  0  0  0  0  0  0  0  0
   10.9555   13.9196   20.6934 H   0  0  0  0  0  0  0  0  0  0  0  0
    2.7103   12.8685   29.4624 H   0  0  0  0  0  0  0  0  0  0  0  0
    2.8172   12.1130   27.8740 H   0  0  0  0  0  0  0  0  0  0  0  0
    3.4785   14.4665   27.6978 H   0  0  0  0  0  0  0  0  0  0  0  0
    4.6587   14.2815   28.9934 H   0  0  0  0  0  0  0  0  0  0  0  0
    4.8461   11.8782   30.1489 H   0  0  0  0  0  0  0  0  0  0  0  0
    3.7788   10.6086   29.5535 H   0  0  0  0  0  0  0  0  0  0  0  0
    4.7442   12.9629   26.2378 H   0  0  0  0  0  0  0  0  0  0  0  0
    5.8051   14.2424   26.8320 H   0  0  0  0  0  0  0  0  0  0  0  0
    6.1059   10.3651   28.6949 H   0  0  0  0  0  0  0  0  0  0  0  0
    4.9301   10.5604   27.3928 H   0  0  0  0  0  0  0  0  0  0  0  0
    6.7821   12.7278   28.5121 H   0  0  0  0  0  0  0  0  0  0  0  0
   10.9347   12.4082   21.7703 H   0  0  0  0  0  0  0  0  0  0  0  0
    8.1320   11.9861   26.8991 H   0  0  0  0  0  0  0  0  0  0  0  0
   14.1533   18.0098   16.8524 H   0  0  0  0  0  0  0  0  0  0  0  0
  1 15  1  0  0  0  0
  1 24  3  0  0  0  0
  2  5  2  0  0  0  0
  2  9  1  0  0  0  0
  3  6  1  0  0  0  0
  3  9  2  0  0  0  0
  4  7  2  0  0  0  0
  4 11  1  0  0  0  0
  5 12  1  0  0  0  0
  6 12  2  0  0  0  0
  7 13  1  0  0  0  0
  8 10  1  0  0  0  0
  8 11  2  0  0  0  0
  9 14  1  4  0  0  0
 10 13  2  0  0  0  0
 10 16  1  0  0  0  0
 11 25  1  0  0  0  0
 12 29  1  0  0  0  0
 13 30  1  0  0  0  0
 14 15  2  0  0  0  0
 15 17  1  0  0  0  0
 16 26  1  0  0  0  0
 16 27  2  0  0  0  0
 17 25  1  0  0  0  0
 17 28  2  0  0  0  0
 18 19  1  0  0  0  0
 18 20  1  0  0  0  0
 19 21  1  0  0  0  0
 20 22  1  0  0  0  0
 21 23  1  0  0  0  0
 22 23  1  0  0  0  0
 23 26  1  0  0  0  0
  2 31  1  0  0  0  0
  3 32  1  0  0  0  0
  4 33  1  0  0  0  0
  5 34  1  0  0  0  0
  6 35  1  0  0  0  0
  7 36  1  0  0  0  0
  8 37  1  0  0  0  0
 14 38  1  0  0  0  0
 18 39  1  0  0  0  0
 18 40  1  0  0  0  0
 19 41  1  0  0  0  0
 19 42  1  0  0  0  0
 20 43  1  0  0  0  0
 20 44  1  0  0  0  0
 21 45  1  0  0  0  0
 21 46  1  0  0  0  0
 22 47  1  0  0  0  0
 22 48  1  0  0  0  0
 23 49  1  0  0  0  0
 25 50  1  0  0  0  0
 26 51  1  0  0  0  0
 29 52  1  0  0  0  0
M  END
> <Catalog ID>
Z1738867946

> <MW>
423.892

> <MW (desalted)>
423.892

> <ClogP>
3.398

> <logS>
-6.406

> <HBD>
3

> <HBA>
4

> <TPSA>
102.22

> <RotBonds>
5

> <ROCS_ShapeQuery>
A71EV2A-x0451_0A_A71EV2A-x0310_0A_A71EV2A-x0416_0A_peptide

> <ROCS_TanimotoCombo>
0.539 

> <ROCS_ShapeTanimoto>
0.378 

> <ROCS_ColorTanimoto>
0.161 

> <ROCS_RefTversky>
0.338 

> <ROCS_RefColorTversky>
0.188 

> <ROCS_RefTverskyCombo>
0.527 

> <ROCS_FitTversky>
1.453 

> <ROCS_FitColorTversky>
0.521 

> <ROCS_FitTverskyCombo>
1.973 

> <ROCS_ColorScore>
-5.772

> <ROCS_Overlap>
2354.860

> <ROCS_Rank>
99                  

$$$$
untitled-dbase-3959_7651
  -OEChem-11132309573D

 48 50  0     1  0  0  0  0  0999 V2000
   14.5711   16.1445   20.2882 C   0  0  0  0  0  0  0  0  0  0  0  0
   12.6087   15.3684   19.1118 C   0  0  0  0  0  0  0  0  0  0  0  0
   15.0090   16.7899   19.1319 C   0  0  0  0  0  0  0  0  0  0  0  0
   13.0467   16.0138   17.9554 C   0  0  0  0  0  0  0  0  0  0  0  0
    6.3286   13.9470   25.7725 C   0  0  0  0  0  0  0  0  0  0  0  0
    4.8806   13.2470   27.1668 C   0  0  0  0  0  0  0  0  0  0  0  0
   13.3709   15.4337   20.2782 C   0  0  0  0  0  0  0  0  0  0  0  0
   14.2468   16.7246   17.9655 C   0  0  0  0  0  0  0  0  0  0  0  0
    6.6394   12.6259   25.9931 C   0  0  0  0  0  0  0  0  0  0  0  0
   12.9082   14.7518   21.4994 C   0  0  0  0  0  0  0  0  0  0  0  0
   11.6251   14.5288   21.8095 C   0  0  0  0  0  0  0  0  0  0  0  0
    9.0109   10.3278   23.2711 C   0  0  0  0  0  0  0  0  0  0  0  0
    8.6242   12.5115   24.4460 C   0  0  0  0  0  0  0  0  0  0  0  0
    8.1078    9.6796   24.3139 C   0  0  0  0  0  0  0  0  0  0  0  0
    7.7355   11.7442   25.4359 C   0  0  2  0  0  0  0  0  0  0  0  0
    9.6821   11.5769   23.8497 C   0  0  2  0  0  0  0  0  0  0  0  0
   14.7146   17.4169   16.7301 C   0  0  0  0  0  0  0  0  0  0  0  0
    5.5891   10.8650   27.4480 C   0  0  0  0  0  0  0  0  0  0  0  0
    5.2330   14.3276   26.5063 N   0  0  0  0  0  0  0  0  0  0  0  0
    5.7034   12.1911   26.8887 N   0  0  0  0  0  0  0  0  0  0  0  0
   10.4590   12.2755   22.8283 N   0  0  0  0  0  0  0  0  0  0  0  0
   12.5739   13.3007   23.8803 O   0  0  0  0  0  0  0  0  0  0  0  0
   10.3812   14.5093   24.0676 O   0  0  0  0  0  0  0  0  0  0  0  0
    7.1377   10.6101   24.7943 O   0  0  0  0  0  0  0  0  0  0  0  0
   11.3047   13.6966   23.2955 S   0  0  0  0  0  0  0  0  0  0  0  0
   15.1762   16.2042   21.1897 H   0  0  0  0  0  0  0  0  0  0  0  0
   11.6709   14.8185   19.0885 H   0  0  0  0  0  0  0  0  0  0  0  0
   15.9451   17.3419   19.1489 H   0  0  0  0  0  0  0  0  0  0  0  0
   12.4467   15.9578   17.0509 H   0  0  0  0  0  0  0  0  0  0  0  0
    6.8365   14.6454   25.1231 H   0  0  0  0  0  0  0  0  0  0  0  0
    4.0483   13.1700   27.8531 H   0  0  0  0  0  0  0  0  0  0  0  0
   13.6945   14.4030   22.1660 H   0  0  0  0  0  0  0  0  0  0  0  0
   10.7910   14.8269   21.1875 H   0  0  0  0  0  0  0  0  0  0  0  0
    9.7642    9.6118   22.9233 H   0  0  0  0  0  0  0  0  0  0  0  0
    8.4071   10.6112   22.3990 H   0  0  0  0  0  0  0  0  0  0  0  0
    8.0085   12.9214   23.6327 H   0  0  0  0  0  0  0  0  0  0  0  0
    9.1026   13.3673   24.9384 H   0  0  0  0  0  0  0  0  0  0  0  0
    7.5694    8.8375   23.8677 H   0  0  0  0  0  0  0  0  0  0  0  0
    8.6891    9.2912   25.1583 H   0  0  0  0  0  0  0  0  0  0  0  0
    8.3480   11.3861   26.2928 H   0  0  0  0  0  0  0  0  0  0  0  0
   10.3793   11.2667   24.6608 H   0  0  0  0  0  0  0  0  0  0  0  0
   15.3411   16.7457   16.1301 H   0  0  0  0  0  0  0  0  0  0  0  0
   13.8684   17.7468   16.1135 H   0  0  0  0  0  0  0  0  0  0  0  0
   15.2991   18.3139   16.9731 H   0  0  0  0  0  0  0  0  0  0  0  0
    4.9404   10.2775   26.7930 H   0  0  0  0  0  0  0  0  0  0  0  0
    6.5814   10.4098   27.5116 H   0  0  0  0  0  0  0  0  0  0  0  0
    5.1608   10.9319   28.4520 H   0  0  0  0  0  0  0  0  0  0  0  0
   10.9556   11.6389   22.1950 H   0  0  0  0  0  0  0  0  0  0  0  0
  1  3  2  0  0  0  0
  1  7  1  0  0  0  0
  2  4  1  0  0  0  0
  2  7  2  0  0  0  0
  3  8  1  0  0  0  0
  4  8  2  0  0  0  0
  5  9  2  0  0  0  0
  5 19  1  0  0  0  0
  6 19  2  0  0  0  0
  6 20  1  0  0  0  0
  7 10  1  4  0  0  0
  8 17  1  0  0  0  0
  9 15  1  0  0  0  0
  9 20  1  0  0  0  0
 10 11  2  0  0  0  0
 11 25  1  0  0  0  0
 12 14  1  0  0  0  0
 12 16  1  0  0  0  0
 13 15  1  0  0  0  0
 13 16  1  0  0  0  0
 14 24  1  0  0  0  0
 15 24  1  0  0  0  0
 16 21  1  0  0  0  0
 18 20  1  0  0  0  0
 21 25  1  0  0  0  0
 22 25  2  0  0  0  0
 23 25  2  0  0  0  0
  1 26  1  0  0  0  0
  2 27  1  0  0  0  0
  3 28  1  0  0  0  0
  4 29  1  0  0  0  0
  5 30  1  0  0  0  0
  6 31  1  0  0  0  0
 10 32  1  0  0  0  0
 11 33  1  0  0  0  0
 12 34  1  0  0  0  0
 12 35  1  0  0  0  0
 13 36  1  0  0  0  0
 13 37  1  0  0  0  0
 14 38  1  0  0  0  0
 14 39  1  0  0  0  0
 15 40  1  0  0  0  0
 16 41  1  0  0  0  0
 17 42  1  0  0  0  0
 17 43  1  0  0  0  0
 17 44  1  0  0  0  0
 18 45  1  0  0  0  0
 18 46  1  0  0  0  0
 18 47  1  0  0  0  0
 21 48  1  0  0  0  0
M  END
> <Catalog ID>
Z1754515097

> <MW>
361.459

> <MW (desalted)>
361.459

> <ClogP>
0.939

> <logS>
-3.23

> <HBD>
1

> <HBA>
4

> <TPSA>
73.22

> <RotBonds>
4

> <ROCS_ShapeQuery>
A71EV2A-x0451_0A_A71EV2A-x0310_0A_A71EV2A-x0416_0A_peptide

> <ROCS_TanimotoCombo>
0.539 

> <ROCS_ShapeTanimoto>
0.339 

> <ROCS_ColorTanimoto>
0.199 

> <ROCS_RefTversky>
0.305 

> <ROCS_RefColorTversky>
0.221 

> <ROCS_RefTverskyCombo>
0.526 

> <ROCS_FitTversky>
1.510 

> <ROCS_FitColorTversky>
0.667 

> <ROCS_FitTverskyCombo>
2.177 

> <ROCS_ColorScore>
-6.764

> <ROCS_Overlap>
2116.579

> <ROCS_Rank>
100                 

$$$$
untitled-dbase-700_9
  -OEChem-11132309573D

 40 43  0     0  0  0  0  0  0999 V2000
   10.6759   14.8818   20.9023 C   0  0  0  0  0  0  0  0  0  0  0  0
   10.1580   14.3361   22.0768 C   0  0  0  0  0  0  0  0  0  0  0  0
   12.9119   14.6815   21.7950 C   0  0  0  0  0  0  0  0  0  0  0  0
    8.5490   12.0770   24.8010 C   0  0  0  0  0  0  0  0  0  0  0  0
   12.0529   15.0545   20.7613 C   0  0  0  0  0  0  0  0  0  0  0  0
    7.7619   12.8751   25.6627 C   0  0  0  0  0  0  0  0  0  0  0  0
   11.0171   13.9631   23.1105 C   0  0  0  0  0  0  0  0  0  0  0  0
   12.3941   14.1358   22.9696 C   0  0  0  0  0  0  0  0  0  0  0  0
    6.6140   12.2454   26.0601 C   0  0  0  0  0  0  0  0  0  0  0  0
    9.7697   12.2630   24.1479 C   0  0  0  0  0  0  0  0  0  0  0  0
    7.9177   10.8473   24.5957 C   0  0  0  0  0  0  0  0  0  0  0  0
    9.5607   10.1468   23.2598 C   0  0  0  0  0  0  0  0  0  0  0  0
   12.5928   15.6215   19.5358 C   0  0  0  0  0  0  0  0  0  0  0  0
    7.8605   14.2315   26.2570 C   0  0  0  0  0  0  0  0  0  0  0  0
    5.7648   13.0522   26.9662 C   0  0  0  0  0  0  0  0  0  0  0  0
    6.4147   14.4608   26.8004 C   0  0  0  0  0  0  0  0  0  0  0  0
   10.1546    9.0884   22.3904 C   0  0  0  0  0  0  0  0  0  0  0  0
   13.7425   12.4373   23.9456 C   0  0  0  0  0  0  0  0  0  0  0  0
   10.2777   11.2835   23.3691 N   0  0  0  0  0  0  0  0  0  0  0  0
    8.3812    9.8399   23.8305 N   0  0  0  0  0  0  0  0  0  0  0  0
   13.7999   15.7997   19.3504 O   0  0  0  0  0  0  0  0  0  0  0  0
   10.4925   13.4246   24.2668 O   0  0  0  0  0  0  0  0  0  0  0  0
   13.2437   13.7732   23.9708 O   0  0  0  0  0  0  0  0  0  0  0  0
    6.4240   10.7055   25.4389 S   0  0  0  0  0  0  0  0  0  0  0  0
    9.9971   15.1688   20.1033 H   0  0  0  0  0  0  0  0  0  0  0  0
    9.0845   14.2044   22.1806 H   0  0  0  0  0  0  0  0  0  0  0  0
   13.9863   14.8125   21.6874 H   0  0  0  0  0  0  0  0  0  0  0  0
   11.8691   15.9020   18.7397 H   0  0  0  0  0  0  0  0  0  0  0  0
    8.5839   14.2373   27.0790 H   0  0  0  0  0  0  0  0  0  0  0  0
    8.1336   14.9975   25.5261 H   0  0  0  0  0  0  0  0  0  0  0  0
    4.7107   13.0657   26.6764 H   0  0  0  0  0  0  0  0  0  0  0  0
    5.8592   12.7054   28.0002 H   0  0  0  0  0  0  0  0  0  0  0  0
    6.4068   15.0344   27.7323 H   0  0  0  0  0  0  0  0  0  0  0  0
    5.8420   15.0319   26.0575 H   0  0  0  0  0  0  0  0  0  0  0  0
   10.8004    8.4286   22.9815 H   0  0  0  0  0  0  0  0  0  0  0  0
    9.3742    8.4800   21.9163 H   0  0  0  0  0  0  0  0  0  0  0  0
   10.7514    9.5281   21.5813 H   0  0  0  0  0  0  0  0  0  0  0  0
   14.4075   12.2797   24.7983 H   0  0  0  0  0  0  0  0  0  0  0  0
   14.2837   12.2670   23.0115 H   0  0  0  0  0  0  0  0  0  0  0  0
   12.9016   11.7426   24.0091 H   0  0  0  0  0  0  0  0  0  0  0  0
  1  2  2  0  0  0  0
  1  5  1  0  0  0  0
  2  7  1  0  0  0  0
  3  5  2  0  0  0  0
  3  8  1  0  0  0  0
  4  6  1  0  0  0  0
  4 10  2  0  0  0  0
  4 11  1  0  0  0  0
  5 13  1  0  0  0  0
  6  9  2  0  0  0  0
  6 14  1  0  0  0  0
  7  8  2  0  0  0  0
  7 22  1  0  0  0  0
  8 23  1  0  0  0  0
  9 15  1  0  0  0  0
  9 24  1  0  0  0  0
 10 19  1  0  0  0  0
 10 22  1  0  0  0  0
 11 20  2  0  0  0  0
 11 24  1  0  0  0  0
 12 17  1  0  0  0  0
 12 19  2  0  0  0  0
 12 20  1  0  0  0  0
 13 21  2  0  0  0  0
 14 16  1  0  0  0  0
 15 16  1  0  0  0  0
 18 23  1  0  0  0  0
  1 25  1  0  0  0  0
  2 26  1  0  0  0  0
  3 27  1  0  0  0  0
 13 28  1  0  0  0  0
 14 29  1  0  0  0  0
 14 30  1  0  0  0  0
 15 31  1  0  0  0  0
 15 32  1  0  0  0  0
 16 33  1  0  0  0  0
 16 34  1  0  0  0  0
 17 35  1  0  0  0  0
 17 36  1  0  0  0  0
 17 37  1  0  0  0  0
 18 38  1  0  0  0  0
 18 39  1  0  0  0  0
 18 40  1  0  0  0  0
M  END
> <Catalog ID>
Z31204932

> <MW>
340.396

> <MW (desalted)>
340.396

> <ClogP>
3.783

> <logS>
-5.145

> <HBD>
0

> <HBA>
4

> <TPSA>
61.31

> <RotBonds>
4

> <ROCS_ShapeQuery>
A71EV2A-x0451_0A_A71EV2A-x0310_0A_A71EV2A-x0416_0A_peptide

> <ROCS_TanimotoCombo>
0.539 

> <ROCS_ShapeTanimoto>
0.381 

> <ROCS_ColorTanimoto>
0.157 

> <ROCS_RefTversky>
0.332 

> <ROCS_RefColorTversky>
0.181 

> <ROCS_RefTverskyCombo>
0.513 

> <ROCS_FitTversky>
1.634 

> <ROCS_FitColorTversky>
0.543 

> <ROCS_FitTverskyCombo>
2.177 

> <ROCS_ColorScore>
-5.541

> <ROCS_Overlap>
2309.251

> <ROCS_Rank>
101                 

$$$$
untitled-dbase-458_17251
  -OEChem-11132309573D

 44 46  0     1  0  0  0  0  0999 V2000
   14.2701   16.8087   19.6274 C   0  0  0  0  0  0  0  0  0  0  0  0
   13.1598   16.3255   20.3783 C   0  0  0  0  0  0  0  0  0  0  0  0
    8.1820   12.1941   24.2790 C   0  0  0  0  0  0  0  0  0  0  0  0
    9.1700   10.1726   23.5083 C   0  0  0  0  0  0  0  0  0  0  0  0
    7.1964   10.0670   24.6795 C   0  0  0  0  0  0  0  0  0  0  0  0
    9.2154   11.5541   23.6038 C   0  0  0  0  0  0  0  0  0  0  0  0
    7.1494   11.4436   24.8302 C   0  0  0  0  0  0  0  0  0  0  0  0
   14.3517   16.2177   18.3858 C   0  0  0  0  0  0  0  0  0  0  0  0
   12.4348   15.3836   19.6818 C   0  0  0  0  0  0  0  0  0  0  0  0
   10.8017   13.5008   23.4698 C   0  0  0  0  0  0  0  0  0  0  0  0
   13.3561   12.0773   22.1672 C   0  0  0  0  0  0  0  0  0  0  0  0
   13.2603   13.3463   22.9976 C   0  0  0  0  0  0  0  0  0  0  0  0
   12.7319   12.4947   20.8462 C   0  0  0  0  0  0  0  0  0  0  0  0
   11.9212   13.9524   22.5927 C   0  0  1  0  0  0  0  0  0  0  0  0
   15.3515   16.4476   17.3206 C   0  0  0  0  0  0  0  0  0  0  0  0
    8.1836    9.4098   24.0306 N   0  0  0  0  0  0  0  0  0  0  0  0
   11.6127   13.3902   21.2486 N   0  0  1  0  0  0  0  0  0  0  0  0
   10.2793   12.2908   23.0312 N   0  0  0  0  0  0  0  0  0  0  0  0
   10.4521   14.1700   24.4366 O   0  0  0  0  0  0  0  0  0  0  0  0
   10.0309   15.3442   20.6783 O   0  0  0  0  0  0  0  0  0  0  0  0
   10.6323   13.6809   18.8840 O   0  0  0  0  0  0  0  0  0  0  0  0
    6.2402   10.5982   27.5598 O   0  0  0  0  0  0  0  0  0  0  0  0
    4.3487   12.2634   27.2675 O   0  0  0  0  0  0  0  0  0  0  0  0
    6.1283   12.0408   25.4929 O   0  0  0  0  0  0  0  0  0  0  0  0
    4.4240   10.1995   26.0307 F   0  0  0  0  0  0  0  0  0  0  0  0
   13.0930   15.0853   18.1293 S   0  0  0  0  0  0  0  0  0  0  0  0
   10.9892   14.4422   20.0668 S   0  0  0  0  0  0  0  0  0  0  0  0
    5.3083   11.3249   26.7205 S   0  0  0  0  0  0  0  0  0  0  0  0
   14.9713   17.5526   19.9839 H   0  0  0  0  0  0  0  0  0  0  0  0
   12.9070   16.6533   21.3783 H   0  0  0  0  0  0  0  0  0  0  0  0
    8.1773   13.2766   24.3777 H   0  0  0  0  0  0  0  0  0  0  0  0
    9.9488    9.6167   22.9943 H   0  0  0  0  0  0  0  0  0  0  0  0
    6.4176    9.4320   25.0903 H   0  0  0  0  0  0  0  0  0  0  0  0
   14.3845   11.7243   22.0511 H   0  0  0  0  0  0  0  0  0  0  0  0
   12.7680   11.2761   22.6304 H   0  0  0  0  0  0  0  0  0  0  0  0
   13.3430   13.1445   24.0700 H   0  0  0  0  0  0  0  0  0  0  0  0
   14.0729   14.0273   22.7163 H   0  0  0  0  0  0  0  0  0  0  0  0
   13.4555   13.0475   20.2369 H   0  0  0  0  0  0  0  0  0  0  0  0
   12.3583   11.6343   20.2852 H   0  0  0  0  0  0  0  0  0  0  0  0
   11.9581   15.0455   22.5908 H   0  0  0  0  0  0  0  0  0  0  0  0
   16.2083   15.7643   17.4297 H   0  0  0  0  0  0  0  0  0  0  0  0
   14.9241   16.2953   16.3160 H   0  0  0  0  0  0  0  0  0  0  0  0
   15.7387   17.4797   17.3363 H   0  0  0  0  0  0  0  0  0  0  0  0
   10.7019   11.8747   22.2039 H   0  0  0  0  0  0  0  0  0  0  0  0
  1  2  1  0  0  0  0
  1  8  2  0  0  0  0
  2  9  2  0  0  0  0
  3  6  2  0  0  0  0
  3  7  1  0  0  0  0
  4  6  1  0  0  0  0
  4 16  2  0  0  0  0
  5  7  2  0  0  0  0
  5 16  1  0  0  0  0
  6 18  1  0  0  0  0
  7 24  1  0  0  0  0
  8 15  1  0  0  0  0
  8 26  1  0  0  0  0
  9 26  1  0  0  0  0
  9 27  1  0  0  0  0
 10 14  1  0  0  0  0
 10 18  1  0  0  0  0
 10 19  2  0  0  0  0
 11 12  1  0  0  0  0
 11 13  1  0  0  0  0
 12 14  1  0  0  0  0
 13 17  1  0  0  0  0
 14 17  1  0  0  0  0
 17 27  1  0  0  0  0
 20 27  2  0  0  0  0
 21 27  2  0  0  0  0
 22 28  2  0  0  0  0
 23 28  2  0  0  0  0
 24 28  1  0  0  0  0
 25 28  1  0  0  0  0
  1 29  1  0  0  0  0
  2 30  1  0  0  0  0
  3 31  1  0  0  0  0
  4 32  1  0  0  0  0
  5 33  1  0  0  0  0
 11 34  1  0  0  0  0
 11 35  1  0  0  0  0
 12 36  1  0  0  0  0
 12 37  1  0  0  0  0
 13 38  1  0  0  0  0
 13 39  1  0  0  0  0
 14 40  1  0  0  0  0
 15 41  1  0  0  0  0
 15 42  1  0  0  0  0
 15 43  1  0  0  0  0
 18 44  1  0  0  0  0
M  END
> <Catalog ID>
Z4607528765

> <MW>
449.497

> <MW (desalted)>
449.497

> <ClogP>
0.936

> <logS>
-4.256

> <HBD>
1

> <HBA>
6

> <TPSA>
122.74

> <RotBonds>
5

> <ROCS_ShapeQuery>
A71EV2A-x0451_0A_A71EV2A-x0310_0A_A71EV2A-x0416_0A_peptide

> <ROCS_TanimotoCombo>
0.539 

> <ROCS_ShapeTanimoto>
0.350 

> <ROCS_ColorTanimoto>
0.189 

> <ROCS_RefTversky>
0.316 

> <ROCS_RefColorTversky>
0.216 

> <ROCS_RefTverskyCombo>
0.532 

> <ROCS_FitTversky>
1.448 

> <ROCS_FitColorTversky>
0.598 

> <ROCS_FitTverskyCombo>
2.045 

> <ROCS_ColorScore>
-6.627

> <ROCS_Overlap>
2195.353

> <ROCS_Rank>
102                 

$$$$
untitled-dbase-8993_3398
  -OEChem-11132309573D

 50 53  0     0  0  0  0  0  0999 V2000
   11.8719    7.6277   21.0123 C   0  0  0  0  0  0  0  0  0  0  0  0
   12.3138    8.8649   21.4809 C   0  0  0  0  0  0  0  0  0  0  0  0
   10.5832    7.1873   21.3140 C   0  0  0  0  0  0  0  0  0  0  0  0
   11.4670    9.6618   22.2513 C   0  0  0  0  0  0  0  0  0  0  0  0
    9.7364    7.9842   22.0844 C   0  0  0  0  0  0  0  0  0  0  0  0
   10.1783    9.2215   22.5531 C   0  0  0  0  0  0  0  0  0  0  0  0
    9.3089   10.0392   23.3440 C   0  0  0  0  0  0  0  0  0  0  0  0
    9.3284   11.4135   23.3849 C   0  0  0  0  0  0  0  0  0  0  0  0
    7.7612   10.5782   24.7162 C   0  0  0  0  0  0  0  0  0  0  0  0
    6.6925   10.6928   25.6533 C   0  0  0  0  0  0  0  0  0  0  0  0
    6.2884   11.9123   26.0584 C   0  0  0  0  0  0  0  0  0  0  0  0
    6.9171   13.1262   25.5622 C   0  0  0  0  0  0  0  0  0  0  0  0
    7.9240   13.0265   24.6792 C   0  0  0  0  0  0  0  0  0  0  0  0
   15.5390   15.9794   18.9112 C   0  0  0  0  0  0  0  0  0  0  0  0
   14.5265   16.8023   19.1926 C   0  0  0  0  0  0  0  0  0  0  0  0
   14.0919   16.9446   20.5978 C   0  0  0  0  0  0  0  0  0  0  0  0
   10.5335   13.6095   23.1620 C   0  0  0  0  0  0  0  0  0  0  0  0
   11.1332   15.9399   22.5375 C   0  0  0  0  0  0  0  0  0  0  0  0
   11.7849   13.9549   21.0668 C   0  0  0  0  0  0  0  0  0  0  0  0
   12.6355   16.1872   22.4351 C   0  0  0  0  0  0  0  0  0  0  0  0
   12.4764   15.0257   20.2291 C   0  0  0  0  0  0  0  0  0  0  0  0
   10.7406   14.5525   22.0145 C   0  0  0  0  0  0  0  0  0  0  0  0
    8.3384    9.5283   24.1681 N   0  0  0  0  0  0  0  0  0  0  0  0
    8.3365   11.7631   24.2649 N   0  0  0  0  0  0  0  0  0  0  0  0
   13.1028   16.0721   21.0504 N   0  0  0  0  0  0  0  0  0  0  0  0
   10.1465   12.3531   22.7137 N   0  0  0  0  0  0  0  0  0  0  0  0
   14.6184   17.8247   21.2797 O   0  0  0  0  0  0  0  0  0  0  0  0
   10.7082   13.9796   24.3185 O   0  0  0  0  0  0  0  0  0  0  0  0
   12.5308    7.0075   20.4115 H   0  0  0  0  0  0  0  0  0  0  0  0
   13.3167    9.2085   21.2450 H   0  0  0  0  0  0  0  0  0  0  0  0
   10.2390    6.2245   20.9480 H   0  0  0  0  0  0  0  0  0  0  0  0
   11.8261   10.6239   22.6092 H   0  0  0  0  0  0  0  0  0  0  0  0
    8.7346    7.6266   22.3109 H   0  0  0  0  0  0  0  0  0  0  0  0
    6.2167    9.7945   26.0307 H   0  0  0  0  0  0  0  0  0  0  0  0
    5.4776   12.0196   26.7709 H   0  0  0  0  0  0  0  0  0  0  0  0
    6.5596   14.0848   25.9179 H   0  0  0  0  0  0  0  0  0  0  0  0
    8.4309   13.8945   24.2758 H   0  0  0  0  0  0  0  0  0  0  0  0
   15.9029   15.8332   17.8997 H   0  0  0  0  0  0  0  0  0  0  0  0
   16.0294   15.4281   19.7065 H   0  0  0  0  0  0  0  0  0  0  0  0
   14.0129   17.3691   18.4271 H   0  0  0  0  0  0  0  0  0  0  0  0
   10.8164   16.0602   23.5778 H   0  0  0  0  0  0  0  0  0  0  0  0
   10.6086   16.7009   21.9501 H   0  0  0  0  0  0  0  0  0  0  0  0
   11.2909   13.2456   20.3946 H   0  0  0  0  0  0  0  0  0  0  0  0
   12.5365   13.3962   21.6321 H   0  0  0  0  0  0  0  0  0  0  0  0
   12.8722   17.1794   22.8441 H   0  0  0  0  0  0  0  0  0  0  0  0
   13.1970   15.4560   23.0357 H   0  0  0  0  0  0  0  0  0  0  0  0
   13.2815   14.5782   19.6173 H   0  0  0  0  0  0  0  0  0  0  0  0
   11.7675   15.4430   19.4977 H   0  0  0  0  0  0  0  0  0  0  0  0
    9.7848   14.6123   21.5024 H   0  0  0  0  0  0  0  0  0  0  0  0
   10.4839   12.0619   21.7986 H   0  0  0  0  0  0  0  0  0  0  0  0
  1  2  1  0  0  0  0
  1  3  2  0  0  0  0
  2  4  2  0  0  0  0
  3  5  1  0  0  0  0
  4  6  1  0  0  0  0
  5  6  2  0  0  0  0
  6  7  1  0  0  0  0
  7  8  2  0  0  0  0
  7 23  1  0  0  0  0
  8 24  1  0  0  0  0
  8 26  1  0  0  0  0
  9 10  1  0  0  0  0
  9 23  2  0  0  0  0
  9 24  1  0  0  0  0
 10 11  2  0  0  0  0
 11 12  1  0  0  0  0
 12 13  2  0  0  0  0
 13 24  1  0  0  0  0
 14 15  2  0  0  0  0
 15 16  1  0  0  0  0
 16 25  1  0  0  0  0
 16 27  2  0  0  0  0
 17 22  1  0  0  0  0
 17 26  1  0  0  0  0
 17 28  2  0  0  0  0
 18 20  1  0  0  0  0
 18 22  1  0  0  0  0
 19 21  1  0  0  0  0
 19 22  1  0  0  0  0
 20 25  1  0  0  0  0
 21 25  1  0  0  0  0
  1 29  1  0  0  0  0
  2 30  1  0  0  0  0
  3 31  1  0  0  0  0
  4 32  1  0  0  0  0
  5 33  1  0  0  0  0
 10 34  1  0  0  0  0
 11 35  1  0  0  0  0
 12 36  1  0  0  0  0
 13 37  1  0  0  0  0
 14 38  1  0  0  0  0
 14 39  1  0  0  0  0
 15 40  1  0  0  0  0
 18 41  1  0  0  0  0
 18 42  1  0  0  0  0
 19 43  1  0  0  0  0
 19 44  1  0  0  0  0
 20 45  1  0  0  0  0
 20 46  1  0  0  0  0
 21 47  1  0  0  0  0
 21 48  1  0  0  0  0
 22 49  1  0  0  0  0
 26 50  1  0  0  0  0
M  END
> <Catalog ID>
Z3669373697

> <MW>
374.436

> <MW (desalted)>
374.436

> <ClogP>
2.04

> <logS>
-5.163

> <HBD>
1

> <HBA>
3

> <TPSA>
66.71

> <RotBonds>
4

> <ROCS_ShapeQuery>
A71EV2A-x0451_0A_A71EV2A-x0310_0A_A71EV2A-x0416_0A_peptide

> <ROCS_TanimotoCombo>
0.539 

> <ROCS_ShapeTanimoto>
0.372 

> <ROCS_ColorTanimoto>
0.167 

> <ROCS_RefTversky>
0.333 

> <ROCS_RefColorTversky>
0.195 

> <ROCS_RefTverskyCombo>
0.528 

> <ROCS_FitTversky>
1.454 

> <ROCS_FitColorTversky>
0.538 

> <ROCS_FitTverskyCombo>
1.992 

> <ROCS_ColorScore>
-5.973

> <ROCS_Overlap>
2317.510

> <ROCS_Rank>
103                 

$$$$
untitled-dbase-9488_2745
  -OEChem-11132309573D

 41 41  0     1  0  0  0  0  0999 V2000
    8.4098    7.7989   21.8130 C   0  0  0  0  0  0  0  0  0  0  0  0
    8.4060    8.7963   22.4815 C   0  0  0  0  0  0  0  0  0  0  0  0
    9.3387   10.9881   23.0365 C   0  0  0  0  0  0  0  0  0  0  0  0
    7.4589   10.1377   24.2935 C   0  0  0  0  0  0  0  0  0  0  0  0
    8.3912   12.3011   24.8297 C   0  0  0  0  0  0  0  0  0  0  0  0
    8.4014    9.9835   23.2768 C   0  0  0  0  0  0  0  0  0  0  0  0
    9.3337   12.1469   23.8130 C   0  0  0  0  0  0  0  0  0  0  0  0
    7.4538   11.2965   25.0700 C   0  0  0  0  0  0  0  0  0  0  0  0
   10.3331   13.2162   23.5584 C   0  0  0  0  0  0  0  0  0  0  0  0
   11.1823   15.6432   22.1420 C   0  0  0  0  0  0  0  0  0  0  0  0
   11.0555   13.4566   19.5299 C   0  0  0  0  0  0  0  0  0  0  0  0
   12.5820   15.4265   19.6955 C   0  0  0  0  0  0  0  0  0  0  0  0
   13.0415   14.0987   22.7782 C   0  0  0  0  0  0  0  0  0  0  0  0
   12.1791   14.0986   20.3564 C   0  0  0  0  0  0  0  0  0  0  0  0
   11.8144   14.2625   21.8652 C   0  0  2  0  0  0  0  0  0  0  0  0
   10.0642   15.9226   21.3850 N   0  0  0  0  0  0  0  0  0  0  0  0
   10.8144   13.2872   22.2652 N   0  0  0  0  0  0  0  0  0  0  0  0
   10.6830   13.9432   24.4845 O   0  0  0  0  0  0  0  0  0  0  0  0
   11.6238   16.4346   22.9751 O   0  0  0  0  0  0  0  0  0  0  0  0
    4.3470   12.3064   26.9736 O   0  0  0  0  0  0  0  0  0  0  0  0
    6.1473   13.9318   26.2298 O   0  0  0  0  0  0  0  0  0  0  0  0
    6.5353   11.4460   26.0634 O   0  0  0  0  0  0  0  0  0  0  0  0
    4.8135   12.7044   24.6456 F   0  0  0  0  0  0  0  0  0  0  0  0
    5.4471   12.6692   26.1022 S   0  0  0  0  0  0  0  0  0  0  0  0
    8.4128    6.9144   21.2198 H   0  0  0  0  0  0  0  0  0  0  0  0
   10.0757   10.8721   22.2442 H   0  0  0  0  0  0  0  0  0  0  0  0
    6.7246    9.3590   24.4886 H   0  0  0  0  0  0  0  0  0  0  0  0
    8.3843   13.2021   25.4386 H   0  0  0  0  0  0  0  0  0  0  0  0
   10.1509   14.0742   19.5643 H   0  0  0  0  0  0  0  0  0  0  0  0
   11.3368   13.3628   18.4769 H   0  0  0  0  0  0  0  0  0  0  0  0
   10.7935   12.4628   19.9068 H   0  0  0  0  0  0  0  0  0  0  0  0
   11.7676   16.1566   19.7302 H   0  0  0  0  0  0  0  0  0  0  0  0
   13.4362   15.8710   20.2186 H   0  0  0  0  0  0  0  0  0  0  0  0
   12.8724   15.2861   18.6493 H   0  0  0  0  0  0  0  0  0  0  0  0
   13.5350   13.1327   22.6267 H   0  0  0  0  0  0  0  0  0  0  0  0
   13.7848   14.8812   22.5815 H   0  0  0  0  0  0  0  0  0  0  0  0
   12.7735   14.1772   23.8377 H   0  0  0  0  0  0  0  0  0  0  0  0
   13.0473   13.4311   20.2773 H   0  0  0  0  0  0  0  0  0  0  0  0
    9.5863   16.8094   21.5039 H   0  0  0  0  0  0  0  0  0  0  0  0
    9.7143   15.2503   20.7104 H   0  0  0  0  0  0  0  0  0  0  0  0
   10.5297   12.6156   21.5648 H   0  0  0  0  0  0  0  0  0  0  0  0
  1  2  3  0  0  0  0
  2  6  1  0  0  0  0
  3  6  1  0  0  0  0
  3  7  2  0  0  0  0
  4  6  2  0  0  0  0
  4  8  1  0  0  0  0
  5  7  1  0  0  0  0
  5  8  2  0  0  0  0
  7  9  1  0  0  0  0
  8 22  1  0  0  0  0
  9 17  1  0  0  0  0
  9 18  2  0  0  0  0
 10 15  1  0  0  0  0
 10 16  1  0  0  0  0
 10 19  2  0  0  0  0
 11 14  1  0  0  0  0
 12 14  1  0  0  0  0
 13 15  1  0  0  0  0
 14 15  1  0  0  0  0
 15 17  1  0  0  0  0
 20 24  2  0  0  0  0
 21 24  2  0  0  0  0
 22 24  1  0  0  0  0
 23 24  1  0  0  0  0
  1 25  1  0  0  0  0
  3 26  1  0  0  0  0
  4 27  1  0  0  0  0
  5 28  1  0  0  0  0
 11 29  1  0  0  0  0
 11 30  1  0  0  0  0
 11 31  1  0  0  0  0
 12 32  1  0  0  0  0
 12 33  1  0  0  0  0
 12 34  1  0  0  0  0
 13 35  1  0  0  0  0
 13 36  1  0  0  0  0
 13 37  1  0  0  0  0
 14 38  1  0  0  0  0
 16 39  1  0  0  0  0
 16 40  1  0  0  0  0
 17 41  1  0  0  0  0
M  END
> <Catalog ID>
Z4608617636

> <MW>
356.369

> <MW (desalted)>
356.369

> <ClogP>
-0.02

> <logS>
-4.789

> <HBD>
2

> <HBA>
4

> <TPSA>
115.56

> <RotBonds>
6

> <ROCS_ShapeQuery>
A71EV2A-x0451_0A_A71EV2A-x0310_0A_A71EV2A-x0416_0A_peptide

> <ROCS_TanimotoCombo>
0.538 

> <ROCS_ShapeTanimoto>
0.348 

> <ROCS_ColorTanimoto>
0.190 

> <ROCS_RefTversky>
0.308 

> <ROCS_RefColorTversky>
0.213 

> <ROCS_RefTverskyCombo>
0.521 

> <ROCS_FitTversky>
1.589 

> <ROCS_FitColorTversky>
0.642 

> <ROCS_FitTverskyCombo>
2.232 

> <ROCS_ColorScore>
-6.510

> <ROCS_Overlap>
2141.080

> <ROCS_Rank>
104                 

$$$$
untitled-dbase-3789_4724
  -OEChem-11132309573D

 37 38  0     1  0  0  0  0  0999 V2000
    8.9130    7.4675   22.7299 C   0  0  0  0  0  0  0  0  0  0  0  0
    8.7630    8.5530   23.2208 C   0  0  0  0  0  0  0  0  0  0  0  0
    9.3759   10.9149   23.3870 C   0  0  0  0  0  0  0  0  0  0  0  0
    7.6182   10.0361   24.7922 C   0  0  0  0  0  0  0  0  0  0  0  0
    8.2348   12.3670   24.9446 C   0  0  0  0  0  0  0  0  0  0  0  0
   13.7025   15.0920   24.3179 C   0  0  0  0  0  0  0  0  0  0  0  0
    8.5845    9.8450   23.8046 C   0  0  0  0  0  0  0  0  0  0  0  0
    9.2011   12.1760   23.9570 C   0  0  0  0  0  0  0  0  0  0  0  0
    7.4433   11.2971   25.3623 C   0  0  0  0  0  0  0  0  0  0  0  0
   12.2616   14.8922   22.7076 C   0  0  0  0  0  0  0  0  0  0  0  0
   10.0276   13.2912   23.5230 C   0  0  0  0  0  0  0  0  0  0  0  0
   10.5570   15.2857   20.8824 C   0  0  0  0  0  0  0  0  0  0  0  0
   13.3049   12.7506   23.5232 C   0  0  0  0  0  0  0  0  0  0  0  0
   11.3850   14.2571   21.6498 C   0  0  2  0  0  0  0  0  0  0  0  0
   13.2665   16.2967   24.0266 N   0  0  0  0  0  0  0  0  0  0  0  0
   12.3499   16.1696   23.0020 N   0  0  0  0  0  0  0  0  0  0  0  0
   13.0962   14.1769   23.5117 N   0  0  0  0  0  0  0  0  0  0  0  0
   10.5313   13.2388   22.2182 N   0  0  0  0  0  0  0  0  0  0  0  0
   10.2802   14.2294   24.2996 O   0  0  0  0  0  0  0  0  0  0  0  0
    4.2048   12.1725   27.1063 O   0  0  0  0  0  0  0  0  0  0  0  0
    5.7704   13.8831   26.0772 O   0  0  0  0  0  0  0  0  0  0  0  0
    6.5016   11.4830   26.3274 O   0  0  0  0  0  0  0  0  0  0  0  0
    4.6381   12.2331   24.7389 F   0  0  0  0  0  0  0  0  0  0  0  0
    5.2537   12.5323   26.1728 S   0  0  0  0  0  0  0  0  0  0  0  0
    9.0457    6.5049   22.2942 H   0  0  0  0  0  0  0  0  0  0  0  0
   10.1309   10.7704   22.6166 H   0  0  0  0  0  0  0  0  0  0  0  0
    6.9969    9.2072   25.1247 H   0  0  0  0  0  0  0  0  0  0  0  0
    8.0959   13.3480   25.3931 H   0  0  0  0  0  0  0  0  0  0  0  0
   14.4292   14.8352   25.0754 H   0  0  0  0  0  0  0  0  0  0  0  0
    9.8994   15.8453   21.5567 H   0  0  0  0  0  0  0  0  0  0  0  0
   11.2111   16.0029   20.3738 H   0  0  0  0  0  0  0  0  0  0  0  0
    9.9327   14.8179   20.1129 H   0  0  0  0  0  0  0  0  0  0  0  0
   12.5886   12.3105   24.2220 H   0  0  0  0  0  0  0  0  0  0  0  0
   13.1513   12.3520   22.5165 H   0  0  0  0  0  0  0  0  0  0  0  0
   14.3298   12.5378   23.8400 H   0  0  0  0  0  0  0  0  0  0  0  0
   12.0193   13.7323   20.9249 H   0  0  0  0  0  0  0  0  0  0  0  0
   10.3466   12.4202   21.6476 H   0  0  0  0  0  0  0  0  0  0  0  0
  1  2  3  0  0  0  0
  2  7  1  0  0  0  0
  3  7  1  0  0  0  0
  3  8  2  0  0  0  0
  4  7  2  0  0  0  0
  4  9  1  0  0  0  0
  5  8  1  0  0  0  0
  5  9  2  0  0  0  0
  6 15  2  0  0  0  0
  6 17  1  0  0  0  0
  8 11  1  0  0  0  0
  9 22  1  0  0  0  0
 10 14  1  0  0  0  0
 10 16  2  0  0  0  0
 10 17  1  0  0  0  0
 11 18  1  0  0  0  0
 11 19  2  0  0  0  0
 12 14  1  0  0  0  0
 13 17  1  0  0  0  0
 14 18  1  0  0  0  0
 15 16  1  0  0  0  0
 20 24  2  0  0  0  0
 21 24  2  0  0  0  0
 22 24  1  0  0  0  0
 23 24  1  0  0  0  0
  1 25  1  0  0  0  0
  3 26  1  0  0  0  0
  4 27  1  0  0  0  0
  5 28  1  0  0  0  0
  6 29  1  0  0  0  0
 12 30  1  0  0  0  0
 12 31  1  0  0  0  0
 12 32  1  0  0  0  0
 13 33  1  0  0  0  0
 13 34  1  0  0  0  0
 13 35  1  0  0  0  0
 14 36  1  0  0  0  0
 18 37  1  0  0  0  0
M  END
> <Catalog ID>
Z4386044713

> <MW>
352.341

> <MW (desalted)>
352.341

> <ClogP>
-1.391

> <logS>
-3.472

> <HBD>
1

> <HBA>
5

> <TPSA>
103.18

> <RotBonds>
5

> <ROCS_ShapeQuery>
A71EV2A-x0451_0A_A71EV2A-x0310_0A_A71EV2A-x0416_0A_peptide

> <ROCS_TanimotoCombo>
0.538 

> <ROCS_ShapeTanimoto>
0.355 

> <ROCS_ColorTanimoto>
0.183 

> <ROCS_RefTversky>
0.314 

> <ROCS_RefColorTversky>
0.207 

> <ROCS_RefTverskyCombo>
0.521 

> <ROCS_FitTversky>
1.588 

> <ROCS_FitColorTversky>
0.608 

> <ROCS_FitTverskyCombo>
2.196 

> <ROCS_ColorScore>
-6.338

> <ROCS_Overlap>
2182.470

> <ROCS_Rank>
105                 

$$$$
untitled-dbase-4562_9563
  -OEChem-11132309573D

 55 57  0     0  0  0  0  0  0999 V2000
   13.2534   13.9226   22.9360 C   0  0  0  0  0  0  0  0  0  0  0  0
    8.4166    9.3197   24.0986 C   0  0  0  0  0  0  0  0  0  0  0  0
   12.5447   15.0613   19.1590 C   0  0  0  0  0  0  0  0  0  0  0  0
   13.4362   16.3878   20.9709 C   0  0  0  0  0  0  0  0  0  0  0  0
    9.4356   10.0962   23.5469 C   0  0  0  0  0  0  0  0  0  0  0  0
   13.4547   15.6495   18.2806 C   0  0  0  0  0  0  0  0  0  0  0  0
   14.3462   16.9760   20.0925 C   0  0  0  0  0  0  0  0  0  0  0  0
    7.2898    9.9339   24.6452 C   0  0  0  0  0  0  0  0  0  0  0  0
    8.2010   12.1011   24.0886 C   0  0  0  0  0  0  0  0  0  0  0  0
   12.5354   15.4305   20.5041 C   0  0  0  0  0  0  0  0  0  0  0  0
   14.3554   16.6068   18.7474 C   0  0  0  0  0  0  0  0  0  0  0  0
    9.3278   11.4869   23.5420 C   0  0  0  0  0  0  0  0  0  0  0  0
    7.1820   11.3246   24.6402 C   0  0  0  0  0  0  0  0  0  0  0  0
   11.5756   14.8100   21.4305 C   0  0  0  0  0  0  0  0  0  0  0  0
   11.8948   14.1128   22.5390 C   0  0  0  0  0  0  0  0  0  0  0  0
   10.7430   13.5617   23.3522 C   0  0  0  0  0  0  0  0  0  0  0  0
    4.9729   10.9841   27.6998 C   0  0  0  0  0  0  0  0  0  0  0  0
    6.5113   12.8996   27.8343 C   0  0  0  0  0  0  0  0  0  0  0  0
    3.8615   11.9072   28.1770 C   0  0  0  0  0  0  0  0  0  0  0  0
    5.3377   13.7451   28.3062 C   0  0  0  0  0  0  0  0  0  0  0  0
   15.2934   16.8251   16.4598 C   0  0  0  0  0  0  0  0  0  0  0  0
   16.2062   18.2075   18.3318 C   0  0  0  0  0  0  0  0  0  0  0  0
   14.3558   13.7661   23.2631 N   0  0  0  0  0  0  0  0  0  0  0  0
    6.0148   11.7775   26.9891 N   0  0  0  0  0  0  0  0  0  0  0  0
   10.3468   12.2637   22.9900 N   0  0  0  0  0  0  0  0  0  0  0  0
   15.2756   17.2016   17.8593 N   0  0  0  0  0  0  0  0  0  0  0  0
   10.2324   14.2368   24.2427 O   0  0  0  0  0  0  0  0  0  0  0  0
    5.8742   13.5260   25.1058 O   0  0  0  0  0  0  0  0  0  0  0  0
    4.5895   11.3697   24.8873 O   0  0  0  0  0  0  0  0  0  0  0  0
    4.3960   12.9353   29.0148 O   0  0  0  0  0  0  0  0  0  0  0  0
    5.7561   12.1014   25.3330 S   0  0  0  0  0  0  0  0  0  0  0  0
    8.5000    8.2369   24.1021 H   0  0  0  0  0  0  0  0  0  0  0  0
   11.8484   14.3168   18.7803 H   0  0  0  0  0  0  0  0  0  0  0  0
   13.4410   16.6854   22.0167 H   0  0  0  0  0  0  0  0  0  0  0  0
   10.3087    9.6064   23.1232 H   0  0  0  0  0  0  0  0  0  0  0  0
   13.4532   15.3549   17.2343 H   0  0  0  0  0  0  0  0  0  0  0  0
   15.0438   17.7206   20.4673 H   0  0  0  0  0  0  0  0  0  0  0  0
    6.5019    9.3196   25.0728 H   0  0  0  0  0  0  0  0  0  0  0  0
    8.1162   13.1856   24.0850 H   0  0  0  0  0  0  0  0  0  0  0  0
   10.5384   14.9796   21.1498 H   0  0  0  0  0  0  0  0  0  0  0  0
    5.4377   10.4716   28.5556 H   0  0  0  0  0  0  0  0  0  0  0  0
    4.5557   10.2260   27.0224 H   0  0  0  0  0  0  0  0  0  0  0  0
    7.2046   13.5242   27.2539 H   0  0  0  0  0  0  0  0  0  0  0  0
    7.0532   12.4829   28.6968 H   0  0  0  0  0  0  0  0  0  0  0  0
    3.3293   12.3662   27.3352 H   0  0  0  0  0  0  0  0  0  0  0  0
    3.1319   11.3423   28.7656 H   0  0  0  0  0  0  0  0  0  0  0  0
    5.6884   14.5246   28.9896 H   0  0  0  0  0  0  0  0  0  0  0  0
    4.8323   14.2379   27.4671 H   0  0  0  0  0  0  0  0  0  0  0  0
   16.0750   17.3950   15.9361 H   0  0  0  0  0  0  0  0  0  0  0  0
   15.5038   15.7489   16.3725 H   0  0  0  0  0  0  0  0  0  0  0  0
   14.3147   17.0452   16.0086 H   0  0  0  0  0  0  0  0  0  0  0  0
   16.8356   18.5469   17.4959 H   0  0  0  0  0  0  0  0  0  0  0  0
   15.6464   19.0620   18.7396 H   0  0  0  0  0  0  0  0  0  0  0  0
   16.8429   17.7770   19.1187 H   0  0  0  0  0  0  0  0  0  0  0  0
   10.8735   11.8322   22.2223 H   0  0  0  0  0  0  0  0  0  0  0  0
  1 15  1  0  0  0  0
  1 23  3  0  0  0  0
  2  5  2  0  0  0  0
  2  8  1  0  0  0  0
  3  6  2  0  0  0  0
  3 10  1  0  0  0  0
  4  7  1  0  0  0  0
  4 10  2  0  0  0  0
  5 12  1  0  0  0  0
  6 11  1  0  0  0  0
  7 11  2  0  0  0  0
  8 13  2  0  0  0  0
  9 12  2  0  0  0  0
  9 13  1  0  0  0  0
 10 14  1  4  0  0  0
 11 26  1  0  0  0  0
 12 25  1  0  0  0  0
 13 31  1  0  0  0  0
 14 15  2  0  0  0  0
 15 16  1  0  0  0  0
 16 25  1  0  0  0  0
 16 27  2  0  0  0  0
 17 19  1  0  0  0  0
 17 24  1  0  0  0  0
 18 20  1  0  0  0  0
 18 24  1  0  0  0  0
 19 30  1  0  0  0  0
 20 30  1  0  0  0  0
 21 26  1  0  0  0  0
 22 26  1  0  0  0  0
 24 31  1  0  0  0  0
 28 31  2  0  0  0  0
 29 31  2  0  0  0  0
  2 32  1  0  0  0  0
  3 33  1  0  0  0  0
  4 34  1  0  0  0  0
  5 35  1  0  0  0  0
  6 36  1  0  0  0  0
  7 37  1  0  0  0  0
  8 38  1  0  0  0  0
  9 39  1  0  0  0  0
 14 40  1  0  0  0  0
 17 41  1  0  0  0  0
 17 42  1  0  0  0  0
 18 43  1  0  0  0  0
 18 44  1  0  0  0  0
 19 45  1  0  0  0  0
 19 46  1  0  0  0  0
 20 47  1  0  0  0  0
 20 48  1  0  0  0  0
 21 49  1  0  0  0  0
 21 50  1  0  0  0  0
 21 51  1  0  0  0  0
 22 52  1  0  0  0  0
 22 53  1  0  0  0  0
 22 54  1  0  0  0  0
 25 55  1  0  0  0  0
M  END
> <Catalog ID>
Z57041704

> <MW>
440.515

> <MW (desalted)>
440.515

> <ClogP>
2.753

> <logS>
-4.44

> <HBD>
1

> <HBA>
6

> <TPSA>
102.74

> <RotBonds>
5

> <ROCS_ShapeQuery>
A71EV2A-x0451_0A_A71EV2A-x0310_0A_A71EV2A-x0416_0A_peptide

> <ROCS_TanimotoCombo>
0.538 

> <ROCS_ShapeTanimoto>
0.361 

> <ROCS_ColorTanimoto>
0.177 

> <ROCS_RefTversky>
0.329 

> <ROCS_RefColorTversky>
0.200 

> <ROCS_RefTverskyCombo>
0.529 

> <ROCS_FitTversky>
1.380 

> <ROCS_FitColorTversky>
0.604 

> <ROCS_FitTverskyCombo>
1.984 

> <ROCS_ColorScore>
-6.121

> <ROCS_Overlap>
2288.002

> <ROCS_Rank>
106                 

$$$$
untitled-dbase-4530_1323
  -OEChem-11132309573D

 41 43  0     0  0  0  0  0  0999 V2000
    7.3052   13.0415   25.8999 C   0  0  0  0  0  0  0  0  0  0  0  0
    6.3966   11.9806   25.8669 C   0  0  0  0  0  0  0  0  0  0  0  0
    8.5174   12.9773   25.1990 C   0  0  0  0  0  0  0  0  0  0  0  0
   11.7109   16.2141   19.4972 C   0  0  0  0  0  0  0  0  0  0  0  0
   12.8392   14.6823   20.9864 C   0  0  0  0  0  0  0  0  0  0  0  0
    6.6635   10.8197   25.1350 C   0  0  0  0  0  0  0  0  0  0  0  0
   12.8423   16.2555   18.6825 C   0  0  0  0  0  0  0  0  0  0  0  0
   13.9706   14.7236   20.1716 C   0  0  0  0  0  0  0  0  0  0  0  0
    8.8063   11.8193   24.4561 C   0  0  0  0  0  0  0  0  0  0  0  0
   11.7093   15.4276   20.6492 C   0  0  0  0  0  0  0  0  0  0  0  0
    9.8811   11.3773   23.6404 C   0  0  0  0  0  0  0  0  0  0  0  0
    7.8759   10.7851   24.4486 C   0  0  0  0  0  0  0  0  0  0  0  0
   13.9721   15.5102   19.0196 C   0  0  0  0  0  0  0  0  0  0  0  0
    9.5394   10.1211   23.1958 C   0  0  0  0  0  0  0  0  0  0  0  0
   10.6518   14.4832   22.7389 C   0  0  0  0  0  0  0  0  0  0  0  0
   10.2119    9.1407   22.3304 C   0  0  0  0  0  0  0  0  0  0  0  0
   10.4884   15.3834   21.5294 C   0  0  0  0  0  0  0  0  0  0  0  0
   11.1197   12.1161   23.3289 C   0  0  0  0  0  0  0  0  0  0  0  0
   10.9169   13.1753   22.3641 N   0  0  0  0  0  0  0  0  0  0  0  0
   10.5613   14.8811   23.8975 O   0  0  0  0  0  0  0  0  0  0  0  0
   16.1512   14.3511   18.2395 O   0  0  0  0  0  0  0  0  0  0  0  0
   14.9638   15.9615   16.6715 O   0  0  0  0  0  0  0  0  0  0  0  0
    8.3249    9.7527   23.6807 O   0  0  0  0  0  0  0  0  0  0  0  0
   16.3087   16.7453   18.5185 F   0  0  0  0  0  0  0  0  0  0  0  0
   15.3875   15.5600   17.9988 S   0  0  0  0  0  0  0  0  0  0  0  0
    7.0701   13.9312   26.4785 H   0  0  0  0  0  0  0  0  0  0  0  0
    5.4645   12.0605   26.4209 H   0  0  0  0  0  0  0  0  0  0  0  0
    9.2128   13.8105   25.2347 H   0  0  0  0  0  0  0  0  0  0  0  0
   10.8354   16.7984   19.2267 H   0  0  0  0  0  0  0  0  0  0  0  0
   12.8472   14.0670   21.8822 H   0  0  0  0  0  0  0  0  0  0  0  0
    5.9636    9.9932   25.1047 H   0  0  0  0  0  0  0  0  0  0  0  0
   12.8332   16.8720   17.7875 H   0  0  0  0  0  0  0  0  0  0  0  0
   14.8455   14.1393   20.4439 H   0  0  0  0  0  0  0  0  0  0  0  0
   10.8508    8.4570   22.9168 H   0  0  0  0  0  0  0  0  0  0  0  0
    9.4941    8.5186   21.7649 H   0  0  0  0  0  0  0  0  0  0  0  0
   10.8542    9.6230   21.5706 H   0  0  0  0  0  0  0  0  0  0  0  0
   10.2462   16.3971   21.8732 H   0  0  0  0  0  0  0  0  0  0  0  0
    9.6249   15.0361   20.9481 H   0  0  0  0  0  0  0  0  0  0  0  0
   11.5571   12.5851   24.2287 H   0  0  0  0  0  0  0  0  0  0  0  0
   11.9064   11.4597   22.9159 H   0  0  0  0  0  0  0  0  0  0  0  0
   10.9708   12.9522   21.3759 H   0  0  0  0  0  0  0  0  0  0  0  0
  1  2  1  0  0  0  0
  1  3  2  0  0  0  0
  2  6  2  0  0  0  0
  3  9  1  0  0  0  0
  4  7  2  0  0  0  0
  4 10  1  0  0  0  0
  5  8  1  0  0  0  0
  5 10  2  0  0  0  0
  6 12  1  0  0  0  0
  7 13  1  0  0  0  0
  8 13  2  0  0  0  0
  9 11  1  0  0  0  0
  9 12  2  0  0  0  0
 10 17  1  0  0  0  0
 11 14  2  0  0  0  0
 11 18  1  0  0  0  0
 12 23  1  0  0  0  0
 13 25  1  0  0  0  0
 14 16  1  0  0  0  0
 14 23  1  0  0  0  0
 15 17  1  0  0  0  0
 15 19  1  0  0  0  0
 15 20  2  0  0  0  0
 18 19  1  0  0  0  0
 21 25  2  0  0  0  0
 22 25  2  0  0  0  0
 24 25  1  0  0  0  0
  1 26  1  0  0  0  0
  2 27  1  0  0  0  0
  3 28  1  0  0  0  0
  4 29  1  0  0  0  0
  5 30  1  0  0  0  0
  6 31  1  0  0  0  0
  7 32  1  0  0  0  0
  8 33  1  0  0  0  0
 16 34  1  0  0  0  0
 16 35  1  0  0  0  0
 16 36  1  0  0  0  0
 17 37  1  0  0  0  0
 17 38  1  0  0  0  0
 18 39  1  0  0  0  0
 18 40  1  0  0  0  0
 19 41  1  0  0  0  0
M  END
> <Catalog ID>
Z3292075471

> <MW>
361.387

> <MW (desalted)>
361.387

> <ClogP>
3.89

> <logS>
-4.16

> <HBD>
1

> <HBA>
3

> <TPSA>
76.38

> <RotBonds>
5

> <ROCS_ShapeQuery>
A71EV2A-x0451_0A_A71EV2A-x0310_0A_A71EV2A-x0416_0A_peptide

> <ROCS_TanimotoCombo>
0.538 

> <ROCS_ShapeTanimoto>
0.345 

> <ROCS_ColorTanimoto>
0.193 

> <ROCS_RefTversky>
0.309 

> <ROCS_RefColorTversky>
0.201 

> <ROCS_RefTverskyCombo>
0.510 

> <ROCS_FitTversky>
1.510 

> <ROCS_FitColorTversky>
0.837 

> <ROCS_FitTverskyCombo>
2.347 

> <ROCS_ColorScore>
-6.113

> <ROCS_Overlap>
2146.672

> <ROCS_Rank>
107                 

$$$$
untitled-dbase-4810_9992
  -OEChem-11132309573D

 47 48  0     1  0  0  0  0  0999 V2000
    8.2542   12.7138   25.1651 C   0  0  0  0  0  0  0  0  0  0  0  0
    7.1678   11.9377   25.6115 C   0  0  0  0  0  0  0  0  0  0  0  0
    8.8441   11.9490   24.1885 C   0  0  0  0  0  0  0  0  0  0  0  0
   12.8686   17.0890   20.1230 C   0  0  0  0  0  0  0  0  0  0  0  0
   11.7852   16.6503   20.7723 C   0  0  0  0  0  0  0  0  0  0  0  0
   11.9169   15.5969   21.8189 C   0  0  0  0  0  0  0  0  0  0  0  0
   10.7905   13.3291   23.3814 C   0  0  0  0  0  0  0  0  0  0  0  0
    5.5766   12.1954   29.1334 C   0  0  0  0  0  0  0  0  0  0  0  0
    6.6453   11.8812   28.0899 C   0  0  0  0  0  0  0  0  0  0  0  0
    4.2305   11.6167   28.7184 C   0  0  0  0  0  0  0  0  0  0  0  0
    4.7751   11.6972   26.4132 C   0  0  0  0  0  0  0  0  0  0  0  0
    6.1634   12.2906   26.6890 C   0  0  2  0  0  0  0  0  0  0  0  0
   10.1082   13.7551   19.7165 C   0  0  0  0  0  0  0  0  0  0  0  0
    8.3248    9.6829   23.2302 C   0  0  0  0  0  0  0  0  0  0  0  0
   11.8955   13.1903   22.3521 C   0  0  0  0  0  0  0  0  0  0  0  0
   11.5680   13.8633   19.9996 C   0  0  0  0  0  0  0  0  0  0  0  0
    7.0709   10.7696   24.9711 N   0  0  0  0  0  0  0  0  0  0  0  0
    8.1039   10.8060   24.1122 N   0  0  0  0  0  0  0  0  0  0  0  0
    9.9391   12.1913   23.4038 N   0  0  0  0  0  0  0  0  0  0  0  0
   11.8095   14.2616   21.3924 N   0  0  0  0  0  0  0  0  0  0  0  0
   12.0849   15.9224   22.9953 O   0  0  0  0  0  0  0  0  0  0  0  0
   10.6853   14.3190   24.0984 O   0  0  0  0  0  0  0  0  0  0  0  0
    3.8501   12.0937   27.4280 O   0  0  0  0  0  0  0  0  0  0  0  0
    8.5653   13.6915   25.5046 H   0  0  0  0  0  0  0  0  0  0  0  0
   12.8204   17.8530   19.3550 H   0  0  0  0  0  0  0  0  0  0  0  0
   13.8458   16.6824   20.3622 H   0  0  0  0  0  0  0  0  0  0  0  0
   10.8186   17.0907   20.5613 H   0  0  0  0  0  0  0  0  0  0  0  0
    5.8743   11.8040   30.1117 H   0  0  0  0  0  0  0  0  0  0  0  0
    5.4870   13.2849   29.2244 H   0  0  0  0  0  0  0  0  0  0  0  0
    7.5778   12.4004   28.3429 H   0  0  0  0  0  0  0  0  0  0  0  0
    6.8688   10.8062   28.1125 H   0  0  0  0  0  0  0  0  0  0  0  0
    4.2530   10.5206   28.7098 H   0  0  0  0  0  0  0  0  0  0  0  0
    3.4575   11.9260   29.4290 H   0  0  0  0  0  0  0  0  0  0  0  0
    4.3885   12.0621   25.4549 H   0  0  0  0  0  0  0  0  0  0  0  0
    4.8019   10.6015   26.3543 H   0  0  0  0  0  0  0  0  0  0  0  0
    6.0653   13.3950   26.6867 H   0  0  0  0  0  0  0  0  0  0  0  0
    9.6264   14.7275   19.8960 H   0  0  0  0  0  0  0  0  0  0  0  0
    9.9592   13.4604   18.6672 H   0  0  0  0  0  0  0  0  0  0  0  0
    9.6619   12.9973   20.3772 H   0  0  0  0  0  0  0  0  0  0  0  0
    8.9861    8.9780   23.7409 H   0  0  0  0  0  0  0  0  0  0  0  0
    7.3672    9.2088   22.9975 H   0  0  0  0  0  0  0  0  0  0  0  0
    8.7841   10.0366   22.3029 H   0  0  0  0  0  0  0  0  0  0  0  0
   11.8023   12.2292   21.8368 H   0  0  0  0  0  0  0  0  0  0  0  0
   12.8633   13.2252   22.8621 H   0  0  0  0  0  0  0  0  0  0  0  0
   12.0422   12.8876   19.8178 H   0  0  0  0  0  0  0  0  0  0  0  0
   12.0089   14.6158   19.3293 H   0  0  0  0  0  0  0  0  0  0  0  0
   10.2112   11.4596   22.7190 H   0  0  0  0  0  0  0  0  0  0  0  0
  1  2  1  0  0  0  0
  1  3  2  0  0  0  0
  2 12  1  0  0  0  0
  2 17  2  0  0  0  0
  3 18  1  0  0  0  0
  3 19  1  0  0  0  0
  4  5  2  0  0  0  0
  5  6  1  0  0  0  0
  6 20  1  0  0  0  0
  6 21  2  0  0  0  0
  7 15  1  0  0  0  0
  7 19  1  0  0  0  0
  7 22  2  0  0  0  0
  8  9  1  0  0  0  0
  8 10  1  0  0  0  0
  9 12  1  0  0  0  0
 10 23  1  0  0  0  0
 11 12  1  0  0  0  0
 11 23  1  0  0  0  0
 13 16  1  0  0  0  0
 14 18  1  0  0  0  0
 15 20  1  0  0  0  0
 16 20  1  0  0  0  0
 17 18  1  0  0  0  0
  1 24  1  0  0  0  0
  4 25  1  0  0  0  0
  4 26  1  0  0  0  0
  5 27  1  0  0  0  0
  8 28  1  0  0  0  0
  8 29  1  0  0  0  0
  9 30  1  0  0  0  0
  9 31  1  0  0  0  0
 10 32  1  0  0  0  0
 10 33  1  0  0  0  0
 11 34  1  0  0  0  0
 11 35  1  0  0  0  0
 12 36  1  0  0  0  0
 13 37  1  0  0  0  0
 13 38  1  0  0  0  0
 13 39  1  0  0  0  0
 14 40  1  0  0  0  0
 14 41  1  0  0  0  0
 14 42  1  0  0  0  0
 15 43  1  0  0  0  0
 15 44  1  0  0  0  0
 16 45  1  0  0  0  0
 16 46  1  0  0  0  0
 19 47  1  0  0  0  0
M  END
> <Catalog ID>
Z2907629448

> <MW>
320.387

> <MW (desalted)>
320.387

> <ClogP>
0.278

> <logS>
-2.209

> <HBD>
1

> <HBA>
4

> <TPSA>
76.46

> <RotBonds>
6

> <ROCS_ShapeQuery>
A71EV2A-x0451_0A_A71EV2A-x0310_0A_A71EV2A-x0416_0A_peptide

> <ROCS_TanimotoCombo>
0.538 

> <ROCS_ShapeTanimoto>
0.321 

> <ROCS_ColorTanimoto>
0.217 

> <ROCS_RefTversky>
0.289 

> <ROCS_RefColorTversky>
0.232 

> <ROCS_RefTverskyCombo>
0.521 

> <ROCS_FitTversky>
1.519 

> <ROCS_FitColorTversky>
0.772 

> <ROCS_FitTverskyCombo>
2.291 

> <ROCS_ColorScore>
-7.092

> <ROCS_Overlap>
2006.832

> <ROCS_Rank>
108                 

$$$$
untitled-dbase-1162_2136
  -OEChem-11132309573D

 42 44  0     1  0  0  0  0  0999 V2000
    9.5564   10.5156   23.5064 C   0  0  0  0  0  0  0  0  0  0  0  0
    9.4673   11.8967   23.7850 C   0  0  0  0  0  0  0  0  0  0  0  0
    8.2574   12.0474   24.4258 C   0  0  0  0  0  0  0  0  0  0  0  0
    7.5791   13.2094   24.9476 C   0  0  0  0  0  0  0  0  0  0  0  0
   14.6158   18.2965   22.0536 C   0  0  0  0  0  0  0  0  0  0  0  0
   13.4046   18.0570   21.5467 C   0  0  0  0  0  0  0  0  0  0  0  0
   10.4443   12.9701   23.4685 C   0  0  0  0  0  0  0  0  0  0  0  0
   12.7323   16.7836   21.8762 C   0  0  0  0  0  0  0  0  0  0  0  0
   11.6394   15.3978   18.6565 C   0  0  0  0  0  0  0  0  0  0  0  0
   11.4727   14.1782   19.5501 C   0  0  0  0  0  0  0  0  0  0  0  0
    6.4136   10.5106   25.0214 C   0  0  0  0  0  0  0  0  0  0  0  0
   12.6711   16.2303   19.3982 C   0  0  0  0  0  0  0  0  0  0  0  0
    6.0442   11.5626   26.0628 C   0  0  0  0  0  0  0  0  0  0  0  0
   11.6068   14.7424   20.9695 C   0  0  1  0  0  0  0  0  0  0  0  0
   12.2253   13.7121   21.9085 C   0  0  0  0  0  0  0  0  0  0  0  0
    8.4866    9.8320   23.9252 N   0  0  0  0  0  0  0  0  0  0  0  0
    7.7257   10.7876   24.4773 N   0  0  0  0  0  0  0  0  0  0  0  0
    6.4208   12.9153   25.6622 N   0  0  0  0  0  0  0  0  0  0  0  0
   12.4141   15.9575   20.8109 N   0  0  0  0  0  0  0  0  0  0  0  0
   11.2299   12.7844   22.3279 N   0  0  0  0  0  0  0  0  0  0  0  0
    7.9696   14.3614   24.7715 O   0  0  0  0  0  0  0  0  0  0  0  0
   10.5321   13.9409   24.2158 O   0  0  0  0  0  0  0  0  0  0  0  0
   12.5047   16.5299   23.0584 O   0  0  0  0  0  0  0  0  0  0  0  0
   10.3543    9.9799   23.0116 H   0  0  0  0  0  0  0  0  0  0  0  0
   15.1592   19.2127   21.8479 H   0  0  0  0  0  0  0  0  0  0  0  0
   15.0916   17.5632   22.6961 H   0  0  0  0  0  0  0  0  0  0  0  0
   12.8978   18.7637   20.9026 H   0  0  0  0  0  0  0  0  0  0  0  0
   12.0267   15.1000   17.6759 H   0  0  0  0  0  0  0  0  0  0  0  0
   10.6991   15.9344   18.5069 H   0  0  0  0  0  0  0  0  0  0  0  0
   10.4683   13.7569   19.4147 H   0  0  0  0  0  0  0  0  0  0  0  0
   12.2026   13.3945   19.3227 H   0  0  0  0  0  0  0  0  0  0  0  0
    6.4247    9.5100   25.4647 H   0  0  0  0  0  0  0  0  0  0  0  0
    5.7130   10.5244   24.1797 H   0  0  0  0  0  0  0  0  0  0  0  0
   13.6929   15.9582   19.1303 H   0  0  0  0  0  0  0  0  0  0  0  0
   12.5188   17.2988   19.2270 H   0  0  0  0  0  0  0  0  0  0  0  0
    4.9697   11.5516   26.2686 H   0  0  0  0  0  0  0  0  0  0  0  0
    6.5726   11.3632   27.0023 H   0  0  0  0  0  0  0  0  0  0  0  0
   10.6081   15.0179   21.3611 H   0  0  0  0  0  0  0  0  0  0  0  0
   13.0142   13.2055   21.3557 H   0  0  0  0  0  0  0  0  0  0  0  0
   12.6283   14.2550   22.7615 H   0  0  0  0  0  0  0  0  0  0  0  0
    5.8058   13.6816   25.9181 H   0  0  0  0  0  0  0  0  0  0  0  0
   11.1297   11.9120   21.7998 H   0  0  0  0  0  0  0  0  0  0  0  0
  1  2  1  0  0  0  0
  1 16  2  0  0  0  0
  2  3  2  0  0  0  0
  2  7  1  0  0  0  0
  3  4  1  0  0  0  0
  3 17  1  0  0  0  0
  4 18  1  0  0  0  0
  4 21  2  0  0  0  0
  5  6  2  0  0  0  0
  6  8  1  0  0  0  0
  7 20  1  0  0  0  0
  7 22  2  0  0  0  0
  8 19  1  0  0  0  0
  8 23  2  0  0  0  0
  9 10  1  0  0  0  0
  9 12  1  0  0  0  0
 10 14  1  0  0  0  0
 11 13  1  0  0  0  0
 11 17  1  0  0  0  0
 12 19  1  0  0  0  0
 13 18  1  0  0  0  0
 14 15  1  1  0  0  0
 14 19  1  0  0  0  0
 15 20  1  0  0  0  0
 16 17  1  0  0  0  0
  1 24  1  0  0  0  0
  5 25  1  0  0  0  0
  5 26  1  0  0  0  0
  6 27  1  0  0  0  0
  9 28  1  0  0  0  0
  9 29  1  0  0  0  0
 10 30  1  0  0  0  0
 10 31  1  0  0  0  0
 11 32  1  0  0  0  0
 11 33  1  0  0  0  0
 12 34  1  0  0  0  0
 12 35  1  0  0  0  0
 13 36  1  0  0  0  0
 13 37  1  0  0  0  0
 14 38  1  0  0  0  0
 15 39  1  0  0  0  0
 15 40  1  0  0  0  0
 18 41  1  0  0  0  0
 20 42  1  0  0  0  0
M  END
> <Catalog ID>
Z4615838742

> <MW>
317.343

> <MW (desalted)>
317.343

> <ClogP>
-1.038

> <logS>
-1.996

> <HBD>
2

> <HBA>
4

> <TPSA>
96.33

> <RotBonds>
4

> <ROCS_ShapeQuery>
A71EV2A-x0451_0A_A71EV2A-x0310_0A_A71EV2A-x0416_0A_peptide

> <ROCS_TanimotoCombo>
0.538 

> <ROCS_ShapeTanimoto>
0.329 

> <ROCS_ColorTanimoto>
0.208 

> <ROCS_RefTversky>
0.296 

> <ROCS_RefColorTversky>
0.235 

> <ROCS_RefTverskyCombo>
0.531 

> <ROCS_FitTversky>
1.510 

> <ROCS_FitColorTversky>
0.648 

> <ROCS_FitTverskyCombo>
2.158 

> <ROCS_ColorScore>
-7.197

> <ROCS_Overlap>
2059.195

> <ROCS_Rank>
109                 

$$$$
untitled-dbase-7085_1728
  -OEChem-11132309573D

 50 53  0     0  0  0  0  0  0999 V2000
    6.9519   10.5110   24.7966 C   0  0  0  0  0  0  0  0  0  0  0  0
    7.8225    9.7134   24.0540 C   0  0  0  0  0  0  0  0  0  0  0  0
    8.2895   12.4547   24.2772 C   0  0  0  0  0  0  0  0  0  0  0  0
    7.1854   11.8817   24.9082 C   0  0  0  0  0  0  0  0  0  0  0  0
    9.1602   11.6571   23.5346 C   0  0  0  0  0  0  0  0  0  0  0  0
    8.9267   10.2864   23.4231 C   0  0  0  0  0  0  0  0  0  0  0  0
    6.2832   12.7065   25.6762 C   0  0  0  0  0  0  0  0  0  0  0  0
    5.1127   13.5351   27.3201 C   0  0  0  0  0  0  0  0  0  0  0  0
   14.8496   16.8486   20.0739 C   0  0  0  0  0  0  0  0  0  0  0  0
   13.5395   16.7712   19.8310 C   0  0  0  0  0  0  0  0  0  0  0  0
   12.9467   15.4543   19.5353 C   0  0  0  0  0  0  0  0  0  0  0  0
   10.9992   13.3562   23.2992 C   0  0  0  0  0  0  0  0  0  0  0  0
    4.5438   13.7271   28.6775 C   0  0  0  0  0  0  0  0  0  0  0  0
    3.7906   12.4960   29.1785 C   0  0  0  0  0  0  0  0  0  0  0  0
    4.6997   11.3529   29.6385 C   0  0  0  0  0  0  0  0  0  0  0  0
    5.4938   10.6685   28.5232 C   0  0  0  0  0  0  0  0  0  0  0  0
    6.5599   11.5571   27.8879 C   0  0  0  0  0  0  0  0  0  0  0  0
   11.8690   13.4712   20.8190 C   0  0  0  0  0  0  0  0  0  0  0  0
   12.4513   15.1389   22.0210 C   0  0  0  0  0  0  0  0  0  0  0  0
   12.1403   13.6608   22.3247 C   0  0  0  0  0  0  0  0  0  0  0  0
    5.5963   13.7197   25.1998 N   0  0  0  0  0  0  0  0  0  0  0  0
    4.8558   14.2445   26.2386 N   0  0  0  0  0  0  0  0  0  0  0  0
    6.0115   12.5558   27.0001 N   0  0  0  0  0  0  0  0  0  0  0  0
   12.5000   14.7604   20.6223 N   0  0  0  0  0  0  0  0  0  0  0  0
   10.2632   12.2318   22.9024 N   0  0  0  0  0  0  0  0  0  0  0  0
   12.8852   15.0565   18.3746 O   0  0  0  0  0  0  0  0  0  0  0  0
   10.8154   14.0563   24.2897 O   0  0  0  0  0  0  0  0  0  0  0  0
    9.7567    9.5097   22.7123 F   0  0  0  0  0  0  0  0  0  0  0  0
    6.0952   10.0497   25.2825 H   0  0  0  0  0  0  0  0  0  0  0  0
    7.6409    8.6462   23.9660 H   0  0  0  0  0  0  0  0  0  0  0  0
    8.4751   13.5240   24.3615 H   0  0  0  0  0  0  0  0  0  0  0  0
   15.3430   17.7885   20.2974 H   0  0  0  0  0  0  0  0  0  0  0  0
   15.4609   15.9526   20.0523 H   0  0  0  0  0  0  0  0  0  0  0  0
   12.8971   17.6420   19.8439 H   0  0  0  0  0  0  0  0  0  0  0  0
    5.3362   14.0083   29.3808 H   0  0  0  0  0  0  0  0  0  0  0  0
    3.8442   14.5713   28.6404 H   0  0  0  0  0  0  0  0  0  0  0  0
    3.1820   12.8002   30.0395 H   0  0  0  0  0  0  0  0  0  0  0  0
    3.0926   12.1319   28.4141 H   0  0  0  0  0  0  0  0  0  0  0  0
    5.3865   11.7153   30.4132 H   0  0  0  0  0  0  0  0  0  0  0  0
    4.0687   10.5930   30.1170 H   0  0  0  0  0  0  0  0  0  0  0  0
    5.9958    9.7968   28.9610 H   0  0  0  0  0  0  0  0  0  0  0  0
    4.8069   10.2866   27.7579 H   0  0  0  0  0  0  0  0  0  0  0  0
    7.1460   12.0846   28.6495 H   0  0  0  0  0  0  0  0  0  0  0  0
    7.2560   10.9281   27.3241 H   0  0  0  0  0  0  0  0  0  0  0  0
   12.3967   12.6354   20.3534 H   0  0  0  0  0  0  0  0  0  0  0  0
   10.8151   13.4692   20.5270 H   0  0  0  0  0  0  0  0  0  0  0  0
   11.6458   15.8474   22.2342 H   0  0  0  0  0  0  0  0  0  0  0  0
   13.4005   15.5129   22.4117 H   0  0  0  0  0  0  0  0  0  0  0  0
   13.0544   13.1255   22.6322 H   0  0  0  0  0  0  0  0  0  0  0  0
   10.5806   11.7780   22.0380 H   0  0  0  0  0  0  0  0  0  0  0  0
  1  2  2  0  0  0  0
  1  4  1  0  0  0  0
  2  6  1  0  0  0  0
  3  4  2  0  0  0  0
  3  5  1  0  0  0  0
  4  7  1  0  0  0  0
  5  6  2  0  0  0  0
  5 25  1  0  0  0  0
  6 28  1  0  0  0  0
  7 21  2  0  0  0  0
  7 23  1  0  0  0  0
  8 13  1  0  0  0  0
  8 22  2  0  0  0  0
  8 23  1  0  0  0  0
  9 10  2  0  0  0  0
 10 11  1  0  0  0  0
 11 24  1  0  0  0  0
 11 26  2  0  0  0  0
 12 20  1  0  0  0  0
 12 25  1  0  0  0  0
 12 27  2  0  0  0  0
 13 14  1  0  0  0  0
 14 15  1  0  0  0  0
 15 16  1  0  0  0  0
 16 17  1  0  0  0  0
 17 23  1  0  0  0  0
 18 20  1  0  0  0  0
 18 24  1  0  0  0  0
 19 20  1  0  0  0  0
 19 24  1  0  0  0  0
 21 22  1  0  0  0  0
  1 29  1  0  0  0  0
  2 30  1  0  0  0  0
  3 31  1  0  0  0  0
  9 32  1  0  0  0  0
  9 33  1  0  0  0  0
 10 34  1  0  0  0  0
 13 35  1  0  0  0  0
 13 36  1  0  0  0  0
 14 37  1  0  0  0  0
 14 38  1  0  0  0  0
 15 39  1  0  0  0  0
 15 40  1  0  0  0  0
 16 41  1  0  0  0  0
 16 42  1  0  0  0  0
 17 43  1  0  0  0  0
 17 44  1  0  0  0  0
 18 45  1  0  0  0  0
 18 46  1  0  0  0  0
 19 47  1  0  0  0  0
 19 48  1  0  0  0  0
 20 49  1  0  0  0  0
 25 50  1  0  0  0  0
M  END
> <Catalog ID>
Z4540320761

> <MW>
383.419

> <MW (desalted)>
383.419

> <ClogP>
1.803

> <logS>
-4.329

> <HBD>
1

> <HBA>
4

> <TPSA>
80.12

> <RotBonds>
4

> <ROCS_ShapeQuery>
A71EV2A-x0451_0A_A71EV2A-x0310_0A_A71EV2A-x0416_0A_peptide

> <ROCS_TanimotoCombo>
0.538 

> <ROCS_ShapeTanimoto>
0.371 

> <ROCS_ColorTanimoto>
0.166 

> <ROCS_RefTversky>
0.332 

> <ROCS_RefColorTversky>
0.196 

> <ROCS_RefTverskyCombo>
0.528 

> <ROCS_FitTversky>
1.464 

> <ROCS_FitColorTversky>
0.527 

> <ROCS_FitTverskyCombo>
1.990 

> <ROCS_ColorScore>
-5.990

> <ROCS_Overlap>
2312.461

> <ROCS_Rank>
110                 

$$$$
untitled-dbase-2293_3962
  -OEChem-11132309573D

 50 51  0     1  0  0  0  0  0999 V2000
    7.7408   13.2050   24.9162 C   0  0  0  0  0  0  0  0  0  0  0  0
    6.6002   13.2575   25.7252 C   0  0  0  0  0  0  0  0  0  0  0  0
    6.4793   10.8633   25.7077 C   0  0  0  0  0  0  0  0  0  0  0  0
    7.6139   10.8014   24.8788 C   0  0  0  0  0  0  0  0  0  0  0  0
    8.2922   11.9806   24.4987 C   0  0  0  0  0  0  0  0  0  0  0  0
    5.9759   12.0872   26.1313 C   0  0  0  0  0  0  0  0  0  0  0  0
   10.3363   15.4917   20.4233 C   0  0  0  0  0  0  0  0  0  0  0  0
   10.4011   15.7398   21.7355 C   0  0  0  0  0  0  0  0  0  0  0  0
   11.6659   15.4858   22.4824 C   0  0  0  0  0  0  0  0  0  0  0  0
   10.3949   12.9888   23.5822 C   0  0  0  0  0  0  0  0  0  0  0  0
    8.0993    9.4471   24.4414 C   0  0  0  0  0  0  0  0  0  0  0  0
    9.8483   10.5956   23.1071 C   0  0  0  0  0  0  0  0  0  0  0  0
    8.7213    9.5667   23.0587 C   0  0  1  0  0  0  0  0  0  0  0  0
    9.9340    7.4682   23.7142 C   0  0  0  0  0  0  0  0  0  0  0  0
    8.1021    7.3762   21.9997 C   0  0  0  0  0  0  0  0  0  0  0  0
   13.5738   13.9271   22.5677 C   0  0  0  0  0  0  0  0  0  0  0  0
    4.4416   13.4286   27.3569 C   0  0  0  0  0  0  0  0  0  0  0  0
   11.3037   12.9770   22.3711 C   0  0  0  0  0  0  0  0  0  0  0  0
    9.2411    8.2139   22.5760 C   0  0  0  0  0  0  0  0  0  0  0  0
    9.4930   11.9049   23.6903 N   0  0  0  0  0  0  0  0  0  0  0  0
   12.1232   14.1457   22.4565 N   0  0  0  0  0  0  0  0  0  0  0  0
   12.2189   16.4107   23.0797 O   0  0  0  0  0  0  0  0  0  0  0  0
   10.5221   13.9172   24.3829 O   0  0  0  0  0  0  0  0  0  0  0  0
    4.8910   12.1365   26.9495 O   0  0  0  0  0  0  0  0  0  0  0  0
    8.1901   14.1601   24.6672 H   0  0  0  0  0  0  0  0  0  0  0  0
    6.2156   14.2228   26.0442 H   0  0  0  0  0  0  0  0  0  0  0  0
    5.9889    9.9462   26.0246 H   0  0  0  0  0  0  0  0  0  0  0  0
    9.4381   15.6613   19.8399 H   0  0  0  0  0  0  0  0  0  0  0  0
   11.2071   15.1107   19.8998 H   0  0  0  0  0  0  0  0  0  0  0  0
    9.5433   16.1618   22.2444 H   0  0  0  0  0  0  0  0  0  0  0  0
    8.8309    9.0945   25.1647 H   0  0  0  0  0  0  0  0  0  0  0  0
    7.2709    8.7441   24.4030 H   0  0  0  0  0  0  0  0  0  0  0  0
   10.7154   10.2125   23.6862 H   0  0  0  0  0  0  0  0  0  0  0  0
   10.2218   10.7354   22.0745 H   0  0  0  0  0  0  0  0  0  0  0  0
    7.9623    9.9127   22.3439 H   0  0  0  0  0  0  0  0  0  0  0  0
    9.2410    7.2654   24.5380 H   0  0  0  0  0  0  0  0  0  0  0  0
   10.7695    8.0542   24.1112 H   0  0  0  0  0  0  0  0  0  0  0  0
   10.3334    6.5104   23.3643 H   0  0  0  0  0  0  0  0  0  0  0  0
    7.3368    7.1697   22.7558 H   0  0  0  0  0  0  0  0  0  0  0  0
    8.4760    6.4172   21.6256 H   0  0  0  0  0  0  0  0  0  0  0  0
    7.6210    7.8963   21.1646 H   0  0  0  0  0  0  0  0  0  0  0  0
   13.8493   13.8231   23.6276 H   0  0  0  0  0  0  0  0  0  0  0  0
   13.8490   13.0103   22.0258 H   0  0  0  0  0  0  0  0  0  0  0  0
   14.1081   14.7846   22.1326 H   0  0  0  0  0  0  0  0  0  0  0  0
    3.5695   13.3236   28.0068 H   0  0  0  0  0  0  0  0  0  0  0  0
    4.1832   14.0203   26.4751 H   0  0  0  0  0  0  0  0  0  0  0  0
    5.2441   13.9274   27.9056 H   0  0  0  0  0  0  0  0  0  0  0  0
   10.6789   12.9941   21.4850 H   0  0  0  0  0  0  0  0  0  0  0  0
   11.8984   12.0711   22.4088 H   0  0  0  0  0  0  0  0  0  0  0  0
    9.9760    8.3907   21.7814 H   0  0  0  0  0  0  0  0  0  0  0  0
  1  2  2  0  0  0  0
  1  5  1  0  0  0  0
  2  6  1  0  0  0  0
  3  4  1  0  0  0  0
  3  6  2  0  0  0  0
  4  5  2  0  0  0  0
  4 11  1  0  0  0  0
  5 20  1  0  0  0  0
  6 24  1  0  0  0  0
  7  8  2  0  0  0  0
  8  9  1  0  0  0  0
  9 21  1  0  0  0  0
  9 22  2  0  0  0  0
 10 18  1  0  0  0  0
 10 20  1  0  0  0  0
 10 23  2  0  0  0  0
 11 13  1  0  0  0  0
 12 13  1  0  0  0  0
 12 20  1  0  0  0  0
 13 19  1  0  0  0  0
 14 19  1  0  0  0  0
 15 19  1  0  0  0  0
 16 21  1  0  0  0  0
 17 24  1  0  0  0  0
 18 21  1  0  0  0  0
  1 25  1  0  0  0  0
  2 26  1  0  0  0  0
  3 27  1  0  0  0  0
  7 28  1  0  0  0  0
  7 29  1  0  0  0  0
  8 30  1  0  0  0  0
 11 31  1  0  0  0  0
 11 32  1  0  0  0  0
 12 33  1  0  0  0  0
 12 34  1  0  0  0  0
 13 35  1  0  0  0  0
 14 36  1  0  0  0  0
 14 37  1  0  0  0  0
 14 38  1  0  0  0  0
 15 39  1  0  0  0  0
 15 40  1  0  0  0  0
 15 41  1  0  0  0  0
 16 42  1  0  0  0  0
 16 43  1  0  0  0  0
 16 44  1  0  0  0  0
 17 45  1  0  0  0  0
 17 46  1  0  0  0  0
 17 47  1  0  0  0  0
 18 48  1  0  0  0  0
 18 49  1  0  0  0  0
 19 50  1  0  0  0  0
M  END
> <Catalog ID>
Z2714623058

> <MW>
330.421

> <MW (desalted)>
330.421

> <ClogP>
3.321

> <logS>
-4.474

> <HBD>
0

> <HBA>
3

> <TPSA>
49.85

> <RotBonds>
5

> <ROCS_ShapeQuery>
A71EV2A-x0451_0A_A71EV2A-x0310_0A_A71EV2A-x0416_0A_peptide

> <ROCS_TanimotoCombo>
0.538 

> <ROCS_ShapeTanimoto>
0.385 

> <ROCS_ColorTanimoto>
0.153 

> <ROCS_RefTversky>
0.332 

> <ROCS_RefColorTversky>
0.169 

> <ROCS_RefTverskyCombo>
0.501 

> <ROCS_FitTversky>
1.695 

> <ROCS_FitColorTversky>
0.624 

> <ROCS_FitTverskyCombo>
2.319 

> <ROCS_ColorScore>
-5.138

> <ROCS_Overlap>
2308.139

> <ROCS_Rank>
111                 

$$$$
untitled-dbase-6575_5415
  -OEChem-11132309573D

 42 43  0     1  0  0  0  0  0999 V2000
    9.5174   10.5851   23.3614 C   0  0  0  0  0  0  0  0  0  0  0  0
    9.4875   11.9256   23.7737 C   0  0  0  0  0  0  0  0  0  0  0  0
    8.3709   12.0137   24.5683 C   0  0  0  0  0  0  0  0  0  0  0  0
    7.7458   13.0603   25.3056 C   0  0  0  0  0  0  0  0  0  0  0  0
    6.0315   11.4689   26.0205 C   0  0  0  0  0  0  0  0  0  0  0  0
    6.6214   10.4831   25.3257 C   0  0  0  0  0  0  0  0  0  0  0  0
    6.6227   12.7959   26.0017 C   0  0  0  0  0  0  0  0  0  0  0  0
    6.0055   13.8954   26.7474 C   0  0  0  0  0  0  0  0  0  0  0  0
   10.4305   13.0258   23.4458 C   0  0  0  0  0  0  0  0  0  0  0  0
   12.3577   16.1724   20.6332 C   0  0  0  0  0  0  0  0  0  0  0  0
   15.2801   15.9135   21.7607 C   0  0  0  0  0  0  0  0  0  0  0  0
   10.5708   14.6578   19.7907 C   0  0  0  0  0  0  0  0  0  0  0  0
   13.0913   13.2422   20.9105 C   0  0  0  0  0  0  0  0  0  0  0  0
   14.3416   17.0818   21.5458 C   0  0  0  0  0  0  0  0  0  0  0  0
   11.3500   15.1031   21.0306 C   0  0  1  0  0  0  0  0  0  0  0  0
   12.0162   13.9184   21.7592 C   0  0  1  0  0  0  0  0  0  0  0  0
    8.5057    9.8642   23.8464 N   0  0  0  0  0  0  0  0  0  0  0  0
    7.7879   10.7425   24.5980 N   0  0  0  0  0  0  0  0  0  0  0  0
   11.0550   12.9391   22.2115 N   0  0  0  0  0  0  0  0  0  0  0  0
    4.8636   14.2807   26.5292 O   0  0  0  0  0  0  0  0  0  0  0  0
   10.6195   13.9188   24.2676 O   0  0  0  0  0  0  0  0  0  0  0  0
   12.5641   16.5376   19.4829 O   0  0  0  0  0  0  0  0  0  0  0  0
   12.9951   16.6409   21.7461 O   0  0  0  0  0  0  0  0  0  0  0  0
   10.2385   10.0952   22.7223 H   0  0  0  0  0  0  0  0  0  0  0  0
    8.1896   14.0508   25.2895 H   0  0  0  0  0  0  0  0  0  0  0  0
    5.1275   11.2906   26.5911 H   0  0  0  0  0  0  0  0  0  0  0  0
    6.2321    9.4727   25.2983 H   0  0  0  0  0  0  0  0  0  0  0  0
    6.6444   14.3532   27.5207 H   0  0  0  0  0  0  0  0  0  0  0  0
   15.1889   15.5217   22.7775 H   0  0  0  0  0  0  0  0  0  0  0  0
   15.0633   15.1086   21.0508 H   0  0  0  0  0  0  0  0  0  0  0  0
   16.3186   16.2166   21.5908 H   0  0  0  0  0  0  0  0  0  0  0  0
   11.2414   14.1854   19.0642 H   0  0  0  0  0  0  0  0  0  0  0  0
    9.7923   13.9274   20.0362 H   0  0  0  0  0  0  0  0  0  0  0  0
   10.0938   15.5141   19.3029 H   0  0  0  0  0  0  0  0  0  0  0  0
   12.6561   12.8431   19.9873 H   0  0  0  0  0  0  0  0  0  0  0  0
   13.8790   13.9444   20.6171 H   0  0  0  0  0  0  0  0  0  0  0  0
   13.5531   12.4103   21.4519 H   0  0  0  0  0  0  0  0  0  0  0  0
   14.4378   17.4689   20.5270 H   0  0  0  0  0  0  0  0  0  0  0  0
   14.5590   17.8847   22.2564 H   0  0  0  0  0  0  0  0  0  0  0  0
   10.6176   15.5635   21.7077 H   0  0  0  0  0  0  0  0  0  0  0  0
   12.5015   14.2986   22.6666 H   0  0  0  0  0  0  0  0  0  0  0  0
   10.8954   12.1367   21.6108 H   0  0  0  0  0  0  0  0  0  0  0  0
  1  2  1  0  0  0  0
  1 17  2  0  0  0  0
  2  3  2  0  0  0  0
  2  9  1  0  0  0  0
  3  4  1  0  0  0  0
  3 18  1  0  0  0  0
  4  7  2  0  0  0  0
  5  6  2  0  0  0  0
  5  7  1  0  0  0  0
  6 18  1  0  0  0  0
  7  8  1  0  0  0  0
  8 20  2  0  0  0  0
  9 19  1  0  0  0  0
  9 21  2  0  0  0  0
 10 15  1  0  0  0  0
 10 22  2  0  0  0  0
 10 23  1  0  0  0  0
 11 14  1  0  0  0  0
 12 15  1  0  0  0  0
 13 16  1  0  0  0  0
 14 23  1  0  0  0  0
 15 16  1  0  0  0  0
 16 19  1  0  0  0  0
 17 18  1  0  0  0  0
  1 24  1  0  0  0  0
  4 25  1  0  0  0  0
  5 26  1  0  0  0  0
  6 27  1  0  0  0  0
  8 28  1  0  0  0  0
 11 29  1  0  0  0  0
 11 30  1  0  0  0  0
 11 31  1  0  0  0  0
 12 32  1  0  0  0  0
 12 33  1  0  0  0  0
 12 34  1  0  0  0  0
 13 35  1  0  0  0  0
 13 36  1  0  0  0  0
 13 37  1  0  0  0  0
 14 38  1  0  0  0  0
 14 39  1  0  0  0  0
 15 40  1  0  0  0  0
 16 41  1  0  0  0  0
 19 42  1  0  0  0  0
M  END
> <Catalog ID>
Z2453049736

> <MW>
317.34

> <MW (desalted)>
317.34

> <ClogP>
1.538

> <logS>
-2.279

> <HBD>
1

> <HBA>
4

> <TPSA>
89.77

> <RotBonds>
7

> <ROCS_ShapeQuery>
A71EV2A-x0451_0A_A71EV2A-x0310_0A_A71EV2A-x0416_0A_peptide

> <ROCS_TanimotoCombo>
0.538 

> <ROCS_ShapeTanimoto>
0.334 

> <ROCS_ColorTanimoto>
0.204 

> <ROCS_RefTversky>
0.299 

> <ROCS_RefColorTversky>
0.220 

> <ROCS_RefTverskyCombo>
0.519 

> <ROCS_FitTversky>
1.552 

> <ROCS_FitColorTversky>
0.730 

> <ROCS_FitTverskyCombo>
2.281 

> <ROCS_ColorScore>
-6.719

> <ROCS_Overlap>
2074.381

> <ROCS_Rank>
112                 

$$$$
untitled-dbase-2792_1639
  -OEChem-11132309573D

 51 53  0     1  0  0  0  0  0999 V2000
   10.1853   10.7848   23.2040 C   0  0  0  0  0  0  0  0  0  0  0  0
    9.7180   12.0009   23.6538 C   0  0  0  0  0  0  0  0  0  0  0  0
    8.4479   11.8861   24.2948 C   0  0  0  0  0  0  0  0  0  0  0  0
    8.0073   10.5768   24.3078 C   0  0  0  0  0  0  0  0  0  0  0  0
   14.1539   11.3437   24.5420 C   0  0  0  0  0  0  0  0  0  0  0  0
   14.2787   11.8154   23.2977 C   0  0  0  0  0  0  0  0  0  0  0  0
   10.4682   13.2176   23.4758 C   0  0  0  0  0  0  0  0  0  0  0  0
   13.7429   13.1570   22.9439 C   0  0  0  0  0  0  0  0  0  0  0  0
    7.6611   12.9972   24.9156 C   0  0  0  0  0  0  0  0  0  0  0  0
    6.7034   10.1114   24.8786 C   0  0  0  0  0  0  0  0  0  0  0  0
    6.1995   12.5922   25.1654 C   0  0  0  0  0  0  0  0  0  0  0  0
   12.4688   14.1570   19.5512 C   0  0  0  0  0  0  0  0  0  0  0  0
   13.8434   15.5524   21.1197 C   0  0  0  0  0  0  0  0  0  0  0  0
   12.1710   15.4405   18.7833 C   0  0  0  0  0  0  0  0  0  0  0  0
   13.4676   16.7576   20.2642 C   0  0  0  0  0  0  0  0  0  0  0  0
    6.0973   11.1902   25.8050 C   0  0  1  0  0  0  0  0  0  0  0  0
   12.7992   14.4219   21.0333 C   0  0  0  0  0  0  0  0  0  0  0  0
    4.6464   10.8514   26.1403 C   0  0  0  0  0  0  0  0  0  0  0  0
   11.5303   14.7888   21.8187 C   0  0  0  0  0  0  0  0  0  0  0  0
   10.7682   13.6088   22.1590 N   0  0  0  0  0  0  0  0  0  0  0  0
   13.3542   13.2131   21.6225 N   0  0  0  0  0  0  0  0  0  0  0  0
   10.8544   13.8872   24.4594 O   0  0  0  0  0  0  0  0  0  0  0  0
   13.6744   14.0753   23.7546 O   0  0  0  0  0  0  0  0  0  0  0  0
   13.2469   16.3679   18.9102 O   0  0  0  0  0  0  0  0  0  0  0  0
    9.0982    9.5088   23.5536 S   0  0  0  0  0  0  0  0  0  0  0  0
   11.1124   10.5780   22.6867 H   0  0  0  0  0  0  0  0  0  0  0  0
   14.5463   10.3636   24.7922 H   0  0  0  0  0  0  0  0  0  0  0  0
   13.6693   11.9045   25.3336 H   0  0  0  0  0  0  0  0  0  0  0  0
   14.7711   11.2221   22.5349 H   0  0  0  0  0  0  0  0  0  0  0  0
    8.1297   13.2653   25.8707 H   0  0  0  0  0  0  0  0  0  0  0  0
    7.6842   13.8881   24.2777 H   0  0  0  0  0  0  0  0  0  0  0  0
    6.0155    9.8989   24.0501 H   0  0  0  0  0  0  0  0  0  0  0  0
    6.8372    9.1803   25.4425 H   0  0  0  0  0  0  0  0  0  0  0  0
    5.7248   13.3424   25.8090 H   0  0  0  0  0  0  0  0  0  0  0  0
    5.6528   12.5981   24.2128 H   0  0  0  0  0  0  0  0  0  0  0  0
   11.5764   13.5148   19.5003 H   0  0  0  0  0  0  0  0  0  0  0  0
   13.2810   13.6020   19.0604 H   0  0  0  0  0  0  0  0  0  0  0  0
   14.8416   15.1883   20.8432 H   0  0  0  0  0  0  0  0  0  0  0  0
   13.9097   15.8876   22.1648 H   0  0  0  0  0  0  0  0  0  0  0  0
   11.9773   15.2452   17.7214 H   0  0  0  0  0  0  0  0  0  0  0  0
   11.2742   15.9162   19.1949 H   0  0  0  0  0  0  0  0  0  0  0  0
   12.5373   17.1977   20.6372 H   0  0  0  0  0  0  0  0  0  0  0  0
   14.2333   17.5400   20.3000 H   0  0  0  0  0  0  0  0  0  0  0  0
    6.6680   11.2032   26.7440 H   0  0  0  0  0  0  0  0  0  0  0  0
    4.0519   10.8304   25.2283 H   0  0  0  0  0  0  0  0  0  0  0  0
    4.2383   11.6025   26.8147 H   0  0  0  0  0  0  0  0  0  0  0  0
    4.5968    9.8756   26.6209 H   0  0  0  0  0  0  0  0  0  0  0  0
   11.8186   15.3091   22.7440 H   0  0  0  0  0  0  0  0  0  0  0  0
   10.9067   15.4538   21.2032 H   0  0  0  0  0  0  0  0  0  0  0  0
   10.4899   13.0027   21.3942 H   0  0  0  0  0  0  0  0  0  0  0  0
   13.4735   12.4175   21.0102 H   0  0  0  0  0  0  0  0  0  0  0  0
  1  2  2  0  0  0  0
  1 25  1  0  0  0  0
  2  3  1  0  0  0  0
  2  7  1  0  0  0  0
  3  4  2  0  0  0  0
  3  9  1  0  0  0  0
  4 10  1  0  0  0  0
  4 25  1  0  0  0  0
  5  6  2  0  0  0  0
  6  8  1  0  0  0  0
  7 20  1  0  0  0  0
  7 22  2  0  0  0  0
  8 21  1  0  0  0  0
  8 23  2  0  0  0  0
  9 11  1  0  0  0  0
 10 16  1  0  0  0  0
 11 16  1  0  0  0  0
 12 14  1  0  0  0  0
 12 17  1  0  0  0  0
 13 15  1  0  0  0  0
 13 17  1  0  0  0  0
 14 24  1  0  0  0  0
 15 24  1  0  0  0  0
 16 18  1  0  0  0  0
 17 19  1  0  0  0  0
 17 21  1  0  0  0  0
 19 20  1  0  0  0  0
  1 26  1  0  0  0  0
  5 27  1  0  0  0  0
  5 28  1  0  0  0  0
  6 29  1  0  0  0  0
  9 30  1  0  0  0  0
  9 31  1  0  0  0  0
 10 32  1  0  0  0  0
 10 33  1  0  0  0  0
 11 34  1  0  0  0  0
 11 35  1  0  0  0  0
 12 36  1  0  0  0  0
 12 37  1  0  0  0  0
 13 38  1  0  0  0  0
 13 39  1  0  0  0  0
 14 40  1  0  0  0  0
 14 41  1  0  0  0  0
 15 42  1  0  0  0  0
 15 43  1  0  0  0  0
 16 44  1  0  0  0  0
 18 45  1  0  0  0  0
 18 46  1  0  0  0  0
 18 47  1  0  0  0  0
 19 48  1  0  0  0  0
 19 49  1  0  0  0  0
 20 50  1  0  0  0  0
 21 51  1  0  0  0  0
M  END
> <Catalog ID>
Z4425283296

> <MW>
362.486

> <MW (desalted)>
362.486

> <ClogP>
2.193

> <logS>
-4.918

> <HBD>
2

> <HBA>
3

> <TPSA>
67.43

> <RotBonds>
5

> <ROCS_ShapeQuery>
A71EV2A-x0451_0A_A71EV2A-x0310_0A_A71EV2A-x0416_0A_peptide

> <ROCS_TanimotoCombo>
0.538 

> <ROCS_ShapeTanimoto>
0.347 

> <ROCS_ColorTanimoto>
0.191 

> <ROCS_RefTversky>
0.309 

> <ROCS_RefColorTversky>
0.213 

> <ROCS_RefTverskyCombo>
0.523 

> <ROCS_FitTversky>
1.539 

> <ROCS_FitColorTversky>
0.643 

> <ROCS_FitTverskyCombo>
2.182 

> <ROCS_ColorScore>
-6.520

> <ROCS_Overlap>
2149.569

> <ROCS_Rank>
113                 

$$$$
untitled-dbase-195_6830
  -OEChem-11132309573D

 56 59  0     1  0  0  0  0  0999 V2000
   11.3456   13.2203   24.3145 C   0  0  0  0  0  0  0  0  0  0  0  0
   14.7226   16.1518   19.1872 C   0  0  0  0  0  0  0  0  0  0  0  0
   13.8192   15.3253   18.5192 C   0  0  0  0  0  0  0  0  0  0  0  0
   14.2817   16.9700   20.2274 C   0  0  0  0  0  0  0  0  0  0  0  0
    6.3488   11.9480   28.0993 C   0  0  0  0  0  0  0  0  0  0  0  0
    4.1924   11.7006   27.0382 C   0  0  0  0  0  0  0  0  0  0  0  0
   12.4749   15.3169   18.8913 C   0  0  0  0  0  0  0  0  0  0  0  0
   12.9374   16.9616   20.5995 C   0  0  0  0  0  0  0  0  0  0  0  0
    5.7753   12.7638   29.0746 C   0  0  0  0  0  0  0  0  0  0  0  0
    3.6189   12.5164   28.0135 C   0  0  0  0  0  0  0  0  0  0  0  0
    5.5573   11.4164   27.0810 C   0  0  0  0  0  0  0  0  0  0  0  0
    8.5951   12.2324   23.8765 C   0  0  0  0  0  0  0  0  0  0  0  0
   12.0340   16.1351   19.9314 C   0  0  0  0  0  0  0  0  0  0  0  0
    7.4495   12.2612   24.7086 C   0  0  0  0  0  0  0  0  0  0  0  0
    4.4104   13.0480   29.0317 C   0  0  0  0  0  0  0  0  0  0  0  0
    9.0446   10.9298   23.8399 C   0  0  0  0  0  0  0  0  0  0  0  0
    7.2274   10.9775   25.1588 C   0  0  0  0  0  0  0  0  0  0  0  0
   10.1290   10.2666   23.1955 C   0  0  0  0  0  0  0  0  0  0  0  0
   10.2965    8.9416   23.3705 C   0  0  0  0  0  0  0  0  0  0  0  0
    9.3940    8.1653   24.2050 C   0  0  0  0  0  0  0  0  0  0  0  0
    8.3705    8.7855   24.8143 C   0  0  0  0  0  0  0  0  0  0  0  0
    9.1885   13.3211   23.1975 C   0  0  0  0  0  0  0  0  0  0  0  0
   10.4684   13.8158   23.3583 C   0  0  0  0  0  0  0  0  0  0  0  0
    6.1764   10.5361   26.0289 C   0  0  0  0  0  0  0  0  0  0  0  0
   10.8953   14.9978   22.5254 C   0  0  0  0  0  0  0  0  0  0  0  0
    6.6347   13.4518   25.0380 C   0  0  0  0  0  0  0  0  0  0  0  0
   10.1159   17.4722   20.8932 C   0  0  0  0  0  0  0  0  0  0  0  0
   10.5755   16.1267   20.3356 C   0  0  2  0  0  0  0  0  0  0  0  0
   12.0615   12.7392   25.0909 N   0  0  0  0  0  0  0  0  0  0  0  0
    8.1995   10.1580   24.6314 N   0  0  0  0  0  0  0  0  0  0  0  0
   10.2977   15.0642   21.2764 N   0  0  0  0  0  0  0  0  0  0  0  0
    5.7184    9.3753   25.9502 O   0  0  0  0  0  0  0  0  0  0  0  0
   11.7053   15.8240   22.9431 O   0  0  0  0  0  0  0  0  0  0  0  0
    3.8596   13.8312   29.9683 F   0  0  0  0  0  0  0  0  0  0  0  0
   15.7695   16.1572   18.8982 H   0  0  0  0  0  0  0  0  0  0  0  0
   14.1625   14.6873   17.7100 H   0  0  0  0  0  0  0  0  0  0  0  0
   14.9850   17.6128   20.7484 H   0  0  0  0  0  0  0  0  0  0  0  0
    7.4133   11.7329   28.1423 H   0  0  0  0  0  0  0  0  0  0  0  0
    3.5660   11.2911   26.2496 H   0  0  0  0  0  0  0  0  0  0  0  0
   11.7781   14.6698   18.3650 H   0  0  0  0  0  0  0  0  0  0  0  0
   12.6030   17.6025   21.4110 H   0  0  0  0  0  0  0  0  0  0  0  0
    6.3913   13.1775   29.8674 H   0  0  0  0  0  0  0  0  0  0  0  0
    2.5561   12.7381   27.9801 H   0  0  0  0  0  0  0  0  0  0  0  0
   10.8129   10.8286   22.5684 H   0  0  0  0  0  0  0  0  0  0  0  0
   11.1155    8.4175   22.8902 H   0  0  0  0  0  0  0  0  0  0  0  0
    9.5674    7.1022   24.3177 H   0  0  0  0  0  0  0  0  0  0  0  0
    7.6679    8.2571   25.4475 H   0  0  0  0  0  0  0  0  0  0  0  0
    8.5417   13.8480   22.4624 H   0  0  0  0  0  0  0  0  0  0  0  0
    5.8205   13.5854   24.3091 H   0  0  0  0  0  0  0  0  0  0  0  0
    6.1826   13.3748   26.0400 H   0  0  0  0  0  0  0  0  0  0  0  0
    7.2391   14.3735   25.0430 H   0  0  0  0  0  0  0  0  0  0  0  0
   10.6971   17.7516   21.7788 H   0  0  0  0  0  0  0  0  0  0  0  0
   10.2400   18.2613   20.1430 H   0  0  0  0  0  0  0  0  0  0  0  0
    9.0568   17.4594   21.1743 H   0  0  0  0  0  0  0  0  0  0  0  0
    9.9599   15.9030   19.4556 H   0  0  0  0  0  0  0  0  0  0  0  0
    9.6394   14.3389   21.0120 H   0  0  0  0  0  0  0  0  0  0  0  0
  1 23  1  0  0  0  0
  1 29  3  0  0  0  0
  2  3  1  0  0  0  0
  2  4  2  0  0  0  0
  3  7  2  0  0  0  0
  4  8  1  0  0  0  0
  5  9  2  0  0  0  0
  5 11  1  0  0  0  0
  6 10  1  0  0  0  0
  6 11  2  0  0  0  0
  7 13  1  0  0  0  0
  8 13  2  0  0  0  0
  9 15  1  0  0  0  0
 10 15  2  0  0  0  0
 11 24  1  0  0  0  0
 12 14  1  0  0  0  0
 12 16  2  0  0  0  0
 12 22  1  4  0  0  0
 13 28  1  0  0  0  0
 14 17  2  0  0  0  0
 14 26  1  0  0  0  0
 15 34  1  0  0  0  0
 16 18  1  0  0  0  0
 16 30  1  0  0  0  0
 17 24  1  0  0  0  0
 17 30  1  0  0  0  0
 18 19  2  0  0  0  0
 19 20  1  0  0  0  0
 20 21  2  0  0  0  0
 21 30  1  0  0  0  0
 22 23  2  0  0  0  0
 23 25  1  0  0  0  0
 24 32  2  0  0  0  0
 25 31  1  0  0  0  0
 25 33  2  0  0  0  0
 27 28  1  0  0  0  0
 28 31  1  0  0  0  0
  2 35  1  0  0  0  0
  3 36  1  0  0  0  0
  4 37  1  0  0  0  0
  5 38  1  0  0  0  0
  6 39  1  0  0  0  0
  7 40  1  0  0  0  0
  8 41  1  0  0  0  0
  9 42  1  0  0  0  0
 10 43  1  0  0  0  0
 18 44  1  0  0  0  0
 19 45  1  0  0  0  0
 20 46  1  0  0  0  0
 21 47  1  0  0  0  0
 22 48  1  0  0  0  0
 26 49  1  0  0  0  0
 26 50  1  0  0  0  0
 26 51  1  0  0  0  0
 27 52  1  0  0  0  0
 27 53  1  0  0  0  0
 27 54  1  0  0  0  0
 28 55  1  0  0  0  0
 31 56  1  0  0  0  0
M  END
> <Catalog ID>
Z46089542

> <MW>
451.492

> <MW (desalted)>
451.492

> <ClogP>
5.575

> <logS>
-7.05

> <HBD>
1

> <HBA>
3

> <TPSA>
74.37

> <RotBonds>
6

> <ROCS_ShapeQuery>
A71EV2A-x0451_0A_A71EV2A-x0310_0A_A71EV2A-x0416_0A_peptide

> <ROCS_TanimotoCombo>
0.538 

> <ROCS_ShapeTanimoto>
0.412 

> <ROCS_ColorTanimoto>
0.126 

> <ROCS_RefTversky>
0.369 

> <ROCS_RefColorTversky>
0.145 

> <ROCS_RefTverskyCombo>
0.514 

> <ROCS_FitTversky>
1.397 

> <ROCS_FitColorTversky>
0.482 

> <ROCS_FitTverskyCombo>
1.878 

> <ROCS_ColorScore>
-4.435

> <ROCS_Overlap>
2571.311

> <ROCS_Rank>
114                 

$$$$
untitled-dbase-7202_13983
  -OEChem-11132309573D

 45 46  0     0  0  0  0  0  0999 V2000
    6.2551   11.3962   26.0337 C   0  0  0  0  0  0  0  0  0  0  0  0
    6.7638   12.6738   25.8398 C   0  0  0  0  0  0  0  0  0  0  0  0
    6.8585   10.3163   25.3999 C   0  0  0  0  0  0  0  0  0  0  0  0
    7.8839   12.8709   25.0243 C   0  0  0  0  0  0  0  0  0  0  0  0
    7.9752   10.5161   24.5753 C   0  0  0  0  0  0  0  0  0  0  0  0
    8.5237   11.7932   24.3891 C   0  0  0  0  0  0  0  0  0  0  0  0
    9.5797    9.4507   23.0815 C   0  0  0  0  0  0  0  0  0  0  0  0
   15.8238   10.9443   25.2187 C   0  0  0  0  0  0  0  0  0  0  0  0
   14.8472   11.6776   25.7617 C   0  0  0  0  0  0  0  0  0  0  0  0
   15.0877   13.0989   26.1279 C   0  0  0  0  0  0  0  0  0  0  0  0
   10.4539   13.1360   23.5566 C   0  0  0  0  0  0  0  0  0  0  0  0
   13.0182   14.6846   23.4823 C   0  0  0  0  0  0  0  0  0  0  0  0
   10.0463   10.8317   22.6897 C   0  0  0  0  0  0  0  0  0  0  0  0
   11.1606   13.4625   22.2583 C   0  0  0  0  0  0  0  0  0  0  0  0
   11.9374   14.7547   22.4154 C   0  0  0  0  0  0  0  0  0  0  0  0
   13.9115   15.2714   26.3330 C   0  0  0  0  0  0  0  0  0  0  0  0
   14.2057   16.1230   25.1095 C   0  0  0  0  0  0  0  0  0  0  0  0
    8.5372    9.3901   23.9650 N   0  0  0  0  0  0  0  0  0  0  0  0
    9.6867   11.9537   23.5610 N   0  0  0  0  0  0  0  0  0  0  0  0
   13.9342   13.8648   26.0334 N   0  0  0  0  0  0  0  0  0  0  0  0
   13.2370   15.9232   24.0699 N   0  0  0  0  0  0  0  0  0  0  0  0
   10.0517    8.4489   22.5414 O   0  0  0  0  0  0  0  0  0  0  0  0
   16.1906   13.5156   26.4672 O   0  0  0  0  0  0  0  0  0  0  0  0
   10.6156   13.8981   24.5122 O   0  0  0  0  0  0  0  0  0  0  0  0
   13.6129   13.6520   23.7790 O   0  0  0  0  0  0  0  0  0  0  0  0
    5.3988   11.2409   26.6827 H   0  0  0  0  0  0  0  0  0  0  0  0
    6.2953   13.5238   26.3279 H   0  0  0  0  0  0  0  0  0  0  0  0
    6.4560    9.3185   25.5574 H   0  0  0  0  0  0  0  0  0  0  0  0
    8.2453   13.8901   24.9420 H   0  0  0  0  0  0  0  0  0  0  0  0
   15.6410    9.9078   24.9552 H   0  0  0  0  0  0  0  0  0  0  0  0
   16.8133   11.3423   25.0225 H   0  0  0  0  0  0  0  0  0  0  0  0
   13.8707   11.2409   25.9410 H   0  0  0  0  0  0  0  0  0  0  0  0
   11.1408   10.8073   22.6291 H   0  0  0  0  0  0  0  0  0  0  0  0
    9.6501   11.0183   21.6861 H   0  0  0  0  0  0  0  0  0  0  0  0
   10.3764   13.5806   21.5117 H   0  0  0  0  0  0  0  0  0  0  0  0
   11.7873   12.6138   21.9951 H   0  0  0  0  0  0  0  0  0  0  0  0
   12.4389   14.9682   21.4634 H   0  0  0  0  0  0  0  0  0  0  0  0
   11.2755   15.5987   22.6437 H   0  0  0  0  0  0  0  0  0  0  0  0
   12.9265   15.5007   26.7518 H   0  0  0  0  0  0  0  0  0  0  0  0
   14.6677   15.4476   27.1043 H   0  0  0  0  0  0  0  0  0  0  0  0
   14.1806   17.1851   25.3722 H   0  0  0  0  0  0  0  0  0  0  0  0
   15.1904   15.8923   24.6904 H   0  0  0  0  0  0  0  0  0  0  0  0
    8.1527    8.4781   24.1948 H   0  0  0  0  0  0  0  0  0  0  0  0
   13.0694   13.4328   25.7112 H   0  0  0  0  0  0  0  0  0  0  0  0
   12.6901   16.7188   23.7517 H   0  0  0  0  0  0  0  0  0  0  0  0
  1  2  1  0  0  0  0
  1  3  2  0  0  0  0
  2  4  2  0  0  0  0
  3  5  1  0  0  0  0
  4  6  1  0  0  0  0
  5  6  2  0  0  0  0
  5 18  1  0  0  0  0
  6 19  1  0  0  0  0
  7 13  1  0  0  0  0
  7 18  1  0  0  0  0
  7 22  2  0  0  0  0
  8  9  2  0  0  0  0
  9 10  1  0  0  0  0
 10 20  1  0  0  0  0
 10 23  2  0  0  0  0
 11 14  1  0  0  0  0
 11 19  1  0  0  0  0
 11 24  2  0  0  0  0
 12 15  1  0  0  0  0
 12 21  1  0  0  0  0
 12 25  2  0  0  0  0
 13 19  1  0  0  0  0
 14 15  1  0  0  0  0
 16 17  1  0  0  0  0
 16 20  1  0  0  0  0
 17 21  1  0  0  0  0
  1 26  1  0  0  0  0
  2 27  1  0  0  0  0
  3 28  1  0  0  0  0
  4 29  1  0  0  0  0
  8 30  1  0  0  0  0
  8 31  1  0  0  0  0
  9 32  1  0  0  0  0
 13 33  1  0  0  0  0
 13 34  1  0  0  0  0
 14 35  1  0  0  0  0
 14 36  1  0  0  0  0
 15 37  1  0  0  0  0
 15 38  1  0  0  0  0
 16 39  1  0  0  0  0
 16 40  1  0  0  0  0
 17 41  1  0  0  0  0
 17 42  1  0  0  0  0
 18 43  1  0  0  0  0
 20 44  1  0  0  0  0
 21 45  1  0  0  0  0
M  END
> <Catalog ID>
Z1174898756

> <MW>
344.365

> <MW (desalted)>
344.365

> <ClogP>
-0.02

> <logS>
-2.57

> <HBD>
3

> <HBA>
4

> <TPSA>
107.61

> <RotBonds>
7

> <ROCS_ShapeQuery>
A71EV2A-x0451_0A_A71EV2A-x0310_0A_A71EV2A-x0416_0A_peptide

> <ROCS_TanimotoCombo>
0.537 

> <ROCS_ShapeTanimoto>
0.356 

> <ROCS_ColorTanimoto>
0.181 

> <ROCS_RefTversky>
0.316 

> <ROCS_RefColorTversky>
0.209 

> <ROCS_RefTverskyCombo>
0.525 

> <ROCS_FitTversky>
1.555 

> <ROCS_FitColorTversky>
0.576 

> <ROCS_FitTverskyCombo>
2.132 

> <ROCS_ColorScore>
-6.394

> <ROCS_Overlap>
2197.823

> <ROCS_Rank>
115                 

$$$$
untitled-dbase-8839_12697
  -OEChem-11132309573D

 53 55  0     1  0  0  0  0  0999 V2000
    5.9401    9.9259   25.6911 C   0  0  0  0  0  0  0  0  0  0  0  0
    5.8736   11.2658   26.0677 C   0  0  0  0  0  0  0  0  0  0  0  0
    6.9587    9.4878   24.8442 C   0  0  0  0  0  0  0  0  0  0  0  0
    6.8205   12.1717   25.5919 C   0  0  0  0  0  0  0  0  0  0  0  0
    7.9227   10.3868   24.3694 C   0  0  0  0  0  0  0  0  0  0  0  0
    7.8342   11.7378   24.7339 C   0  0  0  0  0  0  0  0  0  0  0  0
   10.6075   13.3469   23.1625 C   0  0  0  0  0  0  0  0  0  0  0  0
   11.1323   16.5357   22.8800 C   0  0  0  0  0  0  0  0  0  0  0  0
    9.0157    9.9008   23.4594 C   0  0  0  0  0  0  0  0  0  0  0  0
   10.1417   10.9238   23.3903 C   0  0  0  0  0  0  0  0  0  0  0  0
   12.8693   16.2273   17.9311 C   0  0  0  0  0  0  0  0  0  0  0  0
   14.1231   15.5788   18.5121 C   0  0  0  0  0  0  0  0  0  0  0  0
   11.5295   15.7061   18.4729 C   0  0  0  0  0  0  0  0  0  0  0  0
   14.4240   15.9468   19.9668 C   0  0  0  0  0  0  0  0  0  0  0  0
   11.6056   14.7090   19.6306 C   0  0  0  0  0  0  0  0  0  0  0  0
   13.2265   16.3355   20.8350 C   0  0  0  0  0  0  0  0  0  0  0  0
    9.5365   12.3071   23.2067 C   0  0  1  0  0  0  0  0  0  0  0  0
   12.1075   15.2835   20.9750 C   0  0  0  0  0  0  0  0  0  0  0  0
    9.8490   17.1529   23.3745 C   0  0  0  0  0  0  0  0  0  0  0  0
   12.5806   14.1167   21.8599 C   0  0  0  0  0  0  0  0  0  0  0  0
   11.4939   13.2328   22.0899 N   0  0  0  0  0  0  0  0  0  0  0  0
   10.9865   15.9299   21.6525 N   0  0  0  0  0  0  0  0  0  0  0  0
   10.6487   14.2092   24.0322 O   0  0  0  0  0  0  0  0  0  0  0  0
   12.1762   16.6036   23.5266 O   0  0  0  0  0  0  0  0  0  0  0  0
    8.7271   12.6940   24.3188 O   0  0  0  0  0  0  0  0  0  0  0  0
    8.5028   16.2036   22.7253 Cl  0  0  0  0  0  0  0  0  0  0  0  0
    5.2000    9.2212   26.0590 H   0  0  0  0  0  0  0  0  0  0  0  0
    5.0827   11.6050   26.7302 H   0  0  0  0  0  0  0  0  0  0  0  0
    7.0004    8.4390   24.5610 H   0  0  0  0  0  0  0  0  0  0  0  0
    6.7592   13.2155   25.8886 H   0  0  0  0  0  0  0  0  0  0  0  0
    9.4152    8.9441   23.8148 H   0  0  0  0  0  0  0  0  0  0  0  0
    8.5941    9.7427   22.4594 H   0  0  0  0  0  0  0  0  0  0  0  0
   10.7169   10.8886   24.3255 H   0  0  0  0  0  0  0  0  0  0  0  0
   10.8322   10.6776   22.5759 H   0  0  0  0  0  0  0  0  0  0  0  0
   12.9223   17.3066   18.1299 H   0  0  0  0  0  0  0  0  0  0  0  0
   12.8826   16.1247   16.8370 H   0  0  0  0  0  0  0  0  0  0  0  0
   14.0015   14.4926   18.4488 H   0  0  0  0  0  0  0  0  0  0  0  0
   14.9840   15.8292   17.8841 H   0  0  0  0  0  0  0  0  0  0  0  0
   10.8575   16.5595   18.7188 H   0  0  0  0  0  0  0  0  0  0  0  0
   11.0199   15.1957   17.6257 H   0  0  0  0  0  0  0  0  0  0  0  0
   15.0288   15.1453   20.4512 H   0  0  0  0  0  0  0  0  0  0  0  0
   15.1117   16.8222   19.9400 H   0  0  0  0  0  0  0  0  0  0  0  0
   10.6023   14.2854   19.7875 H   0  0  0  0  0  0  0  0  0  0  0  0
   12.2244   13.8524   19.3288 H   0  0  0  0  0  0  0  0  0  0  0  0
   13.6009   16.5892   21.8410 H   0  0  0  0  0  0  0  0  0  0  0  0
   12.8081   17.2802   20.4487 H   0  0  0  0  0  0  0  0  0  0  0  0
    8.9488   12.3824   22.2837 H   0  0  0  0  0  0  0  0  0  0  0  0
    9.7792   17.1594   24.4650 H   0  0  0  0  0  0  0  0  0  0  0  0
    9.7740   18.1795   23.0057 H   0  0  0  0  0  0  0  0  0  0  0  0
   13.3805   13.6230   21.3186 H   0  0  0  0  0  0  0  0  0  0  0  0
   12.9330   14.5553   22.7873 H   0  0  0  0  0  0  0  0  0  0  0  0
   11.3508   12.4615   21.4260 H   0  0  0  0  0  0  0  0  0  0  0  0
   10.0808   15.9325   21.2088 H   0  0  0  0  0  0  0  0  0  0  0  0
  1  2  1  0  0  0  0
  1  3  2  0  0  0  0
  2  4  2  0  0  0  0
  3  5  1  0  0  0  0
  4  6  1  0  0  0  0
  5  6  2  0  0  0  0
  5  9  1  0  0  0  0
  6 25  1  0  0  0  0
  7 17  1  0  0  0  0
  7 21  1  0  0  0  0
  7 23  2  0  0  0  0
  8 19  1  0  0  0  0
  8 22  1  0  0  0  0
  8 24  2  0  0  0  0
  9 10  1  0  0  0  0
 10 17  1  0  0  0  0
 11 12  1  0  0  0  0
 11 13  1  0  0  0  0
 12 14  1  0  0  0  0
 13 15  1  0  0  0  0
 14 16  1  0  0  0  0
 15 18  1  0  0  0  0
 16 18  1  0  0  0  0
 17 25  1  0  0  0  0
 18 20  1  0  0  0  0
 18 22  1  0  0  0  0
 19 26  1  0  0  0  0
 20 21  1  0  0  0  0
  1 27  1  0  0  0  0
  2 28  1  0  0  0  0
  3 29  1  0  0  0  0
  4 30  1  0  0  0  0
  9 31  1  0  0  0  0
  9 32  1  0  0  0  0
 10 33  1  0  0  0  0
 10 34  1  0  0  0  0
 11 35  1  0  0  0  0
 11 36  1  0  0  0  0
 12 37  1  0  0  0  0
 12 38  1  0  0  0  0
 13 39  1  0  0  0  0
 13 40  1  0  0  0  0
 14 41  1  0  0  0  0
 14 42  1  0  0  0  0
 15 43  1  0  0  0  0
 15 44  1  0  0  0  0
 16 45  1  0  0  0  0
 16 46  1  0  0  0  0
 17 47  1  0  0  0  0
 19 48  1  0  0  0  0
 19 49  1  0  0  0  0
 20 50  1  0  0  0  0
 20 51  1  0  0  0  0
 21 52  1  0  0  0  0
 22 53  1  0  0  0  0
M  END
> <Catalog ID>
Z4425210849

> <MW>
378.893

> <MW (desalted)>
378.893

> <ClogP>
4.097

> <logS>
-5.266

> <HBD>
2

> <HBA>
3

> <TPSA>
67.43

> <RotBonds>
5

> <ROCS_ShapeQuery>
A71EV2A-x0451_0A_A71EV2A-x0310_0A_A71EV2A-x0416_0A_peptide

> <ROCS_TanimotoCombo>
0.537 

> <ROCS_ShapeTanimoto>
0.354 

> <ROCS_ColorTanimoto>
0.183 

> <ROCS_RefTversky>
0.316 

> <ROCS_RefColorTversky>
0.201 

> <ROCS_RefTverskyCombo>
0.517 

> <ROCS_FitTversky>
1.520 

> <ROCS_FitColorTversky>
0.668 

> <ROCS_FitTverskyCombo>
2.188 

> <ROCS_ColorScore>
-6.140

> <ROCS_Overlap>
2197.709

> <ROCS_Rank>
116                 

$$$$
untitled-dbase-2345_2728
  -OEChem-11132309573D

 61 64  0     1  0  0  0  0  0999 V2000
   13.0112   15.6976   18.6974 C   0  0  0  0  0  0  0  0  0  0  0  0
   11.8273   15.9121   19.4029 C   0  0  0  0  0  0  0  0  0  0  0  0
   14.1046   15.1083   19.3323 C   0  0  0  0  0  0  0  0  0  0  0  0
   11.7366   15.5374   20.7434 C   0  0  0  0  0  0  0  0  0  0  0  0
   14.0139   14.7337   20.6729 C   0  0  0  0  0  0  0  0  0  0  0  0
    7.1798   10.9842   26.3391 C   0  0  0  0  0  0  0  0  0  0  0  0
    6.2032   12.9095   25.2542 C   0  0  0  0  0  0  0  0  0  0  0  0
    6.4946   11.2979   27.5127 C   0  0  0  0  0  0  0  0  0  0  0  0
    5.5179   13.2232   26.4279 C   0  0  0  0  0  0  0  0  0  0  0  0
    7.0342   11.7900   25.2098 C   0  0  0  0  0  0  0  0  0  0  0  0
   12.8299   14.9482   21.3785 C   0  0  0  0  0  0  0  0  0  0  0  0
    5.6636   12.4174   27.5572 C   0  0  0  0  0  0  0  0  0  0  0  0
   15.9495   14.7376   28.5593 C   0  0  0  0  0  0  0  0  0  0  0  0
   14.9702   14.8459   27.6590 C   0  0  0  0  0  0  0  0  0  0  0  0
   15.0363   14.0278   26.4313 C   0  0  0  0  0  0  0  0  0  0  0  0
   11.2830   14.1763   23.1299 C   0  0  0  0  0  0  0  0  0  0  0  0
   13.1503   15.7162   23.7698 C   0  0  0  0  0  0  0  0  0  0  0  0
   13.5934   13.3005   23.2261 C   0  0  0  0  0  0  0  0  0  0  0  0
   10.0952   10.9773   24.2396 C   0  0  0  0  0  0  0  0  0  0  0  0
   13.2093   15.3663   25.2606 C   0  0  0  0  0  0  0  0  0  0  0  0
   13.5997   12.9928   24.7228 C   0  0  0  0  0  0  0  0  0  0  0  0
    9.3775    9.7563   23.7117 C   0  0  0  0  0  0  0  0  0  0  0  0
    7.7776   11.4495   23.9345 C   0  0  1  0  0  0  0  0  0  0  0  0
    9.1610   12.1113   23.8619 C   0  0  2  0  0  0  0  0  0  0  0  0
   12.7306   14.5349   22.8573 C   0  0  0  0  0  0  0  0  0  0  0  0
    9.4540   12.6335   22.4538 C   0  0  0  0  0  0  0  0  0  0  0  0
   14.0021   14.1584   25.5064 N   0  0  0  0  0  0  0  0  0  0  0  0
   10.8053   13.1368   22.3550 N   0  0  0  0  0  0  0  0  0  0  0  0
   16.0024   13.2738   26.3019 O   0  0  0  0  0  0  0  0  0  0  0  0
   10.6562   14.7982   23.9797 O   0  0  0  0  0  0  0  0  0  0  0  0
    7.9761   10.0260   23.8273 O   0  0  0  0  0  0  0  0  0  0  0  0
    5.0033   12.7172   28.6834 F   0  0  0  0  0  0  0  0  0  0  0  0
   13.0812   15.9881   17.6532 H   0  0  0  0  0  0  0  0  0  0  0  0
   10.9755   16.3699   18.9083 H   0  0  0  0  0  0  0  0  0  0  0  0
   15.0261   14.9402   18.7831 H   0  0  0  0  0  0  0  0  0  0  0  0
   10.8101   15.7086   21.2853 H   0  0  0  0  0  0  0  0  0  0  0  0
   14.8708   14.2754   21.1594 H   0  0  0  0  0  0  0  0  0  0  0  0
    7.8256   10.1104   26.3143 H   0  0  0  0  0  0  0  0  0  0  0  0
    6.0834   13.5429   24.3792 H   0  0  0  0  0  0  0  0  0  0  0  0
    6.6073   10.6704   28.3917 H   0  0  0  0  0  0  0  0  0  0  0  0
    4.8712   14.0948   26.4631 H   0  0  0  0  0  0  0  0  0  0  0  0
   15.9566   15.3118   29.4797 H   0  0  0  0  0  0  0  0  0  0  0  0
   16.7765   14.0575   28.3846 H   0  0  0  0  0  0  0  0  0  0  0  0
   14.1291   15.5125   27.7976 H   0  0  0  0  0  0  0  0  0  0  0  0
   12.4645   16.5632   23.6338 H   0  0  0  0  0  0  0  0  0  0  0  0
   14.1428   16.0782   23.4655 H   0  0  0  0  0  0  0  0  0  0  0  0
   14.6302   13.4598   22.8980 H   0  0  0  0  0  0  0  0  0  0  0  0
   13.2358   12.4140   22.6855 H   0  0  0  0  0  0  0  0  0  0  0  0
   10.2948   10.9172   25.3185 H   0  0  0  0  0  0  0  0  0  0  0  0
   11.0646   11.0907   23.7290 H   0  0  0  0  0  0  0  0  0  0  0  0
   13.6069   16.2313   25.7933 H   0  0  0  0  0  0  0  0  0  0  0  0
   12.2023   15.1763   25.6498 H   0  0  0  0  0  0  0  0  0  0  0  0
   12.5984   12.7023   25.0621 H   0  0  0  0  0  0  0  0  0  0  0  0
   14.2613   12.1426   24.9178 H   0  0  0  0  0  0  0  0  0  0  0  0
    9.6275    9.5388   22.6696 H   0  0  0  0  0  0  0  0  0  0  0  0
    9.6007    8.8713   24.3173 H   0  0  0  0  0  0  0  0  0  0  0  0
    7.1420   11.7576   23.0776 H   0  0  0  0  0  0  0  0  0  0  0  0
    9.2576   12.9252   24.5566 H   0  0  0  0  0  0  0  0  0  0  0  0
    9.3226   11.8137   21.7323 H   0  0  0  0  0  0  0  0  0  0  0  0
    8.7504   13.4455   22.2183 H   0  0  0  0  0  0  0  0  0  0  0  0
   11.4339   12.7057   21.6838 H   0  0  0  0  0  0  0  0  0  0  0  0
  1  2  1  0  0  0  0
  1  3  2  0  0  0  0
  2  4  2  0  0  0  0
  3  5  1  0  0  0  0
  4 11  1  0  0  0  0
  5 11  2  0  0  0  0
  6  8  2  0  0  0  0
  6 10  1  0  0  0  0
  7  9  1  0  0  0  0
  7 10  2  0  0  0  0
  8 12  1  0  0  0  0
  9 12  2  0  0  0  0
 10 23  1  6  0  0  0
 11 25  1  0  0  0  0
 12 32  1  0  0  0  0
 13 14  2  0  0  0  0
 14 15  1  0  0  0  0
 15 27  1  0  0  0  0
 15 29  2  0  0  0  0
 16 25  1  0  0  0  0
 16 28  1  0  0  0  0
 16 30  2  0  0  0  0
 17 20  1  0  0  0  0
 17 25  1  0  0  0  0
 18 21  1  0  0  0  0
 18 25  1  0  0  0  0
 19 22  1  0  0  0  0
 19 24  1  0  0  0  0
 20 27  1  0  0  0  0
 21 27  1  0  0  0  0
 22 31  1  0  0  0  0
 23 24  1  0  0  0  0
 23 31  1  0  0  0  0
 24 26  1  1  0  0  0
 26 28  1  0  0  0  0
  1 33  1  0  0  0  0
  2 34  1  0  0  0  0
  3 35  1  0  0  0  0
  4 36  1  0  0  0  0
  5 37  1  0  0  0  0
  6 38  1  0  0  0  0
  7 39  1  0  0  0  0
  8 40  1  0  0  0  0
  9 41  1  0  0  0  0
 13 42  1  0  0  0  0
 13 43  1  0  0  0  0
 14 44  1  0  0  0  0
 17 45  1  0  0  0  0
 17 46  1  0  0  0  0
 18 47  1  0  0  0  0
 18 48  1  0  0  0  0
 19 49  1  0  0  0  0
 19 50  1  0  0  0  0
 20 51  1  0  0  0  0
 20 52  1  0  0  0  0
 21 53  1  0  0  0  0
 21 54  1  0  0  0  0
 22 55  1  0  0  0  0
 22 56  1  0  0  0  0
 23 57  1  0  0  0  0
 24 58  1  0  0  0  0
 26 59  1  0  0  0  0
 26 60  1  0  0  0  0
 28 61  1  0  0  0  0
M  END
> <Catalog ID>
Z3672118289

> <MW>
436.518

> <MW (desalted)>
436.518

> <ClogP>
2.545

> <logS>
-4.863

> <HBD>
1

> <HBA>
3

> <TPSA>
58.64

> <RotBonds>
6

> <ROCS_ShapeQuery>
A71EV2A-x0451_0A_A71EV2A-x0310_0A_A71EV2A-x0416_0A_peptide

> <ROCS_TanimotoCombo>
0.537 

> <ROCS_ShapeTanimoto>
0.358 

> <ROCS_ColorTanimoto>
0.179 

> <ROCS_RefTversky>
0.329 

> <ROCS_RefColorTversky>
0.202 

> <ROCS_RefTverskyCombo>
0.531 

> <ROCS_FitTversky>
1.325 

> <ROCS_FitColorTversky>
0.610 

> <ROCS_FitTverskyCombo>
1.935 

> <ROCS_ColorScore>
-6.186

> <ROCS_Overlap>
2292.569

> <ROCS_Rank>
117                 

$$$$
untitled-dbase-8703_323
  -OEChem-11132309573D

 52 55  0     0  0  0  0  0  0999 V2000
   12.0608   13.6831   18.4281 C   0  0  0  0  0  0  0  0  0  0  0  0
   11.3879   14.6477   19.1779 C   0  0  0  0  0  0  0  0  0  0  0  0
   12.8303   12.7126   19.0699 C   0  0  0  0  0  0  0  0  0  0  0  0
   11.4844   14.6420   20.5694 C   0  0  0  0  0  0  0  0  0  0  0  0
   12.9268   12.7068   20.4614 C   0  0  0  0  0  0  0  0  0  0  0  0
   12.2539   13.6715   21.2111 C   0  0  0  0  0  0  0  0  0  0  0  0
    8.4409   11.8129   24.4211 C   0  0  0  0  0  0  0  0  0  0  0  0
    7.8474   10.5735   24.7385 C   0  0  0  0  0  0  0  0  0  0  0  0
    9.4400   11.5019   23.5349 C   0  0  0  0  0  0  0  0  0  0  0  0
   16.9591   15.4341   26.5969 C   0  0  0  0  0  0  0  0  0  0  0  0
   15.6483   15.2667   26.4094 C   0  0  0  0  0  0  0  0  0  0  0  0
   15.1520   13.9427   25.9833 C   0  0  0  0  0  0  0  0  0  0  0  0
   10.9587   13.4921   23.2960 C   0  0  0  0  0  0  0  0  0  0  0  0
    7.9756   13.0814   25.0230 C   0  0  0  0  0  0  0  0  0  0  0  0
    6.6950   10.4735   25.6655 C   0  0  0  0  0  0  0  0  0  0  0  0
   12.9489   15.0099   23.2449 C   0  0  0  0  0  0  0  0  0  0  0  0
   13.2284   12.5109   23.3124 C   0  0  0  0  0  0  0  0  0  0  0  0
   13.2163   15.0562   24.7532 C   0  0  0  0  0  0  0  0  0  0  0  0
   13.4459   12.6031   24.8221 C   0  0  0  0  0  0  0  0  0  0  0  0
    6.6019   11.7682   26.4955 C   0  0  0  0  0  0  0  0  0  0  0  0
   12.3610   13.6647   22.7461 C   0  0  0  0  0  0  0  0  0  0  0  0
    8.4120    9.5463   24.1031 N   0  0  0  0  0  0  0  0  0  0  0  0
    9.3809   10.1436   23.3792 N   0  0  0  0  0  0  0  0  0  0  0  0
   13.9972   13.9010   25.2044 N   0  0  0  0  0  0  0  0  0  0  0  0
   10.3932   12.3007   22.8597 N   0  0  0  0  0  0  0  0  0  0  0  0
   15.7886   12.9526   26.3480 O   0  0  0  0  0  0  0  0  0  0  0  0
   10.4624   14.3416   24.0288 O   0  0  0  0  0  0  0  0  0  0  0  0
    6.6809   12.9317   25.6495 O   0  0  0  0  0  0  0  0  0  0  0  0
   11.9845   13.6868   17.3447 H   0  0  0  0  0  0  0  0  0  0  0  0
   10.7878   15.4028   18.6784 H   0  0  0  0  0  0  0  0  0  0  0  0
   13.3535   11.9607   18.4865 H   0  0  0  0  0  0  0  0  0  0  0  0
   10.9568   15.3976   21.1454 H   0  0  0  0  0  0  0  0  0  0  0  0
   13.5287   11.9469   20.9527 H   0  0  0  0  0  0  0  0  0  0  0  0
   17.3833   16.3824   26.9094 H   0  0  0  0  0  0  0  0  0  0  0  0
   17.6418   14.6062   26.4369 H   0  0  0  0  0  0  0  0  0  0  0  0
   14.9363   16.0678   26.5592 H   0  0  0  0  0  0  0  0  0  0  0  0
    8.6848   13.4311   25.7815 H   0  0  0  0  0  0  0  0  0  0  0  0
    7.8792   13.8615   24.2616 H   0  0  0  0  0  0  0  0  0  0  0  0
    5.7814   10.3595   25.0695 H   0  0  0  0  0  0  0  0  0  0  0  0
    6.7833    9.6059   26.3272 H   0  0  0  0  0  0  0  0  0  0  0  0
   12.2783   15.8386   22.9807 H   0  0  0  0  0  0  0  0  0  0  0  0
   13.8967   15.2097   22.7249 H   0  0  0  0  0  0  0  0  0  0  0  0
   14.2099   12.5062   22.8178 H   0  0  0  0  0  0  0  0  0  0  0  0
   12.7663   11.5419   23.0814 H   0  0  0  0  0  0  0  0  0  0  0  0
   13.7160   15.9997   24.9771 H   0  0  0  0  0  0  0  0  0  0  0  0
   12.2723   15.0453   25.3103 H   0  0  0  0  0  0  0  0  0  0  0  0
   12.4969   12.4820   25.3576 H   0  0  0  0  0  0  0  0  0  0  0  0
   14.1012   11.7884   25.1468 H   0  0  0  0  0  0  0  0  0  0  0  0
    5.6437   11.8015   27.0240 H   0  0  0  0  0  0  0  0  0  0  0  0
    7.3991   11.8198   27.2474 H   0  0  0  0  0  0  0  0  0  0  0  0
    9.9698    9.5626   22.7960 H   0  0  0  0  0  0  0  0  0  0  0  0
   10.6905   11.9504   21.9515 H   0  0  0  0  0  0  0  0  0  0  0  0
  1  2  1  0  0  0  0
  1  3  2  0  0  0  0
  2  4  2  0  0  0  0
  3  5  1  0  0  0  0
  4  6  1  0  0  0  0
  5  6  2  0  0  0  0
  6 21  1  0  0  0  0
  7  8  1  0  0  0  0
  7  9  2  0  0  0  0
  7 14  1  0  0  0  0
  8 15  1  0  0  0  0
  8 22  2  0  0  0  0
  9 23  1  0  0  0  0
  9 25  1  0  0  0  0
 10 11  2  0  0  0  0
 11 12  1  0  0  0  0
 12 24  1  0  0  0  0
 12 26  2  0  0  0  0
 13 21  1  0  0  0  0
 13 25  1  0  0  0  0
 13 27  2  0  0  0  0
 14 28  1  0  0  0  0
 15 20  1  0  0  0  0
 16 18  1  0  0  0  0
 16 21  1  0  0  0  0
 17 19  1  0  0  0  0
 17 21  1  0  0  0  0
 18 24  1  0  0  0  0
 19 24  1  0  0  0  0
 20 28  1  0  0  0  0
 22 23  1  0  0  0  0
  1 29  1  0  0  0  0
  2 30  1  0  0  0  0
  3 31  1  0  0  0  0
  4 32  1  0  0  0  0
  5 33  1  0  0  0  0
 10 34  1  0  0  0  0
 10 35  1  0  0  0  0
 11 36  1  0  0  0  0
 14 37  1  0  0  0  0
 14 38  1  0  0  0  0
 15 39  1  0  0  0  0
 15 40  1  0  0  0  0
 16 41  1  0  0  0  0
 16 42  1  0  0  0  0
 17 43  1  0  0  0  0
 17 44  1  0  0  0  0
 18 45  1  0  0  0  0
 18 46  1  0  0  0  0
 19 47  1  0  0  0  0
 19 48  1  0  0  0  0
 20 49  1  0  0  0  0
 20 50  1  0  0  0  0
 23 51  1  0  0  0  0
 25 52  1  0  0  0  0
M  END
> <Catalog ID>
Z2923138385

> <MW>
380.44

> <MW (desalted)>
380.44

> <ClogP>
0.516

> <logS>
-3.699

> <HBD>
2

> <HBA>
4

> <TPSA>
87.32

> <RotBonds>
4

> <ROCS_ShapeQuery>
A71EV2A-x0451_0A_A71EV2A-x0310_0A_A71EV2A-x0416_0A_peptide

> <ROCS_TanimotoCombo>
0.537 

> <ROCS_ShapeTanimoto>
0.342 

> <ROCS_ColorTanimoto>
0.195 

> <ROCS_RefTversky>
0.312 

> <ROCS_RefColorTversky>
0.228 

> <ROCS_RefTverskyCombo>
0.540 

> <ROCS_FitTversky>
1.376 

> <ROCS_FitColorTversky>
0.579 

> <ROCS_FitTverskyCombo>
1.955 

> <ROCS_ColorScore>
-6.985

> <ROCS_Overlap>
2174.750

> <ROCS_Rank>
118                 

$$$$
untitled-dbase-8632_18233
  -OEChem-11132309573D

 58 60  0     0  0  0  0  0  0999 V2000
   13.2518   13.9025   22.9268 C   0  0  0  0  0  0  0  0  0  0  0  0
    8.3939    9.3250   24.1016 C   0  0  0  0  0  0  0  0  0  0  0  0
   12.5219   15.0667   19.1616 C   0  0  0  0  0  0  0  0  0  0  0  0
   13.4354   16.3772   20.9741 C   0  0  0  0  0  0  0  0  0  0  0  0
   13.4290   15.6540   18.2797 C   0  0  0  0  0  0  0  0  0  0  0  0
   14.3426   16.9646   20.0922 C   0  0  0  0  0  0  0  0  0  0  0  0
    9.4137   10.0978   23.5463 C   0  0  0  0  0  0  0  0  0  0  0  0
    7.2754    9.9435   24.6602 C   0  0  0  0  0  0  0  0  0  0  0  0
    8.1965   12.1077   24.1084 C   0  0  0  0  0  0  0  0  0  0  0  0
   12.5251   15.4283   20.5088 C   0  0  0  0  0  0  0  0  0  0  0  0
   14.3394   16.6029   18.7450 C   0  0  0  0  0  0  0  0  0  0  0  0
    9.3150   11.4892   23.5498 C   0  0  0  0  0  0  0  0  0  0  0  0
    7.1767   11.3348   24.6636 C   0  0  0  0  0  0  0  0  0  0  0  0
   11.5683   14.8090   21.4392 C   0  0  0  0  0  0  0  0  0  0  0  0
   11.8915   14.1037   22.5414 C   0  0  0  0  0  0  0  0  0  0  0  0
   10.7424   13.5557   23.3604 C   0  0  0  0  0  0  0  0  0  0  0  0
    4.3767   13.0521   29.0503 C   0  0  0  0  0  0  0  0  0  0  0  0
    3.8555   11.8955   28.1995 C   0  0  0  0  0  0  0  0  0  0  0  0
    5.4814   13.8165   28.3235 C   0  0  0  0  0  0  0  0  0  0  0  0
    4.9928   10.9907   27.7391 C   0  0  0  0  0  0  0  0  0  0  0  0
    6.5909   12.8790   27.8608 C   0  0  0  0  0  0  0  0  0  0  0  0
   14.6144   18.0330   16.6876 C   0  0  0  0  0  0  0  0  0  0  0  0
   16.2738   16.2002   17.1798 C   0  0  0  0  0  0  0  0  0  0  0  0
   15.3105   17.2288   17.8019 C   0  0  0  0  0  0  0  0  0  0  0  0
   14.3556   13.7370   23.2446 N   0  0  0  0  0  0  0  0  0  0  0  0
    6.0325   11.7813   27.0233 N   0  0  0  0  0  0  0  0  0  0  0  0
   10.3349   12.2623   22.9942 N   0  0  0  0  0  0  0  0  0  0  0  0
   10.2430   14.2292   24.2584 O   0  0  0  0  0  0  0  0  0  0  0  0
    5.8872   13.5417   25.1538 O   0  0  0  0  0  0  0  0  0  0  0  0
    4.5867   11.3951   24.9336 O   0  0  0  0  0  0  0  0  0  0  0  0
    5.7615   12.1170   25.3715 S   0  0  0  0  0  0  0  0  0  0  0  0
    8.4702    8.2416   24.0986 H   0  0  0  0  0  0  0  0  0  0  0  0
   11.8182   14.3287   18.7841 H   0  0  0  0  0  0  0  0  0  0  0  0
   13.4504   16.6691   22.0215 H   0  0  0  0  0  0  0  0  0  0  0  0
   13.4198   15.3659   17.2319 H   0  0  0  0  0  0  0  0  0  0  0  0
   15.0484   17.7032   20.4630 H   0  0  0  0  0  0  0  0  0  0  0  0
   10.2803    9.6046   23.1133 H   0  0  0  0  0  0  0  0  0  0  0  0
    6.4868    9.3320   25.0906 H   0  0  0  0  0  0  0  0  0  0  0  0
    8.1188   13.1927   24.1114 H   0  0  0  0  0  0  0  0  0  0  0  0
   10.5302   14.9870   21.1674 H   0  0  0  0  0  0  0  0  0  0  0  0
    3.5503   13.7364   29.2854 H   0  0  0  0  0  0  0  0  0  0  0  0
    4.7560   12.6694   30.0060 H   0  0  0  0  0  0  0  0  0  0  0  0
    3.1373   11.3113   28.7881 H   0  0  0  0  0  0  0  0  0  0  0  0
    3.3177   12.2887   27.3302 H   0  0  0  0  0  0  0  0  0  0  0  0
    5.0597   14.3467   27.4626 H   0  0  0  0  0  0  0  0  0  0  0  0
    5.8986   14.5743   28.9981 H   0  0  0  0  0  0  0  0  0  0  0  0
    5.4418   10.5084   28.6195 H   0  0  0  0  0  0  0  0  0  0  0  0
    4.6120   10.1971   27.0785 H   0  0  0  0  0  0  0  0  0  0  0  0
    7.3506   13.4319   27.2874 H   0  0  0  0  0  0  0  0  0  0  0  0
    7.0845   12.4495   28.7448 H   0  0  0  0  0  0  0  0  0  0  0  0
   13.9531   17.3996   16.0862 H   0  0  0  0  0  0  0  0  0  0  0  0
   15.3426   18.4912   16.0094 H   0  0  0  0  0  0  0  0  0  0  0  0
   14.0062   18.8361   17.1186 H   0  0  0  0  0  0  0  0  0  0  0  0
   15.7145   15.4426   16.6195 H   0  0  0  0  0  0  0  0  0  0  0  0
   16.8596   15.6841   17.9482 H   0  0  0  0  0  0  0  0  0  0  0  0
   16.9785   16.6747   16.4881 H   0  0  0  0  0  0  0  0  0  0  0  0
   15.9483   17.9519   18.3451 H   0  0  0  0  0  0  0  0  0  0  0  0
   10.8528   11.8316   22.2201 H   0  0  0  0  0  0  0  0  0  0  0  0
  1 15  1  0  0  0  0
  1 25  3  0  0  0  0
  2  7  2  0  0  0  0
  2  8  1  0  0  0  0
  3  5  2  0  0  0  0
  3 10  1  0  0  0  0
  4  6  1  0  0  0  0
  4 10  2  0  0  0  0
  5 11  1  0  0  0  0
  6 11  2  0  0  0  0
  7 12  1  0  0  0  0
  8 13  2  0  0  0  0
  9 12  2  0  0  0  0
  9 13  1  0  0  0  0
 10 14  1  4  0  0  0
 11 24  1  0  0  0  0
 12 27  1  0  0  0  0
 13 31  1  0  0  0  0
 14 15  2  0  0  0  0
 15 16  1  0  0  0  0
 16 27  1  0  0  0  0
 16 28  2  0  0  0  0
 17 18  1  0  0  0  0
 17 19  1  0  0  0  0
 18 20  1  0  0  0  0
 19 21  1  0  0  0  0
 20 26  1  0  0  0  0
 21 26  1  0  0  0  0
 22 24  1  0  0  0  0
 23 24  1  0  0  0  0
 26 31  1  0  0  0  0
 29 31  2  0  0  0  0
 30 31  2  0  0  0  0
  2 32  1  0  0  0  0
  3 33  1  0  0  0  0
  4 34  1  0  0  0  0
  5 35  1  0  0  0  0
  6 36  1  0  0  0  0
  7 37  1  0  0  0  0
  8 38  1  0  0  0  0
  9 39  1  0  0  0  0
 14 40  1  0  0  0  0
 17 41  1  0  0  0  0
 17 42  1  0  0  0  0
 18 43  1  0  0  0  0
 18 44  1  0  0  0  0
 19 45  1  0  0  0  0
 19 46  1  0  0  0  0
 20 47  1  0  0  0  0
 20 48  1  0  0  0  0
 21 49  1  0  0  0  0
 21 50  1  0  0  0  0
 22 51  1  0  0  0  0
 22 52  1  0  0  0  0
 22 53  1  0  0  0  0
 23 54  1  0  0  0  0
 23 55  1  0  0  0  0
 23 56  1  0  0  0  0
 24 57  1  0  0  0  0
 27 58  1  0  0  0  0
M  END
> <Catalog ID>
Z44371604

> <MW>
437.554

> <MW (desalted)>
437.554

> <ClogP>
5.262

> <logS>
-6.46

> <HBD>
1

> <HBA>
4

> <TPSA>
90.27

> <RotBonds>
5

> <ROCS_ShapeQuery>
A71EV2A-x0451_0A_A71EV2A-x0310_0A_A71EV2A-x0416_0A_peptide

> <ROCS_TanimotoCombo>
0.537 

> <ROCS_ShapeTanimoto>
0.361 

> <ROCS_ColorTanimoto>
0.176 

> <ROCS_RefTversky>
0.328 

> <ROCS_RefColorTversky>
0.199 

> <ROCS_RefTverskyCombo>
0.527 

> <ROCS_FitTversky>
1.390 

> <ROCS_FitColorTversky>
0.600 

> <ROCS_FitTverskyCombo>
1.990 

> <ROCS_ColorScore>
-6.085

> <ROCS_Overlap>
2283.931

> <ROCS_Rank>
119                 

$$$$
untitled-dbase-9026_664
  -OEChem-11132309573D

 48 51  0     0  0  0  0  0  0999 V2000
   13.4283   13.7534   22.5156 C   0  0  0  0  0  0  0  0  0  0  0  0
    9.3058   10.3327   23.4560 C   0  0  0  0  0  0  0  0  0  0  0  0
    8.2854    9.6372   24.1058 C   0  0  0  0  0  0  0  0  0  0  0  0
   12.5300   15.2630   18.8581 C   0  0  0  0  0  0  0  0  0  0  0  0
    8.3865   12.4271   24.2395 C   0  0  0  0  0  0  0  0  0  0  0  0
   12.5920   15.4606   20.2596 C   0  0  0  0  0  0  0  0  0  0  0  0
    7.3601   11.7292   24.8789 C   0  0  0  0  0  0  0  0  0  0  0  0
    9.3559   11.7255   23.5223 C   0  0  0  0  0  0  0  0  0  0  0  0
    7.3061   10.3381   24.8101 C   0  0  0  0  0  0  0  0  0  0  0  0
   13.5671   15.9742   18.2961 C   0  0  0  0  0  0  0  0  0  0  0  0
   13.6651   16.2868   20.5114 C   0  0  0  0  0  0  0  0  0  0  0  0
    5.3346   11.7856   26.2049 C   0  0  0  0  0  0  0  0  0  0  0  0
   11.6895   14.8975   21.2759 C   0  0  0  0  0  0  0  0  0  0  0  0
   12.0616   14.1104   22.3048 C   0  0  0  0  0  0  0  0  0  0  0  0
   10.9638   13.6430   23.2365 C   0  0  0  0  0  0  0  0  0  0  0  0
    5.1907   10.3291   25.7983 C   0  0  0  0  0  0  0  0  0  0  0  0
   15.4469   18.8449   19.6965 C   0  0  0  0  0  0  0  0  0  0  0  0
   15.3818   18.6375   18.2158 C   0  0  0  0  0  0  0  0  0  0  0  0
   15.4152   17.4414   19.1381 C   0  0  0  0  0  0  0  0  0  0  0  0
   13.9599   16.1124   16.8781 C   0  0  0  0  0  0  0  0  0  0  0  0
   14.1895   16.8150   21.7909 C   0  0  0  0  0  0  0  0  0  0  0  0
   14.5376   13.4614   22.6914 N   0  0  0  0  0  0  0  0  0  0  0  0
   14.2502   16.5928   19.3105 N   0  0  0  0  0  0  0  0  0  0  0  0
    6.4068   12.4263   25.6282 N   0  0  0  0  0  0  0  0  0  0  0  0
   10.3809   12.4171   22.8757 N   0  0  0  0  0  0  0  0  0  0  0  0
    4.5103   12.3435   26.9261 O   0  0  0  0  0  0  0  0  0  0  0  0
   10.6472   14.3195   24.2119 O   0  0  0  0  0  0  0  0  0  0  0  0
    6.3585    9.6033   25.4655 O   0  0  0  0  0  0  0  0  0  0  0  0
   10.0611    9.7775   22.9052 H   0  0  0  0  0  0  0  0  0  0  0  0
    8.2607    8.5519   24.0583 H   0  0  0  0  0  0  0  0  0  0  0  0
   11.8099   14.6674   18.3129 H   0  0  0  0  0  0  0  0  0  0  0  0
    8.4317   13.5123   24.2998 H   0  0  0  0  0  0  0  0  0  0  0  0
   10.6517   15.1931   21.1381 H   0  0  0  0  0  0  0  0  0  0  0  0
    4.7136    9.8018   26.6320 H   0  0  0  0  0  0  0  0  0  0  0  0
    4.5002   10.2863   24.9469 H   0  0  0  0  0  0  0  0  0  0  0  0
   16.3812   19.1977   20.1162 H   0  0  0  0  0  0  0  0  0  0  0  0
   14.5618   19.2244   20.1922 H   0  0  0  0  0  0  0  0  0  0  0  0
   14.4519   18.8764   17.7141 H   0  0  0  0  0  0  0  0  0  0  0  0
   16.2714   18.8500   17.6356 H   0  0  0  0  0  0  0  0  0  0  0  0
   16.3417   16.8793   19.1763 H   0  0  0  0  0  0  0  0  0  0  0  0
   13.4532   16.9709   16.4092 H   0  0  0  0  0  0  0  0  0  0  0  0
   15.0468   16.2596   16.7642 H   0  0  0  0  0  0  0  0  0  0  0  0
   13.7097   15.2124   16.2918 H   0  0  0  0  0  0  0  0  0  0  0  0
   14.9405   16.1337   22.2192 H   0  0  0  0  0  0  0  0  0  0  0  0
   14.6615   17.8025   21.6636 H   0  0  0  0  0  0  0  0  0  0  0  0
   13.3897   16.9497   22.5369 H   0  0  0  0  0  0  0  0  0  0  0  0
    6.5222   13.4268   25.7603 H   0  0  0  0  0  0  0  0  0  0  0  0
   10.7562   11.9741   22.0298 H   0  0  0  0  0  0  0  0  0  0  0  0
  1 14  1  0  0  0  0
  1 22  3  0  0  0  0
  2  3  2  0  0  0  0
  2  8  1  0  0  0  0
  3  9  1  0  0  0  0
  4  6  1  0  0  0  0
  4 10  2  0  0  0  0
  5  7  1  0  0  0  0
  5  8  2  0  0  0  0
  6 11  2  0  0  0  0
  6 13  1  4  0  0  0
  7  9  2  0  0  0  0
  7 24  1  0  0  0  0
  8 25  1  0  0  0  0
  9 28  1  0  0  0  0
 10 20  1  0  0  0  0
 10 23  1  0  0  0  0
 11 21  1  0  0  0  0
 11 23  1  0  0  0  0
 12 16  1  0  0  0  0
 12 24  1  0  0  0  0
 12 26  2  0  0  0  0
 13 14  2  0  0  0  0
 14 15  1  0  0  0  0
 15 25  1  0  0  0  0
 15 27  2  0  0  0  0
 16 28  1  0  0  0  0
 17 18  1  0  0  0  0
 17 19  1  0  0  0  0
 18 19  1  0  0  0  0
 19 23  1  0  0  0  0
  2 29  1  0  0  0  0
  3 30  1  0  0  0  0
  4 31  1  0  0  0  0
  5 32  1  0  0  0  0
 13 33  1  0  0  0  0
 16 34  1  0  0  0  0
 16 35  1  0  0  0  0
 17 36  1  0  0  0  0
 17 37  1  0  0  0  0
 18 38  1  0  0  0  0
 18 39  1  0  0  0  0
 19 40  1  0  0  0  0
 20 41  1  0  0  0  0
 20 42  1  0  0  0  0
 20 43  1  0  0  0  0
 21 44  1  0  0  0  0
 21 45  1  0  0  0  0
 21 46  1  0  0  0  0
 24 47  1  0  0  0  0
 25 48  1  0  0  0  0
M  END
> <Catalog ID>
Z185316238

> <MW>
376.409

> <MW (desalted)>
376.409

> <ClogP>
2.418

> <logS>
-3.51

> <HBD>
2

> <HBA>
4

> <TPSA>
96.15

> <RotBonds>
4

> <ROCS_ShapeQuery>
A71EV2A-x0451_0A_A71EV2A-x0310_0A_A71EV2A-x0416_0A_peptide

> <ROCS_TanimotoCombo>
0.537 

> <ROCS_ShapeTanimoto>
0.349 

> <ROCS_ColorTanimoto>
0.188 

> <ROCS_RefTversky>
0.317 

> <ROCS_RefColorTversky>
0.211 

> <ROCS_RefTverskyCombo>
0.528 

> <ROCS_FitTversky>
1.397 

> <ROCS_FitColorTversky>
0.636 

> <ROCS_FitTverskyCombo>
2.033 

> <ROCS_ColorScore>
-6.451

> <ROCS_Overlap>
2207.713

> <ROCS_Rank>
120                 

$$$$
untitled-dbase-974_3206
  -OEChem-11132309573D

 58 60  0     1  0  0  0  0  0999 V2000
    6.4812   11.5294   25.8164 C   0  0  0  0  0  0  0  0  0  0  0  0
    6.9304   12.7498   25.3511 C   0  0  0  0  0  0  0  0  0  0  0  0
    7.1495   10.3688   25.4367 C   0  0  0  0  0  0  0  0  0  0  0  0
    8.0466   12.7971   24.5166 C   0  0  0  0  0  0  0  0  0  0  0  0
    8.2863   10.3913   24.5925 C   0  0  0  0  0  0  0  0  0  0  0  0
    8.7574   11.6339   24.1275 C   0  0  0  0  0  0  0  0  0  0  0  0
    9.8844    8.6368   23.6417 C   0  0  0  0  0  0  0  0  0  0  0  0
   16.6527   17.0406   17.9505 C   0  0  0  0  0  0  0  0  0  0  0  0
   15.5476   16.7290   17.2700 C   0  0  0  0  0  0  0  0  0  0  0  0
   14.2370   17.1401   17.8114 C   0  0  0  0  0  0  0  0  0  0  0  0
   12.4373   15.4015   22.2684 C   0  0  0  0  0  0  0  0  0  0  0  0
   10.7298   12.9265   23.4213 C   0  0  0  0  0  0  0  0  0  0  0  0
   10.8129    9.5751   22.9331 C   0  0  0  0  0  0  0  0  0  0  0  0
   11.7258   16.6841   20.2591 C   0  0  0  0  0  0  0  0  0  0  0  0
   13.0671   14.5329   20.0078 C   0  0  0  0  0  0  0  0  0  0  0  0
   12.9973   17.4619   19.9186 C   0  0  0  0  0  0  0  0  0  0  0  0
   14.2882   15.3885   19.6711 C   0  0  0  0  0  0  0  0  0  0  0  0
   12.0193   15.2921   20.8307 C   0  0  0  0  0  0  0  0  0  0  0  0
   10.1583   10.7607   22.2515 C   0  0  1  0  0  0  0  0  0  0  0  0
    8.9796   10.4248   21.3309 C   0  0  0  0  0  0  0  0  0  0  0  0
   13.6518   14.0640   24.0247 C   0  0  0  0  0  0  0  0  0  0  0  0
   11.9793   12.9787   22.5741 C   0  0  0  0  0  0  0  0  0  0  0  0
    8.8184    9.1027   24.3542 N   0  0  0  0  0  0  0  0  0  0  0  0
    9.8747   11.8149   23.2383 N   0  0  0  0  0  0  0  0  0  0  0  0
   13.8730   16.6588   19.0653 N   0  0  0  0  0  0  0  0  0  0  0  0
   12.6753   14.1765   22.9310 N   0  0  0  0  0  0  0  0  0  0  0  0
   10.1292    7.4239   23.6135 O   0  0  0  0  0  0  0  0  0  0  0  0
   13.5413   17.8826   17.1164 O   0  0  0  0  0  0  0  0  0  0  0  0
   12.5476   16.5190   22.7798 O   0  0  0  0  0  0  0  0  0  0  0  0
   10.5412   13.8385   24.2328 O   0  0  0  0  0  0  0  0  0  0  0  0
    5.6123   11.4737   26.4646 H   0  0  0  0  0  0  0  0  0  0  0  0
    6.4123   13.6651   25.6203 H   0  0  0  0  0  0  0  0  0  0  0  0
    6.7673    9.4222   25.8182 H   0  0  0  0  0  0  0  0  0  0  0  0
    8.3253   13.7769   24.1328 H   0  0  0  0  0  0  0  0  0  0  0  0
   17.6434   16.7661   17.6039 H   0  0  0  0  0  0  0  0  0  0  0  0
   16.5805   17.5872   18.8848 H   0  0  0  0  0  0  0  0  0  0  0  0
   15.5790   16.1854   16.3348 H   0  0  0  0  0  0  0  0  0  0  0  0
   11.5806    9.9017   23.6455 H   0  0  0  0  0  0  0  0  0  0  0  0
   11.3367    8.9865   22.1676 H   0  0  0  0  0  0  0  0  0  0  0  0
   11.1220   17.2696   20.9620 H   0  0  0  0  0  0  0  0  0  0  0  0
   11.1285   16.5680   19.3462 H   0  0  0  0  0  0  0  0  0  0  0  0
   12.6024   14.1988   19.0719 H   0  0  0  0  0  0  0  0  0  0  0  0
   13.3931   13.6327   20.5415 H   0  0  0  0  0  0  0  0  0  0  0  0
   12.7288   18.4034   19.4288 H   0  0  0  0  0  0  0  0  0  0  0  0
   13.5566   17.7156   20.8265 H   0  0  0  0  0  0  0  0  0  0  0  0
   14.8486   15.6342   20.5808 H   0  0  0  0  0  0  0  0  0  0  0  0
   14.9736   14.8265   19.0360 H   0  0  0  0  0  0  0  0  0  0  0  0
   11.0881   14.7127   20.8404 H   0  0  0  0  0  0  0  0  0  0  0  0
   10.9221   11.1346   21.5656 H   0  0  0  0  0  0  0  0  0  0  0  0
    8.1542   10.0389   21.9234 H   0  0  0  0  0  0  0  0  0  0  0  0
    9.2863    9.6744   20.6070 H   0  0  0  0  0  0  0  0  0  0  0  0
    8.6600   11.3223   20.8077 H   0  0  0  0  0  0  0  0  0  0  0  0
   13.1526   14.2630   24.9845 H   0  0  0  0  0  0  0  0  0  0  0  0
   14.0750   13.0487   24.0352 H   0  0  0  0  0  0  0  0  0  0  0  0
   14.4586   14.7960   23.8724 H   0  0  0  0  0  0  0  0  0  0  0  0
   11.6784   12.9917   21.5317 H   0  0  0  0  0  0  0  0  0  0  0  0
   12.5716   12.0964   22.7939 H   0  0  0  0  0  0  0  0  0  0  0  0
    8.2918    8.3624   24.8141 H   0  0  0  0  0  0  0  0  0  0  0  0
  1  2  1  0  0  0  0
  1  3  2  0  0  0  0
  2  4  2  0  0  0  0
  3  5  1  0  0  0  0
  4  6  1  0  0  0  0
  5  6  2  0  0  0  0
  5 23  1  0  0  0  0
  6 24  1  0  0  0  0
  7 13  1  0  0  0  0
  7 23  1  0  0  0  0
  7 27  2  0  0  0  0
  8  9  2  0  0  0  0
  9 10  1  0  0  0  0
 10 25  1  0  0  0  0
 10 28  2  0  0  0  0
 11 18  1  0  0  0  0
 11 26  1  0  0  0  0
 11 29  2  0  0  0  0
 12 22  1  0  0  0  0
 12 24  1  0  0  0  0
 12 30  2  0  0  0  0
 13 19  1  0  0  0  0
 14 16  1  0  0  0  0
 14 18  1  0  0  0  0
 15 17  1  0  0  0  0
 15 18  1  0  0  0  0
 16 25  1  0  0  0  0
 17 25  1  0  0  0  0
 19 20  1  0  0  0  0
 19 24  1  0  0  0  0
 21 26  1  0  0  0  0
 22 26  1  0  0  0  0
  1 31  1  0  0  0  0
  2 32  1  0  0  0  0
  3 33  1  0  0  0  0
  4 34  1  0  0  0  0
  8 35  1  0  0  0  0
  8 36  1  0  0  0  0
  9 37  1  0  0  0  0
 13 38  1  0  0  0  0
 13 39  1  0  0  0  0
 14 40  1  0  0  0  0
 14 41  1  0  0  0  0
 15 42  1  0  0  0  0
 15 43  1  0  0  0  0
 16 44  1  0  0  0  0
 16 45  1  0  0  0  0
 17 46  1  0  0  0  0
 17 47  1  0  0  0  0
 18 48  1  0  0  0  0
 19 49  1  0  0  0  0
 20 50  1  0  0  0  0
 20 51  1  0  0  0  0
 20 52  1  0  0  0  0
 21 53  1  0  0  0  0
 21 54  1  0  0  0  0
 21 55  1  0  0  0  0
 22 56  1  0  0  0  0
 22 57  1  0  0  0  0
 23 58  1  0  0  0  0
M  END
> <Catalog ID>
Z3664804728

> <MW>
412.482

> <MW (desalted)>
412.482

> <ClogP>
0.297

> <logS>
-3.508

> <HBD>
1

> <HBA>
4

> <TPSA>
90.03

> <RotBonds>
4

> <ROCS_ShapeQuery>
A71EV2A-x0451_0A_A71EV2A-x0310_0A_A71EV2A-x0416_0A_peptide

> <ROCS_TanimotoCombo>
0.537 

> <ROCS_ShapeTanimoto>
0.370 

> <ROCS_ColorTanimoto>
0.167 

> <ROCS_RefTversky>
0.334 

> <ROCS_RefColorTversky>
0.190 

> <ROCS_RefTverskyCombo>
0.524 

> <ROCS_FitTversky>
1.418 

> <ROCS_FitColorTversky>
0.574 

> <ROCS_FitTverskyCombo>
1.992 

> <ROCS_ColorScore>
-5.821

> <ROCS_Overlap>
2322.969

> <ROCS_Rank>
121                 

$$$$
untitled-dbase-4563_10133
  -OEChem-11132309573D

 47 49  0     0  0  0  0  0  0999 V2000
    6.6357   10.8938   25.4549 C   0  0  0  0  0  0  0  0  0  0  0  0
    7.3223    9.9188   24.7314 C   0  0  0  0  0  0  0  0  0  0  0  0
   12.6382   16.7448   18.3523 C   0  0  0  0  0  0  0  0  0  0  0  0
   13.9629   17.1664   18.3819 C   0  0  0  0  0  0  0  0  0  0  0  0
    8.3229   12.5195   24.8654 C   0  0  0  0  0  0  0  0  0  0  0  0
    7.1359   12.1942   25.5219 C   0  0  0  0  0  0  0  0  0  0  0  0
    8.5093   10.2441   24.0750 C   0  0  0  0  0  0  0  0  0  0  0  0
    9.0096   11.5445   24.1420 C   0  0  0  0  0  0  0  0  0  0  0  0
   12.0855   16.1284   19.4693 C   0  0  0  0  0  0  0  0  0  0  0  0
   12.8931   15.9584   20.5823 C   0  0  0  0  0  0  0  0  0  0  0  0
   14.6864   16.9500   19.5436 C   0  0  0  0  0  0  0  0  0  0  0  0
   12.3935   15.3114   21.8218 C   0  0  0  0  0  0  0  0  0  0  0  0
   10.8277   13.1429   23.4602 C   0  0  0  0  0  0  0  0  0  0  0  0
    8.3849    8.1739   22.7505 C   0  0  0  0  0  0  0  0  0  0  0  0
   10.5531    8.8830   23.7214 C   0  0  0  0  0  0  0  0  0  0  0  0
    9.1781    7.5153   21.6276 C   0  0  0  0  0  0  0  0  0  0  0  0
   11.2307    8.1859   22.5468 C   0  0  0  0  0  0  0  0  0  0  0  0
   12.1019   13.1173   22.6442 C   0  0  0  0  0  0  0  0  0  0  0  0
    6.4014   13.2364   26.2955 C   0  0  0  0  0  0  0  0  0  0  0  0
   14.1839   16.3547   20.6485 N   0  0  0  0  0  0  0  0  0  0  0  0
    9.1811    9.2509   23.3549 N   0  0  0  0  0  0  0  0  0  0  0  0
   10.1965   11.8939   23.4921 N   0  0  0  0  0  0  0  0  0  0  0  0
   12.3675   15.8721   22.9064 O   0  0  0  0  0  0  0  0  0  0  0  0
   10.4529   14.1808   23.9973 O   0  0  0  0  0  0  0  0  0  0  0  0
   10.4494    7.0761   22.1057 O   0  0  0  0  0  0  0  0  0  0  0  0
   11.9780   14.0338   21.5765 O   0  0  0  0  0  0  0  0  0  0  0  0
    5.2579   12.7766   26.8847 F   0  0  0  0  0  0  0  0  0  0  0  0
    7.1330   13.7788   27.3135 F   0  0  0  0  0  0  0  0  0  0  0  0
    6.0149   14.2911   25.5201 F   0  0  0  0  0  0  0  0  0  0  0  0
   10.4456   15.6084   19.4272 Cl  0  0  0  0  0  0  0  0  0  0  0  0
   16.3268   17.4354   19.6702 Cl  0  0  0  0  0  0  0  0  0  0  0  0
    5.7119   10.6310   25.9635 H   0  0  0  0  0  0  0  0  0  0  0  0
    6.9231    8.9086   24.6866 H   0  0  0  0  0  0  0  0  0  0  0  0
   12.0503   16.9033   17.4520 H   0  0  0  0  0  0  0  0  0  0  0  0
   14.4026   17.6480   17.5150 H   0  0  0  0  0  0  0  0  0  0  0  0
    8.7101   13.5348   24.9199 H   0  0  0  0  0  0  0  0  0  0  0  0
    7.4419    8.5655   22.3513 H   0  0  0  0  0  0  0  0  0  0  0  0
    8.1496    7.4276   23.5201 H   0  0  0  0  0  0  0  0  0  0  0  0
   10.5245    8.2044   24.5838 H   0  0  0  0  0  0  0  0  0  0  0  0
   11.1319    9.7704   24.0033 H   0  0  0  0  0  0  0  0  0  0  0  0
    8.6391    6.6362   21.2601 H   0  0  0  0  0  0  0  0  0  0  0  0
    9.3152    8.1958   20.7786 H   0  0  0  0  0  0  0  0  0  0  0  0
   11.4000    8.8769   21.7120 H   0  0  0  0  0  0  0  0  0  0  0  0
   12.2074    7.8022   22.8587 H   0  0  0  0  0  0  0  0  0  0  0  0
   12.9555   13.3941   23.2704 H   0  0  0  0  0  0  0  0  0  0  0  0
   12.2806   12.1164   22.2400 H   0  0  0  0  0  0  0  0  0  0  0  0
   10.6629   11.1418   22.9741 H   0  0  0  0  0  0  0  0  0  0  0  0
  1  2  2  0  0  0  0
  1  6  1  0  0  0  0
  2  7  1  0  0  0  0
  3  4  2  0  0  0  0
  3  9  1  0  0  0  0
  4 11  1  0  0  0  0
  5  6  2  0  0  0  0
  5  8  1  0  0  0  0
  6 19  1  0  0  0  0
  7  8  2  0  0  0  0
  7 21  1  0  0  0  0
  8 22  1  0  0  0  0
  9 10  2  0  0  0  0
  9 30  1  0  0  0  0
 10 12  1  0  0  0  0
 10 20  1  0  0  0  0
 11 20  2  0  0  0  0
 11 31  1  0  0  0  0
 12 23  2  0  0  0  0
 12 26  1  0  0  0  0
 13 18  1  0  0  0  0
 13 22  1  0  0  0  0
 13 24  2  0  0  0  0
 14 16  1  0  0  0  0
 14 21  1  0  0  0  0
 15 17  1  0  0  0  0
 15 21  1  0  0  0  0
 16 25  1  0  0  0  0
 17 25  1  0  0  0  0
 18 26  1  0  0  0  0
 19 27  1  0  0  0  0
 19 28  1  0  0  0  0
 19 29  1  0  0  0  0
  1 32  1  0  0  0  0
  2 33  1  0  0  0  0
  3 34  1  0  0  0  0
  4 35  1  0  0  0  0
  5 36  1  0  0  0  0
 14 37  1  0  0  0  0
 14 38  1  0  0  0  0
 15 39  1  0  0  0  0
 15 40  1  0  0  0  0
 16 41  1  0  0  0  0
 16 42  1  0  0  0  0
 17 43  1  0  0  0  0
 17 44  1  0  0  0  0
 18 45  1  0  0  0  0
 18 46  1  0  0  0  0
 22 47  1  0  0  0  0
M  END
> <Catalog ID>
Z16552120

> <MW>
478.249

> <MW (desalted)>
478.249

> <ClogP>
2.873

> <logS>
-6.207

> <HBD>
1

> <HBA>
5

> <TPSA>
80.76

> <RotBonds>
7

> <ROCS_ShapeQuery>
A71EV2A-x0451_0A_A71EV2A-x0310_0A_A71EV2A-x0416_0A_peptide

> <ROCS_TanimotoCombo>
0.537 

> <ROCS_ShapeTanimoto>
0.396 

> <ROCS_ColorTanimoto>
0.141 

> <ROCS_RefTversky>
0.352 

> <ROCS_RefColorTversky>
0.161 

> <ROCS_RefTverskyCombo>
0.513 

> <ROCS_FitTversky>
1.451 

> <ROCS_FitColorTversky>
0.534 

> <ROCS_FitTverskyCombo>
1.986 

> <ROCS_ColorScore>
-4.908

> <ROCS_Overlap>
2454.601

> <ROCS_Rank>
122                 

$$$$
untitled-dbase-11406_5551
  -OEChem-11132309573D

 51 54  0     1  0  0  0  0  0999 V2000
   14.1399   11.2405   29.1210 C   0  0  0  0  0  0  0  0  0  0  0  0
    9.8248    9.4892   23.4983 C   0  0  0  0  0  0  0  0  0  0  0  0
   14.2590   11.1489   26.6797 C   0  0  0  0  0  0  0  0  0  0  0  0
   13.4788   13.1628   27.7623 C   0  0  0  0  0  0  0  0  0  0  0  0
   10.5849   10.6453   23.3188 C   0  0  0  0  0  0  0  0  0  0  0  0
    8.5931    9.5556   24.1502 C   0  0  0  0  0  0  0  0  0  0  0  0
   14.0807   11.7496   25.4335 C   0  0  0  0  0  0  0  0  0  0  0  0
   13.3006   13.7637   26.5162 C   0  0  0  0  0  0  0  0  0  0  0  0
   13.9580   11.8554   27.8441 C   0  0  0  0  0  0  0  0  0  0  0  0
   10.1111   11.8733   23.7814 C   0  0  0  0  0  0  0  0  0  0  0  0
    8.1245   10.7810   24.6248 C   0  0  0  0  0  0  0  0  0  0  0  0
    8.8732   11.9429   24.4213 C   0  0  0  0  0  0  0  0  0  0  0  0
   13.6015   13.0571   25.3518 C   0  0  0  0  0  0  0  0  0  0  0  0
   12.2139   13.8041   21.9610 C   0  0  0  0  0  0  0  0  0  0  0  0
    6.7046   11.9891   26.0071 C   0  0  0  0  0  0  0  0  0  0  0  0
    7.0576   13.1902   25.1517 C   0  0  0  0  0  0  0  0  0  0  0  0
   10.9888   13.1730   23.5590 C   0  0  1  0  0  0  0  0  0  0  0  0
   12.5069   12.9947   23.2414 C   0  0  2  0  0  0  0  0  0  0  0  0
   13.0620   17.0481   22.6064 C   0  0  0  0  0  0  0  0  0  0  0  0
    9.5761   15.9080   22.2692 C   0  0  0  0  0  0  0  0  0  0  0  0
    9.7925   14.5291   21.6598 C   0  0  0  0  0  0  0  0  0  0  0  0
   10.7792   16.8268   22.0938 C   0  0  0  0  0  0  0  0  0  0  0  0
   14.2878   10.7411   30.1580 N   0  0  0  0  0  0  0  0  0  0  0  0
   10.8941   13.8336   22.2541 N   0  0  0  0  0  0  0  0  0  0  0  0
   12.8664   14.2620   21.0512 O   0  0  0  0  0  0  0  0  0  0  0  0
    6.9178   10.7792   25.2745 O   0  0  0  0  0  0  0  0  0  0  0  0
    8.4521   13.1799   24.8345 O   0  0  0  0  0  0  0  0  0  0  0  0
   13.4268   13.6442   24.1333 O   0  0  0  0  0  0  0  0  0  0  0  0
   11.9081   16.2256   22.7140 O   0  0  0  0  0  0  0  0  0  0  0  0
   10.1950    8.5352   23.1343 H   0  0  0  0  0  0  0  0  0  0  0  0
   14.6330   10.1289   26.7274 H   0  0  0  0  0  0  0  0  0  0  0  0
   13.2397   13.7267   28.6609 H   0  0  0  0  0  0  0  0  0  0  0  0
   11.5455   10.5810   22.8147 H   0  0  0  0  0  0  0  0  0  0  0  0
    8.0109    8.6492   24.2925 H   0  0  0  0  0  0  0  0  0  0  0  0
   14.3163   11.1943   24.5297 H   0  0  0  0  0  0  0  0  0  0  0  0
   12.9266   14.7824   26.4594 H   0  0  0  0  0  0  0  0  0  0  0  0
    7.3077   11.9543   26.9229 H   0  0  0  0  0  0  0  0  0  0  0  0
    5.6489   12.0244   26.2936 H   0  0  0  0  0  0  0  0  0  0  0  0
    6.4857   13.2021   24.2155 H   0  0  0  0  0  0  0  0  0  0  0  0
    6.8457   14.1168   25.6941 H   0  0  0  0  0  0  0  0  0  0  0  0
   10.8039   13.8891   24.3700 H   0  0  0  0  0  0  0  0  0  0  0  0
   12.8307   11.9687   23.0204 H   0  0  0  0  0  0  0  0  0  0  0  0
   13.9078   16.5559   23.0926 H   0  0  0  0  0  0  0  0  0  0  0  0
   12.8675   18.0139   23.0795 H   0  0  0  0  0  0  0  0  0  0  0  0
   13.2914   17.2020   21.5493 H   0  0  0  0  0  0  0  0  0  0  0  0
    8.7003   16.3765   21.8030 H   0  0  0  0  0  0  0  0  0  0  0  0
    9.3373   15.8220   23.3367 H   0  0  0  0  0  0  0  0  0  0  0  0
    8.9043   13.9077   21.8106 H   0  0  0  0  0  0  0  0  0  0  0  0
    9.9823   14.5996   20.5840 H   0  0  0  0  0  0  0  0  0  0  0  0
   11.0095   16.9815   21.0352 H   0  0  0  0  0  0  0  0  0  0  0  0
   10.6000   17.7981   22.5657 H   0  0  0  0  0  0  0  0  0  0  0  0
  1  9  1  0  0  0  0
  1 23  3  0  0  0  0
  2  5  2  0  0  0  0
  2  6  1  0  0  0  0
  3  7  2  0  0  0  0
  3  9  1  0  0  0  0
  4  8  1  0  0  0  0
  4  9  2  0  0  0  0
  5 10  1  0  0  0  0
  6 11  2  0  0  0  0
  7 13  1  0  0  0  0
  8 13  2  0  0  0  0
 10 12  2  0  0  0  0
 10 17  1  0  0  0  0
 11 12  1  0  0  0  0
 11 26  1  0  0  0  0
 12 27  1  0  0  0  0
 13 28  1  0  0  0  0
 14 18  1  0  0  0  0
 14 24  1  0  0  0  0
 14 25  2  0  0  0  0
 15 16  1  0  0  0  0
 15 26  1  0  0  0  0
 16 27  1  0  0  0  0
 17 18  1  0  0  0  0
 17 24  1  0  0  0  0
 18 28  1  0  0  0  0
 19 29  1  0  0  0  0
 20 21  1  0  0  0  0
 20 22  1  0  0  0  0
 21 24  1  0  0  0  0
 22 29  1  0  0  0  0
  2 30  1  0  0  0  0
  3 31  1  0  0  0  0
  4 32  1  0  0  0  0
  5 33  1  0  0  0  0
  6 34  1  0  0  0  0
  7 35  1  0  0  0  0
  8 36  1  0  0  0  0
 15 37  1  0  0  0  0
 15 38  1  0  0  0  0
 16 39  1  0  0  0  0
 16 40  1  0  0  0  0
 17 41  1  0  0  0  0
 18 42  1  0  0  0  0
 19 43  1  0  0  0  0
 19 44  1  0  0  0  0
 19 45  1  0  0  0  0
 20 46  1  0  0  0  0
 20 47  1  0  0  0  0
 21 48  1  0  0  0  0
 21 49  1  0  0  0  0
 22 50  1  0  0  0  0
 22 51  1  0  0  0  0
M  END
> <Catalog ID>
Z763547860

> <MW>
394.42

> <MW (desalted)>
394.42

> <ClogP>
3.419

> <logS>
-4.89

> <HBD>
0

> <HBA>
6

> <TPSA>
81.02

> <RotBonds>
7

> <ROCS_ShapeQuery>
A71EV2A-x0451_0A_A71EV2A-x0310_0A_A71EV2A-x0416_0A_peptide

> <ROCS_TanimotoCombo>
0.537 

> <ROCS_ShapeTanimoto>
0.386 

> <ROCS_ColorTanimoto>
0.150 

> <ROCS_RefTversky>
0.343 

> <ROCS_RefColorTversky>
0.178 

> <ROCS_RefTverskyCombo>
0.521 

> <ROCS_FitTversky>
1.484 

> <ROCS_FitColorTversky>
0.492 

> <ROCS_FitTverskyCombo>
1.976 

> <ROCS_ColorScore>
-5.452

> <ROCS_Overlap>
2388.662

> <ROCS_Rank>
123                 

$$$$
untitled-dbase-10692_606
  -OEChem-11132309573D

 47 50  0     1  0  0  0  0  0999 V2000
   13.2078   16.1017   18.2540 C   0  0  0  0  0  0  0  0  0  0  0  0
   14.0793   16.8386   19.0564 C   0  0  0  0  0  0  0  0  0  0  0  0
   12.3120   15.2027   18.8333 C   0  0  0  0  0  0  0  0  0  0  0  0
   14.0602   16.6798   20.4421 C   0  0  0  0  0  0  0  0  0  0  0  0
   12.2976   15.0277   20.2198 C   0  0  0  0  0  0  0  0  0  0  0  0
   13.1739   15.7716   21.0271 C   0  0  0  0  0  0  0  0  0  0  0  0
    7.1618   12.0919   25.2224 C   0  0  0  0  0  0  0  0  0  0  0  0
    8.2482   12.5320   24.3914 C   0  0  0  0  0  0  0  0  0  0  0  0
    6.9249   10.7853   25.3648 C   0  0  0  0  0  0  0  0  0  0  0  0
    9.0454   11.6673   23.7440 C   0  0  0  0  0  0  0  0  0  0  0  0
    8.7813   10.1882   23.9026 C   0  0  0  0  0  0  0  0  0  0  0  0
   10.8064   13.2256   23.1553 C   0  0  0  0  0  0  0  0  0  0  0  0
   13.8203   13.4293   23.6749 C   0  0  0  0  0  0  0  0  0  0  0  0
   11.3088   14.1158   20.8938 C   0  0  0  0  0  0  0  0  0  0  0  0
   13.0995   15.5741   22.5166 C   0  0  0  0  0  0  0  0  0  0  0  0
    5.9680    7.9370   24.6948 C   0  0  0  0  0  0  0  0  0  0  0  0
    7.0967    7.5132   23.8031 C   0  0  0  0  0  0  0  0  0  0  0  0
   11.8892   13.4119   22.1334 C   0  0  1  0  0  0  0  0  0  0  0  0
    7.3594    8.4472   24.9526 C   0  0  0  0  0  0  0  0  0  0  0  0
   13.5244   11.9634   23.8664 C   0  0  0  0  0  0  0  0  0  0  0  0
    7.7039    9.8370   24.7285 N   0  0  0  0  0  0  0  0  0  0  0  0
   12.9634   14.1422   22.8276 N   0  0  0  0  0  0  0  0  0  0  0  0
   10.0821   12.0617   22.9503 N   0  0  0  0  0  0  0  0  0  0  0  0
    9.5019    9.3797   23.3163 O   0  0  0  0  0  0  0  0  0  0  0  0
   10.6077   14.0563   24.0390 O   0  0  0  0  0  0  0  0  0  0  0  0
   14.7878   13.9300   24.2551 O   0  0  0  0  0  0  0  0  0  0  0  0
   14.7715   11.3351   24.9369 Cl  0  0  0  0  0  0  0  0  0  0  0  0
   13.2287   16.2274   17.1744 H   0  0  0  0  0  0  0  0  0  0  0  0
   14.7774   17.5353   18.5993 H   0  0  0  0  0  0  0  0  0  0  0  0
   11.6316   14.6472   18.1981 H   0  0  0  0  0  0  0  0  0  0  0  0
   14.7377   17.2632   21.0534 H   0  0  0  0  0  0  0  0  0  0  0  0
    6.5506   12.8345   25.7217 H   0  0  0  0  0  0  0  0  0  0  0  0
    8.3993   13.6040   24.3079 H   0  0  0  0  0  0  0  0  0  0  0  0
    6.1126   10.4228   25.9854 H   0  0  0  0  0  0  0  0  0  0  0  0
   10.4246   14.6895   21.1923 H   0  0  0  0  0  0  0  0  0  0  0  0
   10.9907   13.3595   20.1681 H   0  0  0  0  0  0  0  0  0  0  0  0
   13.9956   15.9514   22.9645 H   0  0  0  0  0  0  0  0  0  0  0  0
   12.2255   16.0650   22.9014 H   0  0  0  0  0  0  0  0  0  0  0  0
    5.2342    8.6213   24.2868 H   0  0  0  0  0  0  0  0  0  0  0  0
    5.5647    7.2035   25.3821 H   0  0  0  0  0  0  0  0  0  0  0  0
    7.4536    6.4943   23.8898 H   0  0  0  0  0  0  0  0  0  0  0  0
    7.1203    7.9131   22.7968 H   0  0  0  0  0  0  0  0  0  0  0  0
   12.2104   12.4156   21.8579 H   0  0  0  0  0  0  0  0  0  0  0  0
    7.8794    8.0306   25.8085 H   0  0  0  0  0  0  0  0  0  0  0  0
   13.5744   11.4679   22.9041 H   0  0  0  0  0  0  0  0  0  0  0  0
   12.5497   11.8609   24.3281 H   0  0  0  0  0  0  0  0  0  0  0  0
   10.3378   11.4693   22.1650 H   0  0  0  0  0  0  0  0  0  0  0  0
  1  2  1  0  0  0  0
  1  3  2  0  0  0  0
  2  4  2  0  0  0  0
  3  5  1  0  0  0  0
  4  6  1  0  0  0  0
  5  6  2  0  0  0  0
  5 14  1  0  0  0  0
  6 15  1  0  0  0  0
  7  8  1  0  0  0  0
  7  9  2  0  0  0  0
  8 10  2  0  0  0  0
  9 21  1  0  0  0  0
 10 11  1  0  0  0  0
 10 23  1  0  0  0  0
 11 21  1  0  0  0  0
 11 24  2  0  0  0  0
 12 18  1  6  0  0  0
 12 23  1  0  0  0  0
 12 25  2  0  0  0  0
 13 20  1  0  0  0  0
 13 22  1  0  0  0  0
 13 26  2  0  0  0  0
 14 18  1  0  0  0  0
 15 22  1  0  0  0  0
 16 17  1  0  0  0  0
 16 19  1  0  0  0  0
 17 19  1  0  0  0  0
 18 22  1  0  0  0  0
 19 21  1  0  0  0  0
 20 27  1  0  0  0  0
  1 28  1  0  0  0  0
  2 29  1  0  0  0  0
  3 30  1  0  0  0  0
  4 31  1  0  0  0  0
  7 32  1  0  0  0  0
  8 33  1  0  0  0  0
  9 34  1  0  0  0  0
 14 35  1  0  0  0  0
 14 36  1  0  0  0  0
 15 37  1  0  0  0  0
 15 38  1  0  0  0  0
 16 39  1  0  0  0  0
 16 40  1  0  0  0  0
 17 41  1  0  0  0  0
 17 42  1  0  0  0  0
 18 43  1  0  0  0  0
 19 44  1  0  0  0  0
 20 45  1  0  0  0  0
 20 46  1  0  0  0  0
 23 47  1  0  0  0  0
M  END
> <Catalog ID>
Z8604605053

> <MW>
385.8441

> <MW (desalted)>
385.8441

> <ClogP>
1.393

> <logS>
-3.573

> <HBD>
1

> <HBA>
3

> <TPSA>
69.72

> <RotBonds>
4

> <ROCS_ShapeQuery>
A71EV2A-x0451_0A_A71EV2A-x0310_0A_A71EV2A-x0416_0A_peptide

> <ROCS_TanimotoCombo>
0.537 

> <ROCS_ShapeTanimoto>
0.380 

> <ROCS_ColorTanimoto>
0.156 

> <ROCS_RefTversky>
0.336 

> <ROCS_RefColorTversky>
0.172 

> <ROCS_RefTverskyCombo>
0.508 

> <ROCS_FitTversky>
1.530 

> <ROCS_FitColorTversky>
0.636 

> <ROCS_FitTverskyCombo>
2.166 

> <ROCS_ColorScore>
-5.239

> <ROCS_Overlap>
2337.324

> <ROCS_Rank>
124                 

$$$$
untitled-dbase-3465_8
  -OEChem-11132309573D

 40 42  0     1  0  0  0  0  0999 V2000
   12.3999   15.3240   22.1302 C   0  0  0  0  0  0  0  0  0  0  0  0
   10.7786   13.6776   23.0493 C   0  0  0  0  0  0  0  0  0  0  0  0
    6.5928   10.5297   23.8618 C   0  0  0  0  0  0  0  0  0  0  0  0
    7.5932   11.5328   25.9311 C   0  0  0  0  0  0  0  0  0  0  0  0
    8.4608    9.3511   25.0499 C   0  0  0  0  0  0  0  0  0  0  0  0
    8.0007   12.5982   23.6981 C   0  0  0  0  0  0  0  0  0  0  0  0
    8.8689   10.4142   22.8161 C   0  0  0  0  0  0  0  0  0  0  0  0
    9.8713   11.4183   24.8887 C   0  0  0  0  0  0  0  0  0  0  0  0
    6.9713   11.8469   24.5598 C   0  0  0  0  0  0  0  0  0  0  0  0
    7.8431    9.6539   23.6741 C   0  0  0  0  0  0  0  0  0  0  0  0
    8.8489   10.6621   25.7546 C   0  0  0  0  0  0  0  0  0  0  0  0
    9.2693   11.7385   23.5033 C   0  0  0  0  0  0  0  0  0  0  0  0
   12.7144   14.9069   19.6618 C   0  0  0  0  0  0  0  0  0  0  0  0
   13.3102   15.5028   20.9270 C   0  0  1  0  0  0  0  0  0  0  0  0
   11.6823   14.1271   22.0749 N   0  0  0  0  0  0  0  0  0  0  0  0
   10.2332   12.4473   22.6906 N   0  0  0  0  0  0  0  0  0  0  0  0
   12.3349   16.1451   23.0423 O   0  0  0  0  0  0  0  0  0  0  0  0
   10.5052   14.2886   24.0812 O   0  0  0  0  0  0  0  0  0  0  0  0
   13.5407   17.2585   20.7142 Cl  0  0  0  0  0  0  0  0  0  0  0  0
    5.8450    9.9918   24.4571 H   0  0  0  0  0  0  0  0  0  0  0  0
    6.1330   10.7399   22.8883 H   0  0  0  0  0  0  0  0  0  0  0  0
    7.8533   12.4654   26.4470 H   0  0  0  0  0  0  0  0  0  0  0  0
    6.8631   11.0122   26.5630 H   0  0  0  0  0  0  0  0  0  0  0  0
    7.7456    8.7926   25.6665 H   0  0  0  0  0  0  0  0  0  0  0  0
    9.3450    8.7130   24.9313 H   0  0  0  0  0  0  0  0  0  0  0  0
    7.5531   12.8437   22.7261 H   0  0  0  0  0  0  0  0  0  0  0  0
    8.2569   13.5503   24.1812 H   0  0  0  0  0  0  0  0  0  0  0  0
    9.7540    9.7837   22.6595 H   0  0  0  0  0  0  0  0  0  0  0  0
    8.4406   10.6137   21.8251 H   0  0  0  0  0  0  0  0  0  0  0  0
   10.1684   12.3443   25.3979 H   0  0  0  0  0  0  0  0  0  0  0  0
   10.7782   10.8092   24.7792 H   0  0  0  0  0  0  0  0  0  0  0  0
    6.0766   12.4654   24.6920 H   0  0  0  0  0  0  0  0  0  0  0  0
    7.5676    8.7167   23.1777 H   0  0  0  0  0  0  0  0  0  0  0  0
    9.2861   10.4399   26.7344 H   0  0  0  0  0  0  0  0  0  0  0  0
   11.7319   15.3410   19.4479 H   0  0  0  0  0  0  0  0  0  0  0  0
   13.3641   15.1054   18.8024 H   0  0  0  0  0  0  0  0  0  0  0  0
   12.5958   13.8201   19.7378 H   0  0  0  0  0  0  0  0  0  0  0  0
   14.2904   15.0559   21.1220 H   0  0  0  0  0  0  0  0  0  0  0  0
   11.8266   13.5334   21.2626 H   0  0  0  0  0  0  0  0  0  0  0  0
   10.5268   12.0272   21.8152 H   0  0  0  0  0  0  0  0  0  0  0  0
  1 14  1  0  0  0  0
  1 15  1  0  0  0  0
  1 17  2  0  0  0  0
  2 15  1  0  0  0  0
  2 16  1  0  0  0  0
  2 18  2  0  0  0  0
  3  9  1  0  0  0  0
  3 10  1  0  0  0  0
  4  9  1  0  0  0  0
  4 11  1  0  0  0  0
  5 10  1  0  0  0  0
  5 11  1  0  0  0  0
  6  9  1  0  0  0  0
  6 12  1  0  0  0  0
  7 10  1  0  0  0  0
  7 12  1  0  0  0  0
  8 11  1  0  0  0  0
  8 12  1  0  0  0  0
 12 16  1  0  0  0  0
 13 14  1  0  0  0  0
 14 19  1  0  0  0  0
  3 20  1  0  0  0  0
  3 21  1  0  0  0  0
  4 22  1  0  0  0  0
  4 23  1  0  0  0  0
  5 24  1  0  0  0  0
  5 25  1  0  0  0  0
  6 26  1  0  0  0  0
  6 27  1  0  0  0  0
  7 28  1  0  0  0  0
  7 29  1  0  0  0  0
  8 30  1  0  0  0  0
  8 31  1  0  0  0  0
  9 32  1  0  0  0  0
 10 33  1  0  0  0  0
 11 34  1  0  0  0  0
 13 35  1  0  0  0  0
 13 36  1  0  0  0  0
 13 37  1  0  0  0  0
 14 38  1  0  0  0  0
 15 39  1  0  0  0  0
 16 40  1  0  0  0  0
M  END
> <Catalog ID>
Z85917611

> <MW>
284.129

> <MW (desalted)>
284.782

> <ClogP>
3.173

> <logS>
-4.32

> <HBD>
2

> <HBA>
2

> <TPSA>
58.2

> <RotBonds>
2

> <ROCS_ShapeQuery>
A71EV2A-x0451_0A_A71EV2A-x0310_0A_A71EV2A-x0416_0A_peptide

> <ROCS_TanimotoCombo>
0.536 

> <ROCS_ShapeTanimoto>
0.303 

> <ROCS_ColorTanimoto>
0.234 

> <ROCS_RefTversky>
0.271 

> <ROCS_RefColorTversky>
0.261 

> <ROCS_RefTverskyCombo>
0.532 

> <ROCS_FitTversky>
1.623 

> <ROCS_FitColorTversky>
0.692 

> <ROCS_FitTverskyCombo>
2.315 

> <ROCS_ColorScore>
-7.988

> <ROCS_Overlap>
1881.239

> <ROCS_Rank>
125                 

$$$$
untitled-dbase-2358_3293
  -OEChem-11132309573D

 52 55  0     1  0  0  0  0  0999 V2000
   12.9387   14.9792   22.9444 C   0  0  0  0  0  0  0  0  0  0  0  0
   13.7587   15.6770   22.0511 C   0  0  0  0  0  0  0  0  0  0  0  0
   11.5066   14.3410   21.1298 C   0  0  0  0  0  0  0  0  0  0  0  0
    9.0707   10.2726   23.1922 C   0  0  0  0  0  0  0  0  0  0  0  0
    8.5147   11.9255   24.5316 C   0  0  0  0  0  0  0  0  0  0  0  0
   11.8111   14.3139   22.4856 C   0  0  0  0  0  0  0  0  0  0  0  0
   12.3162   15.0494   20.2226 C   0  0  0  0  0  0  0  0  0  0  0  0
   13.4635   15.7405   20.6772 C   0  0  0  0  0  0  0  0  0  0  0  0
    9.3469   11.6223   23.4818 C   0  0  0  0  0  0  0  0  0  0  0  0
    5.4512   13.2300   26.1720 C   0  0  0  0  0  0  0  0  0  0  0  0
   17.2180   16.3425   18.9633 C   0  0  0  0  0  0  0  0  0  0  0  0
   16.5061   17.4338   19.2525 C   0  0  0  0  0  0  0  0  0  0  0  0
   10.9649   13.5798   23.4127 C   0  0  0  0  0  0  0  0  0  0  0  0
   15.3403   17.3085   20.1578 C   0  0  0  0  0  0  0  0  0  0  0  0
   11.9349   14.9989   18.7665 C   0  0  0  0  0  0  0  0  0  0  0  0
    5.0760   12.2921   25.0452 C   0  0  0  0  0  0  0  0  0  0  0  0
   12.5560   16.1489   18.0006 C   0  0  0  0  0  0  0  0  0  0  0  0
    5.3409   10.8238   25.3415 C   0  0  0  0  0  0  0  0  0  0  0  0
   14.0422   16.2168   18.3050 C   0  0  0  0  0  0  0  0  0  0  0  0
    6.9327   11.4386   27.1479 C   0  0  0  0  0  0  0  0  0  0  0  0
    6.7612   10.6004   25.8772 C   0  0  2  0  0  0  0  0  0  0  0  0
    8.1362    9.7541   23.9934 N   0  0  0  0  0  0  0  0  0  0  0  0
    7.8181   10.7834   24.7969 N   0  0  0  0  0  0  0  0  0  0  0  0
    6.4127   12.7923   27.0532 N   0  0  0  0  0  0  0  0  0  0  0  0
   14.3147   16.4451   19.7382 N   0  0  0  0  0  0  0  0  0  0  0  0
   10.2672   12.4983   22.8527 N   0  0  0  0  0  0  0  0  0  0  0  0
    4.9628   14.3598   26.2357 O   0  0  0  0  0  0  0  0  0  0  0  0
   10.8516   13.9183   24.5991 O   0  0  0  0  0  0  0  0  0  0  0  0
   15.3657   17.9734   21.1929 O   0  0  0  0  0  0  0  0  0  0  0  0
   13.2052   14.9530   23.9983 H   0  0  0  0  0  0  0  0  0  0  0  0
   14.6487   16.1288   22.4754 H   0  0  0  0  0  0  0  0  0  0  0  0
   10.6317   13.8063   20.7644 H   0  0  0  0  0  0  0  0  0  0  0  0
    9.5094    9.6432   22.4310 H   0  0  0  0  0  0  0  0  0  0  0  0
    8.3623   12.8338   25.0992 H   0  0  0  0  0  0  0  0  0  0  0  0
   18.0815   16.3709   18.3072 H   0  0  0  0  0  0  0  0  0  0  0  0
   16.9410   15.3836   19.3885 H   0  0  0  0  0  0  0  0  0  0  0  0
   16.7512   18.4073   18.8484 H   0  0  0  0  0  0  0  0  0  0  0  0
   12.2738   14.0422   18.3503 H   0  0  0  0  0  0  0  0  0  0  0  0
   10.8451   15.0455   18.6545 H   0  0  0  0  0  0  0  0  0  0  0  0
    4.0097   12.4432   24.8395 H   0  0  0  0  0  0  0  0  0  0  0  0
    5.6342   12.5874   24.1497 H   0  0  0  0  0  0  0  0  0  0  0  0
   12.3966   16.0078   16.9258 H   0  0  0  0  0  0  0  0  0  0  0  0
   12.0770   17.0979   18.2743 H   0  0  0  0  0  0  0  0  0  0  0  0
    4.5948   10.4535   26.0674 H   0  0  0  0  0  0  0  0  0  0  0  0
    5.1869   10.2244   24.4246 H   0  0  0  0  0  0  0  0  0  0  0  0
   14.5523   15.2902   18.0148 H   0  0  0  0  0  0  0  0  0  0  0  0
   14.4616   17.0316   17.7064 H   0  0  0  0  0  0  0  0  0  0  0  0
    6.4387   10.9534   28.0041 H   0  0  0  0  0  0  0  0  0  0  0  0
    7.9977   11.5329   27.4156 H   0  0  0  0  0  0  0  0  0  0  0  0
    6.8658    9.5019   26.1390 H   0  0  0  0  0  0  0  0  0  0  0  0
    6.7955   13.4795   27.6984 H   0  0  0  0  0  0  0  0  0  0  0  0
   10.4449   12.3197   21.8674 H   0  0  0  0  0  0  0  0  0  0  0  0
  1  2  2  0  0  0  0
  1  6  1  0  0  0  0
  2  8  1  0  0  0  0
  3  6  2  0  0  0  0
  3  7  1  0  0  0  0
  4  9  1  0  0  0  0
  4 22  2  0  0  0  0
  5  9  2  0  0  0  0
  5 23  1  0  0  0  0
  6 13  1  0  0  0  0
  7  8  2  0  0  0  0
  7 15  1  0  0  0  0
  8 25  1  0  0  0  0
  9 26  1  0  0  0  0
 10 16  1  0  0  0  0
 10 24  1  0  0  0  0
 10 27  2  0  0  0  0
 11 12  2  0  0  0  0
 12 14  1  0  0  0  0
 13 26  1  0  0  0  0
 13 28  2  0  0  0  0
 14 25  1  0  0  0  0
 14 29  2  0  0  0  0
 15 17  1  0  0  0  0
 16 18  1  0  0  0  0
 17 19  1  0  0  0  0
 18 21  1  0  0  0  0
 19 25  1  0  0  0  0
 20 21  1  0  0  0  0
 20 24  1  0  0  0  0
 21 23  1  0  0  0  0
 22 23  1  0  0  0  0
  1 30  1  0  0  0  0
  2 31  1  0  0  0  0
  3 32  1  0  0  0  0
  4 33  1  0  0  0  0
  5 34  1  0  0  0  0
 11 35  1  0  0  0  0
 11 36  1  0  0  0  0
 12 37  1  0  0  0  0
 15 38  1  0  0  0  0
 15 39  1  0  0  0  0
 16 40  1  0  0  0  0
 16 41  1  0  0  0  0
 17 42  1  0  0  0  0
 17 43  1  0  0  0  0
 18 44  1  0  0  0  0
 18 45  1  0  0  0  0
 19 46  1  0  0  0  0
 19 47  1  0  0  0  0
 20 48  1  0  0  0  0
 20 49  1  0  0  0  0
 21 50  1  0  0  0  0
 24 51  1  0  0  0  0
 26 52  1  0  0  0  0
M  END
> <Catalog ID>
Z3756537802

> <MW>
393.439

> <MW (desalted)>
393.439

> <ClogP>
0.866

> <logS>
-3.245

> <HBD>
2

> <HBA>
4

> <TPSA>
96.33

> <RotBonds>
4

> <ROCS_ShapeQuery>
A71EV2A-x0451_0A_A71EV2A-x0310_0A_A71EV2A-x0416_0A_peptide

> <ROCS_TanimotoCombo>
0.536 

> <ROCS_ShapeTanimoto>
0.342 

> <ROCS_ColorTanimoto>
0.194 

> <ROCS_RefTversky>
0.314 

> <ROCS_RefColorTversky>
0.226 

> <ROCS_RefTverskyCombo>
0.541 

> <ROCS_FitTversky>
1.351 

> <ROCS_FitColorTversky>
0.577 

> <ROCS_FitTverskyCombo>
1.928 

> <ROCS_ColorScore>
-6.945

> <ROCS_Overlap>
2186.934

> <ROCS_Rank>
126                 

$$$$
untitled-dbase-8112_327
  -OEChem-11132309573D

 37 39  0     0  0  0  0  0  0999 V2000
   10.5773   15.7539   21.1430 C   0  0  0  0  0  0  0  0  0  0  0  0
    6.7814   13.1903   24.8333 C   0  0  0  0  0  0  0  0  0  0  0  0
   15.1841   14.6955   24.8851 C   0  0  0  0  0  0  0  0  0  0  0  0
    7.9413   13.1451   24.0733 C   0  0  0  0  0  0  0  0  0  0  0  0
   10.4218   10.6256   22.9250 C   0  0  0  0  0  0  0  0  0  0  0  0
    9.8896    9.4797   23.5030 C   0  0  0  0  0  0  0  0  0  0  0  0
   14.6310   15.6194   23.9666 C   0  0  0  0  0  0  0  0  0  0  0  0
    6.3236   12.0041   25.3701 C   0  0  0  0  0  0  0  0  0  0  0  0
   14.4258   13.5527   24.7807 C   0  0  0  0  0  0  0  0  0  0  0  0
    8.6055   11.9275   23.8726 C   0  0  0  0  0  0  0  0  0  0  0  0
    8.0597   10.7682   24.4625 C   0  0  0  0  0  0  0  0  0  0  0  0
    9.7822   11.8482   23.1085 C   0  0  0  0  0  0  0  0  0  0  0  0
    8.7198    9.5589   24.2626 C   0  0  0  0  0  0  0  0  0  0  0  0
   13.5744   14.9752   23.3661 C   0  0  0  0  0  0  0  0  0  0  0  0
   12.6721   15.5123   22.3356 C   0  0  0  0  0  0  0  0  0  0  0  0
   11.3764   15.1769   22.1764 C   0  0  0  0  0  0  0  0  0  0  0  0
   10.8180   14.1439   23.1318 C   0  0  0  0  0  0  0  0  0  0  0  0
    7.3025    7.6632   24.0310 C   0  0  0  0  0  0  0  0  0  0  0  0
    9.9243   16.2194   20.3041 N   0  0  0  0  0  0  0  0  0  0  0  0
    6.9342   10.8090   25.2004 N   0  0  0  0  0  0  0  0  0  0  0  0
   10.3506   12.9785   22.5089 N   0  0  0  0  0  0  0  0  0  0  0  0
   10.7991   14.3619   24.3407 O   0  0  0  0  0  0  0  0  0  0  0  0
   13.4427   13.7148   23.8568 O   0  0  0  0  0  0  0  0  0  0  0  0
    8.2274    8.4098   24.8155 O   0  0  0  0  0  0  0  0  0  0  0  0
    6.2560   14.1233   24.9992 H   0  0  0  0  0  0  0  0  0  0  0  0
   16.0278   14.8454   25.5429 H   0  0  0  0  0  0  0  0  0  0  0  0
    8.3107   14.0742   23.6465 H   0  0  0  0  0  0  0  0  0  0  0  0
   11.3323   10.5541   22.3359 H   0  0  0  0  0  0  0  0  0  0  0  0
   10.3868    8.5242   23.3589 H   0  0  0  0  0  0  0  0  0  0  0  0
   14.9676   16.6288   23.7741 H   0  0  0  0  0  0  0  0  0  0  0  0
    5.4223   11.9784   25.9738 H   0  0  0  0  0  0  0  0  0  0  0  0
   14.4539   12.5898   25.2696 H   0  0  0  0  0  0  0  0  0  0  0  0
   13.1474   16.2494   21.6922 H   0  0  0  0  0  0  0  0  0  0  0  0
    6.9883    6.7747   24.5841 H   0  0  0  0  0  0  0  0  0  0  0  0
    7.7744    7.3713   23.0894 H   0  0  0  0  0  0  0  0  0  0  0  0
    6.4300    8.2865   23.8211 H   0  0  0  0  0  0  0  0  0  0  0  0
   10.4353   12.9503   21.4888 H   0  0  0  0  0  0  0  0  0  0  0  0
  1 16  1  0  0  0  0
  1 19  3  0  0  0  0
  2  4  2  0  0  0  0
  2  8  1  0  0  0  0
  3  7  1  0  0  0  0
  3  9  2  0  0  0  0
  4 10  1  0  0  0  0
  5  6  2  0  0  0  0
  5 12  1  0  0  0  0
  6 13  1  0  0  0  0
  7 14  2  0  0  0  0
  8 20  2  0  0  0  0
  9 23  1  0  0  0  0
 10 11  1  0  0  0  0
 10 12  2  0  0  0  0
 11 13  2  0  0  0  0
 11 20  1  0  0  0  0
 12 21  1  0  0  0  0
 13 24  1  0  0  0  0
 14 15  1  4  0  0  0
 14 23  1  0  0  0  0
 15 16  2  0  0  0  0
 16 17  1  0  0  0  0
 17 21  1  0  0  0  0
 17 22  2  0  0  0  0
 18 24  1  0  0  0  0
  2 25  1  0  0  0  0
  3 26  1  0  0  0  0
  4 27  1  0  0  0  0
  5 28  1  0  0  0  0
  6 29  1  0  0  0  0
  7 30  1  0  0  0  0
  8 31  1  0  0  0  0
  9 32  1  0  0  0  0
 15 33  1  0  0  0  0
 18 34  1  0  0  0  0
 18 35  1  0  0  0  0
 18 36  1  0  0  0  0
 21 37  1  0  0  0  0
M  END
> <Catalog ID>
Z1190981428

> <MW>
319.314

> <MW (desalted)>
319.314

> <ClogP>
2.994

> <logS>
-4.26

> <HBD>
1

> <HBA>
4

> <TPSA>
88.15

> <RotBonds>
4

> <ROCS_ShapeQuery>
A71EV2A-x0451_0A_A71EV2A-x0310_0A_A71EV2A-x0416_0A_peptide

> <ROCS_TanimotoCombo>
0.536 

> <ROCS_ShapeTanimoto>
0.355 

> <ROCS_ColorTanimoto>
0.181 

> <ROCS_RefTversky>
0.316 

> <ROCS_RefColorTversky>
0.204 

> <ROCS_RefTverskyCombo>
0.520 

> <ROCS_FitTversky>
1.546 

> <ROCS_FitColorTversky>
0.615 

> <ROCS_FitTverskyCombo>
2.161 

> <ROCS_ColorScore>
-6.239

> <ROCS_Overlap>
2193.816

> <ROCS_Rank>
127                 

$$$$
untitled-dbase-3831_6608
  -OEChem-11132309573D

 57 60  0     0  0  0  0  0  0999 V2000
   12.7711   16.9323   19.5467 C   0  0  0  0  0  0  0  0  0  0  0  0
   11.6190   16.8494   20.3286 C   0  0  0  0  0  0  0  0  0  0  0  0
   13.8746   16.1324   19.8435 C   0  0  0  0  0  0  0  0  0  0  0  0
   11.5704   15.9666   21.4075 C   0  0  0  0  0  0  0  0  0  0  0  0
   13.8260   15.2496   20.9224 C   0  0  0  0  0  0  0  0  0  0  0  0
    9.3786   10.3214   23.1424 C   0  0  0  0  0  0  0  0  0  0  0  0
   12.6739   15.1667   21.7044 C   0  0  0  0  0  0  0  0  0  0  0  0
    9.0110   11.6387   22.9922 C   0  0  0  0  0  0  0  0  0  0  0  0
    8.2448   10.7912   24.8921 C   0  0  0  0  0  0  0  0  0  0  0  0
   14.3013   10.0161   26.3000 C   0  0  0  0  0  0  0  0  0  0  0  0
   15.2710   10.8184   25.8556 C   0  0  0  0  0  0  0  0  0  0  0  0
   15.0471   12.2782   25.8602 C   0  0  0  0  0  0  0  0  0  0  0  0
   11.1774   13.7610   23.0612 C   0  0  0  0  0  0  0  0  0  0  0  0
    7.4964   10.7565   26.1794 C   0  0  0  0  0  0  0  0  0  0  0  0
    7.2146   12.1630   26.7141 C   0  0  0  0  0  0  0  0  0  0  0  0
    6.6889   13.0749   25.6035 C   0  0  0  0  0  0  0  0  0  0  0  0
   13.0993   14.9043   24.1865 C   0  0  0  0  0  0  0  0  0  0  0  0
   13.4708   12.9107   22.6981 C   0  0  0  0  0  0  0  0  0  0  0  0
    7.7109   13.1981   24.4732 C   0  0  0  0  0  0  0  0  0  0  0  0
   13.2065   13.9829   25.4064 C   0  0  0  0  0  0  0  0  0  0  0  0
   13.5263   12.0258   23.9426 C   0  0  0  0  0  0  0  0  0  0  0  0
   12.6211   14.1928   22.8945 C   0  0  0  0  0  0  0  0  0  0  0  0
    9.2923   12.6295   21.8998 C   0  0  0  0  0  0  0  0  0  0  0  0
    8.9002    9.8010   24.3205 N   0  0  0  0  0  0  0  0  0  0  0  0
    8.2892   11.9200   24.1124 N   0  0  0  0  0  0  0  0  0  0  0  0
   13.9822   12.7750   25.1111 N   0  0  0  0  0  0  0  0  0  0  0  0
   10.6493   13.1241   21.9544 N   0  0  0  0  0  0  0  0  0  0  0  0
   15.8212   12.9699   26.5242 O   0  0  0  0  0  0  0  0  0  0  0  0
   10.5960   13.9904   24.1152 O   0  0  0  0  0  0  0  0  0  0  0  0
   12.8082   17.6188   18.7058 H   0  0  0  0  0  0  0  0  0  0  0  0
   10.7593   17.4714   20.0969 H   0  0  0  0  0  0  0  0  0  0  0  0
   14.7713   16.1959   19.2343 H   0  0  0  0  0  0  0  0  0  0  0  0
   10.6686   15.9089   22.0113 H   0  0  0  0  0  0  0  0  0  0  0  0
   14.6906   14.6304   21.1463 H   0  0  0  0  0  0  0  0  0  0  0  0
    9.9652    9.7188   22.4640 H   0  0  0  0  0  0  0  0  0  0  0  0
   14.4067    8.9366   26.3213 H   0  0  0  0  0  0  0  0  0  0  0  0
   13.3675   10.4373   26.6571 H   0  0  0  0  0  0  0  0  0  0  0  0
   16.2159   10.4362   25.4921 H   0  0  0  0  0  0  0  0  0  0  0  0
    6.5482   10.2307   26.0154 H   0  0  0  0  0  0  0  0  0  0  0  0
    8.0599   10.1847   26.9249 H   0  0  0  0  0  0  0  0  0  0  0  0
    6.4881   12.1076   27.5324 H   0  0  0  0  0  0  0  0  0  0  0  0
    8.1352   12.5926   27.1295 H   0  0  0  0  0  0  0  0  0  0  0  0
    5.7518   12.6609   25.2101 H   0  0  0  0  0  0  0  0  0  0  0  0
    6.4591   14.0682   26.0043 H   0  0  0  0  0  0  0  0  0  0  0  0
   12.4270   15.7371   24.4323 H   0  0  0  0  0  0  0  0  0  0  0  0
   14.0873   15.3539   24.0117 H   0  0  0  0  0  0  0  0  0  0  0  0
   14.4978   13.1843   22.4180 H   0  0  0  0  0  0  0  0  0  0  0  0
   13.0746   12.3188   21.8621 H   0  0  0  0  0  0  0  0  0  0  0  0
    7.2402   13.6290   23.5835 H   0  0  0  0  0  0  0  0  0  0  0  0
    8.5437   13.8415   24.7796 H   0  0  0  0  0  0  0  0  0  0  0  0
   13.6418   14.5581   26.2247 H   0  0  0  0  0  0  0  0  0  0  0  0
   12.2109   13.6565   25.7287 H   0  0  0  0  0  0  0  0  0  0  0  0
   12.5324   11.6276   24.1786 H   0  0  0  0  0  0  0  0  0  0  0  0
   14.1766   11.1662   23.7505 H   0  0  0  0  0  0  0  0  0  0  0  0
    9.1390   12.1732   20.9158 H   0  0  0  0  0  0  0  0  0  0  0  0
    8.6192   13.4906   21.9674 H   0  0  0  0  0  0  0  0  0  0  0  0
   11.2432   12.9974   21.1404 H   0  0  0  0  0  0  0  0  0  0  0  0
  1  2  1  0  0  0  0
  1  3  2  0  0  0  0
  2  4  2  0  0  0  0
  3  5  1  0  0  0  0
  4  7  1  0  0  0  0
  5  7  2  0  0  0  0
  6  8  2  0  0  0  0
  6 24  1  0  0  0  0
  7 22  1  0  0  0  0
  8 23  1  0  0  0  0
  8 25  1  0  0  0  0
  9 14  1  0  0  0  0
  9 24  2  0  0  0  0
  9 25  1  0  0  0  0
 10 11  2  0  0  0  0
 11 12  1  0  0  0  0
 12 26  1  0  0  0  0
 12 28  2  0  0  0  0
 13 22  1  0  0  0  0
 13 27  1  0  0  0  0
 13 29  2  0  0  0  0
 14 15  1  0  0  0  0
 15 16  1  0  0  0  0
 16 19  1  0  0  0  0
 17 20  1  0  0  0  0
 17 22  1  0  0  0  0
 18 21  1  0  0  0  0
 18 22  1  0  0  0  0
 19 25  1  0  0  0  0
 20 26  1  0  0  0  0
 21 26  1  0  0  0  0
 23 27  1  0  0  0  0
  1 30  1  0  0  0  0
  2 31  1  0  0  0  0
  3 32  1  0  0  0  0
  4 33  1  0  0  0  0
  5 34  1  0  0  0  0
  6 35  1  0  0  0  0
 10 36  1  0  0  0  0
 10 37  1  0  0  0  0
 11 38  1  0  0  0  0
 14 39  1  0  0  0  0
 14 40  1  0  0  0  0
 15 41  1  0  0  0  0
 15 42  1  0  0  0  0
 16 43  1  0  0  0  0
 16 44  1  0  0  0  0
 17 45  1  0  0  0  0
 17 46  1  0  0  0  0
 18 47  1  0  0  0  0
 18 48  1  0  0  0  0
 19 49  1  0  0  0  0
 19 50  1  0  0  0  0
 20 51  1  0  0  0  0
 20 52  1  0  0  0  0
 21 53  1  0  0  0  0
 21 54  1  0  0  0  0
 23 55  1  0  0  0  0
 23 56  1  0  0  0  0
 27 57  1  0  0  0  0
M  END
> <Catalog ID>
Z2499129286

> <MW>
392.494

> <MW (desalted)>
392.494

> <ClogP>
1.099

> <logS>
-2.695

> <HBD>
1

> <HBA>
3

> <TPSA>
67.23

> <RotBonds>
5

> <ROCS_ShapeQuery>
A71EV2A-x0451_0A_A71EV2A-x0310_0A_A71EV2A-x0416_0A_peptide

> <ROCS_TanimotoCombo>
0.536 

> <ROCS_ShapeTanimoto>
0.350 

> <ROCS_ColorTanimoto>
0.186 

> <ROCS_RefTversky>
0.320 

> <ROCS_RefColorTversky>
0.213 

> <ROCS_RefTverskyCombo>
0.533 

> <ROCS_FitTversky>
1.380 

> <ROCS_FitColorTversky>
0.589 

> <ROCS_FitTverskyCombo>
1.968 

> <ROCS_ColorScore>
-6.535

> <ROCS_Overlap>
2224.790

> <ROCS_Rank>
128                 

$$$$
untitled-dbase-7643_14476
  -OEChem-11132309573D

 45 47  0     1  0  0  0  0  0999 V2000
    8.8204    7.1398   23.3167 C   0  0  0  0  0  0  0  0  0  0  0  0
    8.5585    8.2698   23.6269 C   0  0  0  0  0  0  0  0  0  0  0  0
   12.9819   15.6735   18.0865 C   0  0  0  0  0  0  0  0  0  0  0  0
   14.2745   16.1850   18.0614 C   0  0  0  0  0  0  0  0  0  0  0  0
   12.2617   15.6771   19.2759 C   0  0  0  0  0  0  0  0  0  0  0  0
    9.1576   10.6385   23.7383 C   0  0  0  0  0  0  0  0  0  0  0  0
    7.0299    9.9028   24.6150 C   0  0  0  0  0  0  0  0  0  0  0  0
    7.6360   12.2393   24.7175 C   0  0  0  0  0  0  0  0  0  0  0  0
   14.7974   16.6846   19.2433 C   0  0  0  0  0  0  0  0  0  0  0  0
    8.2464    9.6144   23.9963 C   0  0  0  0  0  0  0  0  0  0  0  0
    8.8524   11.9509   24.0989 C   0  0  0  0  0  0  0  0  0  0  0  0
    6.7247   11.2153   24.9756 C   0  0  0  0  0  0  0  0  0  0  0  0
   12.8747   16.1992   20.4035 C   0  0  0  0  0  0  0  0  0  0  0  0
    9.8237   13.0415   23.8259 C   0  0  0  0  0  0  0  0  0  0  0  0
   12.6947   13.9944   23.5170 C   0  0  0  0  0  0  0  0  0  0  0  0
   11.0641   15.1277   21.9888 C   0  0  0  0  0  0  0  0  0  0  0  0
   13.6892   15.0855   23.1497 C   0  0  0  0  0  0  0  0  0  0  0  0
   12.1168   16.2192   21.7223 C   0  0  1  0  0  0  0  0  0  0  0  0
   11.6942   13.7882   22.3820 C   0  0  2  0  0  0  0  0  0  0  0  0
   14.1284   16.7050   20.4179 N   0  0  0  0  0  0  0  0  0  0  0  0
   10.6797   12.8328   22.7572 N   0  0  0  0  0  0  0  0  0  0  0  0
    9.8324   14.0326   24.5512 O   0  0  0  0  0  0  0  0  0  0  0  0
    5.1909   13.9714   25.9132 O   0  0  0  0  0  0  0  0  0  0  0  0
    4.4148   12.3252   27.6806 O   0  0  0  0  0  0  0  0  0  0  0  0
   13.0190   16.3067   22.8392 O   0  0  0  0  0  0  0  0  0  0  0  0
    5.5384   11.4963   25.5810 O   0  0  0  0  0  0  0  0  0  0  0  0
    6.7425   12.8620   27.3820 F   0  0  0  0  0  0  0  0  0  0  0  0
    5.3426   12.7280   26.6425 S   0  0  0  0  0  0  0  0  0  0  0  0
    9.0526    6.1374   23.0420 H   0  0  0  0  0  0  0  0  0  0  0  0
   12.5367   15.2728   17.1808 H   0  0  0  0  0  0  0  0  0  0  0  0
   14.8544   16.1925   17.1457 H   0  0  0  0  0  0  0  0  0  0  0  0
   11.2525   15.2809   19.3088 H   0  0  0  0  0  0  0  0  0  0  0  0
   10.1079   10.4181   23.2556 H   0  0  0  0  0  0  0  0  0  0  0  0
    6.3135    9.1104   24.8208 H   0  0  0  0  0  0  0  0  0  0  0  0
    7.3942   13.2608   25.0019 H   0  0  0  0  0  0  0  0  0  0  0  0
   15.8013   17.0950   19.2767 H   0  0  0  0  0  0  0  0  0  0  0  0
   13.2401   13.0591   23.6618 H   0  0  0  0  0  0  0  0  0  0  0  0
   12.1898   14.2321   24.4529 H   0  0  0  0  0  0  0  0  0  0  0  0
   10.3414   15.4605   22.7482 H   0  0  0  0  0  0  0  0  0  0  0  0
   10.4813   14.9618   21.0689 H   0  0  0  0  0  0  0  0  0  0  0  0
   14.4137   15.2622   23.9554 H   0  0  0  0  0  0  0  0  0  0  0  0
   14.2582   14.7853   22.2622 H   0  0  0  0  0  0  0  0  0  0  0  0
   11.5590   17.2483   21.7271 H   0  0  0  0  0  0  0  0  0  0  0  0
   12.2069   13.3557   21.5141 H   0  0  0  0  0  0  0  0  0  0  0  0
   10.6560   11.9601   22.2410 H   0  0  0  0  0  0  0  0  0  0  0  0
  1  2  3  0  0  0  0
  2 10  1  0  0  0  0
  3  4  1  0  0  0  0
  3  5  2  0  0  0  0
  4  9  2  0  0  0  0
  5 13  1  0  0  0  0
  6 10  1  0  0  0  0
  6 11  2  0  0  0  0
  7 10  2  0  0  0  0
  7 12  1  0  0  0  0
  8 11  1  0  0  0  0
  8 12  2  0  0  0  0
  9 20  1  0  0  0  0
 11 14  1  0  0  0  0
 12 26  1  0  0  0  0
 13 18  1  1  0  0  0
 13 20  2  0  0  0  0
 14 21  1  0  0  0  0
 14 22  2  0  0  0  0
 15 17  1  0  0  0  0
 15 19  1  0  0  0  0
 16 18  1  0  0  0  0
 16 19  1  0  0  0  0
 17 25  1  0  0  0  0
 18 25  1  0  0  0  0
 19 21  1  6  0  0  0
 23 28  2  0  0  0  0
 24 28  2  0  0  0  0
 26 28  1  0  0  0  0
 27 28  1  0  0  0  0
  1 29  1  0  0  0  0
  3 30  1  0  0  0  0
  4 31  1  0  0  0  0
  5 32  1  0  0  0  0
  6 33  1  0  0  0  0
  7 34  1  0  0  0  0
  8 35  1  0  0  0  0
  9 36  1  0  0  0  0
 15 37  1  0  0  0  0
 15 38  1  0  0  0  0
 16 39  1  0  0  0  0
 16 40  1  0  0  0  0
 17 41  1  0  0  0  0
 17 42  1  0  0  0  0
 18 43  1  0  0  0  0
 19 44  1  0  0  0  0
 21 45  1  0  0  0  0
M  END
> <Catalog ID>
Z4608617610

> <MW>
404.412

> <MW (desalted)>
404.412

> <ClogP>
-0.752

> <logS>
-4.785

> <HBD>
1

> <HBA>
5

> <TPSA>
94.59

> <RotBonds>
5

> <ROCS_ShapeQuery>
A71EV2A-x0451_0A_A71EV2A-x0310_0A_A71EV2A-x0416_0A_peptide

> <ROCS_TanimotoCombo>
0.536 

> <ROCS_ShapeTanimoto>
0.381 

> <ROCS_ColorTanimoto>
0.155 

> <ROCS_RefTversky>
0.337 

> <ROCS_RefColorTversky>
0.183 

> <ROCS_RefTverskyCombo>
0.520 

> <ROCS_FitTversky>
1.517 

> <ROCS_FitColorTversky>
0.505 

> <ROCS_FitTverskyCombo>
2.022 

> <ROCS_ColorScore>
-5.602

> <ROCS_Overlap>
2345.378

> <ROCS_Rank>
129                 

$$$$
untitled-dbase-2726_2411
  -OEChem-11132309573D

 48 50  0     1  0  0  0  0  0999 V2000
    6.9843   12.9249   25.8843 C   0  0  0  0  0  0  0  0  0  0  0  0
    6.0468   11.8997   25.7969 C   0  0  0  0  0  0  0  0  0  0  0  0
    8.2502   12.7613   25.3211 C   0  0  0  0  0  0  0  0  0  0  0  0
    6.3738   10.7131   25.1433 C   0  0  0  0  0  0  0  0  0  0  0  0
    8.5926   11.5713   24.6591 C   0  0  0  0  0  0  0  0  0  0  0  0
    7.6379   10.5513   24.5675 C   0  0  0  0  0  0  0  0  0  0  0  0
   14.9195   16.3390   23.3391 C   0  0  0  0  0  0  0  0  0  0  0  0
   14.2286   15.5036   22.5564 C   0  0  0  0  0  0  0  0  0  0  0  0
   12.7533   15.6620   22.4132 C   0  0  0  0  0  0  0  0  0  0  0  0
   10.5823   13.6137   23.0960 C   0  0  0  0  0  0  0  0  0  0  0  0
    7.7851    8.5952   21.1065 C   0  0  0  0  0  0  0  0  0  0  0  0
    8.1966    7.3361   21.8653 C   0  0  0  0  0  0  0  0  0  0  0  0
    8.6283    9.7334   21.6811 C   0  0  0  0  0  0  0  0  0  0  0  0
    9.2804    7.7736   22.8478 C   0  0  0  0  0  0  0  0  0  0  0  0
   10.2312    9.9458   23.7097 C   0  0  0  0  0  0  0  0  0  0  0  0
    9.9704   11.4068   24.0774 C   0  0  1  0  0  0  0  0  0  0  0  0
    9.0061    9.2654   23.0925 C   0  0  0  0  0  0  0  0  0  0  0  0
   12.8223   14.1544   20.4641 C   0  0  0  0  0  0  0  0  0  0  0  0
   10.7230   14.2897   21.7561 C   0  0  0  0  0  0  0  0  0  0  0  0
   10.1809   12.2925   22.9573 N   0  0  0  0  0  0  0  0  0  0  0  0
   12.1075   14.7519   21.5798 N   0  0  0  0  0  0  0  0  0  0  0  0
   12.1778   16.5801   22.9996 O   0  0  0  0  0  0  0  0  0  0  0  0
   10.8025   14.1784   24.1642 O   0  0  0  0  0  0  0  0  0  0  0  0
    7.8615    9.3456   23.9585 O   0  0  0  0  0  0  0  0  0  0  0  0
    6.7310   13.8510   26.3910 H   0  0  0  0  0  0  0  0  0  0  0  0
    5.0646   12.0208   26.2446 H   0  0  0  0  0  0  0  0  0  0  0  0
    8.9662   13.5746   25.4035 H   0  0  0  0  0  0  0  0  0  0  0  0
    5.6412    9.9110   25.0956 H   0  0  0  0  0  0  0  0  0  0  0  0
   15.9927   16.2616   23.4731 H   0  0  0  0  0  0  0  0  0  0  0  0
   14.4068   17.1371   23.8661 H   0  0  0  0  0  0  0  0  0  0  0  0
   14.7509   14.7367   21.9980 H   0  0  0  0  0  0  0  0  0  0  0  0
    7.9425    8.4914   20.0278 H   0  0  0  0  0  0  0  0  0  0  0  0
    6.7178    8.7925   21.2629 H   0  0  0  0  0  0  0  0  0  0  0  0
    7.3340    6.9279   22.4037 H   0  0  0  0  0  0  0  0  0  0  0  0
    8.5627    6.5554   21.1918 H   0  0  0  0  0  0  0  0  0  0  0  0
    9.5226    9.8701   21.0600 H   0  0  0  0  0  0  0  0  0  0  0  0
    8.0628   10.6718   21.6829 H   0  0  0  0  0  0  0  0  0  0  0  0
    9.2367    7.1663   23.7583 H   0  0  0  0  0  0  0  0  0  0  0  0
   10.2678    7.6326   22.3895 H   0  0  0  0  0  0  0  0  0  0  0  0
   11.0600    9.8964   22.9758 H   0  0  0  0  0  0  0  0  0  0  0  0
   10.5801    9.3918   24.6015 H   0  0  0  0  0  0  0  0  0  0  0  0
   10.6924   11.7242   24.8546 H   0  0  0  0  0  0  0  0  0  0  0  0
   13.3089   13.2251   20.7952 H   0  0  0  0  0  0  0  0  0  0  0  0
   12.1138   13.9285   19.6536 H   0  0  0  0  0  0  0  0  0  0  0  0
   13.5852   14.8576   20.0988 H   0  0  0  0  0  0  0  0  0  0  0  0
   10.4751   13.5827   20.9589 H   0  0  0  0  0  0  0  0  0  0  0  0
   10.0478   15.1487   21.7013 H   0  0  0  0  0  0  0  0  0  0  0  0
   10.0275   11.9306   22.0204 H   0  0  0  0  0  0  0  0  0  0  0  0
  1  2  1  0  0  0  0
  1  3  2  0  0  0  0
  2  4  2  0  0  0  0
  3  5  1  0  0  0  0
  4  6  1  0  0  0  0
  5  6  2  0  0  0  0
  5 16  1  0  0  0  0
  6 24  1  0  0  0  0
  7  8  2  0  0  0  0
  8  9  1  0  0  0  0
  9 21  1  0  0  0  0
  9 22  2  0  0  0  0
 10 19  1  0  0  0  0
 10 20  1  0  0  0  0
 10 23  2  0  0  0  0
 11 12  1  0  0  0  0
 11 13  1  0  0  0  0
 12 14  1  0  0  0  0
 13 17  1  0  0  0  0
 14 17  1  0  0  0  0
 15 16  1  0  0  0  0
 15 17  1  0  0  0  0
 16 20  1  0  0  0  0
 17 24  1  0  0  0  0
 18 21  1  0  0  0  0
 19 21  1  0  0  0  0
  1 25  1  0  0  0  0
  2 26  1  0  0  0  0
  3 27  1  0  0  0  0
  4 28  1  0  0  0  0
  7 29  1  0  0  0  0
  7 30  1  0  0  0  0
  8 31  1  0  0  0  0
 11 32  1  0  0  0  0
 11 33  1  0  0  0  0
 12 34  1  0  0  0  0
 12 35  1  0  0  0  0
 13 36  1  0  0  0  0
 13 37  1  0  0  0  0
 14 38  1  0  0  0  0
 14 39  1  0  0  0  0
 15 40  1  0  0  0  0
 15 41  1  0  0  0  0
 16 42  1  0  0  0  0
 18 43  1  0  0  0  0
 18 44  1  0  0  0  0
 18 45  1  0  0  0  0
 19 46  1  0  0  0  0
 19 47  1  0  0  0  0
 20 48  1  0  0  0  0
M  END
> <Catalog ID>
Z2708004777

> <MW>
328.405

> <MW (desalted)>
328.405

> <ClogP>
2.408

> <logS>
-4.102

> <HBD>
1

> <HBA>
3

> <TPSA>
58.64

> <RotBonds>
4

> <ROCS_ShapeQuery>
A71EV2A-x0451_0A_A71EV2A-x0310_0A_A71EV2A-x0416_0A_peptide

> <ROCS_TanimotoCombo>
0.536 

> <ROCS_ShapeTanimoto>
0.350 

> <ROCS_ColorTanimoto>
0.186 

> <ROCS_RefTversky>
0.311 

> <ROCS_RefColorTversky>
0.204 

> <ROCS_RefTverskyCombo>
0.515 

> <ROCS_FitTversky>
1.561 

> <ROCS_FitColorTversky>
0.679 

> <ROCS_FitTverskyCombo>
2.239 

> <ROCS_ColorScore>
-6.238

> <ROCS_Overlap>
2158.654

> <ROCS_Rank>
130                 

$$$$
untitled-dbase-5928_9910
  -OEChem-11132309573D

 59 62  0     0  0  0  0  0  0999 V2000
    6.1730   12.3464   25.9495 C   0  0  0  0  0  0  0  0  0  0  0  0
    6.6210   10.0764   26.6450 C   0  0  0  0  0  0  0  0  0  0  0  0
    5.1865   12.4521   26.9299 C   0  0  0  0  0  0  0  0  0  0  0  0
    5.6345   10.1821   27.6254 C   0  0  0  0  0  0  0  0  0  0  0  0
   12.7521   14.4145   23.5281 C   0  0  0  0  0  0  0  0  0  0  0  0
    8.2320   12.0344   23.9503 C   0  0  0  0  0  0  0  0  0  0  0  0
   12.6023   12.2210   23.4929 C   0  0  0  0  0  0  0  0  0  0  0  0
    9.2320   11.4996   23.1754 C   0  0  0  0  0  0  0  0  0  0  0  0
    6.8902   11.1585   25.8070 C   0  0  0  0  0  0  0  0  0  0  0  0
   11.9164   13.3541   23.1294 C   0  0  0  0  0  0  0  0  0  0  0  0
    4.9172   11.3700   27.7679 C   0  0  0  0  0  0  0  0  0  0  0  0
    9.3994   10.1922   23.6699 C   0  0  0  0  0  0  0  0  0  0  0  0
   15.1003   12.0942   26.0723 C   0  0  0  0  0  0  0  0  0  0  0  0
   10.0822   14.6732   22.1868 C   0  0  0  0  0  0  0  0  0  0  0  0
   13.2273   11.2292   30.4473 C   0  0  0  0  0  0  0  0  0  0  0  0
   14.3348   10.1719   30.4437 C   0  0  0  0  0  0  0  0  0  0  0  0
   13.0410   11.6495   28.9918 C   0  0  0  0  0  0  0  0  0  0  0  0
   14.7596   10.0111   28.9864 C   0  0  0  0  0  0  0  0  0  0  0  0
   14.3924   11.3485   28.3550 C   0  0  0  0  0  0  0  0  0  0  0  0
   10.3457    9.1639   23.2030 C   0  0  0  0  0  0  0  0  0  0  0  0
    9.9737   12.1689   22.0546 C   0  0  0  0  0  0  0  0  0  0  0  0
   14.8252   11.8162   24.6100 C   0  0  0  0  0  0  0  0  0  0  0  0
    9.2681   14.7363   20.9065 C   0  0  0  0  0  0  0  0  0  0  0  0
   13.8825   13.9928   24.1011 N   0  0  0  0  0  0  0  0  0  0  0  0
    8.5722    9.9135   24.6808 N   0  0  0  0  0  0  0  0  0  0  0  0
    7.8753   11.0532   24.8279 N   0  0  0  0  0  0  0  0  0  0  0  0
   13.7619   12.6548   24.0653 N   0  0  0  0  0  0  0  0  0  0  0  0
   14.3291   11.2868   26.9058 N   0  0  0  0  0  0  0  0  0  0  0  0
   10.6905   13.4063   22.5148 N   0  0  0  0  0  0  0  0  0  0  0  0
   15.9068   12.9347   26.4615 O   0  0  0  0  0  0  0  0  0  0  0  0
   10.2070   15.6782   22.8912 O   0  0  0  0  0  0  0  0  0  0  0  0
    3.9700   11.4716   28.7094 F   0  0  0  0  0  0  0  0  0  0  0  0
    9.3591   16.3659   20.2055 Cl  0  0  0  0  0  0  0  0  0  0  0  0
    6.3718   13.1975   25.3027 H   0  0  0  0  0  0  0  0  0  0  0  0
    7.1732    9.1451   26.5454 H   0  0  0  0  0  0  0  0  0  0  0  0
    4.6272   13.3764   27.0406 H   0  0  0  0  0  0  0  0  0  0  0  0
    5.4249    9.3404   28.2787 H   0  0  0  0  0  0  0  0  0  0  0  0
   12.5873   15.4777   23.4255 H   0  0  0  0  0  0  0  0  0  0  0  0
    7.7590   13.0078   23.9471 H   0  0  0  0  0  0  0  0  0  0  0  0
   12.3705   11.1688   23.3962 H   0  0  0  0  0  0  0  0  0  0  0  0
   12.2955   10.8423   30.8722 H   0  0  0  0  0  0  0  0  0  0  0  0
   13.5353   12.0873   31.0558 H   0  0  0  0  0  0  0  0  0  0  0  0
   15.1793   10.5167   31.0515 H   0  0  0  0  0  0  0  0  0  0  0  0
   13.9925    9.2219   30.8664 H   0  0  0  0  0  0  0  0  0  0  0  0
   12.2482   11.0440   28.5345 H   0  0  0  0  0  0  0  0  0  0  0  0
   12.7586   12.7029   28.9016 H   0  0  0  0  0  0  0  0  0  0  0  0
   15.8246    9.7782   28.8920 H   0  0  0  0  0  0  0  0  0  0  0  0
   14.1903    9.1916   28.5296 H   0  0  0  0  0  0  0  0  0  0  0  0
   15.1261   12.1135   28.6172 H   0  0  0  0  0  0  0  0  0  0  0  0
   11.3048    9.2275   23.7446 H   0  0  0  0  0  0  0  0  0  0  0  0
    9.9519    8.1416   23.3423 H   0  0  0  0  0  0  0  0  0  0  0  0
   10.5653    9.2590   22.1247 H   0  0  0  0  0  0  0  0  0  0  0  0
   10.7168   11.4893   21.6233 H   0  0  0  0  0  0  0  0  0  0  0  0
    9.2908   12.4577   21.2488 H   0  0  0  0  0  0  0  0  0  0  0  0
   14.5325   10.7682   24.4807 H   0  0  0  0  0  0  0  0  0  0  0  0
   15.7321   11.9930   24.0208 H   0  0  0  0  0  0  0  0  0  0  0  0
    9.6682   14.0283   20.1764 H   0  0  0  0  0  0  0  0  0  0  0  0
    8.2116   14.5371   21.1005 H   0  0  0  0  0  0  0  0  0  0  0  0
   13.6624   10.6433   26.4771 H   0  0  0  0  0  0  0  0  0  0  0  0
  1  3  2  0  0  0  0
  1  9  1  0  0  0  0
  2  4  1  0  0  0  0
  2  9  2  0  0  0  0
  3 11  1  0  0  0  0
  4 11  2  0  0  0  0
  5 10  1  0  0  0  0
  5 24  2  0  0  0  0
  6  8  2  0  0  0  0
  6 26  1  0  0  0  0
  7 10  2  0  0  0  0
  7 27  1  0  0  0  0
  8 12  1  0  0  0  0
  8 21  1  0  0  0  0
  9 26  1  0  0  0  0
 10 29  1  0  0  0  0
 11 32  1  0  0  0  0
 12 20  1  0  0  0  0
 12 25  2  0  0  0  0
 13 22  1  0  0  0  0
 13 28  1  0  0  0  0
 13 30  2  0  0  0  0
 14 23  1  0  0  0  0
 14 29  1  0  0  0  0
 14 31  2  0  0  0  0
 15 16  1  0  0  0  0
 15 17  1  0  0  0  0
 16 18  1  0  0  0  0
 17 19  1  0  0  0  0
 18 19  1  0  0  0  0
 19 28  1  0  0  0  0
 21 29  1  0  0  0  0
 22 27  1  0  0  0  0
 23 33  1  0  0  0  0
 24 27  1  0  0  0  0
 25 26  1  0  0  0  0
  1 34  1  0  0  0  0
  2 35  1  0  0  0  0
  3 36  1  0  0  0  0
  4 37  1  0  0  0  0
  5 38  1  0  0  0  0
  6 39  1  0  0  0  0
  7 40  1  0  0  0  0
 15 41  1  0  0  0  0
 15 42  1  0  0  0  0
 16 43  1  0  0  0  0
 16 44  1  0  0  0  0
 17 45  1  0  0  0  0
 17 46  1  0  0  0  0
 18 47  1  0  0  0  0
 18 48  1  0  0  0  0
 19 49  1  0  0  0  0
 20 50  1  0  0  0  0
 20 51  1  0  0  0  0
 20 52  1  0  0  0  0
 21 53  1  0  0  0  0
 21 54  1  0  0  0  0
 22 55  1  0  0  0  0
 22 56  1  0  0  0  0
 23 57  1  0  0  0  0
 23 58  1  0  0  0  0
 28 59  1  0  0  0  0
M  END
> <Catalog ID>
Z4934683769

> <MW>
472.943

> <MW (desalted)>
472.943

> <ClogP>
2.684

> <logS>
-3.757

> <HBD>
1

> <HBA>
4

> <TPSA>
85.05

> <RotBonds>
8

> <ROCS_ShapeQuery>
A71EV2A-x0451_0A_A71EV2A-x0310_0A_A71EV2A-x0416_0A_peptide

> <ROCS_TanimotoCombo>
0.536 

> <ROCS_ShapeTanimoto>
0.381 

> <ROCS_ColorTanimoto>
0.155 

> <ROCS_RefTversky>
0.346 

> <ROCS_RefColorTversky>
0.178 

> <ROCS_RefTverskyCombo>
0.525 

> <ROCS_FitTversky>
1.353 

> <ROCS_FitColorTversky>
0.538 

> <ROCS_FitTverskyCombo>
1.892 

> <ROCS_ColorScore>
-5.454

> <ROCS_Overlap>
2414.911

> <ROCS_Rank>
131                 

$$$$
untitled-dbase-7602_5875
  -OEChem-11132309573D

 49 51  0     0  0  0  0  0  0999 V2000
   13.2354   13.9284   22.9616 C   0  0  0  0  0  0  0  0  0  0  0  0
    8.4254    9.2918   24.1009 C   0  0  0  0  0  0  0  0  0  0  0  0
   12.5412   15.0572   19.1790 C   0  0  0  0  0  0  0  0  0  0  0  0
   13.4131   16.3914   20.9947 C   0  0  0  0  0  0  0  0  0  0  0  0
    9.4420   10.0750   23.5544 C   0  0  0  0  0  0  0  0  0  0  0  0
    7.2908    9.8984   24.6399 C   0  0  0  0  0  0  0  0  0  0  0  0
   13.4530   15.6498   18.3056 C   0  0  0  0  0  0  0  0  0  0  0  0
   14.3251   16.9839   20.1213 C   0  0  0  0  0  0  0  0  0  0  0  0
    8.1896   12.0715   24.0861 C   0  0  0  0  0  0  0  0  0  0  0  0
   12.5211   15.4280   20.5236 C   0  0  0  0  0  0  0  0  0  0  0  0
    9.3241   11.4649   23.5470 C   0  0  0  0  0  0  0  0  0  0  0  0
    7.1730   11.2882   24.6326 C   0  0  0  0  0  0  0  0  0  0  0  0
   14.3450   16.6131   18.7767 C   0  0  0  0  0  0  0  0  0  0  0  0
   11.5603   14.8016   21.4449 C   0  0  0  0  0  0  0  0  0  0  0  0
   11.8779   14.1082   22.5562 C   0  0  0  0  0  0  0  0  0  0  0  0
   10.7253   13.5497   23.3632 C   0  0  0  0  0  0  0  0  0  0  0  0
    4.2785   12.6183   29.0413 C   0  0  0  0  0  0  0  0  0  0  0  0
    4.5371   11.2504   28.4126 C   0  0  0  0  0  0  0  0  0  0  0  0
    4.6321   13.7454   28.0730 C   0  0  0  0  0  0  0  0  0  0  0  0
    5.9624   11.1455   27.8822 C   0  0  0  0  0  0  0  0  0  0  0  0
    6.0558   13.5980   27.5482 C   0  0  0  0  0  0  0  0  0  0  0  0
   14.3370   13.7803   23.2955 N   0  0  0  0  0  0  0  0  0  0  0  0
    6.2495   12.2560   26.9320 N   0  0  0  0  0  0  0  0  0  0  0  0
   10.3407   12.2484   23.0002 N   0  0  0  0  0  0  0  0  0  0  0  0
   10.2045   14.2221   24.2497 O   0  0  0  0  0  0  0  0  0  0  0  0
    5.5962   13.3576   24.7016 O   0  0  0  0  0  0  0  0  0  0  0  0
    4.6583   11.0925   25.2825 O   0  0  0  0  0  0  0  0  0  0  0  0
    5.7376   12.0553   25.3157 S   0  0  0  0  0  0  0  0  0  0  0  0
   15.5811   17.4160   17.5933 Br  0  0  0  0  0  0  0  0  0  0  0  0
    8.5166    8.2096   24.1062 H   0  0  0  0  0  0  0  0  0  0  0  0
   11.8522   14.3073   18.7978 H   0  0  0  0  0  0  0  0  0  0  0  0
   13.4091   16.6899   22.0403 H   0  0  0  0  0  0  0  0  0  0  0  0
   10.3211    9.5911   23.1365 H   0  0  0  0  0  0  0  0  0  0  0  0
    6.5049    9.2789   25.0636 H   0  0  0  0  0  0  0  0  0  0  0  0
   13.4549   15.3497   17.2608 H   0  0  0  0  0  0  0  0  0  0  0  0
   15.0130   17.7332   20.5048 H   0  0  0  0  0  0  0  0  0  0  0  0
    8.0969   13.1553   24.0806 H   0  0  0  0  0  0  0  0  0  0  0  0
   10.5236   14.9634   21.1578 H   0  0  0  0  0  0  0  0  0  0  0  0
    3.2206   12.6973   29.3261 H   0  0  0  0  0  0  0  0  0  0  0  0
    4.8656   12.7213   29.9623 H   0  0  0  0  0  0  0  0  0  0  0  0
    4.3675   10.4707   29.1655 H   0  0  0  0  0  0  0  0  0  0  0  0
    3.8239   11.0760   27.5998 H   0  0  0  0  0  0  0  0  0  0  0  0
    3.9258   13.7489   27.2357 H   0  0  0  0  0  0  0  0  0  0  0  0
    4.5286   14.7083   28.5882 H   0  0  0  0  0  0  0  0  0  0  0  0
    6.6616   11.1992   28.7293 H   0  0  0  0  0  0  0  0  0  0  0  0
    6.1174   10.1791   27.3789 H   0  0  0  0  0  0  0  0  0  0  0  0
    6.2780   14.3809   26.8072 H   0  0  0  0  0  0  0  0  0  0  0  0
    6.7575   13.7201   28.3863 H   0  0  0  0  0  0  0  0  0  0  0  0
   10.8751   11.8198   22.2362 H   0  0  0  0  0  0  0  0  0  0  0  0
  1 15  1  0  0  0  0
  1 22  3  0  0  0  0
  2  5  2  0  0  0  0
  2  6  1  0  0  0  0
  3  7  2  0  0  0  0
  3 10  1  0  0  0  0
  4  8  1  0  0  0  0
  4 10  2  0  0  0  0
  5 11  1  0  0  0  0
  6 12  2  0  0  0  0
  7 13  1  0  0  0  0
  8 13  2  0  0  0  0
  9 11  2  0  0  0  0
  9 12  1  0  0  0  0
 10 14  1  4  0  0  0
 11 24  1  0  0  0  0
 12 28  1  0  0  0  0
 13 29  1  0  0  0  0
 14 15  2  0  0  0  0
 15 16  1  0  0  0  0
 16 24  1  0  0  0  0
 16 25  2  0  0  0  0
 17 18  1  0  0  0  0
 17 19  1  0  0  0  0
 18 20  1  0  0  0  0
 19 21  1  0  0  0  0
 20 23  1  0  0  0  0
 21 23  1  0  0  0  0
 23 28  1  0  0  0  0
 26 28  2  0  0  0  0
 27 28  2  0  0  0  0
  2 30  1  0  0  0  0
  3 31  1  0  0  0  0
  4 32  1  0  0  0  0
  5 33  1  0  0  0  0
  6 34  1  0  0  0  0
  7 35  1  0  0  0  0
  8 36  1  0  0  0  0
  9 37  1  0  0  0  0
 14 38  1  0  0  0  0
 17 39  1  0  0  0  0
 17 40  1  0  0  0  0
 18 41  1  0  0  0  0
 18 42  1  0  0  0  0
 19 43  1  0  0  0  0
 19 44  1  0  0  0  0
 20 45  1  0  0  0  0
 20 46  1  0  0  0  0
 21 47  1  0  0  0  0
 21 48  1  0  0  0  0
 24 49  1  0  0  0  0
M  END
> <Catalog ID>
Z44371563

> <MW>
474.371

> <MW (desalted)>
474.371

> <ClogP>
4.698

> <logS>
-6.028

> <HBD>
1

> <HBA>
4

> <TPSA>
90.27

> <RotBonds>
4

> <ROCS_ShapeQuery>
A71EV2A-x0451_0A_A71EV2A-x0310_0A_A71EV2A-x0416_0A_peptide

> <ROCS_TanimotoCombo>
0.536 

> <ROCS_ShapeTanimoto>
0.364 

> <ROCS_ColorTanimoto>
0.172 

> <ROCS_RefTversky>
0.327 

> <ROCS_RefColorTversky>
0.195 

> <ROCS_RefTverskyCombo>
0.522 

> <ROCS_FitTversky>
1.459 

> <ROCS_FitColorTversky>
0.588 

> <ROCS_FitTverskyCombo>
2.048 

> <ROCS_ColorScore>
-5.965

> <ROCS_Overlap>
2272.178

> <ROCS_Rank>
132                 

$$$$
untitled-dbase-3094_17973
  -OEChem-11132309573D

 46 48  0     0  0  0  0  0  0999 V2000
    8.6261   12.3912   24.7784 C   0  0  0  0  0  0  0  0  0  0  0  0
    7.5294   11.8954   25.4832 C   0  0  0  0  0  0  0  0  0  0  0  0
    4.8718   13.3226   28.9797 C   0  0  0  0  0  0  0  0  0  0  0  0
    7.5465    9.9069   24.1110 C   0  0  0  0  0  0  0  0  0  0  0  0
    6.0637   12.6287   28.9319 C   0  0  0  0  0  0  0  0  0  0  0  0
    3.9156   12.9304   28.0654 C   0  0  0  0  0  0  0  0  0  0  0  0
    8.6433   10.4028   23.4061 C   0  0  0  0  0  0  0  0  0  0  0  0
    9.1831   11.6450   23.7398 C   0  0  0  0  0  0  0  0  0  0  0  0
    6.9896   10.6532   25.1496 C   0  0  0  0  0  0  0  0  0  0  0  0
    5.3021   11.3386   27.2223 C   0  0  0  0  0  0  0  0  0  0  0  0
   15.5709   10.5269   27.2882 C   0  0  0  0  0  0  0  0  0  0  0  0
   14.8705   10.9010   26.2154 C   0  0  0  0  0  0  0  0  0  0  0  0
   14.9850   12.2914   25.7397 C   0  0  0  0  0  0  0  0  0  0  0  0
   10.9402   13.3808   23.2485 C   0  0  0  0  0  0  0  0  0  0  0  0
   13.3254   11.8483   23.7901 C   0  0  0  0  0  0  0  0  0  0  0  0
   14.0497   13.8559   23.9479 C   0  0  0  0  0  0  0  0  0  0  0  0
   13.4093   13.0362   22.8124 C   0  0  0  0  0  0  0  0  0  0  0  0
    9.2197    9.5828   22.2981 C   0  0  0  0  0  0  0  0  0  0  0  0
   12.0923   13.5541   22.2687 C   0  0  0  0  0  0  0  0  0  0  0  0
    6.3138   11.6274   28.0629 N   0  0  0  0  0  0  0  0  0  0  0  0
    4.0977   11.9387   27.1688 N   0  0  0  0  0  0  0  0  0  0  0  0
   14.2371   12.5926   24.6385 N   0  0  0  0  0  0  0  0  0  0  0  0
   10.2946   12.1661   23.0357 N   0  0  0  0  0  0  0  0  0  0  0  0
   15.7144   13.0835   26.3311 O   0  0  0  0  0  0  0  0  0  0  0  0
   10.6685   14.2325   24.0883 O   0  0  0  0  0  0  0  0  0  0  0  0
    5.5886   10.0202   26.0507 S   0  0  0  0  0  0  0  0  0  0  0  0
    9.0377   13.3610   25.0472 H   0  0  0  0  0  0  0  0  0  0  0  0
    7.1088   12.4919   26.2891 H   0  0  0  0  0  0  0  0  0  0  0  0
    4.6989   14.1216   29.6879 H   0  0  0  0  0  0  0  0  0  0  0  0
    7.1316    8.9373   23.8438 H   0  0  0  0  0  0  0  0  0  0  0  0
    6.8755   12.8670   29.6107 H   0  0  0  0  0  0  0  0  0  0  0  0
    2.9466   13.4168   28.0280 H   0  0  0  0  0  0  0  0  0  0  0  0
   15.5282    9.5183   27.6853 H   0  0  0  0  0  0  0  0  0  0  0  0
   16.2116   11.2403   27.7957 H   0  0  0  0  0  0  0  0  0  0  0  0
   14.2213   10.2185   25.6825 H   0  0  0  0  0  0  0  0  0  0  0  0
   12.3547   11.6789   24.2653 H   0  0  0  0  0  0  0  0  0  0  0  0
   13.7306   10.9107   23.4015 H   0  0  0  0  0  0  0  0  0  0  0  0
   14.9822   14.3621   23.6862 H   0  0  0  0  0  0  0  0  0  0  0  0
   13.3866   14.5342   24.4927 H   0  0  0  0  0  0  0  0  0  0  0  0
   14.1177   12.8453   21.9935 H   0  0  0  0  0  0  0  0  0  0  0  0
    8.7307    9.8305   21.3491 H   0  0  0  0  0  0  0  0  0  0  0  0
   10.2969    9.7601   22.1937 H   0  0  0  0  0  0  0  0  0  0  0  0
    9.0892    8.5108   22.4901 H   0  0  0  0  0  0  0  0  0  0  0  0
   11.8422   13.0220   21.3429 H   0  0  0  0  0  0  0  0  0  0  0  0
   12.1867   14.6206   22.0306 H   0  0  0  0  0  0  0  0  0  0  0  0
   10.6538   11.5735   22.2901 H   0  0  0  0  0  0  0  0  0  0  0  0
  1  2  2  0  0  0  0
  1  8  1  0  0  0  0
  2  9  1  0  0  0  0
  3  5  1  0  0  0  0
  3  6  2  0  0  0  0
  4  7  1  0  0  0  0
  4  9  2  0  0  0  0
  5 20  2  0  0  0  0
  6 21  1  0  0  0  0
  7  8  2  0  0  0  0
  7 18  1  0  0  0  0
  8 23  1  0  0  0  0
  9 26  1  0  0  0  0
 10 20  1  0  0  0  0
 10 21  2  0  0  0  0
 10 26  1  0  0  0  0
 11 12  2  0  0  0  0
 12 13  1  0  0  0  0
 13 22  1  0  0  0  0
 13 24  2  0  0  0  0
 14 19  1  0  0  0  0
 14 23  1  0  0  0  0
 14 25  2  0  0  0  0
 15 17  1  0  0  0  0
 15 22  1  0  0  0  0
 16 17  1  0  0  0  0
 16 22  1  0  0  0  0
 17 19  1  0  0  0  0
  1 27  1  0  0  0  0
  2 28  1  0  0  0  0
  3 29  1  0  0  0  0
  4 30  1  0  0  0  0
  5 31  1  0  0  0  0
  6 32  1  0  0  0  0
 11 33  1  0  0  0  0
 11 34  1  0  0  0  0
 12 35  1  0  0  0  0
 15 36  1  0  0  0  0
 15 37  1  0  0  0  0
 16 38  1  0  0  0  0
 16 39  1  0  0  0  0
 17 40  1  0  0  0  0
 18 41  1  0  0  0  0
 18 42  1  0  0  0  0
 18 43  1  0  0  0  0
 19 44  1  0  0  0  0
 19 45  1  0  0  0  0
 23 46  1  0  0  0  0
M  END
> <Catalog ID>
Z4899589093

> <MW>
368.453

> <MW (desalted)>
368.453

> <ClogP>
0.741

> <logS>
-5.223

> <HBD>
1

> <HBA>
4

> <TPSA>
75.19

> <RotBonds>
6

> <ROCS_ShapeQuery>
A71EV2A-x0451_0A_A71EV2A-x0310_0A_A71EV2A-x0416_0A_peptide

> <ROCS_TanimotoCombo>
0.535 

> <ROCS_ShapeTanimoto>
0.333 

> <ROCS_ColorTanimoto>
0.203 

> <ROCS_RefTversky>
0.302 

> <ROCS_RefColorTversky>
0.225 

> <ROCS_RefTverskyCombo>
0.526 

> <ROCS_FitTversky>
1.443 

> <ROCS_FitColorTversky>
0.677 

> <ROCS_FitTverskyCombo>
2.120 

> <ROCS_ColorScore>
-6.867

> <ROCS_Overlap>
2098.285

> <ROCS_Rank>
133                 

$$$$
untitled-dbase-9028_254
  -OEChem-11132309573D

 37 39  0     0  0  0  0  0  0999 V2000
   10.9179   13.5598   25.0007 C   0  0  0  0  0  0  0  0  0  0  0  0
   12.2313   14.8491   19.1469 C   0  0  0  0  0  0  0  0  0  0  0  0
   12.8818   15.6000   18.1678 C   0  0  0  0  0  0  0  0  0  0  0  0
   14.0668   16.8154   19.8870 C   0  0  0  0  0  0  0  0  0  0  0  0
   12.4985   15.0815   20.4962 C   0  0  0  0  0  0  0  0  0  0  0  0
   13.7995   16.5830   18.5378 C   0  0  0  0  0  0  0  0  0  0  0  0
   13.4162   16.0645   20.8662 C   0  0  0  0  0  0  0  0  0  0  0  0
    9.2923   11.6370   23.4634 C   0  0  0  0  0  0  0  0  0  0  0  0
    9.3280   10.2580   23.3355 C   0  0  0  0  0  0  0  0  0  0  0  0
    7.7769   10.6461   24.6985 C   0  0  0  0  0  0  0  0  0  0  0  0
    7.6854   12.9488   24.9391 C   0  0  0  0  0  0  0  0  0  0  0  0
    6.6908   12.5805   25.7689 C   0  0  0  0  0  0  0  0  0  0  0  0
   10.0198   12.7021   22.9121 C   0  0  0  0  0  0  0  0  0  0  0  0
   10.7939   13.6417   23.5804 C   0  0  0  0  0  0  0  0  0  0  0  0
   11.5016   14.7141   22.7798 C   0  0  0  0  0  0  0  0  0  0  0  0
   10.2301    9.4451   22.5015 C   0  0  0  0  0  0  0  0  0  0  0  0
    5.8210   13.4783   26.5744 C   0  0  0  0  0  0  0  0  0  0  0  0
   11.0224   13.4968   26.1548 N   0  0  0  0  0  0  0  0  0  0  0  0
    8.3694    9.6402   24.1172 N   0  0  0  0  0  0  0  0  0  0  0  0
    8.2825   11.8603   24.3487 N   0  0  0  0  0  0  0  0  0  0  0  0
   11.8352   14.3169   21.4896 N   0  0  0  0  0  0  0  0  0  0  0  0
   11.7325   15.8120   23.2802 O   0  0  0  0  0  0  0  0  0  0  0  0
   14.4247   17.3033   17.5972 F   0  0  0  0  0  0  0  0  0  0  0  0
   13.6797   16.2976   22.1600 F   0  0  0  0  0  0  0  0  0  0  0  0
    6.4724   10.8118   25.8321 S   0  0  0  0  0  0  0  0  0  0  0  0
   11.5174   14.0863   18.8468 H   0  0  0  0  0  0  0  0  0  0  0  0
   12.6732   15.4198   17.1173 H   0  0  0  0  0  0  0  0  0  0  0  0
   14.7821   17.5799   20.1749 H   0  0  0  0  0  0  0  0  0  0  0  0
    8.0132   13.9555   24.7263 H   0  0  0  0  0  0  0  0  0  0  0  0
    9.9900   12.8012   21.8003 H   0  0  0  0  0  0  0  0  0  0  0  0
   11.1451    9.1694   23.0531 H   0  0  0  0  0  0  0  0  0  0  0  0
    9.7524    8.5093   22.1607 H   0  0  0  0  0  0  0  0  0  0  0  0
   10.5417    9.9765   21.5846 H   0  0  0  0  0  0  0  0  0  0  0  0
    4.9342   13.7560   26.0009 H   0  0  0  0  0  0  0  0  0  0  0  0
    6.3657   14.3852   26.8464 H   0  0  0  0  0  0  0  0  0  0  0  0
    5.5071   12.9743   27.4911 H   0  0  0  0  0  0  0  0  0  0  0  0
   11.5737   13.3700   21.2285 H   0  0  0  0  0  0  0  0  0  0  0  0
  1 14  1  0  0  0  0
  1 18  3  0  0  0  0
  2  3  2  0  0  0  0
  2  5  1  0  0  0  0
  3  6  1  0  0  0  0
  4  6  2  0  0  0  0
  4  7  1  0  0  0  0
  5  7  2  0  0  0  0
  5 21  1  0  0  0  0
  6 23  1  0  0  0  0
  7 24  1  0  0  0  0
  8  9  2  0  0  0  0
  8 13  1  4  0  0  0
  8 20  1  0  0  0  0
  9 16  1  0  0  0  0
  9 19  1  0  0  0  0
 10 19  2  0  0  0  0
 10 20  1  0  0  0  0
 10 25  1  0  0  0  0
 11 12  2  0  0  0  0
 11 20  1  0  0  0  0
 12 17  1  0  0  0  0
 12 25  1  0  0  0  0
 13 14  2  0  0  0  0
 14 15  1  0  0  0  0
 15 21  1  0  0  0  0
 15 22  2  0  0  0  0
  2 26  1  0  0  0  0
  3 27  1  0  0  0  0
  4 28  1  0  0  0  0
 11 29  1  0  0  0  0
 13 30  1  0  0  0  0
 16 31  1  0  0  0  0
 16 32  1  0  0  0  0
 16 33  1  0  0  0  0
 17 34  1  0  0  0  0
 17 35  1  0  0  0  0
 17 36  1  0  0  0  0
 21 37  1  0  0  0  0
M  END
> <Catalog ID>
Z196363024

> <MW>
358.365

> <MW (desalted)>
358.365

> <ClogP>
3.044

> <logS>
-5.44

> <HBD>
1

> <HBA>
3

> <TPSA>
70.19

> <RotBonds>
3

> <ROCS_ShapeQuery>
A71EV2A-x0451_0A_A71EV2A-x0310_0A_A71EV2A-x0416_0A_peptide

> <ROCS_TanimotoCombo>
0.535 

> <ROCS_ShapeTanimoto>
0.373 

> <ROCS_ColorTanimoto>
0.163 

> <ROCS_RefTversky>
0.328 

> <ROCS_RefColorTversky>
0.183 

> <ROCS_RefTverskyCombo>
0.510 

> <ROCS_FitTversky>
1.582 

> <ROCS_FitColorTversky>
0.603 

> <ROCS_FitTverskyCombo>
2.185 

> <ROCS_ColorScore>
-5.571

> <ROCS_Overlap>
2277.808

> <ROCS_Rank>
134                 

$$$$
untitled-dbase-11008_4991
  -OEChem-11132309573D

 54 57  0     0  0  0  0  0  0999 V2000
   13.8567   17.3690   19.1330 C   0  0  0  0  0  0  0  0  0  0  0  0
   14.6482   16.3717   18.5679 C   0  0  0  0  0  0  0  0  0  0  0  0
   12.9124   17.0456   20.1089 C   0  0  0  0  0  0  0  0  0  0  0  0
   14.4989   15.0465   18.9762 C   0  0  0  0  0  0  0  0  0  0  0  0
    8.3697    9.6135   24.4685 C   0  0  0  0  0  0  0  0  0  0  0  0
    7.3739   10.3556   25.1034 C   0  0  0  0  0  0  0  0  0  0  0  0
   11.8109   15.3601   21.5080 C   0  0  0  0  0  0  0  0  0  0  0  0
    8.2883   12.3855   24.1652 C   0  0  0  0  0  0  0  0  0  0  0  0
   12.7487   15.7164   20.5319 C   0  0  0  0  0  0  0  0  0  0  0  0
   13.5518   14.7096   19.9574 C   0  0  0  0  0  0  0  0  0  0  0  0
    9.2842   11.6434   23.5302 C   0  0  0  0  0  0  0  0  0  0  0  0
    9.3249   10.2574   23.6819 C   0  0  0  0  0  0  0  0  0  0  0  0
    7.3331   11.7416   24.9517 C   0  0  0  0  0  0  0  0  0  0  0  0
   11.7096   14.0260   21.8718 C   0  0  0  0  0  0  0  0  0  0  0  0
   13.3607   13.4002   20.4031 C   0  0  0  0  0  0  0  0  0  0  0  0
   10.7375   13.6101   22.8973 C   0  0  0  0  0  0  0  0  0  0  0  0
    4.4314   11.1511   27.3158 C   0  0  0  0  0  0  0  0  0  0  0  0
    6.3791   12.1699   28.4214 C   0  0  0  0  0  0  0  0  0  0  0  0
    3.5570   12.1768   28.0219 C   0  0  0  0  0  0  0  0  0  0  0  0
    5.4258   13.1542   29.0830 C   0  0  0  0  0  0  0  0  0  0  0  0
    9.7493    9.1316   20.7699 C   0  0  0  0  0  0  0  0  0  0  0  0
    9.8532    8.5172   22.1495 C   0  0  0  0  0  0  0  0  0  0  0  0
   12.4608   13.0360   21.3443 N   0  0  0  0  0  0  0  0  0  0  0  0
    5.8028   11.7031   27.1292 N   0  0  0  0  0  0  0  0  0  0  0  0
   10.2347   12.3030   22.7472 N   0  0  0  0  0  0  0  0  0  0  0  0
   10.3856   14.3830   23.7859 O   0  0  0  0  0  0  0  0  0  0  0  0
    6.6548   13.9363   26.1750 O   0  0  0  0  0  0  0  0  0  0  0  0
    4.8917   12.6486   24.9176 O   0  0  0  0  0  0  0  0  0  0  0  0
    4.1427   12.5519   29.2712 O   0  0  0  0  0  0  0  0  0  0  0  0
   10.2901    9.5143   23.0704 O   0  0  0  0  0  0  0  0  0  0  0  0
    6.0718   12.6798   25.7552 S   0  0  0  0  0  0  0  0  0  0  0  0
   14.2534   12.0449   19.8133 Cl  0  0  0  0  0  0  0  0  0  0  0  0
   13.9737   18.4008   18.8144 H   0  0  0  0  0  0  0  0  0  0  0  0
   15.3825   16.6262   17.8091 H   0  0  0  0  0  0  0  0  0  0  0  0
   12.3064   17.8413   20.5368 H   0  0  0  0  0  0  0  0  0  0  0  0
   15.1366   14.2997   18.5112 H   0  0  0  0  0  0  0  0  0  0  0  0
    8.3966    8.5343   24.5919 H   0  0  0  0  0  0  0  0  0  0  0  0
    6.6354    9.8432   25.7143 H   0  0  0  0  0  0  0  0  0  0  0  0
   11.1764   16.1101   21.9727 H   0  0  0  0  0  0  0  0  0  0  0  0
    8.2565   13.4664   24.0478 H   0  0  0  0  0  0  0  0  0  0  0  0
    4.4970   10.2291   27.9130 H   0  0  0  0  0  0  0  0  0  0  0  0
    3.9932   10.9047   26.3386 H   0  0  0  0  0  0  0  0  0  0  0  0
    7.3468   12.6591   28.2424 H   0  0  0  0  0  0  0  0  0  0  0  0
    6.5422   11.2988   29.0739 H   0  0  0  0  0  0  0  0  0  0  0  0
    3.4102   13.0729   27.4071 H   0  0  0  0  0  0  0  0  0  0  0  0
    2.5714   11.7490   28.2301 H   0  0  0  0  0  0  0  0  0  0  0  0
    5.8075   13.4412   30.0676 H   0  0  0  0  0  0  0  0  0  0  0  0
    5.3129   14.0683   28.4880 H   0  0  0  0  0  0  0  0  0  0  0  0
    9.0282    9.9537   20.7622 H   0  0  0  0  0  0  0  0  0  0  0  0
   10.7225    9.5119   20.4424 H   0  0  0  0  0  0  0  0  0  0  0  0
    9.4374    8.3813   20.0358 H   0  0  0  0  0  0  0  0  0  0  0  0
   10.5759    7.6957   22.1503 H   0  0  0  0  0  0  0  0  0  0  0  0
    8.8799    8.1385   22.4755 H   0  0  0  0  0  0  0  0  0  0  0  0
   10.6159   11.7656   21.9611 H   0  0  0  0  0  0  0  0  0  0  0  0
  1  2  1  0  0  0  0
  1  3  2  0  0  0  0
  2  4  2  0  0  0  0
  3  9  1  0  0  0  0
  4 10  1  0  0  0  0
  5  6  2  0  0  0  0
  5 12  1  0  0  0  0
  6 13  1  0  0  0  0
  7  9  2  0  0  0  0
  7 14  1  0  0  0  0
  8 11  1  0  0  0  0
  8 13  2  0  0  0  0
  9 10  1  0  0  0  0
 10 15  2  0  0  0  0
 11 12  2  0  0  0  0
 11 25  1  0  0  0  0
 12 30  1  0  0  0  0
 13 31  1  0  0  0  0
 14 16  1  0  0  0  0
 14 23  2  0  0  0  0
 15 23  1  0  0  0  0
 15 32  1  0  0  0  0
 16 25  1  0  0  0  0
 16 26  2  0  0  0  0
 17 19  1  0  0  0  0
 17 24  1  0  0  0  0
 18 20  1  0  0  0  0
 18 24  1  0  0  0  0
 19 29  1  0  0  0  0
 20 29  1  0  0  0  0
 21 22  1  0  0  0  0
 22 30  1  0  0  0  0
 24 31  1  0  0  0  0
 27 31  2  0  0  0  0
 28 31  2  0  0  0  0
  1 33  1  0  0  0  0
  2 34  1  0  0  0  0
  3 35  1  0  0  0  0
  4 36  1  0  0  0  0
  5 37  1  0  0  0  0
  6 38  1  0  0  0  0
  7 39  1  0  0  0  0
  8 40  1  0  0  0  0
 17 41  1  0  0  0  0
 17 42  1  0  0  0  0
 18 43  1  0  0  0  0
 18 44  1  0  0  0  0
 19 45  1  0  0  0  0
 19 46  1  0  0  0  0
 20 47  1  0  0  0  0
 20 48  1  0  0  0  0
 21 49  1  0  0  0  0
 21 50  1  0  0  0  0
 21 51  1  0  0  0  0
 22 52  1  0  0  0  0
 22 53  1  0  0  0  0
 25 54  1  0  0  0  0
M  END
> <Catalog ID>
Z367517332

> <MW>
475.945

> <MW (desalted)>
475.945

> <ClogP>
3.409

> <logS>
-6.535

> <HBD>
1

> <HBA>
6

> <TPSA>
97.83

> <RotBonds>
5

> <ROCS_ShapeQuery>
A71EV2A-x0451_0A_A71EV2A-x0310_0A_A71EV2A-x0416_0A_peptide

> <ROCS_TanimotoCombo>
0.535 

> <ROCS_ShapeTanimoto>
0.378 

> <ROCS_ColorTanimoto>
0.157 

> <ROCS_RefTversky>
0.342 

> <ROCS_RefColorTversky>
0.189 

> <ROCS_RefTverskyCombo>
0.532 

> <ROCS_FitTversky>
1.382 

> <ROCS_FitColorTversky>
0.483 

> <ROCS_FitTverskyCombo>
1.865 

> <ROCS_ColorScore>
-5.812

> <ROCS_Overlap>
2384.117

> <ROCS_Rank>
135                 

$$$$
untitled-dbase-5873_3698
  -OEChem-11132309573D

 48 49  0     1  0  0  0  0  0999 V2000
    4.6563   13.1526   29.2614 C   0  0  0  0  0  0  0  0  0  0  0  0
    3.5902   12.7421   28.4388 C   0  0  0  0  0  0  0  0  0  0  0  0
    5.7694   12.5877   28.6882 C   0  0  0  0  0  0  0  0  0  0  0  0
    6.8824   12.0539   25.7483 C   0  0  0  0  0  0  0  0  0  0  0  0
   10.9735   13.7639   23.0996 C   0  0  0  0  0  0  0  0  0  0  0  0
    8.2793    9.5818   23.2470 C   0  0  0  0  0  0  0  0  0  0  0  0
    7.8335    9.9874   24.6473 C   0  0  0  0  0  0  0  0  0  0  0  0
    8.4753   12.2804   23.8746 C   0  0  0  0  0  0  0  0  0  0  0  0
    9.5929   10.2571   22.8144 C   0  0  1  0  0  0  0  0  0  0  0  0
    9.8031   11.6183   23.5105 C   0  0  1  0  0  0  0  0  0  0  0  0
    4.5956   13.9972   30.4668 C   0  0  0  0  0  0  0  0  0  0  0  0
    2.1592   13.0605   28.5881 C   0  0  0  0  0  0  0  0  0  0  0  0
    7.1933   12.6375   29.0702 C   0  0  0  0  0  0  0  0  0  0  0  0
    6.1171   11.1305   26.6644 C   0  0  0  0  0  0  0  0  0  0  0  0
   11.8190   14.4898   22.0845 C   0  0  0  0  0  0  0  0  0  0  0  0
   10.7914    9.3356   23.0606 C   0  0  0  0  0  0  0  0  0  0  0  0
    3.9900   11.9758   27.4205 N   0  0  0  0  0  0  0  0  0  0  0  0
    5.3198   11.9003   27.5993 N   0  0  0  0  0  0  0  0  0  0  0  0
    7.6948   11.4422   24.7910 N   0  0  0  0  0  0  0  0  0  0  0  0
   10.6001   12.4968   22.6856 N   0  0  0  0  0  0  0  0  0  0  0  0
    6.7609   13.2746   25.8750 O   0  0  0  0  0  0  0  0  0  0  0  0
   10.6798   14.2708   24.1808 O   0  0  0  0  0  0  0  0  0  0  0  0
   11.9153    9.9219   22.6245 F   0  0  0  0  0  0  0  0  0  0  0  0
   10.9108    9.0821   24.3714 F   0  0  0  0  0  0  0  0  0  0  0  0
   10.6196    8.1787   22.4055 F   0  0  0  0  0  0  0  0  0  0  0  0
   12.2181   16.0824   22.7474 Cl  0  0  0  0  0  0  0  0  0  0  0  0
    8.3922    8.4849   23.2080 H   0  0  0  0  0  0  0  0  0  0  0  0
    7.4815    9.8317   22.5287 H   0  0  0  0  0  0  0  0  0  0  0  0
    6.8476    9.5483   24.8758 H   0  0  0  0  0  0  0  0  0  0  0  0
    8.5321    9.5690   25.3846 H   0  0  0  0  0  0  0  0  0  0  0  0
    8.6541   13.2668   24.3198 H   0  0  0  0  0  0  0  0  0  0  0  0
    7.8552   12.4356   22.9810 H   0  0  0  0  0  0  0  0  0  0  0  0
    9.5388   10.4345   21.7211 H   0  0  0  0  0  0  0  0  0  0  0  0
   10.3896   11.4617   24.4297 H   0  0  0  0  0  0  0  0  0  0  0  0
    4.4536   13.3879   31.3756 H   0  0  0  0  0  0  0  0  0  0  0  0
    5.5158   14.5921   30.6056 H   0  0  0  0  0  0  0  0  0  0  0  0
    3.7678   14.7272   30.4228 H   0  0  0  0  0  0  0  0  0  0  0  0
    1.8969   13.9854   28.0469 H   0  0  0  0  0  0  0  0  0  0  0  0
    1.5108   12.2539   28.2027 H   0  0  0  0  0  0  0  0  0  0  0  0
    1.8720   13.2003   29.6453 H   0  0  0  0  0  0  0  0  0  0  0  0
    7.4512   11.8121   29.7543 H   0  0  0  0  0  0  0  0  0  0  0  0
    7.8606   12.5664   28.1939 H   0  0  0  0  0  0  0  0  0  0  0  0
    7.4544   13.5840   29.5748 H   0  0  0  0  0  0  0  0  0  0  0  0
    6.8259   10.5145   27.2129 H   0  0  0  0  0  0  0  0  0  0  0  0
    5.4647   10.5014   26.0631 H   0  0  0  0  0  0  0  0  0  0  0  0
   12.7486   13.9620   21.8577 H   0  0  0  0  0  0  0  0  0  0  0  0
   11.2474   14.6192   21.1614 H   0  0  0  0  0  0  0  0  0  0  0  0
   10.8968   12.1734   21.7701 H   0  0  0  0  0  0  0  0  0  0  0  0
  1  2  1  0  0  0  0
  1  3  2  0  0  0  0
  1 11  1  0  0  0  0
  2 12  1  0  0  0  0
  2 17  2  0  0  0  0
  3 13  1  0  0  0  0
  3 18  1  0  0  0  0
  4 14  1  0  0  0  0
  4 19  1  0  0  0  0
  4 21  2  0  0  0  0
  5 15  1  0  0  0  0
  5 20  1  0  0  0  0
  5 22  2  0  0  0  0
  6  7  1  0  0  0  0
  6  9  1  0  0  0  0
  7 19  1  0  0  0  0
  8 10  1  0  0  0  0
  8 19  1  0  0  0  0
  9 10  1  0  0  0  0
  9 16  1  0  0  0  0
 10 20  1  0  0  0  0
 14 18  1  0  0  0  0
 15 26  1  0  0  0  0
 16 23  1  0  0  0  0
 16 24  1  0  0  0  0
 16 25  1  0  0  0  0
 17 18  1  0  0  0  0
  6 27  1  0  0  0  0
  6 28  1  0  0  0  0
  7 29  1  0  0  0  0
  7 30  1  0  0  0  0
  8 31  1  0  0  0  0
  8 32  1  0  0  0  0
  9 33  1  0  0  0  0
 10 34  1  0  0  0  0
 11 35  1  0  0  0  0
 11 36  1  0  0  0  0
 11 37  1  0  0  0  0
 12 38  1  0  0  0  0
 12 39  1  0  0  0  0
 12 40  1  0  0  0  0
 13 41  1  0  0  0  0
 13 42  1  0  0  0  0
 13 43  1  0  0  0  0
 14 44  1  0  0  0  0
 14 45  1  0  0  0  0
 15 46  1  0  0  0  0
 15 47  1  0  0  0  0
 20 48  1  0  0  0  0
M  END
> <Catalog ID>
Z4425211470

> <MW>
394.82

> <MW (desalted)>
394.82

> <ClogP>
1.521

> <logS>
-3.112

> <HBD>
1

> <HBA>
3

> <TPSA>
67.23

> <RotBonds>
5

> <ROCS_ShapeQuery>
A71EV2A-x0451_0A_A71EV2A-x0310_0A_A71EV2A-x0416_0A_peptide

> <ROCS_TanimotoCombo>
0.535 

> <ROCS_ShapeTanimoto>
0.349 

> <ROCS_ColorTanimoto>
0.186 

> <ROCS_RefTversky>
0.313 

> <ROCS_RefColorTversky>
0.194 

> <ROCS_RefTverskyCombo>
0.507 

> <ROCS_FitTversky>
1.491 

> <ROCS_FitColorTversky>
0.811 

> <ROCS_FitTverskyCombo>
2.302 

> <ROCS_ColorScore>
-5.910

> <ROCS_Overlap>
2177.487

> <ROCS_Rank>
136                 

$$$$
untitled-dbase-10566_22
  -OEChem-11132309573D

 30 31  0     1  0  0  0  0  0999 V2000
    6.9379   13.0053   25.8822 C   0  0  0  0  0  0  0  0  0  0  0  0
    6.3292   11.7993   26.2390 C   0  0  0  0  0  0  0  0  0  0  0  0
    7.9753   13.0407   24.9404 C   0  0  0  0  0  0  0  0  0  0  0  0
    6.7325   10.5874   25.6704 C   0  0  0  0  0  0  0  0  0  0  0  0
    8.3968   11.8337   24.3556 C   0  0  0  0  0  0  0  0  0  0  0  0
    9.3753   11.4554   23.3989 C   0  0  0  0  0  0  0  0  0  0  0  0
    7.7656   10.6542   24.7374 C   0  0  0  0  0  0  0  0  0  0  0  0
    9.2770   10.0900   23.2627 C   0  0  0  0  0  0  0  0  0  0  0  0
    9.9944    9.1640   22.4519 C   0  0  0  0  0  0  0  0  0  0  0  0
   10.8192   13.4692   23.1998 C   0  0  0  0  0  0  0  0  0  0  0  0
    9.2841    7.9098   21.9852 C   0  0  0  0  0  0  0  0  0  0  0  0
   11.0327   14.5050   20.9019 C   0  0  0  0  0  0  0  0  0  0  0  0
   11.7568   14.0956   22.1747 C   0  0  1  0  0  0  0  0  0  0  0  0
   10.2587   12.2708   22.7292 N   0  0  0  0  0  0  0  0  0  0  0  0
   11.1820    9.2783   22.0787 O   0  0  0  0  0  0  0  0  0  0  0  0
   10.6322   13.9919   24.2946 O   0  0  0  0  0  0  0  0  0  0  0  0
    8.3036    9.5944   24.0705 O   0  0  0  0  0  0  0  0  0  0  0  0
   12.4735   15.5351   22.9472 Cl  0  0  0  0  0  0  0  0  0  0  0  0
    6.6026   13.9315   26.3419 H   0  0  0  0  0  0  0  0  0  0  0  0
    5.5275   11.8025   26.9734 H   0  0  0  0  0  0  0  0  0  0  0  0
    8.4374   13.9864   24.6737 H   0  0  0  0  0  0  0  0  0  0  0  0
    6.2648    9.6484   25.9415 H   0  0  0  0  0  0  0  0  0  0  0  0
    8.7679    8.0346   21.0203 H   0  0  0  0  0  0  0  0  0  0  0  0
    8.5422    7.5434   22.7117 H   0  0  0  0  0  0  0  0  0  0  0  0
    9.9528    7.0472   21.8154 H   0  0  0  0  0  0  0  0  0  0  0  0
   10.2129   15.1969   21.1219 H   0  0  0  0  0  0  0  0  0  0  0  0
   10.6148   13.6414   20.3725 H   0  0  0  0  0  0  0  0  0  0  0  0
   11.7216   15.0077   20.2145 H   0  0  0  0  0  0  0  0  0  0  0  0
   12.5704   13.4051   21.9295 H   0  0  0  0  0  0  0  0  0  0  0  0
   10.5471   11.9704   21.7907 H   0  0  0  0  0  0  0  0  0  0  0  0
  1  2  1  0  0  0  0
  1  3  2  0  0  0  0
  2  4  2  0  0  0  0
  3  5  1  0  0  0  0
  4  7  1  0  0  0  0
  5  6  1  0  0  0  0
  5  7  2  0  0  0  0
  6  8  2  0  0  0  0
  6 14  1  0  0  0  0
  7 17  1  0  0  0  0
  8  9  1  0  0  0  0
  8 17  1  0  0  0  0
  9 11  1  0  0  0  0
  9 15  2  0  0  0  0
 10 13  1  0  0  0  0
 10 14  1  0  0  0  0
 10 16  2  0  0  0  0
 12 13  1  0  0  0  0
 13 18  1  0  0  0  0
  1 19  1  0  0  0  0
  2 20  1  0  0  0  0
  3 21  1  0  0  0  0
  4 22  1  0  0  0  0
 11 23  1  0  0  0  0
 11 24  1  0  0  0  0
 11 25  1  0  0  0  0
 12 26  1  0  0  0  0
 12 27  1  0  0  0  0
 12 28  1  0  0  0  0
 13 29  1  0  0  0  0
 14 30  1  0  0  0  0
M  END
> <Catalog ID>
Z248487198

> <MW>
265.051

> <MW (desalted)>
265.692

> <ClogP>
3.201

> <logS>
-4.264

> <HBD>
1

> <HBA>
2

> <TPSA>
59.31

> <RotBonds>
3

> <ROCS_ShapeQuery>
A71EV2A-x0451_0A_A71EV2A-x0310_0A_A71EV2A-x0416_0A_peptide

> <ROCS_TanimotoCombo>
0.535 

> <ROCS_ShapeTanimoto>
0.343 

> <ROCS_ColorTanimoto>
0.192 

> <ROCS_RefTversky>
0.297 

> <ROCS_RefColorTversky>
0.200 

> <ROCS_RefTverskyCombo>
0.497 

> <ROCS_FitTversky>
1.826 

> <ROCS_FitColorTversky>
0.833 

> <ROCS_FitTverskyCombo>
2.658 

> <ROCS_ColorScore>
-6.082

> <ROCS_Overlap>
2058.145

> <ROCS_Rank>
137                 

$$$$
untitled-dbase-9942_35
  -OEChem-11132309573D

 33 36  0     0  0  0  0  0  0999 V2000
   10.3766    7.8001   22.8897 C   0  0  0  0  0  0  0  0  0  0  0  0
    9.1626    7.3309   23.3935 C   0  0  0  0  0  0  0  0  0  0  0  0
   10.7134    9.1546   22.9888 C   0  0  0  0  0  0  0  0  0  0  0  0
    8.2686    8.2123   23.9966 C   0  0  0  0  0  0  0  0  0  0  0  0
    9.8333   10.0505   23.6018 C   0  0  0  0  0  0  0  0  0  0  0  0
    6.9679   12.4319   25.3585 C   0  0  0  0  0  0  0  0  0  0  0  0
    8.6118    9.5621   24.0902 C   0  0  0  0  0  0  0  0  0  0  0  0
    6.0680   11.3784   25.5939 C   0  0  0  0  0  0  0  0  0  0  0  0
    8.0569   11.8422   24.7534 C   0  0  0  0  0  0  0  0  0  0  0  0
   10.5233   15.9210   21.8270 C   0  0  0  0  0  0  0  0  0  0  0  0
   11.0818   13.8361   22.7799 C   0  0  0  0  0  0  0  0  0  0  0  0
   10.0812   11.5140   23.7676 C   0  0  0  0  0  0  0  0  0  0  0  0
    6.8336   13.8261   25.6614 C   0  0  0  0  0  0  0  0  0  0  0  0
    4.7371   11.4491   26.2227 C   0  0  0  0  0  0  0  0  0  0  0  0
    6.5340   10.2003   25.1754 N   0  0  0  0  0  0  0  0  0  0  0  0
   10.2283   15.8758   23.1087 N   0  0  0  0  0  0  0  0  0  0  0  0
   10.5568   14.6532   23.6678 N   0  0  0  0  0  0  0  0  0  0  0  0
    9.2337   12.3444   24.3011 N   0  0  0  0  0  0  0  0  0  0  0  0
    7.7463   10.5027   24.6657 N   0  0  0  0  0  0  0  0  0  0  0  0
   10.3159   16.9899   21.0159 N   0  0  0  0  0  0  0  0  0  0  0  0
    5.8327   14.3248   26.2109 O   0  0  0  0  0  0  0  0  0  0  0  0
   11.2195   14.4851   21.1983 S   0  0  0  0  0  0  0  0  0  0  0  0
   11.6029   12.1879   23.2067 S   0  0  0  0  0  0  0  0  0  0  0  0
   11.0675    7.1072   22.4169 H   0  0  0  0  0  0  0  0  0  0  0  0
    8.9144    6.2767   23.3103 H   0  0  0  0  0  0  0  0  0  0  0  0
   11.6687    9.4695   22.5819 H   0  0  0  0  0  0  0  0  0  0  0  0
    7.3256    7.8297   24.3751 H   0  0  0  0  0  0  0  0  0  0  0  0
    7.6767   14.5141   25.3892 H   0  0  0  0  0  0  0  0  0  0  0  0
    3.9490   11.6271   25.4715 H   0  0  0  0  0  0  0  0  0  0  0  0
    4.4808   10.5191   26.7603 H   0  0  0  0  0  0  0  0  0  0  0  0
    4.6730   12.2587   26.9712 H   0  0  0  0  0  0  0  0  0  0  0  0
   10.6090   16.9868   20.0320 H   0  0  0  0  0  0  0  0  0  0  0  0
    9.9444   17.8769   21.3754 H   0  0  0  0  0  0  0  0  0  0  0  0
  1  2  1  0  0  0  0
  1  3  2  0  0  0  0
  2  4  2  0  0  0  0
  3  5  1  0  0  0  0
  4  7  1  0  0  0  0
  5  7  2  0  0  0  0
  5 12  1  0  0  0  0
  6  8  1  0  0  0  0
  6  9  2  0  0  0  0
  6 13  1  0  0  0  0
  7 19  1  0  0  0  0
  8 14  1  0  0  0  0
  8 15  2  0  0  0  0
  9 18  1  0  0  0  0
  9 19  1  0  0  0  0
 10 16  2  0  0  0  0
 10 20  1  0  0  0  0
 10 22  1  0  0  0  0
 11 17  2  0  0  0  0
 11 22  1  0  0  0  0
 11 23  1  0  0  0  0
 12 18  2  0  0  0  0
 12 23  1  0  0  0  0
 13 21  2  0  0  0  0
 15 19  1  0  0  0  0
 16 17  1  0  0  0  0
  1 24  1  0  0  0  0
  2 25  1  0  0  0  0
  3 26  1  0  0  0  0
  4 27  1  0  0  0  0
 13 28  1  0  0  0  0
 14 29  1  0  0  0  0
 14 30  1  0  0  0  0
 14 31  1  0  0  0  0
 20 32  1  0  0  0  0
 20 33  1  0  0  0  0
M  END
> <Catalog ID>
Z56780934

> <MW>
342.399

> <MW (desalted)>
342.399

> <ClogP>
2.398

> <logS>
-6.2

> <HBD>
1

> <HBA>
6

> <TPSA>
99.06

> <RotBonds>
3

> <ROCS_ShapeQuery>
A71EV2A-x0451_0A_A71EV2A-x0310_0A_A71EV2A-x0416_0A_peptide

> <ROCS_TanimotoCombo>
0.535 

> <ROCS_ShapeTanimoto>
0.372 

> <ROCS_ColorTanimoto>
0.163 

> <ROCS_RefTversky>
0.324 

> <ROCS_RefColorTversky>
0.197 

> <ROCS_RefTverskyCombo>
0.521 

> <ROCS_FitTversky>
1.648 

> <ROCS_FitColorTversky>
0.489 

> <ROCS_FitTverskyCombo>
2.137 

> <ROCS_ColorScore>
-6.041

> <ROCS_Overlap>
2252.834

> <ROCS_Rank>
138                 

$$$$
untitled-dbase-161_1014
  -OEChem-11132309573D

 47 49  0     0  0  0  0  0  0999 V2000
    7.1931   12.8731   26.1474 C   0  0  0  0  0  0  0  0  0  0  0  0
    6.5455   11.6490   26.2845 C   0  0  0  0  0  0  0  0  0  0  0  0
    8.2354   13.0131   25.2306 C   0  0  0  0  0  0  0  0  0  0  0  0
    6.9376   10.5601   25.5054 C   0  0  0  0  0  0  0  0  0  0  0  0
   10.0825   10.9620   22.7311 C   0  0  0  0  0  0  0  0  0  0  0  0
    9.4349    9.7378   22.8683 C   0  0  0  0  0  0  0  0  0  0  0  0
    8.6433   11.9279   24.4381 C   0  0  0  0  0  0  0  0  0  0  0  0
    7.9847   10.6830   24.5776 C   0  0  0  0  0  0  0  0  0  0  0  0
    9.6903   12.0508   23.5103 C   0  0  0  0  0  0  0  0  0  0  0  0
    8.3926    9.5977   23.7851 C   0  0  0  0  0  0  0  0  0  0  0  0
   13.8531   10.4393   24.6589 C   0  0  0  0  0  0  0  0  0  0  0  0
   14.1800   11.4011   23.7904 C   0  0  0  0  0  0  0  0  0  0  0  0
   10.4300   13.3230   23.3063 C   0  0  0  0  0  0  0  0  0  0  0  0
   13.6055   12.7661   23.9274 C   0  0  0  0  0  0  0  0  0  0  0  0
   10.8297   15.9602   21.9192 C   0  0  0  0  0  0  0  0  0  0  0  0
   12.0827   14.6374   20.1937 C   0  0  0  0  0  0  0  0  0  0  0  0
   11.4376   17.2130   21.2975 C   0  0  0  0  0  0  0  0  0  0  0  0
   12.6208   15.9645   19.6696 C   0  0  0  0  0  0  0  0  0  0  0  0
   11.6965   14.7074   21.6843 C   0  0  0  0  0  0  0  0  0  0  0  0
   12.9501   14.7361   22.5728 C   0  0  0  0  0  0  0  0  0  0  0  0
   10.9288   13.5225   22.0350 N   0  0  0  0  0  0  0  0  0  0  0  0
   13.4719   13.4198   22.7001 N   0  0  0  0  0  0  0  0  0  0  0  0
   10.5712   14.0932   24.2525 O   0  0  0  0  0  0  0  0  0  0  0  0
   13.2935   13.2452   25.0129 O   0  0  0  0  0  0  0  0  0  0  0  0
   11.6891   17.0177   19.9074 O   0  0  0  0  0  0  0  0  0  0  0  0
    7.7851    8.4067   23.8983 F   0  0  0  0  0  0  0  0  0  0  0  0
    6.8874   13.7207   26.7540 H   0  0  0  0  0  0  0  0  0  0  0  0
    5.7336   11.5410   26.9977 H   0  0  0  0  0  0  0  0  0  0  0  0
    8.7153   13.9861   25.1531 H   0  0  0  0  0  0  0  0  0  0  0  0
    6.4167    9.6134   25.6312 H   0  0  0  0  0  0  0  0  0  0  0  0
   10.8932   11.0555   22.0126 H   0  0  0  0  0  0  0  0  0  0  0  0
    9.7407    8.8901   22.2622 H   0  0  0  0  0  0  0  0  0  0  0  0
   14.2754    9.4456   24.5518 H   0  0  0  0  0  0  0  0  0  0  0  0
   13.1713   10.6056   25.4857 H   0  0  0  0  0  0  0  0  0  0  0  0
   14.8666   11.1930   22.9770 H   0  0  0  0  0  0  0  0  0  0  0  0
   10.7408   16.1267   23.0036 H   0  0  0  0  0  0  0  0  0  0  0  0
    9.8082   15.8078   21.5422 H   0  0  0  0  0  0  0  0  0  0  0  0
   11.2334   14.3053   19.5823 H   0  0  0  0  0  0  0  0  0  0  0  0
   12.8718   13.8814   20.0724 H   0  0  0  0  0  0  0  0  0  0  0  0
   10.7937   18.0904   21.4350 H   0  0  0  0  0  0  0  0  0  0  0  0
   12.3961   17.4351   21.7790 H   0  0  0  0  0  0  0  0  0  0  0  0
   13.5475   16.2185   20.1940 H   0  0  0  0  0  0  0  0  0  0  0  0
   12.8558   15.9178   18.6008 H   0  0  0  0  0  0  0  0  0  0  0  0
   13.6663   15.3926   22.0864 H   0  0  0  0  0  0  0  0  0  0  0  0
   12.6430   15.1274   23.5388 H   0  0  0  0  0  0  0  0  0  0  0  0
   10.8314   12.8192   21.3166 H   0  0  0  0  0  0  0  0  0  0  0  0
   13.7953   12.9342   21.8551 H   0  0  0  0  0  0  0  0  0  0  0  0
  1  2  1  0  0  0  0
  1  3  2  0  0  0  0
  2  4  2  0  0  0  0
  3  7  1  0  0  0  0
  4  8  1  0  0  0  0
  5  6  2  0  0  0  0
  5  9  1  0  0  0  0
  6 10  1  0  0  0  0
  7  8  1  0  0  0  0
  7  9  2  0  0  0  0
  8 10  2  0  0  0  0
  9 13  1  0  0  0  0
 10 26  1  0  0  0  0
 11 12  2  0  0  0  0
 12 14  1  0  0  0  0
 13 21  1  0  0  0  0
 13 23  2  0  0  0  0
 14 22  1  0  0  0  0
 14 24  2  0  0  0  0
 15 17  1  0  0  0  0
 15 19  1  0  0  0  0
 16 18  1  0  0  0  0
 16 19  1  0  0  0  0
 17 25  1  0  0  0  0
 18 25  1  0  0  0  0
 19 20  1  0  0  0  0
 19 21  1  0  0  0  0
 20 22  1  0  0  0  0
  1 27  1  0  0  0  0
  2 28  1  0  0  0  0
  3 29  1  0  0  0  0
  4 30  1  0  0  0  0
  5 31  1  0  0  0  0
  6 32  1  0  0  0  0
 11 33  1  0  0  0  0
 11 34  1  0  0  0  0
 12 35  1  0  0  0  0
 15 36  1  0  0  0  0
 15 37  1  0  0  0  0
 16 38  1  0  0  0  0
 16 39  1  0  0  0  0
 17 40  1  0  0  0  0
 17 41  1  0  0  0  0
 18 42  1  0  0  0  0
 18 43  1  0  0  0  0
 20 44  1  0  0  0  0
 20 45  1  0  0  0  0
 21 46  1  0  0  0  0
 22 47  1  0  0  0  0
M  END
> <Catalog ID>
Z4425282901

> <MW>
356.391

> <MW (desalted)>
356.391

> <ClogP>
1.783

> <logS>
-5.589

> <HBD>
2

> <HBA>
3

> <TPSA>
67.43

> <RotBonds>
5

> <ROCS_ShapeQuery>
A71EV2A-x0451_0A_A71EV2A-x0310_0A_A71EV2A-x0416_0A_peptide

> <ROCS_TanimotoCombo>
0.535 

> <ROCS_ShapeTanimoto>
0.388 

> <ROCS_ColorTanimoto>
0.147 

> <ROCS_RefTversky>
0.339 

> <ROCS_RefColorTversky>
0.171 

> <ROCS_RefTverskyCombo>
0.510 

> <ROCS_FitTversky>
1.593 

> <ROCS_FitColorTversky>
0.514 

> <ROCS_FitTverskyCombo>
2.108 

> <ROCS_ColorScore>
-5.216

> <ROCS_Overlap>
2356.968

> <ROCS_Rank>
139                 

$$$$
untitled-dbase-7833_2557
  -OEChem-11132309573D

 48 50  0     1  0  0  0  0  0999 V2000
    8.4006   12.0873   24.4252 C   0  0  0  0  0  0  0  0  0  0  0  0
    8.0469   10.7566   24.3841 C   0  0  0  0  0  0  0  0  0  0  0  0
    9.5653   12.1739   23.6326 C   0  0  0  0  0  0  0  0  0  0  0  0
    6.9659   10.0268   24.9995 C   0  0  0  0  0  0  0  0  0  0  0  0
   14.8496   10.9506   27.7195 C   0  0  0  0  0  0  0  0  0  0  0  0
   14.7284   11.3057   26.4387 C   0  0  0  0  0  0  0  0  0  0  0  0
   10.3320   13.3502   23.3362 C   0  0  0  0  0  0  0  0  0  0  0  0
   15.2953   12.5938   26.0002 C   0  0  0  0  0  0  0  0  0  0  0  0
    9.0315    8.7375   23.3479 C   0  0  0  0  0  0  0  0  0  0  0  0
   14.8285   14.4219   24.2138 C   0  0  0  0  0  0  0  0  0  0  0  0
   13.5225   12.7272   24.1639 C   0  0  0  0  0  0  0  0  0  0  0  0
   13.4283   14.1662   23.6235 C   0  0  0  0  0  0  0  0  0  0  0  0
    7.6207    8.1427   23.4574 C   0  0  1  0  0  0  0  0  0  0  0  0
    7.6716    6.6223   23.5360 C   0  0  0  0  0  0  0  0  0  0  0  0
   11.7555   14.6406   20.1545 C   0  0  0  0  0  0  0  0  0  0  0  0
   13.2949   14.3132   22.1206 C   0  0  0  0  0  0  0  0  0  0  0  0
   11.8399   14.4976   21.6706 C   0  0  2  0  0  0  0  0  0  0  0  0
    9.9378   10.9932   23.1281 N   0  0  0  0  0  0  0  0  0  0  0  0
    8.9969   10.1628   23.5995 N   0  0  0  0  0  0  0  0  0  0  0  0
    6.8758    8.6977   24.5948 N   0  0  0  0  0  0  0  0  0  0  0  0
   14.6456   13.1905   24.9588 N   0  0  0  0  0  0  0  0  0  0  0  0
   11.0112   13.3954   22.1030 N   0  0  0  0  0  0  0  0  0  0  0  0
    6.1947   10.5178   25.8211 O   0  0  0  0  0  0  0  0  0  0  0  0
   10.4128   14.2972   24.1537 O   0  0  0  0  0  0  0  0  0  0  0  0
   16.2824   13.0541   26.5683 O   0  0  0  0  0  0  0  0  0  0  0  0
    7.8886   12.8791   24.9535 H   0  0  0  0  0  0  0  0  0  0  0  0
   14.4534   10.0157   28.1016 H   0  0  0  0  0  0  0  0  0  0  0  0
   15.3584   11.6046   28.4197 H   0  0  0  0  0  0  0  0  0  0  0  0
   14.2283   10.6804   25.7106 H   0  0  0  0  0  0  0  0  0  0  0  0
    9.7255    8.2763   24.0562 H   0  0  0  0  0  0  0  0  0  0  0  0
    9.4243    8.6146   22.3334 H   0  0  0  0  0  0  0  0  0  0  0  0
   15.6673   14.3674   23.5136 H   0  0  0  0  0  0  0  0  0  0  0  0
   14.9036   15.3196   24.8324 H   0  0  0  0  0  0  0  0  0  0  0  0
   12.6653   12.3966   24.7556 H   0  0  0  0  0  0  0  0  0  0  0  0
   13.8113   11.9550   23.4449 H   0  0  0  0  0  0  0  0  0  0  0  0
   12.6525   14.7484   24.1426 H   0  0  0  0  0  0  0  0  0  0  0  0
    7.0557    8.4171   22.5510 H   0  0  0  0  0  0  0  0  0  0  0  0
    8.2243    6.3192   24.4227 H   0  0  0  0  0  0  0  0  0  0  0  0
    8.1666    6.2258   22.6520 H   0  0  0  0  0  0  0  0  0  0  0  0
    6.6606    6.2239   23.5899 H   0  0  0  0  0  0  0  0  0  0  0  0
   12.1618   13.7558   19.6538 H   0  0  0  0  0  0  0  0  0  0  0  0
   10.7190   14.7753   19.8252 H   0  0  0  0  0  0  0  0  0  0  0  0
   12.3246   15.5128   19.8142 H   0  0  0  0  0  0  0  0  0  0  0  0
   13.8880   15.1802   21.8051 H   0  0  0  0  0  0  0  0  0  0  0  0
   13.7326   13.4309   21.6373 H   0  0  0  0  0  0  0  0  0  0  0  0
   11.4248   15.4003   22.1338 H   0  0  0  0  0  0  0  0  0  0  0  0
    6.2637    8.0805   25.1125 H   0  0  0  0  0  0  0  0  0  0  0  0
   10.9715   12.5823   21.4971 H   0  0  0  0  0  0  0  0  0  0  0  0
  1  2  2  0  0  0  0
  1  3  1  0  0  0  0
  2  4  1  0  0  0  0
  2 19  1  0  0  0  0
  3  7  1  0  0  0  0
  3 18  2  0  0  0  0
  4 20  1  0  0  0  0
  4 23  2  0  0  0  0
  5  6  2  0  0  0  0
  6  8  1  0  0  0  0
  7 22  1  0  0  0  0
  7 24  2  0  0  0  0
  8 21  1  0  0  0  0
  8 25  2  0  0  0  0
  9 13  1  0  0  0  0
  9 19  1  0  0  0  0
 10 12  1  0  0  0  0
 10 21  1  0  0  0  0
 11 12  1  0  0  0  0
 11 21  1  0  0  0  0
 12 16  1  0  0  0  0
 13 14  1  0  0  0  0
 13 20  1  0  0  0  0
 15 17  1  0  0  0  0
 16 17  1  0  0  0  0
 17 22  1  0  0  0  0
 18 19  1  0  0  0  0
  1 26  1  0  0  0  0
  5 27  1  0  0  0  0
  5 28  1  0  0  0  0
  6 29  1  0  0  0  0
  9 30  1  0  0  0  0
  9 31  1  0  0  0  0
 10 32  1  0  0  0  0
 10 33  1  0  0  0  0
 11 34  1  0  0  0  0
 11 35  1  0  0  0  0
 12 36  1  0  0  0  0
 13 37  1  0  0  0  0
 14 38  1  0  0  0  0
 14 39  1  0  0  0  0
 14 40  1  0  0  0  0
 15 41  1  0  0  0  0
 15 42  1  0  0  0  0
 15 43  1  0  0  0  0
 16 44  1  0  0  0  0
 16 45  1  0  0  0  0
 17 46  1  0  0  0  0
 20 47  1  0  0  0  0
 22 48  1  0  0  0  0
M  END
> <Catalog ID>
Z4942814008

> <MW>
345.396

> <MW (desalted)>
345.396

> <ClogP>
-1.255

> <logS>
-2.916

> <HBD>
2

> <HBA>
4

> <TPSA>
96.33

> <RotBonds>
5

> <ROCS_ShapeQuery>
A71EV2A-x0451_0A_A71EV2A-x0310_0A_A71EV2A-x0416_0A_peptide

> <ROCS_TanimotoCombo>
0.535 

> <ROCS_ShapeTanimoto>
0.356 

> <ROCS_ColorTanimoto>
0.178 

> <ROCS_RefTversky>
0.317 

> <ROCS_RefColorTversky>
0.206 

> <ROCS_RefTverskyCombo>
0.523 

> <ROCS_FitTversky>
1.538 

> <ROCS_FitColorTversky>
0.569 

> <ROCS_FitTverskyCombo>
2.107 

> <ROCS_ColorScore>
-6.318

> <ROCS_Overlap>
2202.376

> <ROCS_Rank>
140                 

$$$$
untitled-dbase-10246_4920
  -OEChem-11132309573D

 48 50  0     1  0  0  0  0  0999 V2000
   13.1758   15.4998   18.1419 C   0  0  0  0  0  0  0  0  0  0  0  0
   11.9666   15.1577   18.7473 C   0  0  0  0  0  0  0  0  0  0  0  0
    9.9012   10.7652   23.0478 C   0  0  0  0  0  0  0  0  0  0  0  0
    8.9253   10.1068   23.7971 C   0  0  0  0  0  0  0  0  0  0  0  0
   14.2571   15.9057   18.9241 C   0  0  0  0  0  0  0  0  0  0  0  0
    8.9257   12.8973   23.6381 C   0  0  0  0  0  0  0  0  0  0  0  0
   12.9199   15.6277   20.9170 C   0  0  0  0  0  0  0  0  0  0  0  0
    9.9010   12.1582   22.9681 C   0  0  0  0  0  0  0  0  0  0  0  0
   11.8387   15.2217   20.1348 C   0  0  0  0  0  0  0  0  0  0  0  0
    7.9436   12.2352   24.3775 C   0  0  0  0  0  0  0  0  0  0  0  0
    7.9397   10.8434   24.4546 C   0  0  0  0  0  0  0  0  0  0  0  0
   14.1292   15.9697   20.3116 C   0  0  0  0  0  0  0  0  0  0  0  0
    5.9538   12.3602   25.7518 C   0  0  0  0  0  0  0  0  0  0  0  0
   10.7289   15.0369   23.3145 C   0  0  0  0  0  0  0  0  0  0  0  0
    5.8535   10.8651   25.5028 C   0  0  0  0  0  0  0  0  0  0  0  0
   12.3769   12.5660   22.6583 C   0  0  0  0  0  0  0  0  0  0  0  0
   14.9847   16.4081   22.4868 C   0  0  0  0  0  0  0  0  0  0  0  0
   10.5369   14.8540   20.7862 C   0  0  0  0  0  0  0  0  0  0  0  0
   10.5012   16.5273   23.1601 C   0  0  0  0  0  0  0  0  0  0  0  0
   10.9499   12.8580   22.1711 C   0  0  2  0  0  0  0  0  0  0  0  0
    6.9854   12.9736   25.0794 N   0  0  0  0  0  0  0  0  0  0  0  0
   10.7329   14.2940   22.1239 N   0  0  0  0  0  0  0  0  0  0  0  0
    5.1288   12.9618   26.4363 O   0  0  0  0  0  0  0  0  0  0  0  0
   10.8983   14.5247   24.4239 O   0  0  0  0  0  0  0  0  0  0  0  0
    7.0382   10.1491   25.2114 O   0  0  0  0  0  0  0  0  0  0  0  0
   15.1846   16.3653   21.0748 O   0  0  0  0  0  0  0  0  0  0  0  0
    8.7730   16.9158   23.2724 Cl  0  0  0  0  0  0  0  0  0  0  0  0
   13.2755   15.4495   17.0618 H   0  0  0  0  0  0  0  0  0  0  0  0
   11.1296   14.8430   18.1297 H   0  0  0  0  0  0  0  0  0  0  0  0
   10.6623   10.1841   22.5336 H   0  0  0  0  0  0  0  0  0  0  0  0
    8.9407    9.0223   23.8637 H   0  0  0  0  0  0  0  0  0  0  0  0
   15.1962   16.1709   18.4465 H   0  0  0  0  0  0  0  0  0  0  0  0
    8.9337   13.9833   23.5825 H   0  0  0  0  0  0  0  0  0  0  0  0
   12.8230   15.6788   21.9990 H   0  0  0  0  0  0  0  0  0  0  0  0
    5.4192   10.4118   26.4008 H   0  0  0  0  0  0  0  0  0  0  0  0
    5.1424   10.7098   24.6820 H   0  0  0  0  0  0  0  0  0  0  0  0
   12.4958   12.8608   23.7067 H   0  0  0  0  0  0  0  0  0  0  0  0
   12.6141   11.4993   22.5768 H   0  0  0  0  0  0  0  0  0  0  0  0
   13.1244   13.1078   22.0681 H   0  0  0  0  0  0  0  0  0  0  0  0
   15.9041   16.7394   22.9758 H   0  0  0  0  0  0  0  0  0  0  0  0
   14.7057   15.4145   22.8465 H   0  0  0  0  0  0  0  0  0  0  0  0
   14.1810   17.1135   22.7109 H   0  0  0  0  0  0  0  0  0  0  0  0
    9.8902   15.7332   20.8801 H   0  0  0  0  0  0  0  0  0  0  0  0
    9.9943   14.1133   20.1895 H   0  0  0  0  0  0  0  0  0  0  0  0
   11.0120   17.0714   23.9584 H   0  0  0  0  0  0  0  0  0  0  0  0
   10.8503   16.8618   22.1799 H   0  0  0  0  0  0  0  0  0  0  0  0
   10.9032   12.5382   21.1152 H   0  0  0  0  0  0  0  0  0  0  0  0
    7.0658   13.9857   25.1036 H   0  0  0  0  0  0  0  0  0  0  0  0
  1  2  1  0  0  0  0
  1  5  2  0  0  0  0
  2  9  2  0  0  0  0
  3  4  2  0  0  0  0
  3  8  1  0  0  0  0
  4 11  1  0  0  0  0
  5 12  1  0  0  0  0
  6  8  2  0  0  0  0
  6 10  1  0  0  0  0
  7  9  1  0  0  0  0
  7 12  2  0  0  0  0
  8 20  1  0  0  0  0
  9 18  1  0  0  0  0
 10 11  2  0  0  0  0
 10 21  1  0  0  0  0
 11 25  1  0  0  0  0
 12 26  1  0  0  0  0
 13 15  1  0  0  0  0
 13 21  1  0  0  0  0
 13 23  2  0  0  0  0
 14 19  1  0  0  0  0
 14 22  1  0  0  0  0
 14 24  2  0  0  0  0
 15 25  1  0  0  0  0
 16 20  1  0  0  0  0
 17 26  1  0  0  0  0
 18 22  1  0  0  0  0
 19 27  1  0  0  0  0
 20 22  1  0  0  0  0
  1 28  1  0  0  0  0
  2 29  1  0  0  0  0
  3 30  1  0  0  0  0
  4 31  1  0  0  0  0
  5 32  1  0  0  0  0
  6 33  1  0  0  0  0
  7 34  1  0  0  0  0
 15 35  1  0  0  0  0
 15 36  1  0  0  0  0
 16 37  1  0  0  0  0
 16 38  1  0  0  0  0
 16 39  1  0  0  0  0
 17 40  1  0  0  0  0
 17 41  1  0  0  0  0
 17 42  1  0  0  0  0
 18 43  1  0  0  0  0
 18 44  1  0  0  0  0
 19 45  1  0  0  0  0
 19 46  1  0  0  0  0
 20 47  1  0  0  0  0
 21 48  1  0  0  0  0
M  END
> <Catalog ID>
Z4408352175

> <MW>
388.845

> <MW (desalted)>
388.845

> <ClogP>
2.205

> <logS>
-4.176

> <HBD>
1

> <HBA>
4

> <TPSA>
67.87

> <RotBonds>
6

> <ROCS_ShapeQuery>
A71EV2A-x0451_0A_A71EV2A-x0310_0A_A71EV2A-x0416_0A_peptide

> <ROCS_TanimotoCombo>
0.535 

> <ROCS_ShapeTanimoto>
0.364 

> <ROCS_ColorTanimoto>
0.171 

> <ROCS_RefTversky>
0.325 

> <ROCS_RefColorTversky>
0.190 

> <ROCS_RefTverskyCombo>
0.515 

> <ROCS_FitTversky>
1.492 

> <ROCS_FitColorTversky>
0.630 

> <ROCS_FitTverskyCombo>
2.121 

> <ROCS_ColorScore>
-5.788

> <ROCS_Overlap>
2261.000

> <ROCS_Rank>
141                 

$$$$
untitled-dbase-10071_13793
  -OEChem-11132309573D

 49 51  0     0  0  0  0  0  0999 V2000
   13.2712   13.9602   22.9027 C   0  0  0  0  0  0  0  0  0  0  0  0
    8.4734    9.3183   24.0717 C   0  0  0  0  0  0  0  0  0  0  0  0
    9.4871   10.1014   23.5197 C   0  0  0  0  0  0  0  0  0  0  0  0
    7.3387    9.9248   24.6105 C   0  0  0  0  0  0  0  0  0  0  0  0
   12.3843   15.6652   19.1116 C   0  0  0  0  0  0  0  0  0  0  0  0
   13.5739   16.2896   18.6662 C   0  0  0  0  0  0  0  0  0  0  0  0
    8.2316   12.0975   24.0456 C   0  0  0  0  0  0  0  0  0  0  0  0
    9.3663   11.4910   23.5067 C   0  0  0  0  0  0  0  0  0  0  0  0
    7.2178   11.3144   24.5975 C   0  0  0  0  0  0  0  0  0  0  0  0
   12.5486   15.4480   20.4598 C   0  0  0  0  0  0  0  0  0  0  0  0
   14.3802   16.4096   19.7742 C   0  0  0  0  0  0  0  0  0  0  0  0
   11.5910   14.8235   21.3858 C   0  0  0  0  0  0  0  0  0  0  0  0
   11.9124   14.1354   22.4993 C   0  0  0  0  0  0  0  0  0  0  0  0
   10.7627   13.5780   23.3111 C   0  0  0  0  0  0  0  0  0  0  0  0
    4.3297   12.6570   29.0066 C   0  0  0  0  0  0  0  0  0  0  0  0
    4.5899   11.2870   28.3831 C   0  0  0  0  0  0  0  0  0  0  0  0
    4.6789   13.7808   28.0328 C   0  0  0  0  0  0  0  0  0  0  0  0
    6.0143   11.1830   27.8502 C   0  0  0  0  0  0  0  0  0  0  0  0
    6.1018   13.6341   27.5057 C   0  0  0  0  0  0  0  0  0  0  0  0
   15.7255   16.9629   19.9836 C   0  0  0  0  0  0  0  0  0  0  0  0
   14.3737   13.8159   23.2349 N   0  0  0  0  0  0  0  0  0  0  0  0
    6.2970   12.2899   26.8947 N   0  0  0  0  0  0  0  0  0  0  0  0
   10.3801   12.2743   22.9544 N   0  0  0  0  0  0  0  0  0  0  0  0
   10.2423   14.2530   24.1958 O   0  0  0  0  0  0  0  0  0  0  0  0
    5.6368   13.3807   24.6610 O   0  0  0  0  0  0  0  0  0  0  0  0
    4.7049   11.1161   25.2535 O   0  0  0  0  0  0  0  0  0  0  0  0
   13.7625   15.8990   20.8716 O   0  0  0  0  0  0  0  0  0  0  0  0
    5.7822   12.0814   25.2804 S   0  0  0  0  0  0  0  0  0  0  0  0
    8.5669    8.2364   24.0815 H   0  0  0  0  0  0  0  0  0  0  0  0
   10.3665    9.6176   23.1021 H   0  0  0  0  0  0  0  0  0  0  0  0
    6.5549    9.3055   25.0385 H   0  0  0  0  0  0  0  0  0  0  0  0
   11.5193   15.4091   18.5155 H   0  0  0  0  0  0  0  0  0  0  0  0
   13.8112   16.6111   17.6622 H   0  0  0  0  0  0  0  0  0  0  0  0
    8.1366   13.1811   24.0357 H   0  0  0  0  0  0  0  0  0  0  0  0
   10.5534   14.9819   21.1001 H   0  0  0  0  0  0  0  0  0  0  0  0
    3.2723   12.7350   29.2933 H   0  0  0  0  0  0  0  0  0  0  0  0
    4.9185   12.7652   29.9259 H   0  0  0  0  0  0  0  0  0  0  0  0
    4.4235   10.5102   29.1397 H   0  0  0  0  0  0  0  0  0  0  0  0
    3.8754   11.1077   27.5725 H   0  0  0  0  0  0  0  0  0  0  0  0
    3.9708   13.7792   27.1969 H   0  0  0  0  0  0  0  0  0  0  0  0
    4.5744   14.7457   28.5441 H   0  0  0  0  0  0  0  0  0  0  0  0
    6.7152   11.2417   28.6956 H   0  0  0  0  0  0  0  0  0  0  0  0
    6.1703   10.2147   27.3507 H   0  0  0  0  0  0  0  0  0  0  0  0
    6.3208   14.4144   26.7609 H   0  0  0  0  0  0  0  0  0  0  0  0
    6.8050   13.7613   28.3417 H   0  0  0  0  0  0  0  0  0  0  0  0
   15.6850   18.0367   20.2397 H   0  0  0  0  0  0  0  0  0  0  0  0
   16.2687   16.4499   20.7987 H   0  0  0  0  0  0  0  0  0  0  0  0
   16.3656   16.8616   19.0875 H   0  0  0  0  0  0  0  0  0  0  0  0
   10.9138   11.8436   22.1912 H   0  0  0  0  0  0  0  0  0  0  0  0
  1 13  1  0  0  0  0
  1 21  3  0  0  0  0
  2  3  2  0  0  0  0
  2  4  1  0  0  0  0
  3  8  1  0  0  0  0
  4  9  2  0  0  0  0
  5  6  1  0  0  0  0
  5 10  2  0  0  0  0
  6 11  2  0  0  0  0
  7  8  2  0  0  0  0
  7  9  1  0  0  0  0
  8 23  1  0  0  0  0
  9 28  1  0  0  0  0
 10 12  1  4  0  0  0
 10 27  1  0  0  0  0
 11 20  1  0  0  0  0
 11 27  1  0  0  0  0
 12 13  2  0  0  0  0
 13 14  1  0  0  0  0
 14 23  1  0  0  0  0
 14 24  2  0  0  0  0
 15 16  1  0  0  0  0
 15 17  1  0  0  0  0
 16 18  1  0  0  0  0
 17 19  1  0  0  0  0
 18 22  1  0  0  0  0
 19 22  1  0  0  0  0
 22 28  1  0  0  0  0
 25 28  2  0  0  0  0
 26 28  2  0  0  0  0
  2 29  1  0  0  0  0
  3 30  1  0  0  0  0
  4 31  1  0  0  0  0
  5 32  1  0  0  0  0
  6 33  1  0  0  0  0
  7 34  1  0  0  0  0
 12 35  1  0  0  0  0
 15 36  1  0  0  0  0
 15 37  1  0  0  0  0
 16 38  1  0  0  0  0
 16 39  1  0  0  0  0
 17 40  1  0  0  0  0
 17 41  1  0  0  0  0
 18 42  1  0  0  0  0
 18 43  1  0  0  0  0
 19 44  1  0  0  0  0
 19 45  1  0  0  0  0
 20 46  1  0  0  0  0
 20 47  1  0  0  0  0
 20 48  1  0  0  0  0
 23 49  1  0  0  0  0
M  END
> <Catalog ID>
Z44371605

> <MW>
399.463

> <MW (desalted)>
399.463

> <ClogP>
3.51

> <logS>
-4.628

> <HBD>
1

> <HBA>
4

> <TPSA>
103.41

> <RotBonds>
4

> <ROCS_ShapeQuery>
A71EV2A-x0451_0A_A71EV2A-x0310_0A_A71EV2A-x0416_0A_peptide

> <ROCS_TanimotoCombo>
0.534 

> <ROCS_ShapeTanimoto>
0.363 

> <ROCS_ColorTanimoto>
0.172 

> <ROCS_RefTversky>
0.325 

> <ROCS_RefColorTversky>
0.195 

> <ROCS_RefTverskyCombo>
0.520 

> <ROCS_FitTversky>
1.473 

> <ROCS_FitColorTversky>
0.588 

> <ROCS_FitTverskyCombo>
2.061 

> <ROCS_ColorScore>
-5.960

> <ROCS_Overlap>
2261.375

> <ROCS_Rank>
142                 

$$$$
untitled-dbase-4634_5146
  -OEChem-11132309573D

 38 39  0     0  0  0  0  0  0999 V2000
   13.2506   17.2776   19.1143 C   0  0  0  0  0  0  0  0  0  0  0  0
   13.6661   16.8109   20.3613 C   0  0  0  0  0  0  0  0  0  0  0  0
   13.0169   16.3771   18.0750 C   0  0  0  0  0  0  0  0  0  0  0  0
   13.6143   14.5431   19.5298 C   0  0  0  0  0  0  0  0  0  0  0  0
    8.6016   12.3981   24.7331 C   0  0  0  0  0  0  0  0  0  0  0  0
    8.8253   10.3372   23.5673 C   0  0  0  0  0  0  0  0  0  0  0  0
    7.1318   10.5652   25.1029 C   0  0  0  0  0  0  0  0  0  0  0  0
   13.8480   15.4437   20.5691 C   0  0  0  0  0  0  0  0  0  0  0  0
    9.2791   11.6262   23.7959 C   0  0  0  0  0  0  0  0  0  0  0  0
    7.5064   11.8649   25.4036 C   0  0  0  0  0  0  0  0  0  0  0  0
   13.1988   15.0098   18.2827 C   0  0  0  0  0  0  0  0  0  0  0  0
   10.9179   13.4059   23.2546 C   0  0  0  0  0  0  0  0  0  0  0  0
   14.2986   14.9397   21.9179 C   0  0  0  0  0  0  0  0  0  0  0  0
   12.1171   13.6294   22.3480 C   0  0  0  0  0  0  0  0  0  0  0  0
   13.1622   14.6065   22.8963 C   0  0  0  0  0  0  0  0  0  0  0  0
    7.7653    9.7848   24.1989 N   0  0  0  0  0  0  0  0  0  0  0  0
   10.3818   12.1348   23.1057 N   0  0  0  0  0  0  0  0  0  0  0  0
   10.5505   14.2963   24.0164 O   0  0  0  0  0  0  0  0  0  0  0  0
    4.4440   11.8136   26.6064 O   0  0  0  0  0  0  0  0  0  0  0  0
    4.9954   14.2879   26.7053 O   0  0  0  0  0  0  0  0  0  0  0  0
    6.8260   12.5947   26.3218 O   0  0  0  0  0  0  0  0  0  0  0  0
    4.9633   13.0777   24.6245 F   0  0  0  0  0  0  0  0  0  0  0  0
    5.2313   12.9556   26.1858 S   0  0  0  0  0  0  0  0  0  0  0  0
   12.9114   13.8994   16.9998 Cl  0  0  0  0  0  0  0  0  0  0  0  0
   13.1092   18.3424   18.9529 H   0  0  0  0  0  0  0  0  0  0  0  0
   13.8459   17.5198   21.1653 H   0  0  0  0  0  0  0  0  0  0  0  0
   12.6936   16.7552   17.1082 H   0  0  0  0  0  0  0  0  0  0  0  0
   13.7571   13.4780   19.6969 H   0  0  0  0  0  0  0  0  0  0  0  0
    8.9232   13.4149   24.9438 H   0  0  0  0  0  0  0  0  0  0  0  0
    9.3141    9.6862   22.8482 H   0  0  0  0  0  0  0  0  0  0  0  0
    6.2853   10.0981   25.5965 H   0  0  0  0  0  0  0  0  0  0  0  0
   14.9829   15.6589   22.3853 H   0  0  0  0  0  0  0  0  0  0  0  0
   14.8928   14.0324   21.7463 H   0  0  0  0  0  0  0  0  0  0  0  0
   12.5846   12.6583   22.1465 H   0  0  0  0  0  0  0  0  0  0  0  0
   11.7405   14.0043   21.3882 H   0  0  0  0  0  0  0  0  0  0  0  0
   13.5660   14.2484   23.8497 H   0  0  0  0  0  0  0  0  0  0  0  0
   12.6388   15.5447   23.1220 H   0  0  0  0  0  0  0  0  0  0  0  0
   10.8321   11.5182   22.4338 H   0  0  0  0  0  0  0  0  0  0  0  0
  1  2  2  0  0  0  0
  1  3  1  0  0  0  0
  2  8  1  0  0  0  0
  3 11  2  0  0  0  0
  4  8  2  0  0  0  0
  4 11  1  0  0  0  0
  5  9  1  0  0  0  0
  5 10  2  0  0  0  0
  6  9  2  0  0  0  0
  6 16  1  0  0  0  0
  7 10  1  0  0  0  0
  7 16  2  0  0  0  0
  8 13  1  0  0  0  0
  9 17  1  0  0  0  0
 10 21  1  0  0  0  0
 11 24  1  0  0  0  0
 12 14  1  0  0  0  0
 12 17  1  0  0  0  0
 12 18  2  0  0  0  0
 13 15  1  0  0  0  0
 14 15  1  0  0  0  0
 19 23  2  0  0  0  0
 20 23  2  0  0  0  0
 21 23  1  0  0  0  0
 22 23  1  0  0  0  0
  1 25  1  0  0  0  0
  2 26  1  0  0  0  0
  3 27  1  0  0  0  0
  4 28  1  0  0  0  0
  5 29  1  0  0  0  0
  6 30  1  0  0  0  0
  7 31  1  0  0  0  0
 13 32  1  0  0  0  0
 13 33  1  0  0  0  0
 14 34  1  0  0  0  0
 14 35  1  0  0  0  0
 15 36  1  0  0  0  0
 15 37  1  0  0  0  0
 17 38  1  0  0  0  0
M  END
> <Catalog ID>
Z4607528801

> <MW>
372.799

> <MW (desalted)>
372.799

> <ClogP>
2.105

> <logS>
-4.028

> <HBD>
1

> <HBA>
4

> <TPSA>
85.36

> <RotBonds>
7

> <ROCS_ShapeQuery>
A71EV2A-x0451_0A_A71EV2A-x0310_0A_A71EV2A-x0416_0A_peptide

> <ROCS_TanimotoCombo>
0.534 

> <ROCS_ShapeTanimoto>
0.311 

> <ROCS_ColorTanimoto>
0.224 

> <ROCS_RefTversky>
0.283 

> <ROCS_RefColorTversky>
0.232 

> <ROCS_RefTverskyCombo>
0.515 

> <ROCS_FitTversky>
1.459 

> <ROCS_FitColorTversky>
0.859 

> <ROCS_FitTverskyCombo>
2.317 

> <ROCS_ColorScore>
-7.073

> <ROCS_Overlap>
1967.320

> <ROCS_Rank>
143                 

$$$$
untitled-dbase-8043_1767
  -OEChem-11132309573D

 36 38  0     0  0  0  0  0  0999 V2000
   12.2414   15.2270   18.8275 C   0  0  0  0  0  0  0  0  0  0  0  0
   14.1385   16.2507   19.9184 C   0  0  0  0  0  0  0  0  0  0  0  0
   12.5136   15.9561   17.6699 C   0  0  0  0  0  0  0  0  0  0  0  0
   14.4108   16.9797   18.7608 C   0  0  0  0  0  0  0  0  0  0  0  0
   13.0538   15.3744   19.9518 C   0  0  0  0  0  0  0  0  0  0  0  0
   13.5983   16.8324   17.6366 C   0  0  0  0  0  0  0  0  0  0  0  0
    7.7035   10.4697   24.8173 C   0  0  0  0  0  0  0  0  0  0  0  0
    8.9673   11.4100   23.3020 C   0  0  0  0  0  0  0  0  0  0  0  0
    6.8329   10.4704   25.9426 C   0  0  0  0  0  0  0  0  0  0  0  0
    6.5007   11.6420   26.5201 C   0  0  0  0  0  0  0  0  0  0  0  0
    7.0120   12.9108   26.0201 C   0  0  0  0  0  0  0  0  0  0  0  0
    7.8343   12.9112   24.9576 C   0  0  0  0  0  0  0  0  0  0  0  0
   12.7672   14.6040   21.1744 C   0  0  0  0  0  0  0  0  0  0  0  0
   11.9557   15.0092   22.1591 C   0  0  0  0  0  0  0  0  0  0  0  0
    9.6781   12.4373   22.5170 C   0  0  0  0  0  0  0  0  0  0  0  0
    8.1978    9.5161   24.0569 N   0  0  0  0  0  0  0  0  0  0  0  0
    8.9959   10.1114   23.1000 N   0  0  0  0  0  0  0  0  0  0  0  0
    8.1685   11.6970   24.3715 N   0  0  0  0  0  0  0  0  0  0  0  0
   11.0943   12.4906   22.8096 N   0  0  0  0  0  0  0  0  0  0  0  0
   13.0650   13.6133   24.0347 O   0  0  0  0  0  0  0  0  0  0  0  0
   10.7474   14.5143   24.3822 O   0  0  0  0  0  0  0  0  0  0  0  0
   11.7518   13.9375   23.5058 S   0  0  0  0  0  0  0  0  0  0  0  0
   13.9339   17.7315   16.2084 Cl  0  0  0  0  0  0  0  0  0  0  0  0
   11.3920   14.5480   18.8391 H   0  0  0  0  0  0  0  0  0  0  0  0
   14.7806   16.3757   20.7871 H   0  0  0  0  0  0  0  0  0  0  0  0
   11.8721   15.8305   16.8014 H   0  0  0  0  0  0  0  0  0  0  0  0
   15.2594   17.6591   18.7493 H   0  0  0  0  0  0  0  0  0  0  0  0
    6.4465    9.5310   26.3213 H   0  0  0  0  0  0  0  0  0  0  0  0
    5.8380   11.6692   27.3783 H   0  0  0  0  0  0  0  0  0  0  0  0
    6.7188   13.8270   26.5178 H   0  0  0  0  0  0  0  0  0  0  0  0
    8.2488   13.8196   24.5386 H   0  0  0  0  0  0  0  0  0  0  0  0
   13.2542   13.6331   21.2396 H   0  0  0  0  0  0  0  0  0  0  0  0
   11.4216   15.9505   22.1552 H   0  0  0  0  0  0  0  0  0  0  0  0
    9.5844   12.2633   21.4299 H   0  0  0  0  0  0  0  0  0  0  0  0
    9.2805   13.4520   22.6973 H   0  0  0  0  0  0  0  0  0  0  0  0
   11.7058   12.0479   22.0937 H   0  0  0  0  0  0  0  0  0  0  0  0
  1  3  2  0  0  0  0
  1  5  1  0  0  0  0
  2  4  1  0  0  0  0
  2  5  2  0  0  0  0
  3  6  1  0  0  0  0
  4  6  2  0  0  0  0
  5 13  1  4  0  0  0
  6 23  1  0  0  0  0
  7  9  1  0  0  0  0
  7 16  2  0  0  0  0
  7 18  1  0  0  0  0
  8 15  1  0  0  0  0
  8 17  2  0  0  0  0
  8 18  1  0  0  0  0
  9 10  2  0  0  0  0
 10 11  1  0  0  0  0
 11 12  2  0  0  0  0
 12 18  1  0  0  0  0
 13 14  2  0  0  0  0
 14 22  1  0  0  0  0
 15 19  1  0  0  0  0
 16 17  1  0  0  0  0
 19 22  1  0  0  0  0
 20 22  2  0  0  0  0
 21 22  2  0  0  0  0
  1 24  1  0  0  0  0
  2 25  1  0  0  0  0
  3 26  1  0  0  0  0
  4 27  1  0  0  0  0
  9 28  1  0  0  0  0
 10 29  1  0  0  0  0
 11 30  1  0  0  0  0
 12 31  1  0  0  0  0
 13 32  1  0  0  0  0
 14 33  1  0  0  0  0
 15 34  1  0  0  0  0
 15 35  1  0  0  0  0
 19 36  1  0  0  0  0
M  END
> <Catalog ID>
Z65600406

> <MW>
348.807

> <MW (desalted)>
348.807

> <ClogP>
1.939

> <logS>
-4.023

> <HBD>
1

> <HBA>
4

> <TPSA>
76.36

> <RotBonds>
4

> <ROCS_ShapeQuery>
A71EV2A-x0451_0A_A71EV2A-x0310_0A_A71EV2A-x0416_0A_peptide

> <ROCS_TanimotoCombo>
0.534 

> <ROCS_ShapeTanimoto>
0.337 

> <ROCS_ColorTanimoto>
0.198 

> <ROCS_RefTversky>
0.300 

> <ROCS_RefColorTversky>
0.216 

> <ROCS_RefTverskyCombo>
0.517 

> <ROCS_FitTversky>
1.563 

> <ROCS_FitColorTversky>
0.696 

> <ROCS_FitTverskyCombo>
2.259 

> <ROCS_ColorScore>
-6.607

> <ROCS_Overlap>
2085.774

> <ROCS_Rank>
144                 

$$$$
untitled-dbase-315_4244
  -OEChem-11132309573D

 62 65  0     1  0  0  0  0  0999 V2000
    4.6061   12.0309   29.1602 C   0  0  0  0  0  0  0  0  0  0  0  0
    3.7939   12.5150   28.1347 C   0  0  0  0  0  0  0  0  0  0  0  0
    5.9545   11.7689   28.9173 C   0  0  0  0  0  0  0  0  0  0  0  0
   12.7377   15.3562   22.9785 C   0  0  0  0  0  0  0  0  0  0  0  0
    4.3300   12.7369   26.8662 C   0  0  0  0  0  0  0  0  0  0  0  0
    6.4906   11.9908   27.6488 C   0  0  0  0  0  0  0  0  0  0  0  0
   13.5645   16.0900   22.1210 C   0  0  0  0  0  0  0  0  0  0  0  0
   11.6464   14.3726   21.0831 C   0  0  0  0  0  0  0  0  0  0  0  0
   11.7766   14.5001   22.4609 C   0  0  0  0  0  0  0  0  0  0  0  0
   12.4633   15.1142   20.2096 C   0  0  0  0  0  0  0  0  0  0  0  0
    5.6784   12.4748   26.6233 C   0  0  0  0  0  0  0  0  0  0  0  0
   13.4409   15.9982   20.7227 C   0  0  0  0  0  0  0  0  0  0  0  0
   17.2691   16.9943   19.4002 C   0  0  0  0  0  0  0  0  0  0  0  0
   16.3871   17.9913   19.4971 C   0  0  0  0  0  0  0  0  0  0  0  0
   10.9247   13.7293   23.3524 C   0  0  0  0  0  0  0  0  0  0  0  0
   15.1426   17.7732   20.2705 C   0  0  0  0  0  0  0  0  0  0  0  0
   12.2807   14.8909   18.7314 C   0  0  0  0  0  0  0  0  0  0  0  0
   12.8354   16.0523   17.9325 C   0  0  0  0  0  0  0  0  0  0  0  0
    8.8006    9.1628   23.5406 C   0  0  0  0  0  0  0  0  0  0  0  0
    7.8731    9.3843   24.7277 C   0  0  0  0  0  0  0  0  0  0  0  0
    9.2572   10.3977   22.7717 C   0  0  0  0  0  0  0  0  0  0  0  0
   14.2483   16.3586   18.3974 C   0  0  0  0  0  0  0  0  0  0  0  0
    6.8378   10.4917   24.5514 C   0  0  0  0  0  0  0  0  0  0  0  0
    8.2643   12.4222   23.9823 C   0  0  0  0  0  0  0  0  0  0  0  0
    9.5417   11.6299   23.6360 C   0  0  2  0  0  0  0  0  0  0  0  0
    6.2560   12.7133   25.2581 C   0  0  0  0  0  0  0  0  0  0  0  0
   14.3031   16.7396   19.8229 N   0  0  0  0  0  0  0  0  0  0  0  0
    7.3652   11.7980   24.9635 N   0  0  1  0  0  0  0  0  0  0  0  0
   10.4330   12.5120   22.8668 N   0  0  0  0  0  0  0  0  0  0  0  0
   10.6409   14.1606   24.4841 O   0  0  0  0  0  0  0  0  0  0  0  0
   14.9471   18.5167   21.2312 O   0  0  0  0  0  0  0  0  0  0  0  0
    4.1888   11.8594   30.1481 H   0  0  0  0  0  0  0  0  0  0  0  0
    2.7443   12.7201   28.3239 H   0  0  0  0  0  0  0  0  0  0  0  0
    6.5874   11.3930   29.7157 H   0  0  0  0  0  0  0  0  0  0  0  0
   12.8690   15.4545   24.0534 H   0  0  0  0  0  0  0  0  0  0  0  0
    3.6896   13.1140   26.0732 H   0  0  0  0  0  0  0  0  0  0  0  0
    7.5422   11.7837   27.4687 H   0  0  0  0  0  0  0  0  0  0  0  0
   14.3249   16.6985   22.5981 H   0  0  0  0  0  0  0  0  0  0  0  0
   10.9044   13.6892   20.6740 H   0  0  0  0  0  0  0  0  0  0  0  0
   18.1976   17.0936   18.8480 H   0  0  0  0  0  0  0  0  0  0  0  0
   17.0705   16.0433   19.8830 H   0  0  0  0  0  0  0  0  0  0  0  0
   16.5497   18.9539   19.0301 H   0  0  0  0  0  0  0  0  0  0  0  0
   12.7944   13.9625   18.4529 H   0  0  0  0  0  0  0  0  0  0  0  0
   11.2177   14.7705   18.4910 H   0  0  0  0  0  0  0  0  0  0  0  0
   12.8345   15.8028   16.8656 H   0  0  0  0  0  0  0  0  0  0  0  0
   12.2033   16.9414   18.0548 H   0  0  0  0  0  0  0  0  0  0  0  0
    9.6875    8.5447   23.8437 H   0  0  0  0  0  0  0  0  0  0  0  0
    8.2638    8.5028   22.8123 H   0  0  0  0  0  0  0  0  0  0  0  0
    7.3677    8.4405   24.9883 H   0  0  0  0  0  0  0  0  0  0  0  0
    8.4855    9.6384   25.6076 H   0  0  0  0  0  0  0  0  0  0  0  0
   10.1725   10.1378   22.2247 H   0  0  0  0  0  0  0  0  0  0  0  0
    8.5049   10.6442   22.0117 H   0  0  0  0  0  0  0  0  0  0  0  0
   14.9102   15.4947   18.2601 H   0  0  0  0  0  0  0  0  0  0  0  0
   14.6282   17.1739   17.7736 H   0  0  0  0  0  0  0  0  0  0  0  0
    6.5325   10.5031   23.5205 H   0  0  0  0  0  0  0  0  0  0  0  0
    5.9916   10.2614   25.1752 H   0  0  0  0  0  0  0  0  0  0  0  0
    8.6059   13.4094   24.3874 H   0  0  0  0  0  0  0  0  0  0  0  0
    7.7061   12.7140   23.0525 H   0  0  0  0  0  0  0  0  0  0  0  0
   10.0663   11.3591   24.5170 H   0  0  0  0  0  0  0  0  0  0  0  0
    5.4912   12.5760   24.4859 H   0  0  0  0  0  0  0  0  0  0  0  0
    6.6329   13.7372   25.1642 H   0  0  0  0  0  0  0  0  0  0  0  0
   10.6439   12.2369   21.9131 H   0  0  0  0  0  0  0  0  0  0  0  0
  1  2  1  0  0  0  0
  1  3  2  0  0  0  0
  2  5  2  0  0  0  0
  3  6  1  0  0  0  0
  4  7  2  0  0  0  0
  4  9  1  0  0  0  0
  5 11  1  0  0  0  0
  6 11  2  0  0  0  0
  7 12  1  0  0  0  0
  8  9  2  0  0  0  0
  8 10  1  0  0  0  0
  9 15  1  0  0  0  0
 10 12  2  0  0  0  0
 10 17  1  0  0  0  0
 11 26  1  0  0  0  0
 12 27  1  0  0  0  0
 13 14  2  0  0  0  0
 14 16  1  0  0  0  0
 15 29  1  0  0  0  0
 15 30  2  0  0  0  0
 16 27  1  0  0  0  0
 16 31  2  0  0  0  0
 17 18  1  0  0  0  0
 18 22  1  0  0  0  0
 19 20  1  0  0  0  0
 19 21  1  0  0  0  0
 20 23  1  0  0  0  0
 21 25  1  0  0  0  0
 22 27  1  0  0  0  0
 23 28  1  0  0  0  0
 24 25  1  0  0  0  0
 24 28  1  0  0  0  0
 25 29  1  0  0  0  0
 26 28  1  0  0  0  0
  1 32  1  0  0  0  0
  2 33  1  0  0  0  0
  3 34  1  0  0  0  0
  4 35  1  0  0  0  0
  5 36  1  0  0  0  0
  6 37  1  0  0  0  0
  7 38  1  0  0  0  0
  8 39  1  0  0  0  0
 13 40  1  0  0  0  0
 13 41  1  0  0  0  0
 14 42  1  0  0  0  0
 17 43  1  0  0  0  0
 17 44  1  0  0  0  0
 18 45  1  0  0  0  0
 18 46  1  0  0  0  0
 19 47  1  0  0  0  0
 19 48  1  0  0  0  0
 20 49  1  0  0  0  0
 20 50  1  0  0  0  0
 21 51  1  0  0  0  0
 21 52  1  0  0  0  0
 22 53  1  0  0  0  0
 22 54  1  0  0  0  0
 23 55  1  0  0  0  0
 23 56  1  0  0  0  0
 24 57  1  0  0  0  0
 24 58  1  0  0  0  0
 25 59  1  0  0  0  0
 26 60  1  0  0  0  0
 26 61  1  0  0  0  0
 29 62  1  0  0  0  0
M  END
> <Catalog ID>
Z3756469383

> <MW>
417.543

> <MW (desalted)>
417.543

> <ClogP>
4.932

> <logS>
-5.287

> <HBD>
1

> <HBA>
3

> <TPSA>
52.65

> <RotBonds>
5

> <ROCS_ShapeQuery>
A71EV2A-x0451_0A_A71EV2A-x0310_0A_A71EV2A-x0416_0A_peptide

> <ROCS_TanimotoCombo>
0.534 

> <ROCS_ShapeTanimoto>
0.367 

> <ROCS_ColorTanimoto>
0.167 

> <ROCS_RefTversky>
0.333 

> <ROCS_RefColorTversky>
0.191 

> <ROCS_RefTverskyCombo>
0.524 

> <ROCS_FitTversky>
1.383 

> <ROCS_FitColorTversky>
0.575 

> <ROCS_FitTverskyCombo>
1.958 

> <ROCS_ColorScore>
-5.833

> <ROCS_Overlap>
2320.684

> <ROCS_Rank>
145                 

$$$$
untitled-dbase-869_18864
  -OEChem-11132309573D

 41 42  0     0  0  0  0  0  0999 V2000
   13.9693   17.0342   19.6492 C   0  0  0  0  0  0  0  0  0  0  0  0
   13.5262   15.1097   18.2575 C   0  0  0  0  0  0  0  0  0  0  0  0
   13.0252   16.5842   20.5721 C   0  0  0  0  0  0  0  0  0  0  0  0
   12.5821   14.6596   19.1804 C   0  0  0  0  0  0  0  0  0  0  0  0
    8.2515   12.2520   24.3232 C   0  0  0  0  0  0  0  0  0  0  0  0
    9.1557   10.2263   23.4656 C   0  0  0  0  0  0  0  0  0  0  0  0
    7.2682   10.1335   24.7721 C   0  0  0  0  0  0  0  0  0  0  0  0
   14.2198   16.2970   18.4918 C   0  0  0  0  0  0  0  0  0  0  0  0
   12.3317   15.3969   20.3377 C   0  0  0  0  0  0  0  0  0  0  0  0
    9.2261   11.6061   23.5708 C   0  0  0  0  0  0  0  0  0  0  0  0
    7.2503   11.5089   24.9387 C   0  0  0  0  0  0  0  0  0  0  0  0
   15.2043   16.7650   17.5290 C   0  0  0  0  0  0  0  0  0  0  0  0
   10.8222   13.5153   23.3680 C   0  0  0  0  0  0  0  0  0  0  0  0
   16.2532   16.2654   15.4453 C   0  0  0  0  0  0  0  0  0  0  0  0
   11.3230   14.9156   21.3255 C   0  0  0  0  0  0  0  0  0  0  0  0
   11.9029   13.9971   22.4125 C   0  0  0  0  0  0  0  0  0  0  0  0
    8.1985    9.4707   24.0489 N   0  0  0  0  0  0  0  0  0  0  0  0
   10.2455   12.3272   22.9386 N   0  0  0  0  0  0  0  0  0  0  0  0
   15.8663   17.8039   17.6533 O   0  0  0  0  0  0  0  0  0  0  0  0
   10.5737   14.1470   24.3911 O   0  0  0  0  0  0  0  0  0  0  0  0
    5.6121   10.0704   26.9976 O   0  0  0  0  0  0  0  0  0  0  0  0
    4.2802   12.2198   27.2036 O   0  0  0  0  0  0  0  0  0  0  0  0
    6.2864   12.1120   25.6775 O   0  0  0  0  0  0  0  0  0  0  0  0
   15.3115   15.9126   16.4643 O   0  0  0  0  0  0  0  0  0  0  0  0
    4.1165   10.8074   25.2610 F   0  0  0  0  0  0  0  0  0  0  0  0
    5.0795   11.2923   26.4280 S   0  0  0  0  0  0  0  0  0  0  0  0
   14.5044   17.9606   19.8412 H   0  0  0  0  0  0  0  0  0  0  0  0
   13.7131   14.5271   17.3591 H   0  0  0  0  0  0  0  0  0  0  0  0
   12.8367   17.1648   21.4712 H   0  0  0  0  0  0  0  0  0  0  0  0
   12.0467   13.7331   18.9900 H   0  0  0  0  0  0  0  0  0  0  0  0
    8.2681   13.3334   24.4323 H   0  0  0  0  0  0  0  0  0  0  0  0
    9.8889    9.6661   22.8927 H   0  0  0  0  0  0  0  0  0  0  0  0
    6.5120    9.5041   25.2307 H   0  0  0  0  0  0  0  0  0  0  0  0
   16.2406   15.5075   14.6582 H   0  0  0  0  0  0  0  0  0  0  0  0
   17.2530   16.3372   15.8809 H   0  0  0  0  0  0  0  0  0  0  0  0
   15.9724   17.2324   15.0212 H   0  0  0  0  0  0  0  0  0  0  0  0
   10.8142   15.7686   21.8062 H   0  0  0  0  0  0  0  0  0  0  0  0
   10.5265   14.3681   20.7941 H   0  0  0  0  0  0  0  0  0  0  0  0
   12.3486   13.1065   21.9528 H   0  0  0  0  0  0  0  0  0  0  0  0
   12.7060   14.4981   22.9652 H   0  0  0  0  0  0  0  0  0  0  0  0
   10.5989   11.9097   22.0807 H   0  0  0  0  0  0  0  0  0  0  0  0
  1  3  2  0  0  0  0
  1  8  1  0  0  0  0
  2  4  1  0  0  0  0
  2  8  2  0  0  0  0
  3  9  1  0  0  0  0
  4  9  2  0  0  0  0
  5 10  2  0  0  0  0
  5 11  1  0  0  0  0
  6 10  1  0  0  0  0
  6 17  2  0  0  0  0
  7 11  2  0  0  0  0
  7 17  1  0  0  0  0
  8 12  1  0  0  0  0
  9 15  1  0  0  0  0
 10 18  1  0  0  0  0
 11 23  1  0  0  0  0
 12 19  2  0  0  0  0
 12 24  1  0  0  0  0
 13 16  1  0  0  0  0
 13 18  1  0  0  0  0
 13 20  2  0  0  0  0
 14 24  1  0  0  0  0
 15 16  1  0  0  0  0
 21 26  2  0  0  0  0
 22 26  2  0  0  0  0
 23 26  1  0  0  0  0
 25 26  1  0  0  0  0
  1 27  1  0  0  0  0
  2 28  1  0  0  0  0
  3 29  1  0  0  0  0
  4 30  1  0  0  0  0
  5 31  1  0  0  0  0
  6 32  1  0  0  0  0
  7 33  1  0  0  0  0
 14 34  1  0  0  0  0
 14 35  1  0  0  0  0
 14 36  1  0  0  0  0
 15 37  1  0  0  0  0
 15 38  1  0  0  0  0
 16 39  1  0  0  0  0
 16 40  1  0  0  0  0
 18 41  1  0  0  0  0
M  END
> <Catalog ID>
Z4607528830

> <MW>
382.364

> <MW (desalted)>
382.364

> <ClogP>
0.982

> <logS>
-3.031

> <HBD>
1

> <HBA>
5

> <TPSA>
111.66

> <RotBonds>
8

> <ROCS_ShapeQuery>
A71EV2A-x0451_0A_A71EV2A-x0310_0A_A71EV2A-x0416_0A_peptide

> <ROCS_TanimotoCombo>
0.534 

> <ROCS_ShapeTanimoto>
0.321 

> <ROCS_ColorTanimoto>
0.213 

> <ROCS_RefTversky>
0.294 

> <ROCS_RefColorTversky>
0.228 

> <ROCS_RefTverskyCombo>
0.522 

> <ROCS_FitTversky>
1.409 

> <ROCS_FitColorTversky>
0.758 

> <ROCS_FitTverskyCombo>
2.168 

> <ROCS_ColorScore>
-6.969

> <ROCS_Overlap>
2043.770

> <ROCS_Rank>
146                 

$$$$
untitled-dbase-9867_4130
  -OEChem-11132309573D

 44 46  0     0  0  0  0  0  0999 V2000
    6.6525   11.7007   26.4511 C   0  0  0  0  0  0  0  0  0  0  0  0
    7.0503   12.9309   25.9316 C   0  0  0  0  0  0  0  0  0  0  0  0
   14.5920   15.9879   18.8844 C   0  0  0  0  0  0  0  0  0  0  0  0
    7.0972   10.5036   25.8783 C   0  0  0  0  0  0  0  0  0  0  0  0
   13.5393   15.8128   17.9862 C   0  0  0  0  0  0  0  0  0  0  0  0
   14.3296   16.1341   20.2465 C   0  0  0  0  0  0  0  0  0  0  0  0
    7.9029   13.0049   24.8263 C   0  0  0  0  0  0  0  0  0  0  0  0
   11.9617   15.9306   19.8122 C   0  0  0  0  0  0  0  0  0  0  0  0
    9.3234   10.2235   22.9927 C   0  0  0  0  0  0  0  0  0  0  0  0
    7.9573   10.5531   24.7632 C   0  0  0  0  0  0  0  0  0  0  0  0
    8.5858    9.5678   23.9514 C   0  0  0  0  0  0  0  0  0  0  0  0
   12.2241   15.7842   18.4501 C   0  0  0  0  0  0  0  0  0  0  0  0
   13.0144   16.1055   20.7105 C   0  0  0  0  0  0  0  0  0  0  0  0
    8.3394   11.8001   24.2640 C   0  0  0  0  0  0  0  0  0  0  0  0
    8.5009    8.1396   24.0659 C   0  0  0  0  0  0  0  0  0  0  0  0
   10.6739   13.5232   23.1792 C   0  0  0  0  0  0  0  0  0  0  0  0
   11.0992   15.5956   17.4892 C   0  0  0  0  0  0  0  0  0  0  0  0
   12.7306   16.2645   22.1840 C   0  0  0  0  0  0  0  0  0  0  0  0
    9.7939   12.5897   22.3758 C   0  0  0  0  0  0  0  0  0  0  0  0
   12.7074   14.9342   22.9328 C   0  0  0  0  0  0  0  0  0  0  0  0
    9.1687   11.5695   23.1896 N   0  0  0  0  0  0  0  0  0  0  0  0
   11.7162   14.0218   22.4114 N   0  0  0  0  0  0  0  0  0  0  0  0
    9.0880    7.3475   23.3062 O   0  0  0  0  0  0  0  0  0  0  0  0
   10.4751   13.7908   24.3612 O   0  0  0  0  0  0  0  0  0  0  0  0
    5.9890   11.6686   27.3113 H   0  0  0  0  0  0  0  0  0  0  0  0
    6.6927   13.8484   26.3922 H   0  0  0  0  0  0  0  0  0  0  0  0
   15.6161   16.0100   18.5230 H   0  0  0  0  0  0  0  0  0  0  0  0
    6.7781    9.5525   26.2950 H   0  0  0  0  0  0  0  0  0  0  0  0
   13.7534   15.6992   16.9266 H   0  0  0  0  0  0  0  0  0  0  0  0
   15.1560   16.2708   20.9391 H   0  0  0  0  0  0  0  0  0  0  0  0
    8.2094   13.9655   24.4261 H   0  0  0  0  0  0  0  0  0  0  0  0
   10.9367   15.9073   20.1746 H   0  0  0  0  0  0  0  0  0  0  0  0
    9.9435    9.8473   22.1895 H   0  0  0  0  0  0  0  0  0  0  0  0
    7.8696    7.7097   24.8860 H   0  0  0  0  0  0  0  0  0  0  0  0
   10.8768   14.5286   17.3663 H   0  0  0  0  0  0  0  0  0  0  0  0
   10.1896   16.1029   17.8360 H   0  0  0  0  0  0  0  0  0  0  0  0
   11.3416   16.0162   16.5045 H   0  0  0  0  0  0  0  0  0  0  0  0
   11.7598   16.7627   22.2996 H   0  0  0  0  0  0  0  0  0  0  0  0
   13.4711   16.9382   22.6339 H   0  0  0  0  0  0  0  0  0  0  0  0
   10.3904   12.0911   21.6035 H   0  0  0  0  0  0  0  0  0  0  0  0
    9.0012   13.1609   21.8796 H   0  0  0  0  0  0  0  0  0  0  0  0
   13.6770   14.4354   22.8372 H   0  0  0  0  0  0  0  0  0  0  0  0
   12.4992   15.0742   23.9987 H   0  0  0  0  0  0  0  0  0  0  0  0
   11.8168   13.7133   21.4488 H   0  0  0  0  0  0  0  0  0  0  0  0
  1  2  1  0  0  0  0
  1  4  2  0  0  0  0
  2  7  2  0  0  0  0
  3  5  2  0  0  0  0
  3  6  1  0  0  0  0
  4 10  1  0  0  0  0
  5 12  1  0  0  0  0
  6 13  2  0  0  0  0
  7 14  1  0  0  0  0
  8 12  2  0  0  0  0
  8 13  1  0  0  0  0
  9 11  2  0  0  0  0
  9 21  1  0  0  0  0
 10 11  1  0  0  0  0
 10 14  2  0  0  0  0
 11 15  1  0  0  0  0
 12 17  1  0  0  0  0
 13 18  1  0  0  0  0
 14 21  1  0  0  0  0
 15 23  2  0  0  0  0
 16 19  1  0  0  0  0
 16 22  1  0  0  0  0
 16 24  2  0  0  0  0
 18 20  1  0  0  0  0
 19 21  1  0  0  0  0
 20 22  1  0  0  0  0
  1 25  1  0  0  0  0
  2 26  1  0  0  0  0
  3 27  1  0  0  0  0
  4 28  1  0  0  0  0
  5 29  1  0  0  0  0
  6 30  1  0  0  0  0
  7 31  1  0  0  0  0
  8 32  1  0  0  0  0
  9 33  1  0  0  0  0
 15 34  1  0  0  0  0
 17 35  1  0  0  0  0
 17 36  1  0  0  0  0
 17 37  1  0  0  0  0
 18 38  1  0  0  0  0
 18 39  1  0  0  0  0
 19 40  1  0  0  0  0
 19 41  1  0  0  0  0
 20 42  1  0  0  0  0
 20 43  1  0  0  0  0
 22 44  1  0  0  0  0
M  END
> <Catalog ID>
Z2027550105

> <MW>
320.385

> <MW (desalted)>
320.385

> <ClogP>
3.71

> <logS>
-3.794

> <HBD>
1

> <HBA>
2

> <TPSA>
51.1

> <RotBonds>
6

> <ROCS_ShapeQuery>
A71EV2A-x0451_0A_A71EV2A-x0310_0A_A71EV2A-x0416_0A_peptide

> <ROCS_TanimotoCombo>
0.534 

> <ROCS_ShapeTanimoto>
0.363 

> <ROCS_ColorTanimoto>
0.171 

> <ROCS_RefTversky>
0.320 

> <ROCS_RefColorTversky>
0.181 

> <ROCS_RefTverskyCombo>
0.501 

> <ROCS_FitTversky>
1.597 

> <ROCS_FitColorTversky>
0.755 

> <ROCS_FitTverskyCombo>
2.352 

> <ROCS_ColorScore>
-5.513

> <ROCS_Overlap>
2221.464

> <ROCS_Rank>
147                 

$$$$
untitled-dbase-10843_6058
  -OEChem-11132309573D

 34 35  0     1  0  0  0  0  0999 V2000
    8.0741   12.3777   25.0850 C   0  0  0  0  0  0  0  0  0  0  0  0
    9.1574   10.8393   23.6302 C   0  0  0  0  0  0  0  0  0  0  0  0
    7.4718   10.0788   24.9935 C   0  0  0  0  0  0  0  0  0  0  0  0
   13.6123   14.9476   24.3063 C   0  0  0  0  0  0  0  0  0  0  0  0
    9.0369   12.1327   24.1122 C   0  0  0  0  0  0  0  0  0  0  0  0
    7.2725   11.3365   25.5396 C   0  0  0  0  0  0  0  0  0  0  0  0
   12.1630   14.6958   22.7109 C   0  0  0  0  0  0  0  0  0  0  0  0
    9.8896   13.1992   23.6168 C   0  0  0  0  0  0  0  0  0  0  0  0
   10.4646   15.0312   20.8684 C   0  0  0  0  0  0  0  0  0  0  0  0
   13.1531   12.5767   23.6432 C   0  0  0  0  0  0  0  0  0  0  0  0
   11.2679   14.0258   21.6909 C   0  0  2  0  0  0  0  0  0  0  0  0
    8.3969    9.8023   24.0472 N   0  0  0  0  0  0  0  0  0  0  0  0
   13.2067   16.1451   23.9489 N   0  0  0  0  0  0  0  0  0  0  0  0
   12.2847   15.9850   22.9339 N   0  0  0  0  0  0  0  0  0  0  0  0
   12.9810   14.0051   23.5527 N   0  0  0  0  0  0  0  0  0  0  0  0
   10.3898   13.0628   22.3158 N   0  0  0  0  0  0  0  0  0  0  0  0
   10.1691   14.1735   24.3392 O   0  0  0  0  0  0  0  0  0  0  0  0
    4.0201   12.2495   27.2325 O   0  0  0  0  0  0  0  0  0  0  0  0
    5.5891   13.9384   26.1733 O   0  0  0  0  0  0  0  0  0  0  0  0
    6.3255   11.5459   26.4873 O   0  0  0  0  0  0  0  0  0  0  0  0
    4.4672   12.2562   24.8669 F   0  0  0  0  0  0  0  0  0  0  0  0
    5.0739   12.5893   26.2971 S   0  0  0  0  0  0  0  0  0  0  0  0
    7.9454   13.3779   25.4914 H   0  0  0  0  0  0  0  0  0  0  0  0
    9.8911   10.5867   22.8707 H   0  0  0  0  0  0  0  0  0  0  0  0
    6.8751    9.2294   25.3111 H   0  0  0  0  0  0  0  0  0  0  0  0
   14.3341   14.7147   25.0761 H   0  0  0  0  0  0  0  0  0  0  0  0
    9.8232   15.6440   21.5112 H   0  0  0  0  0  0  0  0  0  0  0  0
   11.1356   15.7019   20.3201 H   0  0  0  0  0  0  0  0  0  0  0  0
    9.8267   14.5375   20.1266 H   0  0  0  0  0  0  0  0  0  0  0  0
   12.4274   12.1946   24.3660 H   0  0  0  0  0  0  0  0  0  0  0  0
   12.9868   12.1269   22.6604 H   0  0  0  0  0  0  0  0  0  0  0  0
   14.1729   12.3556   23.9704 H   0  0  0  0  0  0  0  0  0  0  0  0
   11.8868   13.4454   20.9956 H   0  0  0  0  0  0  0  0  0  0  0  0
   10.1828   12.2188   21.7918 H   0  0  0  0  0  0  0  0  0  0  0  0
  1  5  2  0  0  0  0
  1  6  1  0  0  0  0
  2  5  1  0  0  0  0
  2 12  2  0  0  0  0
  3  6  2  0  0  0  0
  3 12  1  0  0  0  0
  4 13  2  0  0  0  0
  4 15  1  0  0  0  0
  5  8  1  0  0  0  0
  6 20  1  0  0  0  0
  7 11  1  0  0  0  0
  7 14  2  0  0  0  0
  7 15  1  0  0  0  0
  8 16  1  0  0  0  0
  8 17  2  0  0  0  0
  9 11  1  0  0  0  0
 10 15  1  0  0  0  0
 11 16  1  0  0  0  0
 13 14  1  0  0  0  0
 18 22  2  0  0  0  0
 19 22  2  0  0  0  0
 20 22  1  0  0  0  0
 21 22  1  0  0  0  0
  1 23  1  0  0  0  0
  2 24  1  0  0  0  0
  3 25  1  0  0  0  0
  4 26  1  0  0  0  0
  9 27  1  0  0  0  0
  9 28  1  0  0  0  0
  9 29  1  0  0  0  0
 10 30  1  0  0  0  0
 10 31  1  0  0  0  0
 10 32  1  0  0  0  0
 11 33  1  0  0  0  0
 16 34  1  0  0  0  0
M  END
> <Catalog ID>
Z4317483456

> <MW>
329.307

> <MW (desalted)>
329.307

> <ClogP>
-2.414

> <logS>
-1.486

> <HBD>
1

> <HBA>
6

> <TPSA>
116.07

> <RotBonds>
5

> <ROCS_ShapeQuery>
A71EV2A-x0451_0A_A71EV2A-x0310_0A_A71EV2A-x0416_0A_peptide

> <ROCS_TanimotoCombo>
0.534 

> <ROCS_ShapeTanimoto>
0.323 

> <ROCS_ColorTanimoto>
0.211 

> <ROCS_RefTversky>
0.290 

> <ROCS_RefColorTversky>
0.234 

> <ROCS_RefTverskyCombo>
0.523 

> <ROCS_FitTversky>
1.555 

> <ROCS_FitColorTversky>
0.686 

> <ROCS_FitTverskyCombo>
2.241 

> <ROCS_ColorScore>
-7.150

> <ROCS_Overlap>
2011.330

> <ROCS_Rank>
148                 

$$$$
untitled-dbase-10976_9250
  -OEChem-11132309573D

 46 47  0     1  0  0  0  0  0999 V2000
    8.1425    9.5584   23.5750 C   0  0  0  0  0  0  0  0  0  0  0  0
    9.2591   10.2093   23.0519 C   0  0  0  0  0  0  0  0  0  0  0  0
    8.7788   12.1876   24.3881 C   0  0  0  0  0  0  0  0  0  0  0  0
    7.3699   10.2351   24.5035 C   0  0  0  0  0  0  0  0  0  0  0  0
    7.6714   11.5400   24.9140 C   0  0  0  0  0  0  0  0  0  0  0  0
    9.5752   11.5147   23.4557 C   0  0  0  0  0  0  0  0  0  0  0  0
   13.9459   16.8735   20.0652 C   0  0  0  0  0  0  0  0  0  0  0  0
   12.8467   17.1318   20.7812 C   0  0  0  0  0  0  0  0  0  0  0  0
   12.4563   16.2301   21.9022 C   0  0  0  0  0  0  0  0  0  0  0  0
    5.6155   13.6728   27.1625 C   0  0  0  0  0  0  0  0  0  0  0  0
   11.1757   13.4415   23.1907 C   0  0  0  0  0  0  0  0  0  0  0  0
    6.1191    9.7768   25.1817 C   0  0  0  0  0  0  0  0  0  0  0  0
    5.9495   10.8623   26.2640 C   0  0  0  0  0  0  0  0  0  0  0  0
    4.0441   13.3804   29.0754 C   0  0  0  0  0  0  0  0  0  0  0  0
   11.7198   14.6165   20.1903 C   0  0  0  0  0  0  0  0  0  0  0  0
    6.9463   13.1688   26.6653 C   0  0  0  0  0  0  0  0  0  0  0  0
   12.4268   13.7398   22.3872 C   0  0  0  0  0  0  0  0  0  0  0  0
    6.7440   12.0104   25.8328 N   0  0  1  0  0  0  0  0  0  0  0  0
   10.6957   12.1504   22.9180 N   0  0  0  0  0  0  0  0  0  0  0  0
    5.2684   13.0806   28.3683 N   0  0  0  0  0  0  0  0  0  0  0  0
   12.2073   14.8890   21.5461 N   0  0  0  0  0  0  0  0  0  0  0  0
   12.3506   16.6839   23.0427 O   0  0  0  0  0  0  0  0  0  0  0  0
    4.9408   14.5050   26.5619 O   0  0  0  0  0  0  0  0  0  0  0  0
   10.6919   14.2535   23.9728 O   0  0  0  0  0  0  0  0  0  0  0  0
    7.8891    8.5523   23.2591 H   0  0  0  0  0  0  0  0  0  0  0  0
    9.8807    9.6946   22.3230 H   0  0  0  0  0  0  0  0  0  0  0  0
    9.0276   13.2007   24.6907 H   0  0  0  0  0  0  0  0  0  0  0  0
   14.2681   17.5012   19.2417 H   0  0  0  0  0  0  0  0  0  0  0  0
   14.5581   16.0100   20.3039 H   0  0  0  0  0  0  0  0  0  0  0  0
   12.2638   18.0192   20.5676 H   0  0  0  0  0  0  0  0  0  0  0  0
    5.2812    9.7877   24.4771 H   0  0  0  0  0  0  0  0  0  0  0  0
    6.2310    8.7843   25.6274 H   0  0  0  0  0  0  0  0  0  0  0  0
    4.8956   11.1271   26.3999 H   0  0  0  0  0  0  0  0  0  0  0  0
    6.3313   10.4913   27.2242 H   0  0  0  0  0  0  0  0  0  0  0  0
    4.2156   14.2178   29.7677 H   0  0  0  0  0  0  0  0  0  0  0  0
    3.2618   13.6564   28.3529 H   0  0  0  0  0  0  0  0  0  0  0  0
    3.7227   12.4950   29.6435 H   0  0  0  0  0  0  0  0  0  0  0  0
   12.5754   14.4552   19.5179 H   0  0  0  0  0  0  0  0  0  0  0  0
   11.0880   13.7162   20.2020 H   0  0  0  0  0  0  0  0  0  0  0  0
   11.1300   15.4738   19.8337 H   0  0  0  0  0  0  0  0  0  0  0  0
    7.4413   13.9502   26.0811 H   0  0  0  0  0  0  0  0  0  0  0  0
    7.5798   12.8949   27.5140 H   0  0  0  0  0  0  0  0  0  0  0  0
   12.6823   12.8755   21.7662 H   0  0  0  0  0  0  0  0  0  0  0  0
   13.2540   13.9364   23.0764 H   0  0  0  0  0  0  0  0  0  0  0  0
   11.2408   11.6096   22.2372 H   0  0  0  0  0  0  0  0  0  0  0  0
    5.9066   12.4026   28.7744 H   0  0  0  0  0  0  0  0  0  0  0  0
  1  2  2  0  0  0  0
  1  4  1  0  0  0  0
  2  6  1  0  0  0  0
  3  5  1  0  0  0  0
  3  6  2  0  0  0  0
  4  5  2  0  0  0  0
  4 12  1  0  0  0  0
  5 18  1  0  0  0  0
  6 19  1  0  0  0  0
  7  8  2  0  0  0  0
  8  9  1  0  0  0  0
  9 21  1  0  0  0  0
  9 22  2  0  0  0  0
 10 16  1  0  0  0  0
 10 20  1  0  0  0  0
 10 23  2  0  0  0  0
 11 17  1  0  0  0  0
 11 19  1  0  0  0  0
 11 24  2  0  0  0  0
 12 13  1  0  0  0  0
 13 18  1  0  0  0  0
 14 20  1  0  0  0  0
 15 21  1  0  0  0  0
 16 18  1  0  0  0  0
 17 21  1  0  0  0  0
  1 25  1  0  0  0  0
  2 26  1  0  0  0  0
  3 27  1  0  0  0  0
  7 28  1  0  0  0  0
  7 29  1  0  0  0  0
  8 30  1  0  0  0  0
 12 31  1  0  0  0  0
 12 32  1  0  0  0  0
 13 33  1  0  0  0  0
 13 34  1  0  0  0  0
 14 35  1  0  0  0  0
 14 36  1  0  0  0  0
 14 37  1  0  0  0  0
 15 38  1  0  0  0  0
 15 39  1  0  0  0  0
 15 40  1  0  0  0  0
 16 41  1  0  0  0  0
 16 42  1  0  0  0  0
 17 43  1  0  0  0  0
 17 44  1  0  0  0  0
 19 45  1  0  0  0  0
 20 46  1  0  0  0  0
M  END
> <Catalog ID>
Z2704738221

> <MW>
330.382

> <MW (desalted)>
330.382

> <ClogP>
0.431

> <logS>
-2.721

> <HBD>
2

> <HBA>
4

> <TPSA>
81.75

> <RotBonds>
6

> <ROCS_ShapeQuery>
A71EV2A-x0451_0A_A71EV2A-x0310_0A_A71EV2A-x0416_0A_peptide

> <ROCS_TanimotoCombo>
0.534 

> <ROCS_ShapeTanimoto>
0.352 

> <ROCS_ColorTanimoto>
0.182 

> <ROCS_RefTversky>
0.312 

> <ROCS_RefColorTversky>
0.201 

> <ROCS_RefTverskyCombo>
0.512 

> <ROCS_FitTversky>
1.577 

> <ROCS_FitColorTversky>
0.666 

> <ROCS_FitTverskyCombo>
2.243 

> <ROCS_ColorScore>
-6.127

> <ROCS_Overlap>
2165.145

> <ROCS_Rank>
149                 

$$$$
untitled-dbase-6229_31
  -OEChem-11132309573D

 52 54  0     1  0  0  0  0  0999 V2000
   13.6464   16.7594   18.4056 C   0  0  0  0  0  0  0  0  0  0  0  0
   14.7373   16.2998   19.1591 C   0  0  0  0  0  0  0  0  0  0  0  0
   12.3477   16.3500   18.7125 C   0  0  0  0  0  0  0  0  0  0  0  0
   14.5455   15.4257   20.2318 C   0  0  0  0  0  0  0  0  0  0  0  0
    9.6683   10.7035   23.6172 C   0  0  0  0  0  0  0  0  0  0  0  0
    9.3405   12.0148   23.8612 C   0  0  0  0  0  0  0  0  0  0  0  0
   12.1651   15.4935   19.7858 C   0  0  0  0  0  0  0  0  0  0  0  0
   13.2522   15.0362   20.5446 C   0  0  0  0  0  0  0  0  0  0  0  0
    8.0807   11.9521   24.4864 C   0  0  0  0  0  0  0  0  0  0  0  0
   10.1748   13.1948   23.5168 C   0  0  0  0  0  0  0  0  0  0  0  0
   13.5669   13.1975   23.7880 C   0  0  0  0  0  0  0  0  0  0  0  0
   10.8800   14.8932   20.2684 C   0  0  0  0  0  0  0  0  0  0  0  0
   12.7869   14.0796   21.6061 C   0  0  2  0  0  0  0  0  0  0  0  0
   11.2866   14.4409   21.6821 C   0  0  2  0  0  0  0  0  0  0  0  0
    6.8722   14.0557   23.8081 C   0  0  0  0  0  0  0  0  0  0  0  0
    7.9964   13.9207   26.0563 C   0  0  0  0  0  0  0  0  0  0  0  0
    5.8824   12.6836   25.6300 C   0  0  0  0  0  0  0  0  0  0  0  0
    8.5116    8.5256   24.0611 C   0  0  0  0  0  0  0  0  0  0  0  0
   14.3144   13.5871   25.0376 C   0  0  0  0  0  0  0  0  0  0  0  0
    7.2540   13.0735   24.9674 C   0  0  0  0  0  0  0  0  0  0  0  0
    7.6383   10.7001   24.6305 N   0  0  0  0  0  0  0  0  0  0  0  0
    8.6255    9.9639   24.0923 N   0  0  0  0  0  0  0  0  0  0  0  0
   10.4714   13.3628   22.1689 N   0  0  0  0  0  0  0  0  0  0  0  0
   13.4462   14.2359   22.8730 N   0  0  0  0  0  0  0  0  0  0  0  0
   10.5691   13.9336   24.4152 O   0  0  0  0  0  0  0  0  0  0  0  0
   13.1339   12.0589   23.6194 O   0  0  0  0  0  0  0  0  0  0  0  0
   15.1362   12.1445   25.6526 Cl  0  0  0  0  0  0  0  0  0  0  0  0
   13.8166   17.4334   17.5704 H   0  0  0  0  0  0  0  0  0  0  0  0
   15.7423   16.6217   18.8996 H   0  0  0  0  0  0  0  0  0  0  0  0
   11.5070   16.6945   18.1199 H   0  0  0  0  0  0  0  0  0  0  0  0
   15.3954   15.0621   20.7995 H   0  0  0  0  0  0  0  0  0  0  0  0
   10.5329   10.2438   23.1575 H   0  0  0  0  0  0  0  0  0  0  0  0
   10.0663   15.6238   20.2997 H   0  0  0  0  0  0  0  0  0  0  0  0
   10.6047   14.0488   19.6270 H   0  0  0  0  0  0  0  0  0  0  0  0
   12.9369   13.0504   21.2602 H   0  0  0  0  0  0  0  0  0  0  0  0
   11.1346   15.2831   22.3724 H   0  0  0  0  0  0  0  0  0  0  0  0
    6.2565   14.9000   24.1395 H   0  0  0  0  0  0  0  0  0  0  0  0
    7.7661   14.4778   23.3359 H   0  0  0  0  0  0  0  0  0  0  0  0
    6.3129   13.5189   23.0328 H   0  0  0  0  0  0  0  0  0  0  0  0
    7.3727   14.7506   26.4059 H   0  0  0  0  0  0  0  0  0  0  0  0
    8.2797   13.3383   26.9409 H   0  0  0  0  0  0  0  0  0  0  0  0
    8.9116   14.3521   25.6339 H   0  0  0  0  0  0  0  0  0  0  0  0
    5.3045   13.5510   25.9712 H   0  0  0  0  0  0  0  0  0  0  0  0
    5.2525   12.1375   24.9180 H   0  0  0  0  0  0  0  0  0  0  0  0
    6.0458   12.0420   26.5037 H   0  0  0  0  0  0  0  0  0  0  0  0
    8.9486    8.1325   24.9828 H   0  0  0  0  0  0  0  0  0  0  0  0
    7.4571    8.2453   23.9881 H   0  0  0  0  0  0  0  0  0  0  0  0
    9.0459    8.1396   23.1885 H   0  0  0  0  0  0  0  0  0  0  0  0
   15.0607   14.3643   24.8554 H   0  0  0  0  0  0  0  0  0  0  0  0
   13.6046   13.9428   25.7895 H   0  0  0  0  0  0  0  0  0  0  0  0
   10.1573   12.6688   21.4927 H   0  0  0  0  0  0  0  0  0  0  0  0
   13.8414   15.1453   23.1100 H   0  0  0  0  0  0  0  0  0  0  0  0
  1  2  1  0  0  0  0
  1  3  2  0  0  0  0
  2  4  2  0  0  0  0
  3  7  1  0  0  0  0
  4  8  1  0  0  0  0
  5  6  2  0  0  0  0
  5 22  1  0  0  0  0
  6  9  1  0  0  0  0
  6 10  1  0  0  0  0
  7  8  2  0  0  0  0
  7 12  1  0  0  0  0
  8 13  1  0  0  0  0
  9 20  1  0  0  0  0
  9 21  2  0  0  0  0
 10 23  1  0  0  0  0
 10 25  2  0  0  0  0
 11 19  1  0  0  0  0
 11 24  1  0  0  0  0
 11 26  2  0  0  0  0
 12 14  1  0  0  0  0
 13 14  1  0  0  0  0
 13 24  1  1  0  0  0
 14 23  1  6  0  0  0
 15 20  1  0  0  0  0
 16 20  1  0  0  0  0
 17 20  1  0  0  0  0
 18 22  1  0  0  0  0
 19 27  1  0  0  0  0
 21 22  1  0  0  0  0
  1 28  1  0  0  0  0
  2 29  1  0  0  0  0
  3 30  1  0  0  0  0
  4 31  1  0  0  0  0
  5 32  1  0  0  0  0
 12 33  1  0  0  0  0
 12 34  1  0  0  0  0
 13 35  1  0  0  0  0
 14 36  1  0  0  0  0
 15 37  1  0  0  0  0
 15 38  1  0  0  0  0
 15 39  1  0  0  0  0
 16 40  1  0  0  0  0
 16 41  1  0  0  0  0
 16 42  1  0  0  0  0
 17 43  1  0  0  0  0
 17 44  1  0  0  0  0
 17 45  1  0  0  0  0
 18 46  1  0  0  0  0
 18 47  1  0  0  0  0
 18 48  1  0  0  0  0
 19 49  1  0  0  0  0
 19 50  1  0  0  0  0
 23 51  1  0  0  0  0
 24 52  1  0  0  0  0
M  END
> <Catalog ID>
Z4439378645

> <MW>
388.891

> <MW (desalted)>
388.891

> <ClogP>
2.516

> <logS>
-3.638

> <HBD>
2

> <HBA>
3

> <TPSA>
76.02

> <RotBonds>
5

> <ROCS_ShapeQuery>
A71EV2A-x0451_0A_A71EV2A-x0310_0A_A71EV2A-x0416_0A_peptide

> <ROCS_TanimotoCombo>
0.534 

> <ROCS_ShapeTanimoto>
0.364 

> <ROCS_ColorTanimoto>
0.170 

> <ROCS_RefTversky>
0.325 

> <ROCS_RefColorTversky>
0.194 

> <ROCS_RefTverskyCombo>
0.518 

> <ROCS_FitTversky>
1.499 

> <ROCS_FitColorTversky>
0.583 

> <ROCS_FitTverskyCombo>
2.082 

> <ROCS_ColorScore>
-5.919

> <ROCS_Overlap>
2257.586

> <ROCS_Rank>
150                 

$$$$
untitled-dbase-9928_1485
  -OEChem-11132309573D

 54 56  0     1  0  0  0  0  0999 V2000
    6.7778   13.0880   25.8121 C   0  0  0  0  0  0  0  0  0  0  0  0
    6.3217   11.8319   26.1967 C   0  0  0  0  0  0  0  0  0  0  0  0
    7.7939   13.2021   24.8608 C   0  0  0  0  0  0  0  0  0  0  0  0
    6.8715   10.6909   25.6187 C   0  0  0  0  0  0  0  0  0  0  0  0
    8.3798   12.0620   24.2862 C   0  0  0  0  0  0  0  0  0  0  0  0
    7.8820   10.8033   24.6567 C   0  0  0  0  0  0  0  0  0  0  0  0
   16.8001   18.2584   21.1430 C   0  0  0  0  0  0  0  0  0  0  0  0
   16.3770   17.0140   20.9109 C   0  0  0  0  0  0  0  0  0  0  0  0
   15.6649   16.7260   19.6485 C   0  0  0  0  0  0  0  0  0  0  0  0
   11.7950   14.8608   22.1771 C   0  0  0  0  0  0  0  0  0  0  0  0
   12.1427   16.2859   18.6717 C   0  0  0  0  0  0  0  0  0  0  0  0
   11.4895   15.4715   19.7889 C   0  0  0  0  0  0  0  0  0  0  0  0
   10.1689   10.8263   23.0702 C   0  0  0  0  0  0  0  0  0  0  0  0
   13.6203   15.9515   18.5163 C   0  0  0  0  0  0  0  0  0  0  0  0
   13.6574   15.9899   21.0146 C   0  0  0  0  0  0  0  0  0  0  0  0
    9.4786   12.1836   23.2524 C   0  0  2  0  0  0  0  0  0  0  0  0
   12.4877   15.0178   20.8587 C   0  0  1  0  0  0  0  0  0  0  0  0
    9.1543    9.6792   22.9687 C   0  0  0  0  0  0  0  0  0  0  0  0
    8.2606    9.7741   21.7230 C   0  0  0  0  0  0  0  0  0  0  0  0
    9.9168    8.3465   22.9187 C   0  0  0  0  0  0  0  0  0  0  0  0
   10.5391   13.2406   23.5844 C   0  0  0  0  0  0  0  0  0  0  0  0
   14.3627   16.2376   19.7474 N   0  0  0  0  0  0  0  0  0  0  0  0
   11.2379   13.6016   22.3998 N   0  0  0  0  0  0  0  0  0  0  0  0
   16.2554   16.9415   18.5893 O   0  0  0  0  0  0  0  0  0  0  0  0
   11.7577   15.8058   22.9564 O   0  0  0  0  0  0  0  0  0  0  0  0
    8.3271    9.6138   24.1419 O   0  0  0  0  0  0  0  0  0  0  0  0
    6.3430   13.9817   26.2502 H   0  0  0  0  0  0  0  0  0  0  0  0
    5.5333   11.7413   26.9378 H   0  0  0  0  0  0  0  0  0  0  0  0
    8.1175   14.1989   24.5742 H   0  0  0  0  0  0  0  0  0  0  0  0
    6.5002    9.7125   25.9134 H   0  0  0  0  0  0  0  0  0  0  0  0
   17.3281   18.5312   22.0505 H   0  0  0  0  0  0  0  0  0  0  0  0
   16.6204   19.0395   20.4118 H   0  0  0  0  0  0  0  0  0  0  0  0
   16.5375   16.2084   21.6154 H   0  0  0  0  0  0  0  0  0  0  0  0
   11.6194   16.0893   17.7250 H   0  0  0  0  0  0  0  0  0  0  0  0
   12.0256   17.3614   18.8722 H   0  0  0  0  0  0  0  0  0  0  0  0
   10.6823   16.0650   20.2442 H   0  0  0  0  0  0  0  0  0  0  0  0
   11.0099   14.5855   19.3445 H   0  0  0  0  0  0  0  0  0  0  0  0
   10.8158   10.8511   22.1843 H   0  0  0  0  0  0  0  0  0  0  0  0
   10.8208   10.6444   23.9370 H   0  0  0  0  0  0  0  0  0  0  0  0
   13.7516   14.8845   18.2988 H   0  0  0  0  0  0  0  0  0  0  0  0
   14.0371   16.5067   17.6699 H   0  0  0  0  0  0  0  0  0  0  0  0
   13.2859   16.9207   21.4547 H   0  0  0  0  0  0  0  0  0  0  0  0
   14.4039   15.5796   21.7104 H   0  0  0  0  0  0  0  0  0  0  0  0
    9.0059   12.4694   22.3040 H   0  0  0  0  0  0  0  0  0  0  0  0
   12.8741   14.0350   20.5899 H   0  0  0  0  0  0  0  0  0  0  0  0
    7.5689    8.9372   21.7111 H   0  0  0  0  0  0  0  0  0  0  0  0
    8.8804    9.7461   20.8319 H   0  0  0  0  0  0  0  0  0  0  0  0
    7.7036   10.7059   21.7494 H   0  0  0  0  0  0  0  0  0  0  0  0
    9.2071    7.5279   22.8467 H   0  0  0  0  0  0  0  0  0  0  0  0
   10.5087    8.2361   23.8222 H   0  0  0  0  0  0  0  0  0  0  0  0
   10.5709    8.3380   22.0520 H   0  0  0  0  0  0  0  0  0  0  0  0
   10.0135   14.0960   24.0006 H   0  0  0  0  0  0  0  0  0  0  0  0
   11.2127   12.7953   24.3117 H   0  0  0  0  0  0  0  0  0  0  0  0
   11.3386   12.8927   21.6641 H   0  0  0  0  0  0  0  0  0  0  0  0
  1  2  1  0  0  0  0
  1  3  2  0  0  0  0
  2  4  2  0  0  0  0
  3  5  1  0  0  0  0
  4  6  1  0  0  0  0
  5  6  2  0  0  0  0
  5 16  1  0  0  0  0
  6 26  1  0  0  0  0
  7  8  2  0  0  0  0
  8  9  1  0  0  0  0
  9 22  1  0  0  0  0
  9 24  2  0  0  0  0
 10 17  1  0  0  0  0
 10 23  1  0  0  0  0
 10 25  2  0  0  0  0
 11 12  1  0  0  0  0
 11 14  1  0  0  0  0
 12 17  1  0  0  0  0
 13 16  1  0  0  0  0
 13 18  1  0  0  0  0
 14 22  1  0  0  0  0
 15 17  1  0  0  0  0
 15 22  1  0  0  0  0
 16 21  1  0  0  0  0
 18 19  1  0  0  0  0
 18 20  1  0  0  0  0
 18 26  1  0  0  0  0
 21 23  1  0  0  0  0
  1 27  1  0  0  0  0
  2 28  1  0  0  0  0
  3 29  1  0  0  0  0
  4 30  1  0  0  0  0
  7 31  1  0  0  0  0
  7 32  1  0  0  0  0
  8 33  1  0  0  0  0
 11 34  1  0  0  0  0
 11 35  1  0  0  0  0
 12 36  1  0  0  0  0
 12 37  1  0  0  0  0
 13 38  1  0  0  0  0
 13 39  1  0  0  0  0
 14 40  1  0  0  0  0
 14 41  1  0  0  0  0
 15 42  1  0  0  0  0
 15 43  1  0  0  0  0
 16 44  1  0  0  0  0
 17 45  1  0  0  0  0
 19 46  1  0  0  0  0
 19 47  1  0  0  0  0
 19 48  1  0  0  0  0
 20 49  1  0  0  0  0
 20 50  1  0  0  0  0
 20 51  1  0  0  0  0
 21 52  1  0  0  0  0
 21 53  1  0  0  0  0
 23 54  1  0  0  0  0
M  END
> <Catalog ID>
Z4123799260

> <MW>
356.459

> <MW (desalted)>
356.459

> <ClogP>
2.935

> <logS>
-4.009

> <HBD>
1

> <HBA>
3

> <TPSA>
58.64

> <RotBonds>
4

> <ROCS_ShapeQuery>
A71EV2A-x0451_0A_A71EV2A-x0310_0A_A71EV2A-x0416_0A_peptide

> <ROCS_TanimotoCombo>
0.534 

> <ROCS_ShapeTanimoto>
0.363 

> <ROCS_ColorTanimoto>
0.171 

> <ROCS_RefTversky>
0.323 

> <ROCS_RefColorTversky>
0.194 

> <ROCS_RefTverskyCombo>
0.517 

> <ROCS_FitTversky>
1.534 

> <ROCS_FitColorTversky>
0.585 

> <ROCS_FitTverskyCombo>
2.119 

> <ROCS_ColorScore>
-5.933

> <ROCS_Overlap>
2242.762

> <ROCS_Rank>
151                 

$$$$
untitled-dbase-6766_10684
  -OEChem-11132309573D

 42 44  0     0  0  0  0  0  0999 V2000
    4.8981   11.5322   28.2118 C   0  0  0  0  0  0  0  0  0  0  0  0
    4.6116   12.8971   28.2338 C   0  0  0  0  0  0  0  0  0  0  0  0
    5.7986   11.0235   27.2758 C   0  0  0  0  0  0  0  0  0  0  0  0
   11.9949   15.3835   19.2205 C   0  0  0  0  0  0  0  0  0  0  0  0
   14.1367   15.6020   20.3167 C   0  0  0  0  0  0  0  0  0  0  0  0
    5.2255   13.7534   27.3196 C   0  0  0  0  0  0  0  0  0  0  0  0
   12.4306   16.2293   18.2006 C   0  0  0  0  0  0  0  0  0  0  0  0
   14.5725   16.4478   19.2967 C   0  0  0  0  0  0  0  0  0  0  0  0
    6.4124   11.8798   26.3617 C   0  0  0  0  0  0  0  0  0  0  0  0
   12.8479   15.0699   20.2787 C   0  0  0  0  0  0  0  0  0  0  0  0
    6.1259   13.2447   26.3836 C   0  0  0  0  0  0  0  0  0  0  0  0
   13.7194   16.7615   18.2386 C   0  0  0  0  0  0  0  0  0  0  0  0
    7.3413   11.3277   25.4022 C   0  0  0  0  0  0  0  0  0  0  0  0
    8.8241   10.8438   24.0433 C   0  0  0  0  0  0  0  0  0  0  0  0
   12.3884   14.1760   21.3558 C   0  0  0  0  0  0  0  0  0  0  0  0
   11.7562   14.5794   22.4648 C   0  0  0  0  0  0  0  0  0  0  0  0
    6.7641   14.1933   25.4199 C   0  0  0  0  0  0  0  0  0  0  0  0
   10.0072   10.9664   23.1850 C   0  0  0  0  0  0  0  0  0  0  0  0
    8.3881   11.8686   24.8318 N   0  0  0  0  0  0  0  0  0  0  0  0
    8.1051    9.7190   24.1022 N   0  0  0  0  0  0  0  0  0  0  0  0
   10.2297   12.3174   22.7063 N   0  0  0  0  0  0  0  0  0  0  0  0
   12.4738   12.5825   23.9461 O   0  0  0  0  0  0  0  0  0  0  0  0
   10.5203   13.9937   24.6503 O   0  0  0  0  0  0  0  0  0  0  0  0
    7.1009   10.0454   25.0223 O   0  0  0  0  0  0  0  0  0  0  0  0
   11.2933   13.3544   23.5999 S   0  0  0  0  0  0  0  0  0  0  0  0
   14.2566   17.8047   16.9802 Cl  0  0  0  0  0  0  0  0  0  0  0  0
    4.4199   10.8657   28.9236 H   0  0  0  0  0  0  0  0  0  0  0  0
    3.9105   13.2931   28.9626 H   0  0  0  0  0  0  0  0  0  0  0  0
    6.0105    9.9568   27.2726 H   0  0  0  0  0  0  0  0  0  0  0  0
   10.9873   14.9765   19.1779 H   0  0  0  0  0  0  0  0  0  0  0  0
   14.8128   15.3662   21.1352 H   0  0  0  0  0  0  0  0  0  0  0  0
    4.9951   14.8153   27.3453 H   0  0  0  0  0  0  0  0  0  0  0  0
   11.7549   16.4644   17.3821 H   0  0  0  0  0  0  0  0  0  0  0  0
   15.5794   16.8552   19.3397 H   0  0  0  0  0  0  0  0  0  0  0  0
   12.5787   13.1165   21.1964 H   0  0  0  0  0  0  0  0  0  0  0  0
   11.5142   15.6116   22.6826 H   0  0  0  0  0  0  0  0  0  0  0  0
    7.6983   14.5847   25.8372 H   0  0  0  0  0  0  0  0  0  0  0  0
    6.9855   13.6983   24.4670 H   0  0  0  0  0  0  0  0  0  0  0  0
    6.0990   15.0359   25.1966 H   0  0  0  0  0  0  0  0  0  0  0  0
   10.9376   10.6633   23.7052 H   0  0  0  0  0  0  0  0  0  0  0  0
    9.9497   10.3251   22.2834 H   0  0  0  0  0  0  0  0  0  0  0  0
    9.3829   12.7912   22.3349 H   0  0  0  0  0  0  0  0  0  0  0  0
  1  2  1  0  0  0  0
  1  3  2  0  0  0  0
  2  6  2  0  0  0  0
  3  9  1  0  0  0  0
  4  7  2  0  0  0  0
  4 10  1  0  0  0  0
  5  8  1  0  0  0  0
  5 10  2  0  0  0  0
  6 11  1  0  0  0  0
  7 12  1  0  0  0  0
  8 12  2  0  0  0  0
  9 11  2  0  0  0  0
  9 13  1  0  0  0  0
 10 15  1  0  0  0  0
 11 17  1  0  0  0  0
 12 26  1  0  0  0  0
 13 19  2  0  0  0  0
 13 24  1  0  0  0  0
 14 18  1  0  0  0  0
 14 19  1  0  0  0  0
 14 20  2  0  0  0  0
 15 16  2  0  0  0  0
 16 25  1  4  0  0  0
 18 21  1  0  0  0  0
 20 24  1  0  0  0  0
 21 25  1  0  0  0  0
 22 25  2  0  0  0  0
 23 25  2  0  0  0  0
  1 27  1  0  0  0  0
  2 28  1  0  0  0  0
  3 29  1  0  0  0  0
  4 30  1  0  0  0  0
  5 31  1  0  0  0  0
  6 32  1  0  0  0  0
  7 33  1  0  0  0  0
  8 34  1  0  0  0  0
 15 35  1  0  0  0  0
 16 36  1  0  0  0  0
 17 37  1  0  0  0  0
 17 38  1  0  0  0  0
 17 39  1  0  0  0  0
 18 40  1  0  0  0  0
 18 41  1  0  0  0  0
 21 42  1  0  0  0  0
M  END
> <Catalog ID>
Z1726959382

> <MW>
389.856

> <MW (desalted)>
389.856

> <ClogP>
3.42

> <logS>
-5.641

> <HBD>
1

> <HBA>
4

> <TPSA>
85.09

> <RotBonds>
5

> <ROCS_ShapeQuery>
A71EV2A-x0451_0A_A71EV2A-x0310_0A_A71EV2A-x0416_0A_peptide

> <ROCS_TanimotoCombo>
0.534 

> <ROCS_ShapeTanimoto>
0.350 

> <ROCS_ColorTanimoto>
0.184 

> <ROCS_RefTversky>
0.313 

> <ROCS_RefColorTversky>
0.202 

> <ROCS_RefTverskyCombo>
0.516 

> <ROCS_FitTversky>
1.495 

> <ROCS_FitColorTversky>
0.672 

> <ROCS_FitTverskyCombo>
2.167 

> <ROCS_ColorScore>
-6.179

> <ROCS_Overlap>
2178.953

> <ROCS_Rank>
152                 

$$$$
untitled-dbase-2714_1862
  -OEChem-11132309573D

 53 55  0     0  0  0  0  0  0999 V2000
   12.8709   15.9442   18.2929 C   0  0  0  0  0  0  0  0  0  0  0  0
   14.6158   16.2333   19.9386 C   0  0  0  0  0  0  0  0  0  0  0  0
   12.0495   15.3721   19.2642 C   0  0  0  0  0  0  0  0  0  0  0  0
   13.7944   15.6612   20.9100 C   0  0  0  0  0  0  0  0  0  0  0  0
    8.2019   11.9603   24.2239 C   0  0  0  0  0  0  0  0  0  0  0  0
   14.1541   16.3748   18.6300 C   0  0  0  0  0  0  0  0  0  0  0  0
   12.5112   15.2306   20.5728 C   0  0  0  0  0  0  0  0  0  0  0  0
    7.5043   10.7793   24.5410 C   0  0  0  0  0  0  0  0  0  0  0  0
    9.3461   11.5263   23.6003 C   0  0  0  0  0  0  0  0  0  0  0  0
   14.7791   17.1936   16.3520 C   0  0  0  0  0  0  0  0  0  0  0  0
   12.0799   13.9293   22.6622 C   0  0  0  0  0  0  0  0  0  0  0  0
   10.9107   13.4711   23.4833 C   0  0  0  0  0  0  0  0  0  0  0  0
   16.1997   17.7802   16.2469 C   0  0  0  0  0  0  0  0  0  0  0  0
   16.3242   17.4554   17.7491 C   0  0  0  0  0  0  0  0  0  0  0  0
    5.9123   11.8421   26.1811 C   0  0  0  0  0  0  0  0  0  0  0  0
    6.0445    9.3312   25.9991 C   0  0  0  0  0  0  0  0  0  0  0  0
   10.0032    8.9935   21.5403 C   0  0  0  0  0  0  0  0  0  0  0  0
   10.2928    7.9345   23.8208 C   0  0  0  0  0  0  0  0  0  0  0  0
    6.2050   10.6614   25.2243 C   0  0  0  0  0  0  0  0  0  0  0  0
   10.2352    9.2439   23.0317 C   0  0  0  0  0  0  0  0  0  0  0  0
    8.1512    9.6778   24.1509 N   0  0  0  0  0  0  0  0  0  0  0  0
    9.2672   10.1648   23.5822 N   0  0  0  0  0  0  0  0  0  0  0  0
   14.9759   16.9467   17.6585 N   0  0  0  0  0  0  0  0  0  0  0  0
   11.6899   14.6584   21.5447 N   0  0  0  0  0  0  0  0  0  0  0  0
   10.4324   12.2503   23.0573 N   0  0  0  0  0  0  0  0  0  0  0  0
   13.8522   17.0147   15.5957 O   0  0  0  0  0  0  0  0  0  0  0  0
   13.1880   13.6040   23.0544 O   0  0  0  0  0  0  0  0  0  0  0  0
   10.5408   14.2154   24.3759 O   0  0  0  0  0  0  0  0  0  0  0  0
   12.5003   16.0493   17.2764 H   0  0  0  0  0  0  0  0  0  0  0  0
   15.6139   16.5657   20.2125 H   0  0  0  0  0  0  0  0  0  0  0  0
   11.0515   15.0398   18.9895 H   0  0  0  0  0  0  0  0  0  0  0  0
   14.1648   15.5553   21.9263 H   0  0  0  0  0  0  0  0  0  0  0  0
    7.9142   12.9833   24.4205 H   0  0  0  0  0  0  0  0  0  0  0  0
   16.8643   17.2149   15.5891 H   0  0  0  0  0  0  0  0  0  0  0  0
   16.2226   18.8428   15.9937 H   0  0  0  0  0  0  0  0  0  0  0  0
   17.0652   16.6921   18.0022 H   0  0  0  0  0  0  0  0  0  0  0  0
   16.4224   18.3226   18.4079 H   0  0  0  0  0  0  0  0  0  0  0  0
    6.6818   11.9267   26.9562 H   0  0  0  0  0  0  0  0  0  0  0  0
    4.9449   11.7351   26.6836 H   0  0  0  0  0  0  0  0  0  0  0  0
    5.8971   12.7842   25.6217 H   0  0  0  0  0  0  0  0  0  0  0  0
    6.8337    9.2381   26.7535 H   0  0  0  0  0  0  0  0  0  0  0  0
    6.1077    8.4596   25.3386 H   0  0  0  0  0  0  0  0  0  0  0  0
    5.0802    9.2860   26.5171 H   0  0  0  0  0  0  0  0  0  0  0  0
    9.0380    8.5115   21.3521 H   0  0  0  0  0  0  0  0  0  0  0  0
   10.7849    8.3432   21.1334 H   0  0  0  0  0  0  0  0  0  0  0  0
   10.0214    9.9344   20.9790 H   0  0  0  0  0  0  0  0  0  0  0  0
    9.3376    7.4012   23.7625 H   0  0  0  0  0  0  0  0  0  0  0  0
   10.5050    8.1313   24.8771 H   0  0  0  0  0  0  0  0  0  0  0  0
   11.0726    7.2641   23.4439 H   0  0  0  0  0  0  0  0  0  0  0  0
    5.3704   10.6707   24.4878 H   0  0  0  0  0  0  0  0  0  0  0  0
   11.2166    9.7254   23.1306 H   0  0  0  0  0  0  0  0  0  0  0  0
   10.6790   14.7897   21.4269 H   0  0  0  0  0  0  0  0  0  0  0  0
   10.9045   11.8115   22.2695 H   0  0  0  0  0  0  0  0  0  0  0  0
  1  3  2  0  0  0  0
  1  6  1  0  0  0  0
  2  4  1  0  0  0  0
  2  6  2  0  0  0  0
  3  7  1  0  0  0  0
  4  7  2  0  0  0  0
  5  8  1  0  0  0  0
  5  9  2  0  0  0  0
  6 23  1  0  0  0  0
  7 24  1  0  0  0  0
  8 19  1  0  0  0  0
  8 21  2  0  0  0  0
  9 22  1  0  0  0  0
  9 25  1  0  0  0  0
 10 13  1  0  0  0  0
 10 23  1  0  0  0  0
 10 26  2  0  0  0  0
 11 12  1  0  0  0  0
 11 24  1  0  0  0  0
 11 27  2  0  0  0  0
 12 25  1  0  0  0  0
 12 28  2  0  0  0  0
 13 14  1  0  0  0  0
 14 23  1  0  0  0  0
 15 19  1  0  0  0  0
 16 19  1  0  0  0  0
 17 20  1  0  0  0  0
 18 20  1  0  0  0  0
 20 22  1  0  0  0  0
 21 22  1  0  0  0  0
  1 29  1  0  0  0  0
  2 30  1  0  0  0  0
  3 31  1  0  0  0  0
  4 32  1  0  0  0  0
  5 33  1  0  0  0  0
 13 34  1  0  0  0  0
 13 35  1  0  0  0  0
 14 36  1  0  0  0  0
 14 37  1  0  0  0  0
 15 38  1  0  0  0  0
 15 39  1  0  0  0  0
 15 40  1  0  0  0  0
 16 41  1  0  0  0  0
 16 42  1  0  0  0  0
 16 43  1  0  0  0  0
 17 44  1  0  0  0  0
 17 45  1  0  0  0  0
 17 46  1  0  0  0  0
 18 47  1  0  0  0  0
 18 48  1  0  0  0  0
 18 49  1  0  0  0  0
 19 50  1  0  0  0  0
 20 51  1  0  0  0  0
 24 52  1  0  0  0  0
 25 53  1  0  0  0  0
M  END
> <Catalog ID>
Z2235002819

> <MW>
383.444

> <MW (desalted)>
383.444

> <ClogP>
1.021

> <logS>
-4.526

> <HBD>
2

> <HBA>
4

> <TPSA>
96.33

> <RotBonds>
6

> <ROCS_ShapeQuery>
A71EV2A-x0451_0A_A71EV2A-x0310_0A_A71EV2A-x0416_0A_peptide

> <ROCS_TanimotoCombo>
0.534 

> <ROCS_ShapeTanimoto>
0.350 

> <ROCS_ColorTanimoto>
0.183 

> <ROCS_RefTversky>
0.318 

> <ROCS_RefColorTversky>
0.216 

> <ROCS_RefTverskyCombo>
0.534 

> <ROCS_FitTversky>
1.411 

> <ROCS_FitColorTversky>
0.550 

> <ROCS_FitTverskyCombo>
1.961 

> <ROCS_ColorScore>
-6.617

> <ROCS_Overlap>
2212.013

> <ROCS_Rank>
153                 

$$$$
untitled-dbase-9122_13866
  -OEChem-11132309573D

 51 53  0     0  0  0  0  0  0999 V2000
   12.8581   11.2245   24.4103 C   0  0  0  0  0  0  0  0  0  0  0  0
    4.0981   11.5835   29.2815 C   0  0  0  0  0  0  0  0  0  0  0  0
    3.3896   11.8682   28.1141 C   0  0  0  0  0  0  0  0  0  0  0  0
    5.4781   11.7815   29.3256 C   0  0  0  0  0  0  0  0  0  0  0  0
    7.4117    7.1039   22.8828 C   0  0  0  0  0  0  0  0  0  0  0  0
    4.0613   12.3508   26.9909 C   0  0  0  0  0  0  0  0  0  0  0  0
    6.1498   12.2640   28.2024 C   0  0  0  0  0  0  0  0  0  0  0  0
    7.0719    8.2251   23.6937 C   0  0  0  0  0  0  0  0  0  0  0  0
    8.5250   12.2550   25.5899 C   0  0  0  0  0  0  0  0  0  0  0  0
    8.6540    7.2416   22.3038 C   0  0  0  0  0  0  0  0  0  0  0  0
    9.0903   11.1542   24.9939 C   0  0  0  0  0  0  0  0  0  0  0  0
    5.4413   12.5487   27.0350 C   0  0  0  0  0  0  0  0  0  0  0  0
    7.9991   10.4469   24.4545 C   0  0  0  0  0  0  0  0  0  0  0  0
    8.0677    9.1771   23.7038 C   0  0  0  0  0  0  0  0  0  0  0  0
   10.5275   10.8419   24.9606 C   0  0  0  0  0  0  0  0  0  0  0  0
   11.4825   11.6064   24.3958 C   0  0  0  0  0  0  0  0  0  0  0  0
   11.0297   12.8999   23.7673 C   0  0  0  0  0  0  0  0  0  0  0  0
   12.6131   16.6652   23.8515 C   0  0  0  0  0  0  0  0  0  0  0  0
    6.1666   13.0690   25.8235 C   0  0  0  0  0  0  0  0  0  0  0  0
   11.3907   14.6927   20.9914 C   0  0  0  0  0  0  0  0  0  0  0  0
   10.2462   13.9318   21.6476 C   0  0  0  0  0  0  0  0  0  0  0  0
   12.3964   15.2329   22.0009 C   0  0  0  0  0  0  0  0  0  0  0  0
   13.9774   10.9178   24.4203 N   0  0  0  0  0  0  0  0  0  0  0  0
    6.8292   11.0478   24.6875 N   0  0  0  0  0  0  0  0  0  0  0  0
    7.1820   12.1442   25.3798 N   0  0  0  0  0  0  0  0  0  0  0  0
   10.7055   12.8010   22.4232 N   0  0  0  0  0  0  0  0  0  0  0  0
   10.9581   13.9429   24.4154 O   0  0  0  0  0  0  0  0  0  0  0  0
   11.7213   16.1065   22.8963 O   0  0  0  0  0  0  0  0  0  0  0  0
    9.4052    8.7179   22.7382 S   0  0  0  0  0  0  0  0  0  0  0  0
    3.5747   11.2091   30.1564 H   0  0  0  0  0  0  0  0  0  0  0  0
    2.3149   11.7152   28.0799 H   0  0  0  0  0  0  0  0  0  0  0  0
    6.0298   11.5610   30.2346 H   0  0  0  0  0  0  0  0  0  0  0  0
    6.7773    6.2400   22.7325 H   0  0  0  0  0  0  0  0  0  0  0  0
    3.5011   12.5697   26.0856 H   0  0  0  0  0  0  0  0  0  0  0  0
    7.2251   12.4151   28.2459 H   0  0  0  0  0  0  0  0  0  0  0  0
    6.1409    8.3204   24.2393 H   0  0  0  0  0  0  0  0  0  0  0  0
    8.9503   13.0890   26.1325 H   0  0  0  0  0  0  0  0  0  0  0  0
    9.1570    6.5460   21.6471 H   0  0  0  0  0  0  0  0  0  0  0  0
   10.7721    9.8928   25.4326 H   0  0  0  0  0  0  0  0  0  0  0  0
   12.0614   17.3294   24.5212 H   0  0  0  0  0  0  0  0  0  0  0  0
   13.3994   17.2217   23.3353 H   0  0  0  0  0  0  0  0  0  0  0  0
   13.0630   15.8570   24.4329 H   0  0  0  0  0  0  0  0  0  0  0  0
    5.4735   13.2428   24.9913 H   0  0  0  0  0  0  0  0  0  0  0  0
    6.6482   14.0319   26.0332 H   0  0  0  0  0  0  0  0  0  0  0  0
   11.9123   14.0287   20.2908 H   0  0  0  0  0  0  0  0  0  0  0  0
   11.0024   15.5216   20.3861 H   0  0  0  0  0  0  0  0  0  0  0  0
    9.7020   14.5888   22.3332 H   0  0  0  0  0  0  0  0  0  0  0  0
    9.5405   13.5592   20.8983 H   0  0  0  0  0  0  0  0  0  0  0  0
   12.8476   14.4239   22.5836 H   0  0  0  0  0  0  0  0  0  0  0  0
   13.1893   15.7958   21.4982 H   0  0  0  0  0  0  0  0  0  0  0  0
   10.7938   11.8998   21.9657 H   0  0  0  0  0  0  0  0  0  0  0  0
  1 16  1  0  0  0  0
  1 23  3  0  0  0  0
  2  3  1  0  0  0  0
  2  4  2  0  0  0  0
  3  6  2  0  0  0  0
  4  7  1  0  0  0  0
  5  8  1  0  0  0  0
  5 10  2  0  0  0  0
  6 12  1  0  0  0  0
  7 12  2  0  0  0  0
  8 14  2  0  0  0  0
  9 11  2  0  0  0  0
  9 25  1  0  0  0  0
 10 29  1  0  0  0  0
 11 13  1  0  0  0  0
 11 15  1  4  0  0  0
 12 19  1  0  0  0  0
 13 14  1  0  0  0  0
 13 24  2  0  0  0  0
 14 29  1  0  0  0  0
 15 16  2  0  0  0  0
 16 17  1  0  0  0  0
 17 26  1  0  0  0  0
 17 27  2  0  0  0  0
 18 28  1  0  0  0  0
 19 25  1  0  0  0  0
 20 21  1  0  0  0  0
 20 22  1  0  0  0  0
 21 26  1  0  0  0  0
 22 28  1  0  0  0  0
 24 25  1  0  0  0  0
  2 30  1  0  0  0  0
  3 31  1  0  0  0  0
  4 32  1  0  0  0  0
  5 33  1  0  0  0  0
  6 34  1  0  0  0  0
  7 35  1  0  0  0  0
  8 36  1  0  0  0  0
  9 37  1  0  0  0  0
 10 38  1  0  0  0  0
 15 39  1  0  0  0  0
 18 40  1  0  0  0  0
 18 41  1  0  0  0  0
 18 42  1  0  0  0  0
 19 43  1  0  0  0  0
 19 44  1  0  0  0  0
 20 45  1  0  0  0  0
 20 46  1  0  0  0  0
 21 47  1  0  0  0  0
 21 48  1  0  0  0  0
 22 49  1  0  0  0  0
 22 50  1  0  0  0  0
 26 51  1  0  0  0  0
M  END
> <Catalog ID>
Z46142066

> <MW>
406.501

> <MW (desalted)>
406.501

> <ClogP>
3.757

> <logS>
-4.248

> <HBD>
1

> <HBA>
4

> <TPSA>
79.94

> <RotBonds>
9

> <ROCS_ShapeQuery>
A71EV2A-x0451_0A_A71EV2A-x0310_0A_A71EV2A-x0416_0A_peptide

> <ROCS_TanimotoCombo>
0.534 

> <ROCS_ShapeTanimoto>
0.348 

> <ROCS_ColorTanimoto>
0.185 

> <ROCS_RefTversky>
0.317 

> <ROCS_RefColorTversky>
0.203 

> <ROCS_RefTverskyCombo>
0.520 

> <ROCS_FitTversky>
1.399 

> <ROCS_FitColorTversky>
0.676 

> <ROCS_FitTverskyCombo>
2.075 

> <ROCS_ColorScore>
-6.211

> <ROCS_Overlap>
2204.858

> <ROCS_Rank>
154                 

$$$$
untitled-dbase-6064_6998
  -OEChem-11132309573D

 65 68  0     0  0  0  0  0  0999 V2000
    8.2082    9.6016   24.1911 C   0  0  0  0  0  0  0  0  0  0  0  0
    7.2252   10.3672   24.8181 C   0  0  0  0  0  0  0  0  0  0  0  0
   14.4021   14.0362   21.6980 C   0  0  0  0  0  0  0  0  0  0  0  0
    8.3700   12.3863   24.1475 C   0  0  0  0  0  0  0  0  0  0  0  0
   12.0704   13.9415   22.2797 C   0  0  0  0  0  0  0  0  0  0  0  0
   13.3944   13.6256   22.5635 C   0  0  0  0  0  0  0  0  0  0  0  0
    9.2721   10.2284   23.5423 C   0  0  0  0  0  0  0  0  0  0  0  0
    9.3530   11.6207   23.5205 C   0  0  0  0  0  0  0  0  0  0  0  0
    7.3060   11.7595   24.7963 C   0  0  0  0  0  0  0  0  0  0  0  0
   14.0364   14.7546   20.5711 C   0  0  0  0  0  0  0  0  0  0  0  0
   11.8090   14.6643   21.1269 C   0  0  0  0  0  0  0  0  0  0  0  0
   10.9917   13.5139   23.1870 C   0  0  0  0  0  0  0  0  0  0  0  0
   12.4247    7.2567   22.4046 C   0  0  0  0  0  0  0  0  0  0  0  0
   11.1904    6.4620   21.9798 C   0  0  0  0  0  0  0  0  0  0  0  0
   12.2319    8.1322   23.6393 C   0  0  0  0  0  0  0  0  0  0  0  0
    9.8412    7.1762   22.0647 C   0  0  0  0  0  0  0  0  0  0  0  0
   11.6479    9.5146   23.3265 C   0  0  0  0  0  0  0  0  0  0  0  0
    9.8962    8.6628   21.7309 C   0  0  0  0  0  0  0  0  0  0  0  0
    6.3276   11.7810   28.1346 C   0  0  0  0  0  0  0  0  0  0  0  0
    4.1369   11.4782   27.0562 C   0  0  0  0  0  0  0  0  0  0  0  0
    5.7037   12.8821   28.9793 C   0  0  0  0  0  0  0  0  0  0  0  0
    3.6017   12.5916   27.9443 C   0  0  0  0  0  0  0  0  0  0  0  0
   13.7643   12.8497   23.7853 C   0  0  0  0  0  0  0  0  0  0  0  0
   15.0921   15.2121   19.6206 C   0  0  0  0  0  0  0  0  0  0  0  0
   12.7613   15.0804   20.2621 N   0  0  0  0  0  0  0  0  0  0  0  0
   10.2437    9.4435   22.9222 N   0  0  0  0  0  0  0  0  0  0  0  0
    5.5990   11.6666   26.8399 N   0  0  0  0  0  0  0  0  0  0  0  0
   10.4092   12.2704   22.8754 N   0  0  0  0  0  0  0  0  0  0  0  0
   10.6273   14.2291   24.1179 O   0  0  0  0  0  0  0  0  0  0  0  0
    6.7063   13.8923   26.1620 O   0  0  0  0  0  0  0  0  0  0  0  0
    4.9572   12.8769   24.6596 O   0  0  0  0  0  0  0  0  0  0  0  0
    4.3127   12.6219   29.1846 O   0  0  0  0  0  0  0  0  0  0  0  0
    6.0739   12.7166   25.5804 S   0  0  0  0  0  0  0  0  0  0  0  0
   10.2157   15.1200   20.6610 Cl  0  0  0  0  0  0  0  0  0  0  0  0
    8.1352    8.5173   24.2151 H   0  0  0  0  0  0  0  0  0  0  0  0
    6.4011    9.8681   25.3211 H   0  0  0  0  0  0  0  0  0  0  0  0
   15.4426   13.8011   21.8995 H   0  0  0  0  0  0  0  0  0  0  0  0
    8.4315   13.4723   24.1316 H   0  0  0  0  0  0  0  0  0  0  0  0
   13.2223    6.5260   22.6269 H   0  0  0  0  0  0  0  0  0  0  0  0
   12.8019    7.8566   21.5575 H   0  0  0  0  0  0  0  0  0  0  0  0
   11.3348    6.1282   20.9355 H   0  0  0  0  0  0  0  0  0  0  0  0
   11.1401    5.5294   22.5734 H   0  0  0  0  0  0  0  0  0  0  0  0
   11.6308    7.6183   24.3959 H   0  0  0  0  0  0  0  0  0  0  0  0
   13.2141    8.2970   24.0975 H   0  0  0  0  0  0  0  0  0  0  0  0
    9.1066    6.6682   21.4222 H   0  0  0  0  0  0  0  0  0  0  0  0
    9.4667    7.0632   23.0928 H   0  0  0  0  0  0  0  0  0  0  0  0
   11.7463   10.1337   24.2134 H   0  0  0  0  0  0  0  0  0  0  0  0
   12.2257    9.9655   22.5250 H   0  0  0  0  0  0  0  0  0  0  0  0
   10.6708    8.8000   20.9651 H   0  0  0  0  0  0  0  0  0  0  0  0
    8.9636    9.0179   21.2790 H   0  0  0  0  0  0  0  0  0  0  0  0
    7.3845   12.0093   27.9295 H   0  0  0  0  0  0  0  0  0  0  0  0
    6.2747   10.8267   28.6770 H   0  0  0  0  0  0  0  0  0  0  0  0
    3.9537   10.5060   27.5346 H   0  0  0  0  0  0  0  0  0  0  0  0
    3.6282   11.4900   26.0804 H   0  0  0  0  0  0  0  0  0  0  0  0
    6.2020   12.9756   29.9516 H   0  0  0  0  0  0  0  0  0  0  0  0
    5.7912   13.8441   28.4649 H   0  0  0  0  0  0  0  0  0  0  0  0
    3.7418   13.5607   27.4555 H   0  0  0  0  0  0  0  0  0  0  0  0
    2.5306   12.4688   28.1439 H   0  0  0  0  0  0  0  0  0  0  0  0
   13.9543   13.5297   24.6236 H   0  0  0  0  0  0  0  0  0  0  0  0
   12.9640   12.1564   24.0716 H   0  0  0  0  0  0  0  0  0  0  0  0
   14.6639   12.2459   23.6136 H   0  0  0  0  0  0  0  0  0  0  0  0
   15.2661   14.4518   18.8498 H   0  0  0  0  0  0  0  0  0  0  0  0
   14.8038   16.1491   19.1274 H   0  0  0  0  0  0  0  0  0  0  0  0
   16.0390   15.4044   20.1409 H   0  0  0  0  0  0  0  0  0  0  0  0
   10.8119   11.7778   22.0713 H   0  0  0  0  0  0  0  0  0  0  0  0
  1  2  2  0  0  0  0
  1  7  1  0  0  0  0
  2  9  1  0  0  0  0
  3  6  2  0  0  0  0
  3 10  1  0  0  0  0
  4  8  1  0  0  0  0
  4  9  2  0  0  0  0
  5  6  1  0  0  0  0
  5 11  2  0  0  0  0
  5 12  1  0  0  0  0
  6 23  1  0  0  0  0
  7  8  2  0  0  0  0
  7 26  1  0  0  0  0
  8 28  1  0  0  0  0
  9 33  1  0  0  0  0
 10 24  1  0  0  0  0
 10 25  2  0  0  0  0
 11 25  1  0  0  0  0
 11 34  1  0  0  0  0
 12 28  1  0  0  0  0
 12 29  2  0  0  0  0
 13 14  1  0  0  0  0
 13 15  1  0  0  0  0
 14 16  1  0  0  0  0
 15 17  1  0  0  0  0
 16 18  1  0  0  0  0
 17 26  1  0  0  0  0
 18 26  1  0  0  0  0
 19 21  1  0  0  0  0
 19 27  1  0  0  0  0
 20 22  1  0  0  0  0
 20 27  1  0  0  0  0
 21 32  1  0  0  0  0
 22 32  1  0  0  0  0
 27 33  1  0  0  0  0
 30 33  2  0  0  0  0
 31 33  2  0  0  0  0
  1 35  1  0  0  0  0
  2 36  1  0  0  0  0
  3 37  1  0  0  0  0
  4 38  1  0  0  0  0
 13 39  1  0  0  0  0
 13 40  1  0  0  0  0
 14 41  1  0  0  0  0
 14 42  1  0  0  0  0
 15 43  1  0  0  0  0
 15 44  1  0  0  0  0
 16 45  1  0  0  0  0
 16 46  1  0  0  0  0
 17 47  1  0  0  0  0
 17 48  1  0  0  0  0
 18 49  1  0  0  0  0
 18 50  1  0  0  0  0
 19 51  1  0  0  0  0
 19 52  1  0  0  0  0
 20 53  1  0  0  0  0
 20 54  1  0  0  0  0
 21 55  1  0  0  0  0
 21 56  1  0  0  0  0
 22 57  1  0  0  0  0
 22 58  1  0  0  0  0
 23 59  1  0  0  0  0
 23 60  1  0  0  0  0
 23 61  1  0  0  0  0
 24 62  1  0  0  0  0
 24 63  1  0  0  0  0
 24 64  1  0  0  0  0
 28 65  1  0  0  0  0
M  END
> <Catalog ID>
Z234893227

> <MW>
507.045

> <MW (desalted)>
507.045

> <ClogP>
3.262

> <logS>
-5.77

> <HBD>
1

> <HBA>
6

> <TPSA>
91.84

> <RotBonds>
4

> <ROCS_ShapeQuery>
A71EV2A-x0451_0A_A71EV2A-x0310_0A_A71EV2A-x0416_0A_peptide

> <ROCS_TanimotoCombo>
0.534 

> <ROCS_ShapeTanimoto>
0.389 

> <ROCS_ColorTanimoto>
0.145 

> <ROCS_RefTversky>
0.352 

> <ROCS_RefColorTversky>
0.172 

> <ROCS_RefTverskyCombo>
0.524 

> <ROCS_FitTversky>
1.374 

> <ROCS_FitColorTversky>
0.476 

> <ROCS_FitTverskyCombo>
1.849 

> <ROCS_ColorScore>
-5.274

> <ROCS_Overlap>
2451.229

> <ROCS_Rank>
155                 

$$$$
untitled-dbase-2001_20
  -OEChem-11132309573D

 36 39  0     0  0  0  0  0  0999 V2000
    4.5865   10.6306   26.5515 C   0  0  0  0  0  0  0  0  0  0  0  0
    4.6836   11.9051   27.1151 C   0  0  0  0  0  0  0  0  0  0  0  0
    5.5832   10.1400   25.6971 C   0  0  0  0  0  0  0  0  0  0  0  0
   10.6491   14.8988   20.9225 C   0  0  0  0  0  0  0  0  0  0  0  0
    5.7764   12.7350   26.8479 C   0  0  0  0  0  0  0  0  0  0  0  0
   10.1383   14.3401   22.0940 C   0  0  0  0  0  0  0  0  0  0  0  0
   12.8895   14.7001   21.8046 C   0  0  0  0  0  0  0  0  0  0  0  0
    9.5128   10.1259   23.2694 C   0  0  0  0  0  0  0  0  0  0  0  0
    6.6920   10.9568   25.4135 C   0  0  0  0  0  0  0  0  0  0  0  0
   12.0248   15.0788   20.7777 C   0  0  0  0  0  0  0  0  0  0  0  0
    7.8694   10.8399   24.6310 C   0  0  0  0  0  0  0  0  0  0  0  0
    6.7528   12.2222   25.9953 C   0  0  0  0  0  0  0  0  0  0  0  0
    8.5632   12.0306   24.7865 C   0  0  0  0  0  0  0  0  0  0  0  0
   11.0030   13.9614   23.1208 C   0  0  0  0  0  0  0  0  0  0  0  0
   12.3787   14.1414   22.9762 C   0  0  0  0  0  0  0  0  0  0  0  0
    9.7678   12.2484   24.1515 C   0  0  0  0  0  0  0  0  0  0  0  0
   12.5574   15.6594   19.5554 C   0  0  0  0  0  0  0  0  0  0  0  0
   13.7383   12.4399   23.9312 C   0  0  0  0  0  0  0  0  0  0  0  0
    8.3302    9.8305   23.8530 N   0  0  0  0  0  0  0  0  0  0  0  0
   10.2509   11.2577   23.3689 N   0  0  0  0  0  0  0  0  0  0  0  0
   11.8455   16.0122   18.6110 O   0  0  0  0  0  0  0  0  0  0  0  0
    7.8908   12.8730   25.6130 O   0  0  0  0  0  0  0  0  0  0  0  0
   10.4849   13.4095   24.2753 O   0  0  0  0  0  0  0  0  0  0  0  0
   13.2338   13.7734   23.9707 O   0  0  0  0  0  0  0  0  0  0  0  0
    3.7235   10.0093   26.7773 H   0  0  0  0  0  0  0  0  0  0  0  0
    3.8942   12.2595   27.7732 H   0  0  0  0  0  0  0  0  0  0  0  0
    5.4935    9.1468   25.2675 H   0  0  0  0  0  0  0  0  0  0  0  0
    9.9659   15.1901   20.1288 H   0  0  0  0  0  0  0  0  0  0  0  0
    5.8586   13.7243   27.2821 H   0  0  0  0  0  0  0  0  0  0  0  0
    9.0658   14.2028   22.2007 H   0  0  0  0  0  0  0  0  0  0  0  0
   13.9629   14.8368   21.6939 H   0  0  0  0  0  0  0  0  0  0  0  0
    9.9293    9.3511   22.6345 H   0  0  0  0  0  0  0  0  0  0  0  0
   13.6602   15.7831   19.4861 H   0  0  0  0  0  0  0  0  0  0  0  0
   14.4074   12.2775   24.7798 H   0  0  0  0  0  0  0  0  0  0  0  0
   14.2765   12.2806   22.9935 H   0  0  0  0  0  0  0  0  0  0  0  0
   12.9007   11.7410   23.9916 H   0  0  0  0  0  0  0  0  0  0  0  0
  1  2  1  0  0  0  0
  1  3  2  0  0  0  0
  2  5  2  0  0  0  0
  3  9  1  0  0  0  0
  4  6  2  0  0  0  0
  4 10  1  0  0  0  0
  5 12  1  0  0  0  0
  6 14  1  0  0  0  0
  7 10  2  0  0  0  0
  7 15  1  0  0  0  0
  8 19  1  0  0  0  0
  8 20  2  0  0  0  0
  9 11  1  0  0  0  0
  9 12  2  0  0  0  0
 10 17  1  0  0  0  0
 11 13  1  0  0  0  0
 11 19  2  0  0  0  0
 12 22  1  0  0  0  0
 13 16  2  0  0  0  0
 13 22  1  0  0  0  0
 14 15  2  0  0  0  0
 14 23  1  0  0  0  0
 15 24  1  0  0  0  0
 16 20  1  0  0  0  0
 16 23  1  0  0  0  0
 17 21  2  0  0  0  0
 18 24  1  0  0  0  0
  1 25  1  0  0  0  0
  2 26  1  0  0  0  0
  3 27  1  0  0  0  0
  4 28  1  0  0  0  0
  5 29  1  0  0  0  0
  6 30  1  0  0  0  0
  7 31  1  0  0  0  0
  8 32  1  0  0  0  0
 17 33  1  0  0  0  0
 18 34  1  0  0  0  0
 18 35  1  0  0  0  0
 18 36  1  0  0  0  0
M  END
> <Catalog ID>
Z31204933

> <MW>
320.299

> <MW (desalted)>
320.299

> <ClogP>
3.227

> <logS>
-5.007

> <HBD>
0

> <HBA>
4

> <TPSA>
74.45

> <RotBonds>
4

> <ROCS_ShapeQuery>
A71EV2A-x0451_0A_A71EV2A-x0310_0A_A71EV2A-x0416_0A_peptide

> <ROCS_TanimotoCombo>
0.534 

> <ROCS_ShapeTanimoto>
0.378 

> <ROCS_ColorTanimoto>
0.155 

> <ROCS_RefTversky>
0.332 

> <ROCS_RefColorTversky>
0.183 

> <ROCS_RefTverskyCombo>
0.515 

> <ROCS_FitTversky>
1.594 

> <ROCS_FitColorTversky>
0.503 

> <ROCS_FitTverskyCombo>
2.097 

> <ROCS_ColorScore>
-5.607

> <ROCS_Overlap>
2306.338

> <ROCS_Rank>
156                 

$$$$
untitled-dbase-7928_12677
  -OEChem-11132309573D

 43 44  0     1  0  0  0  0  0999 V2000
   11.6645   16.3193   22.6749 C   0  0  0  0  0  0  0  0  0  0  0  0
    4.9116   10.8632   26.9421 C   0  0  0  0  0  0  0  0  0  0  0  0
    5.9901   10.4800   26.1448 C   0  0  0  0  0  0  0  0  0  0  0  0
    4.5672   12.2107   27.0487 C   0  0  0  0  0  0  0  0  0  0  0  0
    6.3797   12.7917   25.5607 C   0  0  0  0  0  0  0  0  0  0  0  0
    6.7241   11.4442   25.4542 C   0  0  0  0  0  0  0  0  0  0  0  0
    5.3012   13.1749   26.3580 C   0  0  0  0  0  0  0  0  0  0  0  0
    7.8328   11.0497   24.6335 C   0  0  0  0  0  0  0  0  0  0  0  0
    9.5908   11.1744   23.5504 C   0  0  0  0  0  0  0  0  0  0  0  0
    9.7030   15.4870   21.5399 C   0  0  0  0  0  0  0  0  0  0  0  0
   10.6912   15.3064   22.4321 C   0  0  0  0  0  0  0  0  0  0  0  0
   10.7126   13.9868   23.1557 C   0  0  0  0  0  0  0  0  0  0  0  0
   10.8961   15.7780   19.0357 C   0  0  0  0  0  0  0  0  0  0  0  0
   12.1101   11.3148   23.7094 C   0  0  0  0  0  0  0  0  0  0  0  0
    5.7577   15.4231   25.7311 C   0  0  0  0  0  0  0  0  0  0  0  0
    9.5305   16.3292   19.3862 C   0  0  0  0  0  0  0  0  0  0  0  0
   10.8766   11.5282   22.8346 C   0  0  2  0  0  0  0  0  0  0  0  0
   12.4574   17.1430   22.8733 N   0  0  0  0  0  0  0  0  0  0  0  0
    8.8064   11.9346   24.2717 N   0  0  0  0  0  0  0  0  0  0  0  0
    7.9815    9.8031   24.1758 N   0  0  0  0  0  0  0  0  0  0  0  0
   10.8399   12.8823   22.3281 N   0  0  0  0  0  0  0  0  0  0  0  0
   10.6202   13.9218   24.3806 O   0  0  0  0  0  0  0  0  0  0  0  0
    9.1716    9.8864   23.4420 O   0  0  0  0  0  0  0  0  0  0  0  0
    4.9654   14.4898   26.4637 O   0  0  0  0  0  0  0  0  0  0  0  0
    9.4859   16.6006   20.7693 O   0  0  0  0  0  0  0  0  0  0  0  0
    4.3399   10.1126   27.4802 H   0  0  0  0  0  0  0  0  0  0  0  0
    6.2455    9.4253   26.0722 H   0  0  0  0  0  0  0  0  0  0  0  0
    3.7262   12.5037   27.6716 H   0  0  0  0  0  0  0  0  0  0  0  0
    6.9453   13.5513   25.0251 H   0  0  0  0  0  0  0  0  0  0  0  0
    8.9368   14.7563   21.3142 H   0  0  0  0  0  0  0  0  0  0  0  0
   11.6816   16.5001   19.2750 H   0  0  0  0  0  0  0  0  0  0  0  0
   11.0901   14.8500   19.5835 H   0  0  0  0  0  0  0  0  0  0  0  0
   10.9522   15.5356   17.9692 H   0  0  0  0  0  0  0  0  0  0  0  0
   12.0626   11.9291   24.6152 H   0  0  0  0  0  0  0  0  0  0  0  0
   12.1873   10.2652   24.0150 H   0  0  0  0  0  0  0  0  0  0  0  0
   13.0365   11.5646   23.1800 H   0  0  0  0  0  0  0  0  0  0  0  0
    5.3828   16.4349   25.9038 H   0  0  0  0  0  0  0  0  0  0  0  0
    5.7129   15.1833   24.6658 H   0  0  0  0  0  0  0  0  0  0  0  0
    6.7929   15.3571   26.0742 H   0  0  0  0  0  0  0  0  0  0  0  0
    8.7495   15.6021   19.1444 H   0  0  0  0  0  0  0  0  0  0  0  0
    9.3386   17.2567   18.8386 H   0  0  0  0  0  0  0  0  0  0  0  0
   10.9821   10.8900   21.9486 H   0  0  0  0  0  0  0  0  0  0  0  0
   10.8822   12.9922   21.3204 H   0  0  0  0  0  0  0  0  0  0  0  0
  1 11  1  0  0  0  0
  1 18  3  0  0  0  0
  2  3  2  0  0  0  0
  2  4  1  0  0  0  0
  3  6  1  0  0  0  0
  4  7  2  0  0  0  0
  5  6  2  0  0  0  0
  5  7  1  0  0  0  0
  6  8  1  0  0  0  0
  7 24  1  0  0  0  0
  8 19  1  0  0  0  0
  8 20  2  0  0  0  0
  9 17  1  0  0  0  0
  9 19  2  0  0  0  0
  9 23  1  0  0  0  0
 10 11  2  0  0  0  0
 10 25  1  4  0  0  0
 11 12  1  0  0  0  0
 12 21  1  0  0  0  0
 12 22  2  0  0  0  0
 13 16  1  0  0  0  0
 14 17  1  0  0  0  0
 15 24  1  0  0  0  0
 16 25  1  0  0  0  0
 17 21  1  0  0  0  0
 20 23  1  0  0  0  0
  2 26  1  0  0  0  0
  3 27  1  0  0  0  0
  4 28  1  0  0  0  0
  5 29  1  0  0  0  0
 10 30  1  0  0  0  0
 13 31  1  0  0  0  0
 13 32  1  0  0  0  0
 13 33  1  0  0  0  0
 14 34  1  0  0  0  0
 14 35  1  0  0  0  0
 14 36  1  0  0  0  0
 15 37  1  0  0  0  0
 15 38  1  0  0  0  0
 15 39  1  0  0  0  0
 16 40  1  0  0  0  0
 16 41  1  0  0  0  0
 17 42  1  0  0  0  0
 21 43  1  0  0  0  0
M  END
> <Catalog ID>
Z1480833694

> <MW>
342.349

> <MW (desalted)>
342.349

> <ClogP>
1.05

> <logS>
-3.821

> <HBD>
1

> <HBA>
6

> <TPSA>
110.27

> <RotBonds>
7

> <ROCS_ShapeQuery>
A71EV2A-x0451_0A_A71EV2A-x0310_0A_A71EV2A-x0416_0A_peptide

> <ROCS_TanimotoCombo>
0.534 

> <ROCS_ShapeTanimoto>
0.343 

> <ROCS_ColorTanimoto>
0.191 

> <ROCS_RefTversky>
0.307 

> <ROCS_RefColorTversky>
0.214 

> <ROCS_RefTverskyCombo>
0.521 

> <ROCS_FitTversky>
1.504 

> <ROCS_FitColorTversky>
0.643 

> <ROCS_FitTverskyCombo>
2.148 

> <ROCS_ColorScore>
-6.527

> <ROCS_Overlap>
2136.432

> <ROCS_Rank>
157                 

$$$$
untitled-dbase-4797_302
  -OEChem-11132309573D

 50 52  0     0  0  0  0  0  0999 V2000
    9.2400   10.3076   23.0665 C   0  0  0  0  0  0  0  0  0  0  0  0
    8.2516    9.5051   23.6363 C   0  0  0  0  0  0  0  0  0  0  0  0
    8.3764   12.2207   24.2628 C   0  0  0  0  0  0  0  0  0  0  0  0
    9.3024   11.6654   23.3798 C   0  0  0  0  0  0  0  0  0  0  0  0
    7.3879   11.4183   24.8326 C   0  0  0  0  0  0  0  0  0  0  0  0
    7.3256   10.0604   24.5193 C   0  0  0  0  0  0  0  0  0  0  0  0
   11.4995   14.6075   21.2443 C   0  0  0  0  0  0  0  0  0  0  0  0
   11.9061   14.1940   22.4538 C   0  0  0  0  0  0  0  0  0  0  0  0
   12.4242   15.1969   20.2950 C   0  0  0  0  0  0  0  0  0  0  0  0
   13.7170   15.3419   20.6381 C   0  0  0  0  0  0  0  0  0  0  0  0
   13.3426   14.3447   22.8361 C   0  0  0  0  0  0  0  0  0  0  0  0
    5.1967   12.8303   28.2491 C   0  0  0  0  0  0  0  0  0  0  0  0
    5.2397   13.5035   27.0951 C   0  0  0  0  0  0  0  0  0  0  0  0
   10.9022   13.6099   23.3468 C   0  0  0  0  0  0  0  0  0  0  0  0
    6.3722   13.3075   26.1440 C   0  0  0  0  0  0  0  0  0  0  0  0
   11.8793   15.6195   18.9547 C   0  0  0  0  0  0  0  0  0  0  0  0
   14.7459   15.9551   19.7307 C   0  0  0  0  0  0  0  0  0  0  0  0
   14.1370   16.6524   18.5085 C   0  0  0  0  0  0  0  0  0  0  0  0
   12.9701   15.8601   17.8790 C   0  0  0  0  0  0  0  0  0  0  0  0
   12.3682   16.6760   16.7210 C   0  0  0  0  0  0  0  0  0  0  0  0
   13.4688   14.5166   17.3085 C   0  0  0  0  0  0  0  0  0  0  0  0
   14.1564   14.9230   21.8760 N   0  0  0  0  0  0  0  0  0  0  0  0
   10.3060   12.4800   22.8010 N   0  0  0  0  0  0  0  0  0  0  0  0
    6.4628   11.9760   25.7159 N   0  0  0  0  0  0  0  0  0  0  0  0
   13.7483   13.9745   23.9351 O   0  0  0  0  0  0  0  0  0  0  0  0
   10.6785   14.1290   24.4406 O   0  0  0  0  0  0  0  0  0  0  0  0
    7.0973   14.2402   25.8186 O   0  0  0  0  0  0  0  0  0  0  0  0
    6.3799    9.2795   25.0605 F   0  0  0  0  0  0  0  0  0  0  0  0
    9.9563    9.8638   22.3795 H   0  0  0  0  0  0  0  0  0  0  0  0
    8.2029    8.4478   23.3931 H   0  0  0  0  0  0  0  0  0  0  0  0
    8.4254   13.2803   24.5068 H   0  0  0  0  0  0  0  0  0  0  0  0
   10.4618   14.5147   20.9364 H   0  0  0  0  0  0  0  0  0  0  0  0
    4.3903   12.9467   28.9645 H   0  0  0  0  0  0  0  0  0  0  0  0
    5.9902   12.1345   28.5010 H   0  0  0  0  0  0  0  0  0  0  0  0
    4.4468   14.1990   26.8424 H   0  0  0  0  0  0  0  0  0  0  0  0
   11.1718   14.8663   18.5829 H   0  0  0  0  0  0  0  0  0  0  0  0
   11.3010   16.5409   19.1087 H   0  0  0  0  0  0  0  0  0  0  0  0
   15.3450   16.6891   20.2838 H   0  0  0  0  0  0  0  0  0  0  0  0
   15.4369   15.1704   19.3987 H   0  0  0  0  0  0  0  0  0  0  0  0
   13.7742   17.6424   18.8183 H   0  0  0  0  0  0  0  0  0  0  0  0
   14.9261   16.8339   17.7679 H   0  0  0  0  0  0  0  0  0  0  0  0
   13.1310   16.8445   15.9683 H   0  0  0  0  0  0  0  0  0  0  0  0
   12.0131   17.6278   17.1014 H   0  0  0  0  0  0  0  0  0  0  0  0
   11.5414   16.1238   16.2869 H   0  0  0  0  0  0  0  0  0  0  0  0
   14.2287   14.7098   16.5605 H   0  0  0  0  0  0  0  0  0  0  0  0
   12.6343   13.9915   16.8587 H   0  0  0  0  0  0  0  0  0  0  0  0
   13.8866   13.9235   18.1137 H   0  0  0  0  0  0  0  0  0  0  0  0
   15.1410   15.0485   22.0933 H   0  0  0  0  0  0  0  0  0  0  0  0
   10.6156   12.1887   21.8760 H   0  0  0  0  0  0  0  0  0  0  0  0
    5.7617   11.3310   26.0998 H   0  0  0  0  0  0  0  0  0  0  0  0
  1  2  2  0  0  0  0
  1  4  1  0  0  0  0
  2  6  1  0  0  0  0
  3  4  2  0  0  0  0
  3  5  1  0  0  0  0
  4 23  1  0  0  0  0
  5  6  2  0  0  0  0
  5 24  1  0  0  0  0
  6 28  1  0  0  0  0
  7  8  2  0  0  0  0
  7  9  1  0  0  0  0
  8 11  1  0  0  0  0
  8 14  1  0  0  0  0
  9 10  2  0  0  0  0
  9 16  1  0  0  0  0
 10 17  1  0  0  0  0
 10 22  1  0  0  0  0
 11 22  1  0  0  0  0
 11 25  2  0  0  0  0
 12 13  2  0  0  0  0
 13 15  1  0  0  0  0
 14 23  1  0  0  0  0
 14 26  2  0  0  0  0
 15 24  1  0  0  0  0
 15 27  2  0  0  0  0
 16 19  1  0  0  0  0
 17 18  1  0  0  0  0
 18 19  1  0  0  0  0
 19 20  1  0  0  0  0
 19 21  1  0  0  0  0
  1 29  1  0  0  0  0
  2 30  1  0  0  0  0
  3 31  1  0  0  0  0
  7 32  1  0  0  0  0
 12 33  1  0  0  0  0
 12 34  1  0  0  0  0
 13 35  1  0  0  0  0
 16 36  1  0  0  0  0
 16 37  1  0  0  0  0
 17 38  1  0  0  0  0
 17 39  1  0  0  0  0
 18 40  1  0  0  0  0
 18 41  1  0  0  0  0
 20 42  1  0  0  0  0
 20 43  1  0  0  0  0
 20 44  1  0  0  0  0
 21 45  1  0  0  0  0
 21 46  1  0  0  0  0
 21 47  1  0  0  0  0
 22 48  1  0  0  0  0
 23 49  1  0  0  0  0
 24 50  1  0  0  0  0
M  END
> <Catalog ID>
Z1482540073

> <MW>
383.416

> <MW (desalted)>
383.416

> <ClogP>
2.232

> <logS>
-5.777

> <HBD>
3

> <HBA>
3

> <TPSA>
87.3

> <RotBonds>
4

> <ROCS_ShapeQuery>
A71EV2A-x0451_0A_A71EV2A-x0310_0A_A71EV2A-x0416_0A_peptide

> <ROCS_TanimotoCombo>
0.534 

> <ROCS_ShapeTanimoto>
0.367 

> <ROCS_ColorTanimoto>
0.167 

> <ROCS_RefTversky>
0.329 

> <ROCS_RefColorTversky>
0.199 

> <ROCS_RefTverskyCombo>
0.528 

> <ROCS_FitTversky>
1.460 

> <ROCS_FitColorTversky>
0.507 

> <ROCS_FitTverskyCombo>
1.967 

> <ROCS_ColorScore>
-6.105

> <ROCS_Overlap>
2287.841

> <ROCS_Rank>
158                 

$$$$
untitled-dbase-5723_1804
  -OEChem-11132309573D

 53 56  0     0  0  0  0  0  0999 V2000
   11.5002   12.6387   24.3184 C   0  0  0  0  0  0  0  0  0  0  0  0
    5.5865   15.4254   26.5096 C   0  0  0  0  0  0  0  0  0  0  0  0
    6.6493   15.6125   25.6258 C   0  0  0  0  0  0  0  0  0  0  0  0
    5.1742   14.1348   26.8413 C   0  0  0  0  0  0  0  0  0  0  0  0
    7.2997   14.5091   25.0735 C   0  0  0  0  0  0  0  0  0  0  0  0
    5.8247   13.0313   26.2891 C   0  0  0  0  0  0  0  0  0  0  0  0
    6.8874   13.2184   25.4052 C   0  0  0  0  0  0  0  0  0  0  0  0
    7.5548   12.0854   24.8383 C   0  0  0  0  0  0  0  0  0  0  0  0
    8.6099   12.1382   23.9592 C   0  0  0  0  0  0  0  0  0  0  0  0
    8.0345   10.0426   24.4167 C   0  0  0  0  0  0  0  0  0  0  0  0
   10.0276    8.9835   22.7452 C   0  0  0  0  0  0  0  0  0  0  0  0
    9.1218    8.1248   23.4906 C   0  0  0  0  0  0  0  0  0  0  0  0
    9.9083   10.3142   22.8584 C   0  0  0  0  0  0  0  0  0  0  0  0
    8.1528    8.6114   24.3031 C   0  0  0  0  0  0  0  0  0  0  0  0
    9.3634   13.2412   23.3427 C   0  0  0  0  0  0  0  0  0  0  0  0
   10.6823   13.4705   23.4952 C   0  0  0  0  0  0  0  0  0  0  0  0
   11.2493   14.6655   22.7717 C   0  0  0  0  0  0  0  0  0  0  0  0
   14.1903   16.2227   18.5035 C   0  0  0  0  0  0  0  0  0  0  0  0
   14.4750   16.5426   19.9683 C   0  0  0  0  0  0  0  0  0  0  0  0
   12.6931   16.1018   18.2342 C   0  0  0  0  0  0  0  0  0  0  0  0
   13.8166   15.5306   20.9044 C   0  0  0  0  0  0  0  0  0  0  0  0
   12.0329   15.0888   19.1680 C   0  0  0  0  0  0  0  0  0  0  0  0
   12.3113   15.4207   20.6381 C   0  0  0  0  0  0  0  0  0  0  0  0
    7.2501    7.6597   25.0445 C   0  0  0  0  0  0  0  0  0  0  0  0
   12.1683   11.9652   24.9870 N   0  0  0  0  0  0  0  0  0  0  0  0
    7.2036   10.7898   25.1173 N   0  0  0  0  0  0  0  0  0  0  0  0
    8.9201   10.8305   23.6871 N   0  0  0  0  0  0  0  0  0  0  0  0
   11.7284   14.3929   21.4985 N   0  0  0  0  0  0  0  0  0  0  0  0
   11.2707   15.7824   23.2866 O   0  0  0  0  0  0  0  0  0  0  0  0
    5.0806   16.2845   26.9405 H   0  0  0  0  0  0  0  0  0  0  0  0
    6.9712   16.6173   25.3684 H   0  0  0  0  0  0  0  0  0  0  0  0
    4.3476   13.9893   27.5305 H   0  0  0  0  0  0  0  0  0  0  0  0
    8.1265   14.6714   24.3860 H   0  0  0  0  0  0  0  0  0  0  0  0
    5.4912   12.0316   26.5578 H   0  0  0  0  0  0  0  0  0  0  0  0
   10.7806    8.5290   22.1130 H   0  0  0  0  0  0  0  0  0  0  0  0
    9.2619    7.0555   23.3623 H   0  0  0  0  0  0  0  0  0  0  0  0
   10.5587   10.9972   22.3256 H   0  0  0  0  0  0  0  0  0  0  0  0
    8.7432   13.9010   22.7398 H   0  0  0  0  0  0  0  0  0  0  0  0
   14.6177   17.0044   17.8656 H   0  0  0  0  0  0  0  0  0  0  0  0
   14.6861   15.2823   18.2330 H   0  0  0  0  0  0  0  0  0  0  0  0
   15.5574   16.5527   20.1395 H   0  0  0  0  0  0  0  0  0  0  0  0
   14.1049   17.5487   20.2009 H   0  0  0  0  0  0  0  0  0  0  0  0
   12.2182   17.0819   18.3655 H   0  0  0  0  0  0  0  0  0  0  0  0
   12.5289   15.8041   17.1925 H   0  0  0  0  0  0  0  0  0  0  0  0
   14.2943   14.5517   20.7680 H   0  0  0  0  0  0  0  0  0  0  0  0
   13.9943   15.8342   21.9431 H   0  0  0  0  0  0  0  0  0  0  0  0
   10.9521   15.0800   18.9817 H   0  0  0  0  0  0  0  0  0  0  0  0
   12.4093   14.0849   18.9322 H   0  0  0  0  0  0  0  0  0  0  0  0
   11.8196   16.3511   20.9064 H   0  0  0  0  0  0  0  0  0  0  0  0
    6.3808    7.4431   24.4317 H   0  0  0  0  0  0  0  0  0  0  0  0
    6.9395    8.1175   25.9787 H   0  0  0  0  0  0  0  0  0  0  0  0
    7.7933    6.7432   25.2534 H   0  0  0  0  0  0  0  0  0  0  0  0
   11.6718   13.4406   21.1502 H   0  0  0  0  0  0  0  0  0  0  0  0
  1 16  1  0  0  0  0
  1 25  3  0  0  0  0
  2  3  1  0  0  0  0
  2  4  2  0  0  0  0
  3  5  2  0  0  0  0
  4  6  1  0  0  0  0
  5  7  1  0  0  0  0
  6  7  2  0  0  0  0
  7  8  1  0  0  0  0
  8  9  2  0  0  0  0
  8 26  1  0  0  0  0
  9 15  1  4  0  0  0
  9 27  1  0  0  0  0
 10 14  1  0  0  0  0
 10 26  2  0  0  0  0
 10 27  1  0  0  0  0
 11 12  1  0  0  0  0
 11 13  2  0  0  0  0
 12 14  2  0  0  0  0
 13 27  1  0  0  0  0
 14 24  1  0  0  0  0
 15 16  2  0  0  0  0
 16 17  1  0  0  0  0
 17 28  1  0  0  0  0
 17 29  2  0  0  0  0
 18 19  1  0  0  0  0
 18 20  1  0  0  0  0
 19 21  1  0  0  0  0
 20 22  1  0  0  0  0
 21 23  1  0  0  0  0
 22 23  1  0  0  0  0
 23 28  1  0  0  0  0
  2 30  1  0  0  0  0
  3 31  1  0  0  0  0
  4 32  1  0  0  0  0
  5 33  1  0  0  0  0
  6 34  1  0  0  0  0
 11 35  1  0  0  0  0
 12 36  1  0  0  0  0
 13 37  1  0  0  0  0
 15 38  1  0  0  0  0
 18 39  1  0  0  0  0
 18 40  1  0  0  0  0
 19 41  1  0  0  0  0
 19 42  1  0  0  0  0
 20 43  1  0  0  0  0
 20 44  1  0  0  0  0
 21 45  1  0  0  0  0
 21 46  1  0  0  0  0
 22 47  1  0  0  0  0
 22 48  1  0  0  0  0
 23 49  1  0  0  0  0
 24 50  1  0  0  0  0
 24 51  1  0  0  0  0
 24 52  1  0  0  0  0
 28 53  1  0  0  0  0
M  END
> <Catalog ID>
Z57906722

> <MW>
384.474

> <MW (desalted)>
384.474

> <ClogP>
5.118

> <logS>
-6.34

> <HBD>
1

> <HBA>
3

> <TPSA>
70.19

> <RotBonds>
4

> <ROCS_ShapeQuery>
A71EV2A-x0451_0A_A71EV2A-x0310_0A_A71EV2A-x0416_0A_peptide

> <ROCS_TanimotoCombo>
0.533 

> <ROCS_ShapeTanimoto>
0.407 

> <ROCS_ColorTanimoto>
0.126 

> <ROCS_RefTversky>
0.357 

> <ROCS_RefColorTversky>
0.149 

> <ROCS_RefTverskyCombo>
0.506 

> <ROCS_FitTversky>
1.536 

> <ROCS_FitColorTversky>
0.449 

> <ROCS_FitTverskyCombo>
1.985 

> <ROCS_ColorScore>
-4.562

> <ROCS_Overlap>
2482.476

> <ROCS_Rank>
159                 

$$$$
untitled-dbase-7330_4133
  -OEChem-11132309573D

 47 49  0     1  0  0  0  0  0999 V2000
   10.9795   11.3865   24.4364 C   0  0  0  0  0  0  0  0  0  0  0  0
   14.7859   12.5297   26.5489 C   0  0  0  0  0  0  0  0  0  0  0  0
   11.0733   14.4356   22.5648 C   0  0  0  0  0  0  0  0  0  0  0  0
    7.7661   11.9567   22.8767 C   0  0  0  0  0  0  0  0  0  0  0  0
    8.0401   10.4666   22.5913 C   0  0  0  0  0  0  0  0  0  0  0  0
    6.5084   10.1915   26.7145 C   0  0  0  0  0  0  0  0  0  0  0  0
    5.8346   10.3216   25.3835 C   0  0  0  0  0  0  0  0  0  0  0  0
    7.8151   12.0201   25.4173 C   0  0  0  0  0  0  0  0  0  0  0  0
    8.2769    9.5196   24.9387 C   0  0  0  0  0  0  0  0  0  0  0  0
    8.6050   12.2821   24.1200 C   0  0  1  0  0  0  0  0  0  0  0  0
    9.0184   10.0292   23.6881 C   0  0  2  0  0  0  0  0  0  0  0  0
    7.3243   10.5748   25.4999 C   0  0  0  0  0  0  0  0  0  0  0  0
   13.3181   12.6432   26.1820 C   0  0  0  0  0  0  0  0  0  0  0  0
   10.8874   14.5910   21.0771 C   0  0  0  0  0  0  0  0  0  0  0  0
   13.0669   12.7180   24.6749 C   0  0  0  0  0  0  0  0  0  0  0  0
   11.5855   12.7608   24.3183 C   0  0  1  0  0  0  0  0  0  0  0  0
    9.6589   11.2803   24.0518 N   0  0  0  0  0  0  0  0  0  0  0  0
   15.0627   11.3764   27.2515 N   0  0  0  0  0  0  0  0  0  0  0  0
   11.3541   13.1306   22.9517 N   0  0  0  0  0  0  0  0  0  0  0  0
   11.6567   10.4419   24.8454 O   0  0  0  0  0  0  0  0  0  0  0  0
   15.6373   13.3574   26.2379 O   0  0  0  0  0  0  0  0  0  0  0  0
   10.9942   15.3935   23.3320 O   0  0  0  0  0  0  0  0  0  0  0  0
   12.1078   15.7325   20.4920 Cl  0  0  0  0  0  0  0  0  0  0  0  0
    8.1067   12.5550   22.0233 H   0  0  0  0  0  0  0  0  0  0  0  0
    6.6988   12.1558   23.0177 H   0  0  0  0  0  0  0  0  0  0  0  0
    7.1178    9.8772   22.5799 H   0  0  0  0  0  0  0  0  0  0  0  0
    8.5085   10.3706   21.6047 H   0  0  0  0  0  0  0  0  0  0  0  0
    6.3020   10.9510   27.4592 H   0  0  0  0  0  0  0  0  0  0  0  0
    6.6268    9.1949   27.1231 H   0  0  0  0  0  0  0  0  0  0  0  0
    5.4969    9.4131   24.8992 H   0  0  0  0  0  0  0  0  0  0  0  0
    5.1728   11.1665   25.2345 H   0  0  0  0  0  0  0  0  0  0  0  0
    8.4613   12.2202   26.2819 H   0  0  0  0  0  0  0  0  0  0  0  0
    6.9733   12.7207   25.4808 H   0  0  0  0  0  0  0  0  0  0  0  0
    7.7350    8.5985   24.6931 H   0  0  0  0  0  0  0  0  0  0  0  0
    9.0074    9.2602   25.7151 H   0  0  0  0  0  0  0  0  0  0  0  0
    9.0036   13.2985   24.1065 H   0  0  0  0  0  0  0  0  0  0  0  0
    9.7290    9.2766   23.3298 H   0  0  0  0  0  0  0  0  0  0  0  0
   12.8827   13.5103   26.6917 H   0  0  0  0  0  0  0  0  0  0  0  0
   12.8208   11.7491   26.5781 H   0  0  0  0  0  0  0  0  0  0  0  0
   11.0038   13.6472   20.5385 H   0  0  0  0  0  0  0  0  0  0  0  0
    9.8920   14.9965   20.8757 H   0  0  0  0  0  0  0  0  0  0  0  0
   13.5753   13.5973   24.2588 H   0  0  0  0  0  0  0  0  0  0  0  0
   13.5342   11.8426   24.2042 H   0  0  0  0  0  0  0  0  0  0  0  0
   11.0139   13.4317   24.9597 H   0  0  0  0  0  0  0  0  0  0  0  0
   14.3457   10.6966   27.4839 H   0  0  0  0  0  0  0  0  0  0  0  0
   16.0058   11.1688   27.5626 H   0  0  0  0  0  0  0  0  0  0  0  0
   11.3974   12.4063   22.2348 H   0  0  0  0  0  0  0  0  0  0  0  0
  1 16  1  0  0  0  0
  1 17  1  0  0  0  0
  1 20  2  0  0  0  0
  2 13  1  0  0  0  0
  2 18  1  0  0  0  0
  2 21  2  0  0  0  0
  3 14  1  0  0  0  0
  3 19  1  0  0  0  0
  3 22  2  0  0  0  0
  4  5  1  0  0  0  0
  4 10  1  0  0  0  0
  5 11  1  0  0  0  0
  6  7  1  0  0  0  0
  6 12  1  0  0  0  0
  7 12  1  0  0  0  0
  8 10  1  0  0  0  0
  8 12  1  0  0  0  0
  9 11  1  0  0  0  0
  9 12  1  0  0  0  0
 10 17  1  0  0  0  0
 11 17  1  0  0  0  0
 13 15  1  0  0  0  0
 14 23  1  0  0  0  0
 15 16  1  0  0  0  0
 16 19  1  1  0  0  0
  4 24  1  0  0  0  0
  4 25  1  0  0  0  0
  5 26  1  0  0  0  0
  5 27  1  0  0  0  0
  6 28  1  0  0  0  0
  6 29  1  0  0  0  0
  7 30  1  0  0  0  0
  7 31  1  0  0  0  0
  8 32  1  0  0  0  0
  8 33  1  0  0  0  0
  9 34  1  0  0  0  0
  9 35  1  0  0  0  0
 10 36  1  0  0  0  0
 11 37  1  0  0  0  0
 13 38  1  0  0  0  0
 13 39  1  0  0  0  0
 14 40  1  0  0  0  0
 14 41  1  0  0  0  0
 15 42  1  0  0  0  0
 15 43  1  0  0  0  0
 16 44  1  0  0  0  0
 18 45  1  0  0  0  0
 18 46  1  0  0  0  0
 19 47  1  0  0  0  0
M  END
> <Catalog ID>
Z8604604802

> <MW>
341.83306

> <MW (desalted)>
341.83306

> <ClogP>
-0.559

> <logS>
-2.682

> <HBD>
2

> <HBA>
3

> <TPSA>
92.5

> <RotBonds>
6

> <ROCS_ShapeQuery>
A71EV2A-x0451_0A_A71EV2A-x0310_0A_A71EV2A-x0416_0A_peptide

> <ROCS_TanimotoCombo>
0.533 

> <ROCS_ShapeTanimoto>
0.324 

> <ROCS_ColorTanimoto>
0.210 

> <ROCS_RefTversky>
0.291 

> <ROCS_RefColorTversky>
0.240 

> <ROCS_RefTverskyCombo>
0.531 

> <ROCS_FitTversky>
1.537 

> <ROCS_FitColorTversky>
0.620 

> <ROCS_FitTverskyCombo>
2.157 

> <ROCS_ColorScore>
-7.374

> <ROCS_Overlap>
2020.469

> <ROCS_Rank>
160                 

$$$$
untitled-dbase-7981_6709
  -OEChem-11132309573D

 54 56  0     1  0  0  0  0  0999 V2000
   13.7407   17.3495   19.7908 C   0  0  0  0  0  0  0  0  0  0  0  0
   14.0615   15.5817   18.1756 C   0  0  0  0  0  0  0  0  0  0  0  0
   13.1273   16.4457   20.6582 C   0  0  0  0  0  0  0  0  0  0  0  0
   13.4481   14.6778   19.0430 C   0  0  0  0  0  0  0  0  0  0  0  0
    9.4746   10.5551   23.4528 C   0  0  0  0  0  0  0  0  0  0  0  0
    9.2827   11.8907   23.8311 C   0  0  0  0  0  0  0  0  0  0  0  0
   14.2078   16.9175   18.5494 C   0  0  0  0  0  0  0  0  0  0  0  0
   12.9810   15.1099   20.2844 C   0  0  0  0  0  0  0  0  0  0  0  0
    8.1812   11.8689   24.6558 C   0  0  0  0  0  0  0  0  0  0  0  0
    6.6694   10.1674   25.4946 C   0  0  0  0  0  0  0  0  0  0  0  0
    6.4964   12.4767   26.0300 C   0  0  0  0  0  0  0  0  0  0  0  0
    5.9756   11.0874   26.1778 C   0  0  0  0  0  0  0  0  0  0  0  0
   14.5969   11.8424   24.8641 C   0  0  0  0  0  0  0  0  0  0  0  0
   13.9664   12.9172   24.3810 C   0  0  0  0  0  0  0  0  0  0  0  0
   10.0390   13.0502   23.4653 C   0  0  0  0  0  0  0  0  0  0  0  0
   13.1054   12.8055   23.1734 C   0  0  0  0  0  0  0  0  0  0  0  0
    4.7836   10.8416   27.0315 C   0  0  0  0  0  0  0  0  0  0  0  0
   14.0909   18.0468   16.2989 C   0  0  0  0  0  0  0  0  0  0  0  0
   16.3301   17.5140   17.3271 C   0  0  0  0  0  0  0  0  0  0  0  0
   10.8628   14.4998   21.5684 C   0  0  0  0  0  0  0  0  0  0  0  0
   14.8638   17.8832   17.6214 C   0  0  0  0  0  0  0  0  0  0  0  0
   12.3145   14.1260   21.2302 C   0  0  2  0  0  0  0  0  0  0  0  0
    8.5739    9.7304   23.9860 N   0  0  0  0  0  0  0  0  0  0  0  0
    7.5202   12.8547   25.3258 N   0  0  0  0  0  0  0  0  0  0  0  0
    7.7725   10.5372   24.7299 N   0  0  0  0  0  0  0  0  0  0  0  0
   10.1212   13.3772   22.0962 N   0  0  0  0  0  0  0  0  0  0  0  0
   13.0951   13.9805   22.4647 N   0  0  0  0  0  0  0  0  0  0  0  0
   10.6290   13.7450   24.3286 O   0  0  0  0  0  0  0  0  0  0  0  0
   12.4991   11.7779   22.8877 O   0  0  0  0  0  0  0  0  0  0  0  0
   13.8499   18.3886   20.0901 H   0  0  0  0  0  0  0  0  0  0  0  0
   14.4236   15.2364   17.2107 H   0  0  0  0  0  0  0  0  0  0  0  0
   12.7678   16.7908   21.6239 H   0  0  0  0  0  0  0  0  0  0  0  0
   13.3380   13.6388   18.7438 H   0  0  0  0  0  0  0  0  0  0  0  0
   10.2362   10.1407   22.8073 H   0  0  0  0  0  0  0  0  0  0  0  0
    6.4123    9.1145   25.5035 H   0  0  0  0  0  0  0  0  0  0  0  0
    5.9372   13.2477   26.5861 H   0  0  0  0  0  0  0  0  0  0  0  0
   15.2241   11.9320   25.7449 H   0  0  0  0  0  0  0  0  0  0  0  0
   14.5108   10.8612   24.4102 H   0  0  0  0  0  0  0  0  0  0  0  0
   14.0790   13.8810   24.8656 H   0  0  0  0  0  0  0  0  0  0  0  0
    5.0925   10.6372   28.0589 H   0  0  0  0  0  0  0  0  0  0  0  0
    4.2201    9.9852   26.6540 H   0  0  0  0  0  0  0  0  0  0  0  0
    4.1295   11.7165   27.0255 H   0  0  0  0  0  0  0  0  0  0  0  0
   14.0084   17.0966   15.7600 H   0  0  0  0  0  0  0  0  0  0  0  0
   14.5828   18.7645   15.6334 H   0  0  0  0  0  0  0  0  0  0  0  0
   13.0753   18.4101   16.4921 H   0  0  0  0  0  0  0  0  0  0  0  0
   16.3893   16.5226   16.8641 H   0  0  0  0  0  0  0  0  0  0  0  0
   16.9295   17.4921   18.2438 H   0  0  0  0  0  0  0  0  0  0  0  0
   16.7967   18.2307   16.6424 H   0  0  0  0  0  0  0  0  0  0  0  0
   10.8353   15.2783   22.3395 H   0  0  0  0  0  0  0  0  0  0  0  0
   10.3130   14.8753   20.6989 H   0  0  0  0  0  0  0  0  0  0  0  0
   14.8909   18.8884   18.0835 H   0  0  0  0  0  0  0  0  0  0  0  0
   12.3010   13.1399   20.7478 H   0  0  0  0  0  0  0  0  0  0  0  0
    9.6838   12.7559   21.4236 H   0  0  0  0  0  0  0  0  0  0  0  0
   13.5937   14.7962   22.7765 H   0  0  0  0  0  0  0  0  0  0  0  0
  1  3  2  0  0  0  0
  1  7  1  0  0  0  0
  2  4  1  0  0  0  0
  2  7  2  0  0  0  0
  3  8  1  0  0  0  0
  4  8  2  0  0  0  0
  5  6  1  0  0  0  0
  5 23  2  0  0  0  0
  6  9  2  0  0  0  0
  6 15  1  0  0  0  0
  7 21  1  0  0  0  0
  8 22  1  0  0  0  0
  9 24  1  0  0  0  0
  9 25  1  0  0  0  0
 10 12  2  0  0  0  0
 10 25  1  0  0  0  0
 11 12  1  0  0  0  0
 11 24  2  0  0  0  0
 12 17  1  0  0  0  0
 13 14  2  0  0  0  0
 14 16  1  0  0  0  0
 15 26  1  0  0  0  0
 15 28  2  0  0  0  0
 16 27  1  0  0  0  0
 16 29  2  0  0  0  0
 18 21  1  0  0  0  0
 19 21  1  0  0  0  0
 20 22  1  0  0  0  0
 20 26  1  0  0  0  0
 22 27  1  0  0  0  0
 23 25  1  0  0  0  0
  1 30  1  0  0  0  0
  2 31  1  0  0  0  0
  3 32  1  0  0  0  0
  4 33  1  0  0  0  0
  5 34  1  0  0  0  0
 10 35  1  0  0  0  0
 11 36  1  0  0  0  0
 13 37  1  0  0  0  0
 13 38  1  0  0  0  0
 14 39  1  0  0  0  0
 17 40  1  0  0  0  0
 17 41  1  0  0  0  0
 17 42  1  0  0  0  0
 18 43  1  0  0  0  0
 18 44  1  0  0  0  0
 18 45  1  0  0  0  0
 19 46  1  0  0  0  0
 19 47  1  0  0  0  0
 19 48  1  0  0  0  0
 20 49  1  0  0  0  0
 20 50  1  0  0  0  0
 21 51  1  0  0  0  0
 22 52  1  0  0  0  0
 26 53  1  0  0  0  0
 27 54  1  0  0  0  0
M  END
> <Catalog ID>
Z4425283730

> <MW>
391.466

> <MW (desalted)>
391.466

> <ClogP>
2.88

> <logS>
-5.364

> <HBD>
2

> <HBA>
4

> <TPSA>
88.39

> <RotBonds>
7

> <ROCS_ShapeQuery>
A71EV2A-x0451_0A_A71EV2A-x0310_0A_A71EV2A-x0416_0A_peptide

> <ROCS_TanimotoCombo>
0.533 

> <ROCS_ShapeTanimoto>
0.362 

> <ROCS_ColorTanimoto>
0.172 

> <ROCS_RefTversky>
0.327 

> <ROCS_RefColorTversky>
0.204 

> <ROCS_RefTverskyCombo>
0.531 

> <ROCS_FitTversky>
1.418 

> <ROCS_FitColorTversky>
0.519 

> <ROCS_FitTverskyCombo>
1.938 

> <ROCS_ColorScore>
-6.262

> <ROCS_Overlap>
2274.838

> <ROCS_Rank>
161                 

$$$$
untitled-dbase-8804_12183
  -OEChem-11132309573D

 51 53  0     1  0  0  0  0  0999 V2000
   13.8305   17.0525   17.7101 C   0  0  0  0  0  0  0  0  0  0  0  0
   14.8060   17.4334   18.6267 C   0  0  0  0  0  0  0  0  0  0  0  0
   12.8891   16.0822   18.0546 C   0  0  0  0  0  0  0  0  0  0  0  0
   14.8438   16.8455   19.8914 C   0  0  0  0  0  0  0  0  0  0  0  0
   11.9725   14.5015   19.6868 C   0  0  0  0  0  0  0  0  0  0  0  0
   12.0104   13.9135   20.9514 C   0  0  0  0  0  0  0  0  0  0  0  0
   13.9273   15.2648   21.5236 C   0  0  0  0  0  0  0  0  0  0  0  0
   12.9122   15.4798   19.3230 C   0  0  0  0  0  0  0  0  0  0  0  0
   13.9042   15.8671   20.2552 C   0  0  0  0  0  0  0  0  0  0  0  0
   12.9859   14.2944   21.8680 C   0  0  0  0  0  0  0  0  0  0  0  0
    8.4925   12.3092   24.4053 C   0  0  0  0  0  0  0  0  0  0  0  0
    9.7201   12.0263   23.9658 C   0  0  0  0  0  0  0  0  0  0  0  0
   10.0591   10.6341   23.5925 C   0  0  0  0  0  0  0  0  0  0  0  0
    7.7066   10.0100   24.2048 C   0  0  0  0  0  0  0  0  0  0  0  0
   10.6771   13.1332   23.8813 C   0  0  0  0  0  0  0  0  0  0  0  0
   14.9324   12.0044   25.7622 C   0  0  0  0  0  0  0  0  0  0  0  0
    6.2069   11.8093   25.0381 C   0  0  0  0  0  0  0  0  0  0  0  0
    9.2734    8.3347   23.3202 C   0  0  0  0  0  0  0  0  0  0  0  0
   14.6081   10.8774   26.7091 C   0  0  0  0  0  0  0  0  0  0  0  0
   14.3510   12.9345   23.5398 C   0  0  0  0  0  0  0  0  0  0  0  0
   13.0253   13.6533   23.2444 C   0  0  2  0  0  0  0  0  0  0  0  0
    7.5024   11.3609   24.5344 N   0  0  0  0  0  0  0  0  0  0  0  0
    9.0073    9.7129   23.7198 N   0  0  0  0  0  0  0  0  0  0  0  0
   11.9193   12.7388   23.4156 N   0  0  0  0  0  0  0  0  0  0  0  0
   14.2120   11.9471   24.5783 N   0  0  0  0  0  0  0  0  0  0  0  0
   11.1951   10.3589   23.2096 O   0  0  0  0  0  0  0  0  0  0  0  0
    6.8277    9.1522   24.3314 O   0  0  0  0  0  0  0  0  0  0  0  0
   10.3537   14.2762   24.2027 O   0  0  0  0  0  0  0  0  0  0  0  0
   15.7472   12.8794   26.0500 O   0  0  0  0  0  0  0  0  0  0  0  0
   14.8397   11.4705   28.3612 Cl  0  0  0  0  0  0  0  0  0  0  0  0
   13.8020   17.5105   16.7259 H   0  0  0  0  0  0  0  0  0  0  0  0
   15.5387   18.1885   18.3576 H   0  0  0  0  0  0  0  0  0  0  0  0
   12.1354   15.8004   17.3220 H   0  0  0  0  0  0  0  0  0  0  0  0
   15.6155   17.1585   20.5918 H   0  0  0  0  0  0  0  0  0  0  0  0
   11.2011   14.1882   18.9860 H   0  0  0  0  0  0  0  0  0  0  0  0
   11.2735   13.1583   21.2116 H   0  0  0  0  0  0  0  0  0  0  0  0
   14.6850   15.5539   22.2502 H   0  0  0  0  0  0  0  0  0  0  0  0
    8.2094   13.3183   24.6902 H   0  0  0  0  0  0  0  0  0  0  0  0
    5.5705   12.1144   24.1944 H   0  0  0  0  0  0  0  0  0  0  0  0
    5.7217   10.9873   25.5847 H   0  0  0  0  0  0  0  0  0  0  0  0
    6.3527   12.6641   25.7150 H   0  0  0  0  0  0  0  0  0  0  0  0
    9.6499    7.7679   24.1845 H   0  0  0  0  0  0  0  0  0  0  0  0
    8.3440    7.8728   22.9556 H   0  0  0  0  0  0  0  0  0  0  0  0
   10.0269    8.3244   22.5188 H   0  0  0  0  0  0  0  0  0  0  0  0
   13.5792   10.5243   26.6049 H   0  0  0  0  0  0  0  0  0  0  0  0
   15.2918   10.0433   26.5289 H   0  0  0  0  0  0  0  0  0  0  0  0
   14.7058   12.4003   22.6510 H   0  0  0  0  0  0  0  0  0  0  0  0
   15.1427   13.6252   23.8491 H   0  0  0  0  0  0  0  0  0  0  0  0
   12.9000   14.4437   23.9961 H   0  0  0  0  0  0  0  0  0  0  0  0
   12.0604   11.7599   23.1831 H   0  0  0  0  0  0  0  0  0  0  0  0
   13.5605   11.1781   24.4384 H   0  0  0  0  0  0  0  0  0  0  0  0
  1  2  1  0  0  0  0
  1  3  2  0  0  0  0
  2  4  2  0  0  0  0
  3  8  1  0  0  0  0
  4  9  1  0  0  0  0
  5  6  2  0  0  0  0
  5  8  1  0  0  0  0
  6 10  1  0  0  0  0
  7  9  1  0  0  0  0
  7 10  2  0  0  0  0
  8  9  2  0  0  0  0
 10 21  1  0  0  0  0
 11 12  2  0  0  0  0
 11 22  1  0  0  0  0
 12 13  1  0  0  0  0
 12 15  1  0  0  0  0
 13 23  1  0  0  0  0
 13 26  2  0  0  0  0
 14 22  1  0  0  0  0
 14 23  1  0  0  0  0
 14 27  2  0  0  0  0
 15 24  1  0  0  0  0
 15 28  2  0  0  0  0
 16 19  1  0  0  0  0
 16 25  1  0  0  0  0
 16 29  2  0  0  0  0
 17 22  1  0  0  0  0
 18 23  1  0  0  0  0
 19 30  1  0  0  0  0
 20 21  1  0  0  0  0
 20 25  1  0  0  0  0
 21 24  1  0  0  0  0
  1 31  1  0  0  0  0
  2 32  1  0  0  0  0
  3 33  1  0  0  0  0
  4 34  1  0  0  0  0
  5 35  1  0  0  0  0
  6 36  1  0  0  0  0
  7 37  1  0  0  0  0
 11 38  1  0  0  0  0
 17 39  1  0  0  0  0
 17 40  1  0  0  0  0
 17 41  1  0  0  0  0
 18 42  1  0  0  0  0
 18 43  1  0  0  0  0
 18 44  1  0  0  0  0
 19 45  1  0  0  0  0
 19 46  1  0  0  0  0
 20 47  1  0  0  0  0
 20 48  1  0  0  0  0
 21 49  1  0  0  0  0
 24 50  1  0  0  0  0
 25 51  1  0  0  0  0
M  END
> <Catalog ID>
Z4425211966

> <MW>
428.869

> <MW (desalted)>
428.869

> <ClogP>
2.113

> <logS>
-4.492

> <HBD>
2

> <HBA>
4

> <TPSA>
98.82

> <RotBonds>
6

> <ROCS_ShapeQuery>
A71EV2A-x0451_0A_A71EV2A-x0310_0A_A71EV2A-x0416_0A_peptide

> <ROCS_TanimotoCombo>
0.533 

> <ROCS_ShapeTanimoto>
0.382 

> <ROCS_ColorTanimoto>
0.152 

> <ROCS_RefTversky>
0.342 

> <ROCS_RefColorTversky>
0.175 

> <ROCS_RefTverskyCombo>
0.517 

> <ROCS_FitTversky>
1.442 

> <ROCS_FitColorTversky>
0.529 

> <ROCS_FitTverskyCombo>
1.971 

> <ROCS_ColorScore>
-5.365

> <ROCS_Overlap>
2378.781

> <ROCS_Rank>
162                 

$$$$
untitled-dbase-11321_11184
  -OEChem-11132309573D

 38 40  0     1  0  0  0  0  0999 V2000
   13.5807   16.4501   18.3431 C   0  0  0  0  0  0  0  0  0  0  0  0
   12.4414   17.0690   18.8580 C   0  0  0  0  0  0  0  0  0  0  0  0
   14.3544   15.6220   19.1563 C   0  0  0  0  0  0  0  0  0  0  0  0
   12.0671   16.8531   20.1845 C   0  0  0  0  0  0  0  0  0  0  0  0
    8.2700   12.3563   24.0285 C   0  0  0  0  0  0  0  0  0  0  0  0
    9.1325   10.1511   23.8052 C   0  0  0  0  0  0  0  0  0  0  0  0
    7.0028   10.4326   24.6197 C   0  0  0  0  0  0  0  0  0  0  0  0
    9.3168   11.5171   23.6638 C   0  0  0  0  0  0  0  0  0  0  0  0
   13.9889   15.4192   20.4873 C   0  0  0  0  0  0  0  0  0  0  0  0
   12.8348   16.0174   20.9965 C   0  0  0  0  0  0  0  0  0  0  0  0
    7.0874   11.8117   24.5167 C   0  0  0  0  0  0  0  0  0  0  0  0
   11.1150   13.2689   23.4648 C   0  0  0  0  0  0  0  0  0  0  0  0
   14.5758   14.8026   22.6370 C   0  0  0  0  0  0  0  0  0  0  0  0
   13.0904   14.7827   22.9777 C   0  0  2  0  0  0  0  0  0  0  0  0
   12.4213   13.4366   22.7057 C   0  0  0  0  0  0  0  0  0  0  0  0
    7.9983    9.5852   24.2755 N   0  0  0  0  0  0  0  0  0  0  0  0
   10.5320   12.0416   23.1626 N   0  0  0  0  0  0  0  0  0  0  0  0
   10.6863   14.1312   24.2245 O   0  0  0  0  0  0  0  0  0  0  0  0
    4.9699   14.3470   26.3511 O   0  0  0  0  0  0  0  0  0  0  0  0
    5.6478   12.1017   27.3182 O   0  0  0  0  0  0  0  0  0  0  0  0
   14.7921   14.6032   21.2390 O   0  0  0  0  0  0  0  0  0  0  0  0
   12.3939   15.8227   22.2784 O   0  0  0  0  0  0  0  0  0  0  0  0
    6.0497   12.6057   24.8790 O   0  0  0  0  0  0  0  0  0  0  0  0
    7.2720   13.7993   26.7935 F   0  0  0  0  0  0  0  0  0  0  0  0
    5.8552   13.2002   26.3957 S   0  0  0  0  0  0  0  0  0  0  0  0
   13.8634   16.6102   17.3068 H   0  0  0  0  0  0  0  0  0  0  0  0
   11.8476   17.7236   18.2267 H   0  0  0  0  0  0  0  0  0  0  0  0
   15.2317   15.1319   18.7432 H   0  0  0  0  0  0  0  0  0  0  0  0
   11.1837   17.3478   20.5799 H   0  0  0  0  0  0  0  0  0  0  0  0
    8.3712   13.4345   23.9339 H   0  0  0  0  0  0  0  0  0  0  0  0
    9.9140    9.4457   23.5382 H   0  0  0  0  0  0  0  0  0  0  0  0
    6.1040    9.9533   24.9951 H   0  0  0  0  0  0  0  0  0  0  0  0
   15.0197   15.7732   22.9025 H   0  0  0  0  0  0  0  0  0  0  0  0
   15.1318   14.0258   23.1878 H   0  0  0  0  0  0  0  0  0  0  0  0
   12.9666   15.0088   24.0801 H   0  0  0  0  0  0  0  0  0  0  0  0
   13.1012   12.6291   22.9965 H   0  0  0  0  0  0  0  0  0  0  0  0
   12.2178   13.3434   21.6339 H   0  0  0  0  0  0  0  0  0  0  0  0
   11.0269   11.4413   22.5063 H   0  0  0  0  0  0  0  0  0  0  0  0
  1  2  1  0  0  0  0
  1  3  2  0  0  0  0
  2  4  2  0  0  0  0
  3  9  1  0  0  0  0
  4 10  1  0  0  0  0
  5  8  1  0  0  0  0
  5 11  2  0  0  0  0
  6  8  2  0  0  0  0
  6 16  1  0  0  0  0
  7 11  1  0  0  0  0
  7 16  2  0  0  0  0
  8 17  1  0  0  0  0
  9 10  2  0  0  0  0
  9 21  1  0  0  0  0
 10 22  1  0  0  0  0
 11 23  1  0  0  0  0
 12 15  1  0  0  0  0
 12 17  1  0  0  0  0
 12 18  2  0  0  0  0
 13 14  1  0  0  0  0
 13 21  1  0  0  0  0
 14 15  1  0  0  0  0
 14 22  1  0  0  0  0
 19 25  2  0  0  0  0
 20 25  2  0  0  0  0
 23 25  1  0  0  0  0
 24 25  1  0  0  0  0
  1 26  1  0  0  0  0
  2 27  1  0  0  0  0
  3 28  1  0  0  0  0
  4 29  1  0  0  0  0
  5 30  1  0  0  0  0
  6 31  1  0  0  0  0
  7 32  1  0  0  0  0
 13 33  1  0  0  0  0
 13 34  1  0  0  0  0
 14 35  1  0  0  0  0
 15 36  1  0  0  0  0
 15 37  1  0  0  0  0
 17 38  1  0  0  0  0
M  END
> <Catalog ID>
Z4607528904

> <MW>
368.337

> <MW (desalted)>
368.337

> <ClogP>
0.766

> <logS>
-3.446

> <HBD>
1

> <HBA>
6

> <TPSA>
103.82

> <RotBonds>
5

> <ROCS_ShapeQuery>
A71EV2A-x0451_0A_A71EV2A-x0310_0A_A71EV2A-x0416_0A_peptide

> <ROCS_TanimotoCombo>
0.533 

> <ROCS_ShapeTanimoto>
0.321 

> <ROCS_ColorTanimoto>
0.212 

> <ROCS_RefTversky>
0.293 

> <ROCS_RefColorTversky>
0.238 

> <ROCS_RefTverskyCombo>
0.532 

> <ROCS_FitTversky>
1.422 

> <ROCS_FitColorTversky>
0.657 

> <ROCS_FitTverskyCombo>
2.080 

> <ROCS_ColorScore>
-7.295

> <ROCS_Overlap>
2039.392

> <ROCS_Rank>
163                 

$$$$
untitled-dbase-9118_8770
  -OEChem-11132309573D

 59 62  0     1  0  0  0  0  0999 V2000
   11.7904   12.8344   24.5717 C   0  0  0  0  0  0  0  0  0  0  0  0
    5.3115   12.4573   26.3945 C   0  0  0  0  0  0  0  0  0  0  0  0
    5.5735   11.2600   28.4766 C   0  0  0  0  0  0  0  0  0  0  0  0
    4.4092   13.3264   27.0078 C   0  0  0  0  0  0  0  0  0  0  0  0
    4.6713   12.1292   29.0899 C   0  0  0  0  0  0  0  0  0  0  0  0
    5.8936   11.4241   27.1289 C   0  0  0  0  0  0  0  0  0  0  0  0
    9.0062   12.0595   23.9547 C   0  0  0  0  0  0  0  0  0  0  0  0
    8.2248   12.1353   25.1334 C   0  0  0  0  0  0  0  0  0  0  0  0
    4.0891   13.1624   28.3555 C   0  0  0  0  0  0  0  0  0  0  0  0
    8.9529   10.7562   23.5088 C   0  0  0  0  0  0  0  0  0  0  0  0
    7.7140   10.8788   25.3780 C   0  0  0  0  0  0  0  0  0  0  0  0
    9.5154   10.0572   22.4015 C   0  0  0  0  0  0  0  0  0  0  0  0
    9.2616    8.7434   22.2463 C   0  0  0  0  0  0  0  0  0  0  0  0
    8.4234    8.0154   23.1848 C   0  0  0  0  0  0  0  0  0  0  0  0
    7.8908    8.6696   24.2297 C   0  0  0  0  0  0  0  0  0  0  0  0
    9.7474   13.1514   23.3044 C   0  0  0  0  0  0  0  0  0  0  0  0
   11.0192   13.5047   23.5746 C   0  0  0  0  0  0  0  0  0  0  0  0
    6.8673   10.4865   26.4669 C   0  0  0  0  0  0  0  0  0  0  0  0
   11.5818   14.6611   22.7876 C   0  0  0  0  0  0  0  0  0  0  0  0
   13.9687   16.5036   18.4413 C   0  0  0  0  0  0  0  0  0  0  0  0
   14.0920   16.9221   19.9031 C   0  0  0  0  0  0  0  0  0  0  0  0
   12.5419   16.0838   18.0902 C   0  0  0  0  0  0  0  0  0  0  0  0
   13.5585   15.8542   20.8544 C   0  0  0  0  0  0  0  0  0  0  0  0
   11.9901   14.9954   19.0267 C   0  0  2  0  0  0  0  0  0  0  0  0
   12.1246   15.4479   20.4969 C   0  0  1  0  0  0  0  0  0  0  0  0
    7.9954   13.3432   25.9571 C   0  0  0  0  0  0  0  0  0  0  0  0
   12.6561   13.6414   18.7451 C   0  0  0  0  0  0  0  0  0  0  0  0
   12.4205   12.2924   25.3818 N   0  0  0  0  0  0  0  0  0  0  0  0
    8.1554   10.0303   24.3882 N   0  0  0  0  0  0  0  0  0  0  0  0
   11.6237   14.4548   21.4177 N   0  0  0  0  0  0  0  0  0  0  0  0
    6.9016    9.3234   26.9244 O   0  0  0  0  0  0  0  0  0  0  0  0
   11.9617   15.6934   23.3381 O   0  0  0  0  0  0  0  0  0  0  0  0
    3.2228   13.9970   28.9446 F   0  0  0  0  0  0  0  0  0  0  0  0
    5.5538   12.5943   25.3439 H   0  0  0  0  0  0  0  0  0  0  0  0
    6.0218   10.4586   29.0587 H   0  0  0  0  0  0  0  0  0  0  0  0
    3.9560   14.1309   26.4363 H   0  0  0  0  0  0  0  0  0  0  0  0
    4.4216   12.0014   30.1393 H   0  0  0  0  0  0  0  0  0  0  0  0
   10.1431   10.5832   21.6902 H   0  0  0  0  0  0  0  0  0  0  0  0
    9.6802    8.1922   21.4114 H   0  0  0  0  0  0  0  0  0  0  0  0
    8.2469    6.9595   23.0208 H   0  0  0  0  0  0  0  0  0  0  0  0
    7.2595    8.1775   24.9598 H   0  0  0  0  0  0  0  0  0  0  0  0
    9.1580   13.6907   22.5660 H   0  0  0  0  0  0  0  0  0  0  0  0
   14.2695   17.3384   17.7978 H   0  0  0  0  0  0  0  0  0  0  0  0
   14.6565   15.6770   18.2352 H   0  0  0  0  0  0  0  0  0  0  0  0
   15.1449   17.1340   20.1349 H   0  0  0  0  0  0  0  0  0  0  0  0
   13.5442   17.8605   20.0618 H   0  0  0  0  0  0  0  0  0  0  0  0
   11.8895   16.9712   18.1288 H   0  0  0  0  0  0  0  0  0  0  0  0
   12.5135   15.7354   17.0446 H   0  0  0  0  0  0  0  0  0  0  0  0
   14.2173   14.9824   20.8439 H   0  0  0  0  0  0  0  0  0  0  0  0
   13.5712   16.2483   21.8749 H   0  0  0  0  0  0  0  0  0  0  0  0
   10.9237   14.8889   18.8137 H   0  0  0  0  0  0  0  0  0  0  0  0
   11.4680   16.3273   20.6488 H   0  0  0  0  0  0  0  0  0  0  0  0
    7.1054   13.8916   25.6119 H   0  0  0  0  0  0  0  0  0  0  0  0
    7.8473   13.0927   27.0199 H   0  0  0  0  0  0  0  0  0  0  0  0
    8.8537   14.0336   25.9202 H   0  0  0  0  0  0  0  0  0  0  0  0
   13.7229   13.7089   18.9468 H   0  0  0  0  0  0  0  0  0  0  0  0
   12.5045   13.3684   17.7030 H   0  0  0  0  0  0  0  0  0  0  0  0
   12.2177   12.8777   19.3838 H   0  0  0  0  0  0  0  0  0  0  0  0
   11.2893   13.5716   21.0474 H   0  0  0  0  0  0  0  0  0  0  0  0
  1 17  1  0  0  0  0
  1 28  3  0  0  0  0
  2  4  2  0  0  0  0
  2  6  1  0  0  0  0
  3  5  1  0  0  0  0
  3  6  2  0  0  0  0
  4  9  1  0  0  0  0
  5  9  2  0  0  0  0
  6 18  1  0  0  0  0
  7  8  1  0  0  0  0
  7 10  2  0  0  0  0
  7 16  1  4  0  0  0
  8 11  2  0  0  0  0
  8 26  1  0  0  0  0
  9 33  1  0  0  0  0
 10 12  1  0  0  0  0
 10 29  1  0  0  0  0
 11 18  1  0  0  0  0
 11 29  1  0  0  0  0
 12 13  2  0  0  0  0
 13 14  1  0  0  0  0
 14 15  2  0  0  0  0
 15 29  1  0  0  0  0
 16 17  2  0  0  0  0
 17 19  1  0  0  0  0
 18 31  2  0  0  0  0
 19 30  1  0  0  0  0
 19 32  2  0  0  0  0
 20 21  1  0  0  0  0
 20 22  1  0  0  0  0
 21 23  1  0  0  0  0
 22 24  1  0  0  0  0
 23 25  1  0  0  0  0
 24 25  1  0  0  0  0
 24 27  1  0  0  0  0
 25 30  1  0  0  0  0
  2 34  1  0  0  0  0
  3 35  1  0  0  0  0
  4 36  1  0  0  0  0
  5 37  1  0  0  0  0
 12 38  1  0  0  0  0
 13 39  1  0  0  0  0
 14 40  1  0  0  0  0
 15 41  1  0  0  0  0
 16 42  1  0  0  0  0
 20 43  1  0  0  0  0
 20 44  1  0  0  0  0
 21 45  1  0  0  0  0
 21 46  1  0  0  0  0
 22 47  1  0  0  0  0
 22 48  1  0  0  0  0
 23 49  1  0  0  0  0
 23 50  1  0  0  0  0
 24 51  1  0  0  0  0
 25 52  1  0  0  0  0
 26 53  1  0  0  0  0
 26 54  1  0  0  0  0
 26 55  1  0  0  0  0
 27 56  1  0  0  0  0
 27 57  1  0  0  0  0
 27 58  1  0  0  0  0
 30 59  1  0  0  0  0
M  END
> <Catalog ID>
Z46098962

> <MW>
443.513

> <MW (desalted)>
443.513

> <ClogP>
6.112

> <logS>
-7.19

> <HBD>
1

> <HBA>
3

> <TPSA>
74.37

> <RotBonds>
5

> <ROCS_ShapeQuery>
A71EV2A-x0451_0A_A71EV2A-x0310_0A_A71EV2A-x0416_0A_peptide

> <ROCS_TanimotoCombo>
0.533 

> <ROCS_ShapeTanimoto>
0.409 

> <ROCS_ColorTanimoto>
0.124 

> <ROCS_RefTversky>
0.365 

> <ROCS_RefColorTversky>
0.143 

> <ROCS_RefTverskyCombo>
0.508 

> <ROCS_FitTversky>
1.426 

> <ROCS_FitColorTversky>
0.476 

> <ROCS_FitTverskyCombo>
1.902 

> <ROCS_ColorScore>
-4.378

> <ROCS_Overlap>
2542.480

> <ROCS_Rank>
164                 

$$$$
untitled-dbase-2494_450
  -OEChem-11132309573D

 43 45  0     0  0  0  0  0  0999 V2000
    6.2738   11.1458   25.9981 C   0  0  0  0  0  0  0  0  0  0  0  0
    6.5095   12.5195   26.0335 C   0  0  0  0  0  0  0  0  0  0  0  0
    7.0963   10.3148   25.2391 C   0  0  0  0  0  0  0  0  0  0  0  0
    7.5698   13.0682   25.3093 C   0  0  0  0  0  0  0  0  0  0  0  0
    8.1564   10.8693   24.5161 C   0  0  0  0  0  0  0  0  0  0  0  0
    8.4057   12.2496   24.5422 C   0  0  0  0  0  0  0  0  0  0  0  0
   12.9719   13.8385   26.6090 C   0  0  0  0  0  0  0  0  0  0  0  0
   12.1812   14.4392   25.6358 C   0  0  0  0  0  0  0  0  0  0  0  0
   14.0864   13.0977   26.2315 C   0  0  0  0  0  0  0  0  0  0  0  0
   12.5448   14.2702   24.3095 C   0  0  0  0  0  0  0  0  0  0  0  0
   14.3646   12.9886   24.8786 C   0  0  0  0  0  0  0  0  0  0  0  0
    9.0419   10.0066   23.7040 C   0  0  0  0  0  0  0  0  0  0  0  0
   10.2204   12.0533   23.1242 C   0  0  0  0  0  0  0  0  0  0  0  0
   11.7782   14.8637   23.2024 C   0  0  0  0  0  0  0  0  0  0  0  0
   13.1192   16.0618   19.1736 C   0  0  0  0  0  0  0  0  0  0  0  0
   11.3714   12.5948   22.3302 C   0  0  0  0  0  0  0  0  0  0  0  0
   10.3964   14.5049   21.1056 C   0  0  0  0  0  0  0  0  0  0  0  0
   11.3030   14.7691   19.9173 C   0  0  0  0  0  0  0  0  0  0  0  0
   13.6199   13.5579   23.9043 N   0  0  0  0  0  0  0  0  0  0  0  0
    9.4647   12.8378   23.8254 N   0  0  0  0  0  0  0  0  0  0  0  0
   10.0501   10.6869   23.0406 N   0  0  0  0  0  0  0  0  0  0  0  0
   11.1974   14.0151   22.2381 N   0  0  0  0  0  0  0  0  0  0  0  0
    8.8734    8.7944   23.6424 O   0  0  0  0  0  0  0  0  0  0  0  0
   11.6818   16.0904   23.2031 O   0  0  0  0  0  0  0  0  0  0  0  0
   12.2490   15.7741   20.2594 O   0  0  0  0  0  0  0  0  0  0  0  0
   12.5658   14.0147   28.2911 Cl  0  0  0  0  0  0  0  0  0  0  0  0
   10.7805   15.3753   26.0345 Cl  0  0  0  0  0  0  0  0  0  0  0  0
   15.1059   12.3297   27.4031 Cl  0  0  0  0  0  0  0  0  0  0  0  0
   15.7058   12.1067   24.2499 Cl  0  0  0  0  0  0  0  0  0  0  0  0
    5.4480   10.7229   26.5630 H   0  0  0  0  0  0  0  0  0  0  0  0
    5.8665   13.1642   26.6258 H   0  0  0  0  0  0  0  0  0  0  0  0
    6.8981    9.2469   25.2230 H   0  0  0  0  0  0  0  0  0  0  0  0
    7.7394   14.1416   25.3480 H   0  0  0  0  0  0  0  0  0  0  0  0
   13.8307   16.8360   19.4711 H   0  0  0  0  0  0  0  0  0  0  0  0
   12.5331   16.4009   18.3157 H   0  0  0  0  0  0  0  0  0  0  0  0
   13.6638   15.1537   18.9042 H   0  0  0  0  0  0  0  0  0  0  0  0
   11.3581   12.1367   21.3428 H   0  0  0  0  0  0  0  0  0  0  0  0
   12.2969   12.3491   22.8481 H   0  0  0  0  0  0  0  0  0  0  0  0
    9.8790   15.4166   21.4204 H   0  0  0  0  0  0  0  0  0  0  0  0
    9.6548   13.7400   20.8561 H   0  0  0  0  0  0  0  0  0  0  0  0
   10.7139   15.1340   19.0703 H   0  0  0  0  0  0  0  0  0  0  0  0
   11.8427   13.8661   19.6141 H   0  0  0  0  0  0  0  0  0  0  0  0
   10.6953   10.1536   22.4645 H   0  0  0  0  0  0  0  0  0  0  0  0
  1  2  1  0  0  0  0
  1  3  2  0  0  0  0
  2  4  2  0  0  0  0
  3  5  1  0  0  0  0
  4  6  1  0  0  0  0
  5  6  2  0  0  0  0
  5 12  1  0  0  0  0
  6 20  1  0  0  0  0
  7  8  1  0  0  0  0
  7  9  2  0  0  0  0
  7 26  1  0  0  0  0
  8 10  2  0  0  0  0
  8 27  1  0  0  0  0
  9 11  1  0  0  0  0
  9 28  1  0  0  0  0
 10 14  1  0  0  0  0
 10 19  1  0  0  0  0
 11 19  2  0  0  0  0
 11 29  1  0  0  0  0
 12 21  1  0  0  0  0
 12 23  2  0  0  0  0
 13 16  1  0  0  0  0
 13 20  2  0  0  0  0
 13 21  1  0  0  0  0
 14 22  1  0  0  0  0
 14 24  2  0  0  0  0
 15 25  1  0  0  0  0
 16 22  1  0  0  0  0
 17 18  1  0  0  0  0
 17 22  1  0  0  0  0
 18 25  1  0  0  0  0
  1 30  1  0  0  0  0
  2 31  1  0  0  0  0
  3 32  1  0  0  0  0
  4 33  1  0  0  0  0
 15 34  1  0  0  0  0
 15 35  1  0  0  0  0
 15 36  1  0  0  0  0
 16 37  1  0  0  0  0
 16 38  1  0  0  0  0
 17 39  1  0  0  0  0
 17 40  1  0  0  0  0
 18 41  1  0  0  0  0
 18 42  1  0  0  0  0
 21 43  1  0  0  0  0
M  END
> <Catalog ID>
Z28498816

> <MW>
476.141

> <MW (desalted)>
476.141

> <ClogP>
2.709

> <logS>
-6.84

> <HBD>
1

> <HBA>
5

> <TPSA>
83.89

> <RotBonds>
6

> <ROCS_ShapeQuery>
A71EV2A-x0451_0A_A71EV2A-x0310_0A_A71EV2A-x0416_0A_peptide

> <ROCS_TanimotoCombo>
0.533 

> <ROCS_ShapeTanimoto>
0.407 

> <ROCS_ColorTanimoto>
0.126 

> <ROCS_RefTversky>
0.355 

> <ROCS_RefColorTversky>
0.149 

> <ROCS_RefTverskyCombo>
0.504 

> <ROCS_FitTversky>
1.558 

> <ROCS_FitColorTversky>
0.450 

> <ROCS_FitTverskyCombo>
2.008 

> <ROCS_ColorScore>
-4.563

> <ROCS_Overlap>
2472.254

> <ROCS_Rank>
165                 

$$$$
untitled-dbase-3192_3399
  -OEChem-11132309573D

 53 56  0     1  0  0  0  0  0999 V2000
   11.5719   13.2172   24.7015 C   0  0  0  0  0  0  0  0  0  0  0  0
    5.6749   12.7446   27.7907 C   0  0  0  0  0  0  0  0  0  0  0  0
    4.6820   14.5429   26.5189 C   0  0  0  0  0  0  0  0  0  0  0  0
    6.7156   12.6649   26.8654 C   0  0  0  0  0  0  0  0  0  0  0  0
    5.7228   14.4632   25.5937 C   0  0  0  0  0  0  0  0  0  0  0  0
    4.6581   13.6836   27.6174 C   0  0  0  0  0  0  0  0  0  0  0  0
    6.7396   13.5241   25.7669 C   0  0  0  0  0  0  0  0  0  0  0  0
    7.2771    7.5372   24.8522 C   0  0  0  0  0  0  0  0  0  0  0  0
    6.9689    8.7863   25.2157 C   0  0  0  0  0  0  0  0  0  0  0  0
    8.3278    7.2849   23.9064 C   0  0  0  0  0  0  0  0  0  0  0  0
    9.0101    8.3077   23.3791 C   0  0  0  0  0  0  0  0  0  0  0  0
    9.1194   12.0245   23.5577 C   0  0  0  0  0  0  0  0  0  0  0  0
    8.1234   12.1773   24.4470 C   0  0  0  0  0  0  0  0  0  0  0  0
    7.7254    9.9344   24.6327 C   0  0  0  0  0  0  0  0  0  0  0  0
    9.4934   10.6471   23.1261 C   0  0  0  0  0  0  0  0  0  0  0  0
    9.8467   13.1439   23.0005 C   0  0  0  0  0  0  0  0  0  0  0  0
   10.9606   13.6991   23.5047 C   0  0  0  0  0  0  0  0  0  0  0  0
   11.5389   14.8630   22.7401 C   0  0  0  0  0  0  0  0  0  0  0  0
   12.1534   15.2957   19.0934 C   0  0  0  0  0  0  0  0  0  0  0  0
   12.9858   16.2920   18.2950 C   0  0  0  0  0  0  0  0  0  0  0  0
   13.9976   15.6028   20.6640 C   0  0  0  0  0  0  0  0  0  0  0  0
   12.4730   15.5623   20.5672 C   0  0  2  0  0  0  0  0  0  0  0  0
    3.5457   13.7695   28.6069 C   0  0  0  0  0  0  0  0  0  0  0  0
   12.0732   12.8303   25.6740 N   0  0  0  0  0  0  0  0  0  0  0  0
    7.4136   11.1409   24.9966 N   0  0  0  0  0  0  0  0  0  0  0  0
    8.7386    9.6295   23.7164 N   0  0  0  0  0  0  0  0  0  0  0  0
   11.9043   14.5692   21.4355 N   0  0  0  0  0  0  0  0  0  0  0  0
   10.4015   10.4739   22.3137 O   0  0  0  0  0  0  0  0  0  0  0  0
   11.6688   15.9747   23.2504 O   0  0  0  0  0  0  0  0  0  0  0  0
   14.8119   17.7992   19.4501 O   0  0  0  0  0  0  0  0  0  0  0  0
   15.5079   15.5496   18.5054 O   0  0  0  0  0  0  0  0  0  0  0  0
    7.7574   13.4469   24.8636 O   0  0  0  0  0  0  0  0  0  0  0  0
   14.5428   16.4055   19.1635 S   0  0  0  0  0  0  0  0  0  0  0  0
    5.6642   12.0712   28.6435 H   0  0  0  0  0  0  0  0  0  0  0  0
    3.8938   15.2777   26.3758 H   0  0  0  0  0  0  0  0  0  0  0  0
    7.5051   11.9314   27.0060 H   0  0  0  0  0  0  0  0  0  0  0  0
    5.7359   15.1355   24.7404 H   0  0  0  0  0  0  0  0  0  0  0  0
    6.7417    6.6890   25.2634 H   0  0  0  0  0  0  0  0  0  0  0  0
    6.1788    8.9938   25.9281 H   0  0  0  0  0  0  0  0  0  0  0  0
    8.5497    6.2596   23.6349 H   0  0  0  0  0  0  0  0  0  0  0  0
    9.8044    8.1258   22.6634 H   0  0  0  0  0  0  0  0  0  0  0  0
    9.3950   13.5234   22.0891 H   0  0  0  0  0  0  0  0  0  0  0  0
   11.0900   15.4849   18.9175 H   0  0  0  0  0  0  0  0  0  0  0  0
   12.3615   14.2663   18.7969 H   0  0  0  0  0  0  0  0  0  0  0  0
   13.1889   15.9228   17.2858 H   0  0  0  0  0  0  0  0  0  0  0  0
   12.5200   17.2783   18.2434 H   0  0  0  0  0  0  0  0  0  0  0  0
   14.3118   16.2298   21.5026 H   0  0  0  0  0  0  0  0  0  0  0  0
   14.4586   14.6176   20.7492 H   0  0  0  0  0  0  0  0  0  0  0  0
   12.0492   16.5299   20.8884 H   0  0  0  0  0  0  0  0  0  0  0  0
    3.7995   14.4758   29.4068 H   0  0  0  0  0  0  0  0  0  0  0  0
    2.6140   14.1027   28.1314 H   0  0  0  0  0  0  0  0  0  0  0  0
    3.3386   12.7909   29.0596 H   0  0  0  0  0  0  0  0  0  0  0  0
   11.7923   13.6339   21.0585 H   0  0  0  0  0  0  0  0  0  0  0  0
  1 17  1  0  0  0  0
  1 24  3  0  0  0  0
  2  4  2  0  0  0  0
  2  6  1  0  0  0  0
  3  5  1  0  0  0  0
  3  6  2  0  0  0  0
  4  7  1  0  0  0  0
  5  7  2  0  0  0  0
  6 23  1  0  0  0  0
  7 32  1  0  0  0  0
  8  9  2  0  0  0  0
  8 10  1  0  0  0  0
  9 14  1  0  0  0  0
 10 11  2  0  0  0  0
 11 26  1  0  0  0  0
 12 13  2  0  0  0  0
 12 15  1  0  0  0  0
 12 16  1  4  0  0  0
 13 25  1  0  0  0  0
 13 32  1  0  0  0  0
 14 25  2  0  0  0  0
 14 26  1  0  0  0  0
 15 26  1  0  0  0  0
 15 28  2  0  0  0  0
 16 17  2  0  0  0  0
 17 18  1  0  0  0  0
 18 27  1  0  0  0  0
 18 29  2  0  0  0  0
 19 20  1  0  0  0  0
 19 22  1  0  0  0  0
 20 33  1  0  0  0  0
 21 22  1  0  0  0  0
 21 33  1  0  0  0  0
 22 27  1  0  0  0  0
 30 33  2  0  0  0  0
 31 33  2  0  0  0  0
  2 34  1  0  0  0  0
  3 35  1  0  0  0  0
  4 36  1  0  0  0  0
  5 37  1  0  0  0  0
  8 38  1  0  0  0  0
  9 39  1  0  0  0  0
 10 40  1  0  0  0  0
 11 41  1  0  0  0  0
 16 42  1  0  0  0  0
 19 43  1  0  0  0  0
 19 44  1  0  0  0  0
 20 45  1  0  0  0  0
 20 46  1  0  0  0  0
 21 47  1  0  0  0  0
 21 48  1  0  0  0  0
 22 49  1  0  0  0  0
 23 50  1  0  0  0  0
 23 51  1  0  0  0  0
 23 52  1  0  0  0  0
 27 53  1  0  0  0  0
M  END
> <Catalog ID>
Z57399828

> <MW>
464.494

> <MW (desalted)>
464.494

> <ClogP>
0.839

> <logS>
-5.58

> <HBD>
1

> <HBA>
7

> <TPSA>
128.93

> <RotBonds>
5

> <ROCS_ShapeQuery>
A71EV2A-x0451_0A_A71EV2A-x0310_0A_A71EV2A-x0416_0A_peptide

> <ROCS_TanimotoCombo>
0.533 

> <ROCS_ShapeTanimoto>
0.417 

> <ROCS_ColorTanimoto>
0.116 

> <ROCS_RefTversky>
0.370 

> <ROCS_RefColorTversky>
0.148 

> <ROCS_RefTverskyCombo>
0.518 

> <ROCS_FitTversky>
1.443 

> <ROCS_FitColorTversky>
0.350 

> <ROCS_FitTverskyCombo>
1.793 

> <ROCS_ColorScore>
-4.553

> <ROCS_Overlap>
2576.296

> <ROCS_Rank>
166                 

$$$$
untitled-dbase-10086_7342
  -OEChem-11132309573D

 44 45  0     0  0  0  0  0  0999 V2000
   10.0992   14.9998   21.4010 C   0  0  0  0  0  0  0  0  0  0  0  0
   12.6870   16.1561   18.1487 C   0  0  0  0  0  0  0  0  0  0  0  0
   14.0131   16.4663   18.4498 C   0  0  0  0  0  0  0  0  0  0  0  0
   11.8640   15.5919   19.1235 C   0  0  0  0  0  0  0  0  0  0  0  0
   13.6934   15.6480   20.7005 C   0  0  0  0  0  0  0  0  0  0  0  0
   14.5164   16.2122   19.7257 C   0  0  0  0  0  0  0  0  0  0  0  0
   12.3673   15.3379   20.3993 C   0  0  0  0  0  0  0  0  0  0  0  0
    9.3799   11.5128   23.4957 C   0  0  0  0  0  0  0  0  0  0  0  0
    9.1658   10.1216   23.4768 C   0  0  0  0  0  0  0  0  0  0  0  0
    8.3270   12.0124   24.2225 C   0  0  0  0  0  0  0  0  0  0  0  0
   10.9699   13.4613   23.3553 C   0  0  0  0  0  0  0  0  0  0  0  0
    9.9931    9.0880   22.8292 C   0  0  0  0  0  0  0  0  0  0  0  0
    7.9709   13.3936   24.6020 C   0  0  0  0  0  0  0  0  0  0  0  0
   16.8819   15.3816   19.7587 C   0  0  0  0  0  0  0  0  0  0  0  0
    6.3582   10.9400   25.3583 C   0  0  0  0  0  0  0  0  0  0  0  0
   15.9345   16.5433   20.0470 C   0  0  0  0  0  0  0  0  0  0  0  0
   12.0805   13.9204   22.4304 C   0  0  0  0  0  0  0  0  0  0  0  0
    8.9525   15.1773   21.4240 N   0  0  0  0  0  0  0  0  0  0  0  0
    8.0635    9.7605   24.1391 N   0  0  0  0  0  0  0  0  0  0  0  0
    7.5757   10.9321   24.5811 N   0  0  0  0  0  0  0  0  0  0  0  0
   10.4293   12.2587   22.9080 N   0  0  0  0  0  0  0  0  0  0  0  0
   11.5349   14.7678   21.3850 N   0  0  0  0  0  0  0  0  0  0  0  0
   10.6439   14.0982   24.3520 O   0  0  0  0  0  0  0  0  0  0  0  0
   12.2951   16.3541   17.1551 H   0  0  0  0  0  0  0  0  0  0  0  0
   14.6473   16.9057   17.6840 H   0  0  0  0  0  0  0  0  0  0  0  0
   10.8320   15.3544   18.8781 H   0  0  0  0  0  0  0  0  0  0  0  0
   14.0874   15.4508   21.6949 H   0  0  0  0  0  0  0  0  0  0  0  0
   10.7705    8.7109   23.5149 H   0  0  0  0  0  0  0  0  0  0  0  0
    9.3931    8.2224   22.4974 H   0  0  0  0  0  0  0  0  0  0  0  0
   10.5016    9.4681   21.9255 H   0  0  0  0  0  0  0  0  0  0  0  0
    7.3243   13.8606   23.8410 H   0  0  0  0  0  0  0  0  0  0  0  0
    7.4358   13.4331   25.5662 H   0  0  0  0  0  0  0  0  0  0  0  0
    8.8624   14.0327   24.7221 H   0  0  0  0  0  0  0  0  0  0  0  0
   16.5846   14.4853   20.3136 H   0  0  0  0  0  0  0  0  0  0  0  0
   17.9062   15.6357   20.0486 H   0  0  0  0  0  0  0  0  0  0  0  0
   16.8833   15.1314   18.6923 H   0  0  0  0  0  0  0  0  0  0  0  0
    5.5173   11.0393   24.6669 H   0  0  0  0  0  0  0  0  0  0  0  0
    6.2807   10.0068   25.9231 H   0  0  0  0  0  0  0  0  0  0  0  0
    6.3812   11.7808   26.0573 H   0  0  0  0  0  0  0  0  0  0  0  0
   16.2623   17.4256   19.4740 H   0  0  0  0  0  0  0  0  0  0  0  0
   16.0311   16.8320   21.1062 H   0  0  0  0  0  0  0  0  0  0  0  0
   12.5687   13.0510   21.9789 H   0  0  0  0  0  0  0  0  0  0  0  0
   12.8207   14.4783   23.0125 H   0  0  0  0  0  0  0  0  0  0  0  0
   10.8256   11.8576   22.0607 H   0  0  0  0  0  0  0  0  0  0  0  0
  1 18  3  0  0  0  0
  1 22  1  0  0  0  0
  2  3  2  0  0  0  0
  2  4  1  0  0  0  0
  3  6  1  0  0  0  0
  4  7  2  0  0  0  0
  5  6  2  0  0  0  0
  5  7  1  0  0  0  0
  6 16  1  0  0  0  0
  7 22  1  0  0  0  0
  8  9  1  0  0  0  0
  8 10  2  0  0  0  0
  8 21  1  0  0  0  0
  9 12  1  0  0  0  0
  9 19  2  0  0  0  0
 10 13  1  0  0  0  0
 10 20  1  0  0  0  0
 11 17  1  0  0  0  0
 11 21  1  0  0  0  0
 11 23  2  0  0  0  0
 14 16  1  0  0  0  0
 15 20  1  0  0  0  0
 17 22  1  0  0  0  0
 19 20  1  0  0  0  0
  2 24  1  0  0  0  0
  3 25  1  0  0  0  0
  4 26  1  0  0  0  0
  5 27  1  0  0  0  0
 12 28  1  0  0  0  0
 12 29  1  0  0  0  0
 12 30  1  0  0  0  0
 13 31  1  0  0  0  0
 13 32  1  0  0  0  0
 13 33  1  0  0  0  0
 14 34  1  0  0  0  0
 14 35  1  0  0  0  0
 14 36  1  0  0  0  0
 15 37  1  0  0  0  0
 15 38  1  0  0  0  0
 15 39  1  0  0  0  0
 16 40  1  0  0  0  0
 16 41  1  0  0  0  0
 17 42  1  0  0  0  0
 17 43  1  0  0  0  0
 21 44  1  0  0  0  0
M  END
> <Catalog ID>
Z1362475317

> <MW>
311.382

> <MW (desalted)>
311.382

> <ClogP>
1.261

> <logS>
-3.202

> <HBD>
1

> <HBA>
4

> <TPSA>
73.95

> <RotBonds>
5

> <ROCS_ShapeQuery>
A71EV2A-x0451_0A_A71EV2A-x0310_0A_A71EV2A-x0416_0A_peptide

> <ROCS_TanimotoCombo>
0.533 

> <ROCS_ShapeTanimoto>
0.345 

> <ROCS_ColorTanimoto>
0.188 

> <ROCS_RefTversky>
0.306 

> <ROCS_RefColorTversky>
0.206 

> <ROCS_RefTverskyCombo>
0.512 

> <ROCS_FitTversky>
1.593 

> <ROCS_FitColorTversky>
0.684 

> <ROCS_FitTverskyCombo>
2.277 

> <ROCS_ColorScore>
-6.279

> <ROCS_Overlap>
2124.807

> <ROCS_Rank>
167                 

$$$$
untitled-dbase-10216_1295
  -OEChem-11132309573D

 45 47  0     1  0  0  0  0  0999 V2000
   15.4976   16.2551   18.3075 C   0  0  0  0  0  0  0  0  0  0  0  0
   14.1303   15.9694   20.3148 C   0  0  0  0  0  0  0  0  0  0  0  0
   13.1775   15.5004   18.1447 C   0  0  0  0  0  0  0  0  0  0  0  0
   12.9205   15.6289   20.9196 C   0  0  0  0  0  0  0  0  0  0  0  0
   11.9676   15.1598   18.7495 C   0  0  0  0  0  0  0  0  0  0  0  0
    9.9012   10.7655   23.0466 C   0  0  0  0  0  0  0  0  0  0  0  0
    8.9253   10.1066   23.7953 C   0  0  0  0  0  0  0  0  0  0  0  0
    8.9259   12.8972   23.6385 C   0  0  0  0  0  0  0  0  0  0  0  0
   14.2588   15.9052   18.9273 C   0  0  0  0  0  0  0  0  0  0  0  0
   11.8391   15.2241   20.1370 C   0  0  0  0  0  0  0  0  0  0  0  0
    9.9011   12.1586   22.9679 C   0  0  0  0  0  0  0  0  0  0  0  0
    7.9438   12.2346   24.3773 C   0  0  0  0  0  0  0  0  0  0  0  0
    7.9397   10.8428   24.4534 C   0  0  0  0  0  0  0  0  0  0  0  0
    5.9539   12.3587   25.7518 C   0  0  0  0  0  0  0  0  0  0  0  0
   10.7294   15.0368   23.3166 C   0  0  0  0  0  0  0  0  0  0  0  0
    5.8535   10.8639   25.5016 C   0  0  0  0  0  0  0  0  0  0  0  0
   12.3770   12.5664   22.6584 C   0  0  0  0  0  0  0  0  0  0  0  0
   10.5373   14.8560   20.7882 C   0  0  0  0  0  0  0  0  0  0  0  0
   10.5018   16.5274   23.1633 C   0  0  0  0  0  0  0  0  0  0  0  0
   10.9501   12.8589   22.1715 C   0  0  2  0  0  0  0  0  0  0  0  0
   16.5039   16.5392   17.8041 N   0  0  0  0  0  0  0  0  0  0  0  0
    6.9856   12.9726   25.0798 N   0  0  0  0  0  0  0  0  0  0  0  0
   10.7333   14.2949   22.1254 N   0  0  0  0  0  0  0  0  0  0  0  0
    5.1290   12.9599   26.4368 O   0  0  0  0  0  0  0  0  0  0  0  0
   10.8987   14.5238   24.4255 O   0  0  0  0  0  0  0  0  0  0  0  0
    7.0382   10.1479   25.2096 O   0  0  0  0  0  0  0  0  0  0  0  0
    8.7736   16.9160   23.2760 Cl  0  0  0  0  0  0  0  0  0  0  0  0
   14.9636   16.2850   20.9381 H   0  0  0  0  0  0  0  0  0  0  0  0
   13.2622   15.4436   17.0620 H   0  0  0  0  0  0  0  0  0  0  0  0
   12.8292   15.6827   22.0012 H   0  0  0  0  0  0  0  0  0  0  0  0
   11.1310   14.8437   18.1320 H   0  0  0  0  0  0  0  0  0  0  0  0
   10.6622   10.1847   22.5318 H   0  0  0  0  0  0  0  0  0  0  0  0
    8.9405    9.0220   23.8611 H   0  0  0  0  0  0  0  0  0  0  0  0
    8.9340   13.9832   23.5838 H   0  0  0  0  0  0  0  0  0  0  0  0
    5.4192   10.4099   26.3993 H   0  0  0  0  0  0  0  0  0  0  0  0
    5.1424   10.7093   24.6807 H   0  0  0  0  0  0  0  0  0  0  0  0
   12.4960   12.8603   23.7070 H   0  0  0  0  0  0  0  0  0  0  0  0
   12.6141   11.4997   22.5760 H   0  0  0  0  0  0  0  0  0  0  0  0
   13.1247   13.1086   22.0686 H   0  0  0  0  0  0  0  0  0  0  0  0
    9.8907   15.7352   20.8827 H   0  0  0  0  0  0  0  0  0  0  0  0
    9.9946   14.1158   20.1908 H   0  0  0  0  0  0  0  0  0  0  0  0
   11.0126   17.0708   23.9621 H   0  0  0  0  0  0  0  0  0  0  0  0
   10.8510   16.8627   22.1834 H   0  0  0  0  0  0  0  0  0  0  0  0
   10.9034   12.5399   21.1153 H   0  0  0  0  0  0  0  0  0  0  0  0
    7.0662   13.9847   25.1048 H   0  0  0  0  0  0  0  0  0  0  0  0
  1  9  1  0  0  0  0
  1 21  3  0  0  0  0
  2  4  2  0  0  0  0
  2  9  1  0  0  0  0
  3  5  1  0  0  0  0
  3  9  2  0  0  0  0
  4 10  1  0  0  0  0
  5 10  2  0  0  0  0
  6  7  2  0  0  0  0
  6 11  1  0  0  0  0
  7 13  1  0  0  0  0
  8 11  2  0  0  0  0
  8 12  1  0  0  0  0
 10 18  1  0  0  0  0
 11 20  1  0  0  0  0
 12 13  2  0  0  0  0
 12 22  1  0  0  0  0
 13 26  1  0  0  0  0
 14 16  1  0  0  0  0
 14 22  1  0  0  0  0
 14 24  2  0  0  0  0
 15 19  1  0  0  0  0
 15 23  1  0  0  0  0
 15 25  2  0  0  0  0
 16 26  1  0  0  0  0
 17 20  1  0  0  0  0
 18 23  1  0  0  0  0
 19 27  1  0  0  0  0
 20 23  1  0  0  0  0
  2 28  1  0  0  0  0
  3 29  1  0  0  0  0
  4 30  1  0  0  0  0
  5 31  1  0  0  0  0
  6 32  1  0  0  0  0
  7 33  1  0  0  0  0
  8 34  1  0  0  0  0
 16 35  1  0  0  0  0
 16 36  1  0  0  0  0
 17 37  1  0  0  0  0
 17 38  1  0  0  0  0
 17 39  1  0  0  0  0
 18 40  1  0  0  0  0
 18 41  1  0  0  0  0
 19 42  1  0  0  0  0
 19 43  1  0  0  0  0
 20 44  1  0  0  0  0
 22 45  1  0  0  0  0
M  END
> <Catalog ID>
Z4408352155

> <MW>
383.828

> <MW (desalted)>
383.828

> <ClogP>
1.719

> <logS>
-4.445

> <HBD>
1

> <HBA>
4

> <TPSA>
82.43

> <RotBonds>
5

> <ROCS_ShapeQuery>
A71EV2A-x0451_0A_A71EV2A-x0310_0A_A71EV2A-x0416_0A_peptide

> <ROCS_TanimotoCombo>
0.533 

> <ROCS_ShapeTanimoto>
0.362 

> <ROCS_ColorTanimoto>
0.171 

> <ROCS_RefTversky>
0.324 

> <ROCS_RefColorTversky>
0.190 

> <ROCS_RefTverskyCombo>
0.514 

> <ROCS_FitTversky>
1.487 

> <ROCS_FitColorTversky>
0.630 

> <ROCS_FitTverskyCombo>
2.116 

> <ROCS_ColorScore>
-5.787

> <ROCS_Overlap>
2253.883

> <ROCS_Rank>
168                 

$$$$
untitled-dbase-10365_148
  -OEChem-11132309573D

 42 44  0     0  0  0  0  0  0999 V2000
   13.5000   13.8741   22.5223 C   0  0  0  0  0  0  0  0  0  0  0  0
    8.5259   12.2575   24.1313 C   0  0  0  0  0  0  0  0  0  0  0  0
    8.5426    9.4653   24.0066 C   0  0  0  0  0  0  0  0  0  0  0  0
   12.6038   15.5317   20.2524 C   0  0  0  0  0  0  0  0  0  0  0  0
    9.5429   11.5937   23.4449 C   0  0  0  0  0  0  0  0  0  0  0  0
    9.5543   10.1996   23.3874 C   0  0  0  0  0  0  0  0  0  0  0  0
    7.5218   11.5235   24.7632 C   0  0  0  0  0  0  0  0  0  0  0  0
    7.5179   10.1288   24.6819 C   0  0  0  0  0  0  0  0  0  0  0  0
   13.6567   16.4459   20.4458 C   0  0  0  0  0  0  0  0  0  0  0  0
   12.5687   15.3307   18.8942 C   0  0  0  0  0  0  0  0  0  0  0  0
   11.7182   14.9107   21.2497 C   0  0  0  0  0  0  0  0  0  0  0  0
   12.1182   14.1457   22.2848 C   0  0  0  0  0  0  0  0  0  0  0  0
   11.0334   13.6084   23.1938 C   0  0  0  0  0  0  0  0  0  0  0  0
    5.8053   11.3951   26.3196 C   0  0  0  0  0  0  0  0  0  0  0  0
    5.3891   10.1233   25.6065 C   0  0  0  0  0  0  0  0  0  0  0  0
   14.1422   17.0177   21.7152 C   0  0  0  0  0  0  0  0  0  0  0  0
   11.7099   14.4976   18.0336 C   0  0  0  0  0  0  0  0  0  0  0  0
   14.6217   13.6514   22.7199 N   0  0  0  0  0  0  0  0  0  0  0  0
   14.2478   16.8010   19.3019 N   0  0  0  0  0  0  0  0  0  0  0  0
   13.5642   16.1062   18.3767 N   0  0  0  0  0  0  0  0  0  0  0  0
   10.5376   12.3511   22.8184 N   0  0  0  0  0  0  0  0  0  0  0  0
   10.5911    9.5002   22.7074 N   0  3  0  0  0  0  0  0  0  0  0  0
   10.5597    8.2478   22.6823 O   0  5  0  0  0  0  0  0  0  0  0  0
   10.6560   14.2613   24.1636 O   0  0  0  0  0  0  0  0  0  0  0  0
   11.5031   10.1587   22.1552 O   0  0  0  0  0  0  0  0  0  0  0  0
    6.5626   12.2307   25.4400 O   0  0  0  0  0  0  0  0  0  0  0  0
    6.5419    9.3542   25.2523 O   0  0  0  0  0  0  0  0  0  0  0  0
    8.5069   13.3443   24.1684 H   0  0  0  0  0  0  0  0  0  0  0  0
    8.5536    8.3779   23.9768 H   0  0  0  0  0  0  0  0  0  0  0  0
   10.6670   15.1414   21.0917 H   0  0  0  0  0  0  0  0  0  0  0  0
    4.9361   11.9604   26.6778 H   0  0  0  0  0  0  0  0  0  0  0  0
    6.4383   11.1581   27.1804 H   0  0  0  0  0  0  0  0  0  0  0  0
    4.7342    9.5048   26.2326 H   0  0  0  0  0  0  0  0  0  0  0  0
    4.8523   10.3632   24.6833 H   0  0  0  0  0  0  0  0  0  0  0  0
   14.9341   16.3907   22.1581 H   0  0  0  0  0  0  0  0  0  0  0  0
   14.5554   18.0328   21.5825 H   0  0  0  0  0  0  0  0  0  0  0  0
   13.3354   17.1140   22.4628 H   0  0  0  0  0  0  0  0  0  0  0  0
   10.8172   15.0541   17.7016 H   0  0  0  0  0  0  0  0  0  0  0  0
   12.2400   14.1484   17.1301 H   0  0  0  0  0  0  0  0  0  0  0  0
   11.3613   13.5864   18.5512 H   0  0  0  0  0  0  0  0  0  0  0  0
   13.8326   16.2095   17.4058 H   0  0  0  0  0  0  0  0  0  0  0  0
   10.9565   11.9358   21.9805 H   0  0  0  0  0  0  0  0  0  0  0  0
  1 12  1  0  0  0  0
  1 18  3  0  0  0  0
  2  5  1  0  0  0  0
  2  7  2  0  0  0  0
  3  6  1  0  0  0  0
  3  8  2  0  0  0  0
  4  9  1  0  0  0  0
  4 10  2  0  0  0  0
  4 11  1  4  0  0  0
  5  6  2  0  0  0  0
  5 21  1  0  0  0  0
  6 22  1  0  0  0  0
  7  8  1  0  0  0  0
  7 26  1  0  0  0  0
  8 27  1  0  0  0  0
  9 16  1  0  0  0  0
  9 19  2  0  0  0  0
 10 17  1  0  0  0  0
 10 20  1  0  0  0  0
 11 12  2  0  0  0  0
 12 13  1  0  0  0  0
 13 21  1  0  0  0  0
 13 24  2  0  0  0  0
 14 15  1  0  0  0  0
 14 26  1  0  0  0  0
 15 27  1  0  0  0  0
 19 20  1  0  0  0  0
 22 23  1  0  0  0  0
 22 25  2  0  0  0  0
  2 28  1  0  0  0  0
  3 29  1  0  0  0  0
 11 30  1  0  0  0  0
 14 31  1  0  0  0  0
 14 32  1  0  0  0  0
 15 33  1  0  0  0  0
 15 34  1  0  0  0  0
 16 35  1  0  0  0  0
 16 36  1  0  0  0  0
 16 37  1  0  0  0  0
 17 38  1  0  0  0  0
 17 39  1  0  0  0  0
 17 40  1  0  0  0  0
 20 41  1  0  0  0  0
 21 42  1  0  0  0  0
M  CHG  2  22   1  23  -1
M  END
> <Catalog ID>
Z424802830

> <MW>
369.332

> <MW (desalted)>
369.332

> <ClogP>
1.422

> <logS>
-4.52

> <HBD>
2

> <HBA>
7

> <TPSA>
143.17

> <RotBonds>
4

> <ROCS_ShapeQuery>
A71EV2A-x0451_0A_A71EV2A-x0310_0A_A71EV2A-x0416_0A_peptide

> <ROCS_TanimotoCombo>
0.533 

> <ROCS_ShapeTanimoto>
0.384 

> <ROCS_ColorTanimoto>
0.149 

> <ROCS_RefTversky>
0.339 

> <ROCS_RefColorTversky>
0.185 

> <ROCS_RefTverskyCombo>
0.524 

> <ROCS_FitTversky>
1.522 

> <ROCS_FitColorTversky>
0.437 

> <ROCS_FitTverskyCombo>
1.959 

> <ROCS_ColorScore>
-5.681

> <ROCS_Overlap>
2359.331

> <ROCS_Rank>
169                 

$$$$
untitled-dbase-6375_2138
  -OEChem-11132309573D

 43 45  0     0  0  0  0  0  0999 V2000
   12.7979   14.6860   19.8690 C   0  0  0  0  0  0  0  0  0  0  0  0
   14.1041   14.9433   20.2850 C   0  0  0  0  0  0  0  0  0  0  0  0
   11.8439   14.2565   20.7916 C   0  0  0  0  0  0  0  0  0  0  0  0
   14.4565   14.7710   21.6236 C   0  0  0  0  0  0  0  0  0  0  0  0
    9.5663   10.3003   23.4728 C   0  0  0  0  0  0  0  0  0  0  0  0
    8.5730    9.5821   24.1474 C   0  0  0  0  0  0  0  0  0  0  0  0
    8.6094   12.4396   24.1606 C   0  0  0  0  0  0  0  0  0  0  0  0
   12.1962   14.0841   22.1301 C   0  0  0  0  0  0  0  0  0  0  0  0
   13.5025   14.3413   22.5462 C   0  0  0  0  0  0  0  0  0  0  0  0
    7.6067   11.7350   24.8419 C   0  0  0  0  0  0  0  0  0  0  0  0
    9.5862   11.7005   23.4777 C   0  0  0  0  0  0  0  0  0  0  0  0
    7.6233   10.3483   24.8117 C   0  0  0  0  0  0  0  0  0  0  0  0
    5.9597   11.0498   25.9671 C   0  0  0  0  0  0  0  0  0  0  0  0
   14.1492    9.9169   24.7758 C   0  0  0  0  0  0  0  0  0  0  0  0
   14.0735   10.8482   25.7315 C   0  0  0  0  0  0  0  0  0  0  0  0
   11.1693   13.6288   23.0829 C   0  0  0  0  0  0  0  0  0  0  0  0
    4.7911   10.9612   26.7708 C   0  0  0  0  0  0  0  0  0  0  0  0
   14.4713   12.2528   25.4471 C   0  0  0  0  0  0  0  0  0  0  0  0
   13.9072   14.1645   23.9731 C   0  0  0  0  0  0  0  0  0  0  0  0
    6.5357   12.1685   25.5853 N   0  0  0  0  0  0  0  0  0  0  0  0
    4.2868    9.6892   27.1012 N   0  0  0  0  0  0  0  0  0  0  0  0
   10.5972   12.3750   22.7902 N   0  0  0  0  0  0  0  0  0  0  0  0
   13.7099   12.8141   24.4327 N   0  0  0  0  0  0  0  0  0  0  0  0
   10.8339   14.3306   24.0347 O   0  0  0  0  0  0  0  0  0  0  0  0
    4.1733   11.9778   27.1897 O   0  0  0  0  0  0  0  0  0  0  0  0
   15.3741   12.8191   26.0548 O   0  0  0  0  0  0  0  0  0  0  0  0
    6.5576    9.9026   25.5399 O   0  0  0  0  0  0  0  0  0  0  0  0
   12.5229   14.8203   18.8267 H   0  0  0  0  0  0  0  0  0  0  0  0
   14.8466   15.2775   19.5661 H   0  0  0  0  0  0  0  0  0  0  0  0
   10.8296   14.0583   20.4546 H   0  0  0  0  0  0  0  0  0  0  0  0
   15.4769   14.9746   21.9373 H   0  0  0  0  0  0  0  0  0  0  0  0
   10.3348    9.7475   22.9358 H   0  0  0  0  0  0  0  0  0  0  0  0
    8.5485    8.4996   24.1497 H   0  0  0  0  0  0  0  0  0  0  0  0
    8.6245   13.5252   24.1650 H   0  0  0  0  0  0  0  0  0  0  0  0
   13.8582    8.8941   24.9912 H   0  0  0  0  0  0  0  0  0  0  0  0
   14.4943   10.1369   23.7715 H   0  0  0  0  0  0  0  0  0  0  0  0
   13.7222   10.5862   26.7236 H   0  0  0  0  0  0  0  0  0  0  0  0
   14.9678   14.4115   24.1151 H   0  0  0  0  0  0  0  0  0  0  0  0
   13.3342   14.8251   24.6369 H   0  0  0  0  0  0  0  0  0  0  0  0
    3.4525    9.6304   27.6750 H   0  0  0  0  0  0  0  0  0  0  0  0
    4.7242    8.8285   26.7884 H   0  0  0  0  0  0  0  0  0  0  0  0
   10.9722   11.8953   21.9644 H   0  0  0  0  0  0  0  0  0  0  0  0
   13.0010   12.2527   23.9648 H   0  0  0  0  0  0  0  0  0  0  0  0
  1  2  1  0  0  0  0
  1  3  2  0  0  0  0
  2  4  2  0  0  0  0
  3  8  1  0  0  0  0
  4  9  1  0  0  0  0
  5  6  2  0  0  0  0
  5 11  1  0  0  0  0
  6 12  1  0  0  0  0
  7 10  1  0  0  0  0
  7 11  2  0  0  0  0
  8  9  2  0  0  0  0
  8 16  1  0  0  0  0
  9 19  1  0  0  0  0
 10 12  2  0  0  0  0
 10 20  1  0  0  0  0
 11 22  1  0  0  0  0
 12 27  1  0  0  0  0
 13 17  1  0  0  0  0
 13 20  2  0  0  0  0
 13 27  1  0  0  0  0
 14 15  2  0  0  0  0
 15 18  1  0  0  0  0
 16 22  1  0  0  0  0
 16 24  2  0  0  0  0
 17 21  1  0  0  0  0
 17 25  2  0  0  0  0
 18 23  1  0  0  0  0
 18 26  2  0  0  0  0
 19 23  1  0  0  0  0
  1 28  1  0  0  0  0
  2 29  1  0  0  0  0
  3 30  1  0  0  0  0
  4 31  1  0  0  0  0
  5 32  1  0  0  0  0
  6 33  1  0  0  0  0
  7 34  1  0  0  0  0
 14 35  1  0  0  0  0
 14 36  1  0  0  0  0
 15 37  1  0  0  0  0
 19 38  1  0  0  0  0
 19 39  1  0  0  0  0
 21 40  1  0  0  0  0
 21 41  1  0  0  0  0
 22 42  1  0  0  0  0
 23 43  1  0  0  0  0
M  END
> <Catalog ID>
Z4899906869

> <MW>
364.355

> <MW (desalted)>
364.355

> <ClogP>
0.756

> <logS>
-3.928

> <HBD>
3

> <HBA>
4

> <TPSA>
127.32

> <RotBonds>
6

> <ROCS_ShapeQuery>
A71EV2A-x0451_0A_A71EV2A-x0310_0A_A71EV2A-x0416_0A_peptide

> <ROCS_TanimotoCombo>
0.533 

> <ROCS_ShapeTanimoto>
0.354 

> <ROCS_ColorTanimoto>
0.179 

> <ROCS_RefTversky>
0.319 

> <ROCS_RefColorTversky>
0.212 

> <ROCS_RefTverskyCombo>
0.531 

> <ROCS_FitTversky>
1.439 

> <ROCS_FitColorTversky>
0.539 

> <ROCS_FitTverskyCombo>
1.978 

> <ROCS_ColorScore>
-6.494

> <ROCS_Overlap>
2221.385

> <ROCS_Rank>
170                 

$$$$
untitled-dbase-5776_4051
  -OEChem-11132309573D

 54 57  0     0  0  0  0  0  0999 V2000
   12.7514   16.9345   19.5641 C   0  0  0  0  0  0  0  0  0  0  0  0
   11.5996   16.8518   20.3464 C   0  0  0  0  0  0  0  0  0  0  0  0
   13.8538   16.1323   19.8590 C   0  0  0  0  0  0  0  0  0  0  0  0
   11.5501   15.9671   21.4236 C   0  0  0  0  0  0  0  0  0  0  0  0
   13.8044   15.2476   20.9362 C   0  0  0  0  0  0  0  0  0  0  0  0
    9.3369   10.3117   23.1787 C   0  0  0  0  0  0  0  0  0  0  0  0
   12.6526   15.1649   21.7185 C   0  0  0  0  0  0  0  0  0  0  0  0
    8.9849   11.6400   23.0012 C   0  0  0  0  0  0  0  0  0  0  0  0
    8.1976   10.8056   24.8908 C   0  0  0  0  0  0  0  0  0  0  0  0
   14.2742   10.0031   26.3036 C   0  0  0  0  0  0  0  0  0  0  0  0
   15.2449   10.8047   25.8602 C   0  0  0  0  0  0  0  0  0  0  0  0
   15.0232   12.2648   25.8677 C   0  0  0  0  0  0  0  0  0  0  0  0
   11.1545   13.7589   23.0733 C   0  0  0  0  0  0  0  0  0  0  0  0
    7.4225   11.0710   26.1170 C   0  0  0  0  0  0  0  0  0  0  0  0
    7.3558   12.6216   26.1122 C   0  0  0  0  0  0  0  0  0  0  0  0
   13.0787   14.8971   24.1999 C   0  0  0  0  0  0  0  0  0  0  0  0
   13.4464   12.9058   22.7075 C   0  0  0  0  0  0  0  0  0  0  0  0
    7.5734   13.0572   24.6496 C   0  0  0  0  0  0  0  0  0  0  0  0
   13.1850   13.9731   25.4180 C   0  0  0  0  0  0  0  0  0  0  0  0
   13.5011   12.0184   23.9503 C   0  0  0  0  0  0  0  0  0  0  0  0
   12.5988   14.1888   22.9068 C   0  0  0  0  0  0  0  0  0  0  0  0
    9.2672   12.6325   21.9106 C   0  0  0  0  0  0  0  0  0  0  0  0
    8.8404    9.7948   24.3654 N   0  0  0  0  0  0  0  0  0  0  0  0
    8.2623   11.9106   24.0999 N   0  0  0  0  0  0  0  0  0  0  0  0
   13.9587   12.7647   25.1201 N   0  0  0  0  0  0  0  0  0  0  0  0
   10.6249   13.1249   21.9656 N   0  0  0  0  0  0  0  0  0  0  0  0
   15.7986   12.9541   26.5326 O   0  0  0  0  0  0  0  0  0  0  0  0
   10.5739   13.9871   24.1281 O   0  0  0  0  0  0  0  0  0  0  0  0
   12.7892   17.6225   18.7246 H   0  0  0  0  0  0  0  0  0  0  0  0
   10.7407   17.4756   20.1164 H   0  0  0  0  0  0  0  0  0  0  0  0
   14.7504   16.1957   19.2494 H   0  0  0  0  0  0  0  0  0  0  0  0
   10.6485   15.9095   22.0278 H   0  0  0  0  0  0  0  0  0  0  0  0
   14.6682   14.6266   21.1585 H   0  0  0  0  0  0  0  0  0  0  0  0
    9.9256    9.6970   22.5122 H   0  0  0  0  0  0  0  0  0  0  0  0
   14.3779    8.9234   26.3227 H   0  0  0  0  0  0  0  0  0  0  0  0
   13.3412   10.4250   26.6619 H   0  0  0  0  0  0  0  0  0  0  0  0
   16.1890   10.4217   25.4955 H   0  0  0  0  0  0  0  0  0  0  0  0
    6.4193   10.6405   26.0379 H   0  0  0  0  0  0  0  0  0  0  0  0
    7.9112   10.6940   27.0189 H   0  0  0  0  0  0  0  0  0  0  0  0
    6.4182   13.0018   26.5288 H   0  0  0  0  0  0  0  0  0  0  0  0
    8.1729   13.0171   26.7300 H   0  0  0  0  0  0  0  0  0  0  0  0
   12.4077   15.7305   24.4477 H   0  0  0  0  0  0  0  0  0  0  0  0
   14.0672   15.3455   24.0255 H   0  0  0  0  0  0  0  0  0  0  0  0
   14.4737   13.1783   22.4275 H   0  0  0  0  0  0  0  0  0  0  0  0
   13.0489   12.3161   21.8706 H   0  0  0  0  0  0  0  0  0  0  0  0
    6.6312   13.1734   24.1066 H   0  0  0  0  0  0  0  0  0  0  0  0
    8.2007   13.9467   24.5583 H   0  0  0  0  0  0  0  0  0  0  0  0
   13.6216   14.5461   26.2372 H   0  0  0  0  0  0  0  0  0  0  0  0
   12.1891   13.6477   25.7402 H   0  0  0  0  0  0  0  0  0  0  0  0
   12.5068   11.6213   24.1860 H   0  0  0  0  0  0  0  0  0  0  0  0
   14.1500   11.1582   23.7562 H   0  0  0  0  0  0  0  0  0  0  0  0
    9.1127   12.1783   20.9258 H   0  0  0  0  0  0  0  0  0  0  0  0
    8.5954   13.4945   21.9802 H   0  0  0  0  0  0  0  0  0  0  0  0
   11.2182   12.9988   21.1510 H   0  0  0  0  0  0  0  0  0  0  0  0
  1  2  1  0  0  0  0
  1  3  2  0  0  0  0
  2  4  2  0  0  0  0
  3  5  1  0  0  0  0
  4  7  1  0  0  0  0
  5  7  2  0  0  0  0
  6  8  2  0  0  0  0
  6 23  1  0  0  0  0
  7 21  1  0  0  0  0
  8 22  1  0  0  0  0
  8 24  1  0  0  0  0
  9 14  1  0  0  0  0
  9 23  2  0  0  0  0
  9 24  1  0  0  0  0
 10 11  2  0  0  0  0
 11 12  1  0  0  0  0
 12 25  1  0  0  0  0
 12 27  2  0  0  0  0
 13 21  1  0  0  0  0
 13 26  1  0  0  0  0
 13 28  2  0  0  0  0
 14 15  1  0  0  0  0
 15 18  1  0  0  0  0
 16 19  1  0  0  0  0
 16 21  1  0  0  0  0
 17 20  1  0  0  0  0
 17 21  1  0  0  0  0
 18 24  1  0  0  0  0
 19 25  1  0  0  0  0
 20 25  1  0  0  0  0
 22 26  1  0  0  0  0
  1 29  1  0  0  0  0
  2 30  1  0  0  0  0
  3 31  1  0  0  0  0
  4 32  1  0  0  0  0
  5 33  1  0  0  0  0
  6 34  1  0  0  0  0
 10 35  1  0  0  0  0
 10 36  1  0  0  0  0
 11 37  1  0  0  0  0
 14 38  1  0  0  0  0
 14 39  1  0  0  0  0
 15 40  1  0  0  0  0
 15 41  1  0  0  0  0
 16 42  1  0  0  0  0
 16 43  1  0  0  0  0
 17 44  1  0  0  0  0
 17 45  1  0  0  0  0
 18 46  1  0  0  0  0
 18 47  1  0  0  0  0
 19 48  1  0  0  0  0
 19 49  1  0  0  0  0
 20 50  1  0  0  0  0
 20 51  1  0  0  0  0
 22 52  1  0  0  0  0
 22 53  1  0  0  0  0
 26 54  1  0  0  0  0
M  END
> <Catalog ID>
Z3366906784

> <MW>
378.467

> <MW (desalted)>
378.467

> <ClogP>
0.54

> <logS>
-2.603

> <HBD>
1

> <HBA>
3

> <TPSA>
67.23

> <RotBonds>
5

> <ROCS_ShapeQuery>
A71EV2A-x0451_0A_A71EV2A-x0310_0A_A71EV2A-x0416_0A_peptide

> <ROCS_TanimotoCombo>
0.533 

> <ROCS_ShapeTanimoto>
0.343 

> <ROCS_ColorTanimoto>
0.190 

> <ROCS_RefTversky>
0.313 

> <ROCS_RefColorTversky>
0.218 

> <ROCS_RefTverskyCombo>
0.531 

> <ROCS_FitTversky>
1.382 

> <ROCS_FitColorTversky>
0.599 

> <ROCS_FitTverskyCombo>
1.981 

> <ROCS_ColorScore>
-6.674

> <ROCS_Overlap>
2179.060

> <ROCS_Rank>
171                 

$$$$
untitled-dbase-1590_608
  -OEChem-11132309573D

 44 47  0     0  0  0  0  0  0999 V2000
   11.9249   12.3763   23.9561 C   0  0  0  0  0  0  0  0  0  0  0  0
    9.0678   11.7001   23.6203 C   0  0  0  0  0  0  0  0  0  0  0  0
    9.2213   10.3357   23.4342 C   0  0  0  0  0  0  0  0  0  0  0  0
    7.6534   10.5305   24.8193 C   0  0  0  0  0  0  0  0  0  0  0  0
    7.3640   12.8026   25.1584 C   0  0  0  0  0  0  0  0  0  0  0  0
    6.4159   12.3089   25.9730 C   0  0  0  0  0  0  0  0  0  0  0  0
    9.7236   12.9040   23.0864 C   0  0  0  0  0  0  0  0  0  0  0  0
   11.0270   13.2144   23.2284 C   0  0  0  0  0  0  0  0  0  0  0  0
   11.4872   14.5055   22.6002 C   0  0  0  0  0  0  0  0  0  0  0  0
   14.1859   16.6348   18.4200 C   0  0  0  0  0  0  0  0  0  0  0  0
   14.4899   16.8469   19.9003 C   0  0  0  0  0  0  0  0  0  0  0  0
   12.6936   16.4292   18.1753 C   0  0  0  0  0  0  0  0  0  0  0  0
   10.2353    8.1876   22.3255 C   0  0  0  0  0  0  0  0  0  0  0  0
   11.3413    8.8289   23.1038 C   0  0  0  0  0  0  0  0  0  0  0  0
   13.9319   15.7127   20.7584 C   0  0  0  0  0  0  0  0  0  0  0  0
   12.1338   15.2941   19.0310 C   0  0  0  0  0  0  0  0  0  0  0  0
   10.2498    9.6924   22.5041 C   0  0  0  0  0  0  0  0  0  0  0  0
   12.4309   15.5172   20.5178 C   0  0  0  0  0  0  0  0  0  0  0  0
   12.6579   11.6979   24.5471 N   0  0  0  0  0  0  0  0  0  0  0  0
    8.3259    9.6050   24.1934 N   0  0  0  0  0  0  0  0  0  0  0  0
    8.0497   11.7978   24.5185 N   0  0  0  0  0  0  0  0  0  0  0  0
   11.9470   14.3794   21.2974 N   0  0  0  0  0  0  0  0  0  0  0  0
   11.4450   15.5724   23.2111 O   0  0  0  0  0  0  0  0  0  0  0  0
    6.3487   10.5373   25.9659 S   0  0  0  0  0  0  0  0  0  0  0  0
    7.5960   13.8439   24.9938 H   0  0  0  0  0  0  0  0  0  0  0  0
    5.7476   12.9010   26.5820 H   0  0  0  0  0  0  0  0  0  0  0  0
    9.0412   13.5666   22.5583 H   0  0  0  0  0  0  0  0  0  0  0  0
   14.5385   17.4976   17.8438 H   0  0  0  0  0  0  0  0  0  0  0  0
   14.7385   15.7597   18.0563 H   0  0  0  0  0  0  0  0  0  0  0  0
   15.5734   16.9207   20.0470 H   0  0  0  0  0  0  0  0  0  0  0  0
   14.0569   17.7996   20.2291 H   0  0  0  0  0  0  0  0  0  0  0  0
   12.1550   17.3572   18.4034 H   0  0  0  0  0  0  0  0  0  0  0  0
   12.5205   16.2114   17.1154 H   0  0  0  0  0  0  0  0  0  0  0  0
   10.4705    7.7923   21.3448 H   0  0  0  0  0  0  0  0  0  0  0  0
    9.5029    7.6088   22.8753 H   0  0  0  0  0  0  0  0  0  0  0  0
   11.3527    8.6831   24.1773 H   0  0  0  0  0  0  0  0  0  0  0  0
   12.3236    8.8672   22.6488 H   0  0  0  0  0  0  0  0  0  0  0  0
   14.4730   14.7865   20.5252 H   0  0  0  0  0  0  0  0  0  0  0  0
   14.1179   15.9375   21.8154 H   0  0  0  0  0  0  0  0  0  0  0  0
   11.0513   15.2230   18.8693 H   0  0  0  0  0  0  0  0  0  0  0  0
   12.5729   14.3443   18.6990 H   0  0  0  0  0  0  0  0  0  0  0  0
   10.5206   10.2831   21.6319 H   0  0  0  0  0  0  0  0  0  0  0  0
   11.8830   16.3828   20.8784 H   0  0  0  0  0  0  0  0  0  0  0  0
   11.9474   13.4591   20.8678 H   0  0  0  0  0  0  0  0  0  0  0  0
  1  8  1  0  0  0  0
  1 19  3  0  0  0  0
  2  3  2  0  0  0  0
  2  7  1  4  0  0  0
  2 21  1  0  0  0  0
  3 17  1  0  0  0  0
  3 20  1  0  0  0  0
  4 20  2  0  0  0  0
  4 21  1  0  0  0  0
  4 24  1  0  0  0  0
  5  6  2  0  0  0  0
  5 21  1  0  0  0  0
  6 24  1  0  0  0  0
  7  8  2  0  0  0  0
  8  9  1  0  0  0  0
  9 22  1  0  0  0  0
  9 23  2  0  0  0  0
 10 11  1  0  0  0  0
 10 12  1  0  0  0  0
 11 15  1  0  0  0  0
 12 16  1  0  0  0  0
 13 14  1  0  0  0  0
 13 17  1  0  0  0  0
 14 17  1  0  0  0  0
 15 18  1  0  0  0  0
 16 18  1  0  0  0  0
 18 22  1  0  0  0  0
  5 25  1  0  0  0  0
  6 26  1  0  0  0  0
  7 27  1  0  0  0  0
 10 28  1  0  0  0  0
 10 29  1  0  0  0  0
 11 30  1  0  0  0  0
 11 31  1  0  0  0  0
 12 32  1  0  0  0  0
 12 33  1  0  0  0  0
 13 34  1  0  0  0  0
 13 35  1  0  0  0  0
 14 36  1  0  0  0  0
 14 37  1  0  0  0  0
 15 38  1  0  0  0  0
 15 39  1  0  0  0  0
 16 40  1  0  0  0  0
 16 41  1  0  0  0  0
 17 42  1  0  0  0  0
 18 43  1  0  0  0  0
 22 44  1  0  0  0  0
M  END
> <Catalog ID>
Z1450942730

> <MW>
340.443

> <MW (desalted)>
340.443

> <ClogP>
3.224

> <logS>
-4.675

> <HBD>
1

> <HBA>
3

> <TPSA>
70.19

> <RotBonds>
4

> <ROCS_ShapeQuery>
A71EV2A-x0451_0A_A71EV2A-x0310_0A_A71EV2A-x0416_0A_peptide

> <ROCS_TanimotoCombo>
0.533 

> <ROCS_ShapeTanimoto>
0.380 

> <ROCS_ColorTanimoto>
0.153 

> <ROCS_RefTversky>
0.330 

> <ROCS_RefColorTversky>
0.173 

> <ROCS_RefTverskyCombo>
0.503 

> <ROCS_FitTversky>
1.668 

> <ROCS_FitColorTversky>
0.571 

> <ROCS_FitTverskyCombo>
2.239 

> <ROCS_ColorScore>
-5.271

> <ROCS_Overlap>
2292.402

> <ROCS_Rank>
172                 

$$$$
untitled-dbase-8486_1639
  -OEChem-11132309573D

 32 33  0     0  0  0  0  0  0999 V2000
   12.3090   13.0400   20.9000 C   0  0  0  0  0  0  0  0  0  0  0  0
   13.2566   13.8320   20.2611 C   0  0  0  0  0  0  0  0  0  0  0  0
    8.0787   12.1977   25.1914 C   0  0  0  0  0  0  0  0  0  0  0  0
    9.0616   10.6625   23.6638 C   0  0  0  0  0  0  0  0  0  0  0  0
    7.2679    9.9777   24.9256 C   0  0  0  0  0  0  0  0  0  0  0  0
    9.0463   11.9269   24.2304 C   0  0  0  0  0  0  0  0  0  0  0  0
   11.4838   13.5987   21.8696 C   0  0  0  0  0  0  0  0  0  0  0  0
    7.1687   11.2099   25.5514 C   0  0  0  0  0  0  0  0  0  0  0  0
   13.3383   15.1664   20.6251 C   0  0  0  0  0  0  0  0  0  0  0  0
   11.6451   14.9435   22.1618 C   0  0  0  0  0  0  0  0  0  0  0  0
   10.0108   12.9376   23.8327 C   0  0  0  0  0  0  0  0  0  0  0  0
   14.3443   16.0460   19.9610 C   0  0  0  0  0  0  0  0  0  0  0  0
    8.1943    9.6775   23.9878 N   0  0  0  0  0  0  0  0  0  0  0  0
   12.5542   15.7447   21.5623 N   0  0  0  0  0  0  0  0  0  0  0  0
   10.5143   12.8017   22.5289 N   0  0  0  0  0  0  0  0  0  0  0  0
   10.3801   13.8296   24.6105 O   0  0  0  0  0  0  0  0  0  0  0  0
    3.9611   12.3150   27.2149 O   0  0  0  0  0  0  0  0  0  0  0  0
    5.7152   13.9129   26.3172 O   0  0  0  0  0  0  0  0  0  0  0  0
   10.8522   15.5347   23.1113 O   0  0  0  0  0  0  0  0  0  0  0  0
    6.2144   11.4456   26.4854 O   0  0  0  0  0  0  0  0  0  0  0  0
    4.4854   12.4352   24.8683 F   0  0  0  0  0  0  0  0  0  0  0  0
    5.0726   12.6139   26.3338 S   0  0  0  0  0  0  0  0  0  0  0  0
   12.2220   11.9899   20.6334 H   0  0  0  0  0  0  0  0  0  0  0  0
   13.9062   13.4089   19.5024 H   0  0  0  0  0  0  0  0  0  0  0  0
    8.0303   13.1766   25.6621 H   0  0  0  0  0  0  0  0  0  0  0  0
    9.7934   10.3918   22.9088 H   0  0  0  0  0  0  0  0  0  0  0  0
    6.5844    9.1700   25.1677 H   0  0  0  0  0  0  0  0  0  0  0  0
   13.9128   16.5107   19.0664 H   0  0  0  0  0  0  0  0  0  0  0  0
   14.6852   16.8408   20.6366 H   0  0  0  0  0  0  0  0  0  0  0  0
   15.2348   15.4776   19.6636 H   0  0  0  0  0  0  0  0  0  0  0  0
   10.1335   12.0304   21.9864 H   0  0  0  0  0  0  0  0  0  0  0  0
   10.2396   14.8820   23.4774 H   0  0  0  0  0  0  0  0  0  0  0  0
  1  2  2  0  0  0  0
  1  7  1  0  0  0  0
  2  9  1  0  0  0  0
  3  6  2  0  0  0  0
  3  8  1  0  0  0  0
  4  6  1  0  0  0  0
  4 13  2  0  0  0  0
  5  8  2  0  0  0  0
  5 13  1  0  0  0  0
  6 11  1  0  0  0  0
  7 10  2  0  0  0  0
  7 15  1  0  0  0  0
  8 20  1  0  0  0  0
  9 12  1  0  0  0  0
  9 14  2  0  0  0  0
 10 14  1  0  0  0  0
 10 19  1  0  0  0  0
 11 15  1  0  0  0  0
 11 16  2  0  0  0  0
 17 22  2  0  0  0  0
 18 22  2  0  0  0  0
 20 22  1  0  0  0  0
 21 22  1  0  0  0  0
  1 23  1  0  0  0  0
  2 24  1  0  0  0  0
  3 25  1  0  0  0  0
  4 26  1  0  0  0  0
  5 27  1  0  0  0  0
 12 28  1  0  0  0  0
 12 29  1  0  0  0  0
 12 30  1  0  0  0  0
 15 31  1  0  0  0  0
 19 32  1  0  0  0  0
M  END
> <Catalog ID>
Z4262518901

> <MW>
327.288

> <MW (desalted)>
327.288

> <ClogP>
0.247

> <logS>
-2.144

> <HBD>
2

> <HBA>
6

> <TPSA>
118.48

> <RotBonds>
4

> <ROCS_ShapeQuery>
A71EV2A-x0451_0A_A71EV2A-x0310_0A_A71EV2A-x0416_0A_peptide

> <ROCS_TanimotoCombo>
0.533 

> <ROCS_ShapeTanimoto>
0.324 

> <ROCS_ColorTanimoto>
0.209 

> <ROCS_RefTversky>
0.290 

> <ROCS_RefColorTversky>
0.236 

> <ROCS_RefTverskyCombo>
0.526 

> <ROCS_FitTversky>
1.554 

> <ROCS_FitColorTversky>
0.650 

> <ROCS_FitTverskyCombo>
2.204 

> <ROCS_ColorScore>
-7.213

> <ROCS_Overlap>
2015.846

> <ROCS_Rank>
173                 

$$$$
untitled-dbase-4642_4581
  -OEChem-11132309573D

 50 53  0     0  0  0  0  0  0999 V2000
   10.2714    9.9511   22.8388 C   0  0  0  0  0  0  0  0  0  0  0  0
   12.6979   15.9044   18.4248 C   0  0  0  0  0  0  0  0  0  0  0  0
   10.6077   11.2906   22.7071 C   0  0  0  0  0  0  0  0  0  0  0  0
   11.6383   15.8787   19.3247 C   0  0  0  0  0  0  0  0  0  0  0  0
    9.1782    9.5720   23.6252 C   0  0  0  0  0  0  0  0  0  0  0  0
   13.9590   15.5798   18.8983 C   0  0  0  0  0  0  0  0  0  0  0  0
   13.9125   14.9307   24.4613 C   0  0  0  0  0  0  0  0  0  0  0  0
   13.7570   15.7348   23.3569 C   0  0  0  0  0  0  0  0  0  0  0  0
   13.3937   13.6166   22.8694 C   0  0  0  0  0  0  0  0  0  0  0  0
    9.8533   12.2524   23.3683 C   0  0  0  0  0  0  0  0  0  0  0  0
    8.7438   11.8854   24.1524 C   0  0  0  0  0  0  0  0  0  0  0  0
   11.8689   15.5340   20.6519 C   0  0  0  0  0  0  0  0  0  0  0  0
    8.3831   10.5246   24.2882 C   0  0  0  0  0  0  0  0  0  0  0  0
   13.1671   15.2259   21.0257 C   0  0  0  0  0  0  0  0  0  0  0  0
    4.8385    7.6086   26.0012 C   0  0  0  0  0  0  0  0  0  0  0  0
    5.2868    8.7116   25.3980 C   0  0  0  0  0  0  0  0  0  0  0  0
   10.2778   13.6411   23.2236 C   0  0  0  0  0  0  0  0  0  0  0  0
    6.7375    8.8393   25.1264 C   0  0  0  0  0  0  0  0  0  0  0  0
    8.0017   12.9865   24.8630 C   0  0  0  0  0  0  0  0  0  0  0  0
    6.6043   12.5432   25.2448 C   0  0  0  0  0  0  0  0  0  0  0  0
    6.6748   11.2070   25.9629 C   0  0  0  0  0  0  0  0  0  0  0  0
   10.7202   15.5096   21.6183 C   0  0  0  0  0  0  0  0  0  0  0  0
   13.6853   13.6132   24.1512 N   0  0  0  0  0  0  0  0  0  0  0  0
   14.2218   15.2400   20.1801 N   0  0  0  0  0  0  0  0  0  0  0  0
   13.4252   14.8788   22.3448 N   0  0  0  0  0  0  0  0  0  0  0  0
    7.2584   10.1439   25.1206 N   0  0  0  0  0  0  0  0  0  0  0  0
   10.3014   14.1611   21.9267 N   0  0  0  0  0  0  0  0  0  0  0  0
   10.6165   14.2995   24.2198 O   0  0  0  0  0  0  0  0  0  0  0  0
    7.3592    7.7972   24.9231 O   0  0  0  0  0  0  0  0  0  0  0  0
   10.8674    9.1909   22.3415 H   0  0  0  0  0  0  0  0  0  0  0  0
   12.5409   16.1691   17.3854 H   0  0  0  0  0  0  0  0  0  0  0  0
   11.4654   11.5697   22.1009 H   0  0  0  0  0  0  0  0  0  0  0  0
   10.6379   16.1292   18.9824 H   0  0  0  0  0  0  0  0  0  0  0  0
    9.0076    8.5055   23.7208 H   0  0  0  0  0  0  0  0  0  0  0  0
   14.8197   15.5863   18.2377 H   0  0  0  0  0  0  0  0  0  0  0  0
   14.1769   15.2336   25.4639 H   0  0  0  0  0  0  0  0  0  0  0  0
   13.8515   16.8028   23.2144 H   0  0  0  0  0  0  0  0  0  0  0  0
   13.1550   12.7426   22.2774 H   0  0  0  0  0  0  0  0  0  0  0  0
    3.7881    7.4575   26.2265 H   0  0  0  0  0  0  0  0  0  0  0  0
    5.5315    6.8233   26.2843 H   0  0  0  0  0  0  0  0  0  0  0  0
    4.6270    9.5161   25.1003 H   0  0  0  0  0  0  0  0  0  0  0  0
    8.5651   13.2675   25.7614 H   0  0  0  0  0  0  0  0  0  0  0  0
    7.9082   13.8759   24.2293 H   0  0  0  0  0  0  0  0  0  0  0  0
    6.1398   13.2956   25.8921 H   0  0  0  0  0  0  0  0  0  0  0  0
    5.9711   12.4521   24.3529 H   0  0  0  0  0  0  0  0  0  0  0  0
    7.2792   11.2752   26.8757 H   0  0  0  0  0  0  0  0  0  0  0  0
    5.6550   10.9389   26.2561 H   0  0  0  0  0  0  0  0  0  0  0  0
   10.9958   16.0004   22.5581 H   0  0  0  0  0  0  0  0  0  0  0  0
    9.8547   16.0446   21.2136 H   0  0  0  0  0  0  0  0  0  0  0  0
   10.0743   13.5578   21.1430 H   0  0  0  0  0  0  0  0  0  0  0  0
  1  3  1  0  0  0  0
  1  5  2  0  0  0  0
  2  4  2  0  0  0  0
  2  6  1  0  0  0  0
  3 10  2  0  0  0  0
  4 12  1  0  0  0  0
  5 13  1  0  0  0  0
  6 24  2  0  0  0  0
  7  8  2  0  0  0  0
  7 23  1  0  0  0  0
  8 25  1  0  0  0  0
  9 23  2  0  0  0  0
  9 25  1  0  0  0  0
 10 11  1  0  0  0  0
 10 17  1  0  0  0  0
 11 13  2  0  0  0  0
 11 19  1  0  0  0  0
 12 14  2  0  0  0  0
 12 22  1  0  0  0  0
 13 26  1  0  0  0  0
 14 24  1  0  0  0  0
 14 25  1  0  0  0  0
 15 16  2  0  0  0  0
 16 18  1  0  0  0  0
 17 27  1  0  0  0  0
 17 28  2  0  0  0  0
 18 26  1  0  0  0  0
 18 29  2  0  0  0  0
 19 20  1  0  0  0  0
 20 21  1  0  0  0  0
 21 26  1  0  0  0  0
 22 27  1  0  0  0  0
  1 30  1  0  0  0  0
  2 31  1  0  0  0  0
  3 32  1  0  0  0  0
  4 33  1  0  0  0  0
  5 34  1  0  0  0  0
  6 35  1  0  0  0  0
  7 36  1  0  0  0  0
  8 37  1  0  0  0  0
  9 38  1  0  0  0  0
 15 39  1  0  0  0  0
 15 40  1  0  0  0  0
 16 41  1  0  0  0  0
 19 42  1  0  0  0  0
 19 43  1  0  0  0  0
 20 44  1  0  0  0  0
 20 45  1  0  0  0  0
 21 46  1  0  0  0  0
 21 47  1  0  0  0  0
 22 48  1  0  0  0  0
 22 49  1  0  0  0  0
 27 50  1  0  0  0  0
M  END
> <Catalog ID>
Z4899431162

> <MW>
387.434

> <MW (desalted)>
387.434

> <ClogP>
2.184

> <logS>
-4.752

> <HBD>
1

> <HBA>
4

> <TPSA>
80.12

> <RotBonds>
5

> <ROCS_ShapeQuery>
A71EV2A-x0451_0A_A71EV2A-x0310_0A_A71EV2A-x0416_0A_peptide

> <ROCS_TanimotoCombo>
0.533 

> <ROCS_ShapeTanimoto>
0.375 

> <ROCS_ColorTanimoto>
0.158 

> <ROCS_RefTversky>
0.337 

> <ROCS_RefColorTversky>
0.190 

> <ROCS_RefTverskyCombo>
0.527 

> <ROCS_FitTversky>
1.431 

> <ROCS_FitColorTversky>
0.484 

> <ROCS_FitTverskyCombo>
1.915 

> <ROCS_ColorScore>
-5.824

> <ROCS_Overlap>
2344.839

> <ROCS_Rank>
174                 

$$$$
untitled-dbase-11376_14382
  -OEChem-11132309573D

 34 35  0     0  0  0  0  0  0999 V2000
    8.1494   12.2815   25.1127 C   0  0  0  0  0  0  0  0  0  0  0  0
    9.1576   10.7824   23.5658 C   0  0  0  0  0  0  0  0  0  0  0  0
    7.3792   10.0502   24.8225 C   0  0  0  0  0  0  0  0  0  0  0  0
   13.8941   16.3516   18.4102 C   0  0  0  0  0  0  0  0  0  0  0  0
    9.1201   12.0396   24.1470 C   0  0  0  0  0  0  0  0  0  0  0  0
    7.2585   11.2730   25.4627 C   0  0  0  0  0  0  0  0  0  0  0  0
   14.0182   16.6191   19.7575 C   0  0  0  0  0  0  0  0  0  0  0  0
   12.4593   15.0804   19.8689 C   0  0  0  0  0  0  0  0  0  0  0  0
   10.0650   13.0725   23.7596 C   0  0  0  0  0  0  0  0  0  0  0  0
   14.9408   17.6015   20.3601 C   0  0  0  0  0  0  0  0  0  0  0  0
   11.4364   14.1232   20.4297 C   0  0  0  0  0  0  0  0  0  0  0  0
   11.5592   13.9380   21.9401 C   0  0  0  0  0  0  0  0  0  0  0  0
    8.3091    9.7779   23.8798 N   0  0  0  0  0  0  0  0  0  0  0  0
   13.1959   15.8914   20.5954 N   0  0  0  0  0  0  0  0  0  0  0  0
   10.5927   12.9999   22.4643 N   0  0  0  0  0  0  0  0  0  0  0  0
   10.3950   13.9628   24.5644 O   0  0  0  0  0  0  0  0  0  0  0  0
    4.0341   12.2994   27.1442 O   0  0  0  0  0  0  0  0  0  0  0  0
    5.7569   13.9397   26.2622 O   0  0  0  0  0  0  0  0  0  0  0  0
    6.3016   11.4802   26.4010 O   0  0  0  0  0  0  0  0  0  0  0  0
    4.5518   12.4564   24.7983 F   0  0  0  0  0  0  0  0  0  0  0  0
   12.7039   15.1401   18.1714 S   0  0  0  0  0  0  0  0  0  0  0  0
    5.1383   12.6289   26.2648 S   0  0  0  0  0  0  0  0  0  0  0  0
    8.0839   13.2538   25.5949 H   0  0  0  0  0  0  0  0  0  0  0  0
    9.8929   10.5340   22.8065 H   0  0  0  0  0  0  0  0  0  0  0  0
    6.7110    9.2272   25.0564 H   0  0  0  0  0  0  0  0  0  0  0  0
   14.4269   16.7928   17.5796 H   0  0  0  0  0  0  0  0  0  0  0  0
   14.4658   18.5925   20.4445 H   0  0  0  0  0  0  0  0  0  0  0  0
   15.2658   17.2983   21.3699 H   0  0  0  0  0  0  0  0  0  0  0  0
   15.8631   17.7210   19.7662 H   0  0  0  0  0  0  0  0  0  0  0  0
   11.5602   13.1520   19.9341 H   0  0  0  0  0  0  0  0  0  0  0  0
   10.4264   14.4668   20.1722 H   0  0  0  0  0  0  0  0  0  0  0  0
   12.5494   13.5428   22.1881 H   0  0  0  0  0  0  0  0  0  0  0  0
   11.4253   14.8839   22.4753 H   0  0  0  0  0  0  0  0  0  0  0  0
   10.3389   12.2180   21.8694 H   0  0  0  0  0  0  0  0  0  0  0  0
  1  5  2  0  0  0  0
  1  6  1  0  0  0  0
  2  5  1  0  0  0  0
  2 13  2  0  0  0  0
  3  6  2  0  0  0  0
  3 13  1  0  0  0  0
  4  7  2  0  0  0  0
  4 21  1  0  0  0  0
  5  9  1  0  0  0  0
  6 19  1  0  0  0  0
  7 10  1  0  0  0  0
  7 14  1  0  0  0  0
  8 11  1  0  0  0  0
  8 14  2  0  0  0  0
  8 21  1  0  0  0  0
  9 15  1  0  0  0  0
  9 16  2  0  0  0  0
 11 12  1  0  0  0  0
 12 15  1  0  0  0  0
 17 22  2  0  0  0  0
 18 22  2  0  0  0  0
 19 22  1  0  0  0  0
 20 22  1  0  0  0  0
  1 23  1  0  0  0  0
  2 24  1  0  0  0  0
  3 25  1  0  0  0  0
  4 26  1  0  0  0  0
 10 27  1  0  0  0  0
 10 28  1  0  0  0  0
 10 29  1  0  0  0  0
 11 30  1  0  0  0  0
 11 31  1  0  0  0  0
 12 32  1  0  0  0  0
 12 33  1  0  0  0  0
 15 34  1  0  0  0  0
M  END
> <Catalog ID>
Z4317483437

> <MW>
345.37

> <MW (desalted)>
345.37

> <ClogP>
-0.528

> <logS>
-1.835

> <HBD>
1

> <HBA>
5

> <TPSA>
98.25

> <RotBonds>
6

> <ROCS_ShapeQuery>
A71EV2A-x0451_0A_A71EV2A-x0310_0A_A71EV2A-x0416_0A_peptide

> <ROCS_TanimotoCombo>
0.533 

> <ROCS_ShapeTanimoto>
0.314 

> <ROCS_ColorTanimoto>
0.218 

> <ROCS_RefTversky>
0.283 

> <ROCS_RefColorTversky>
0.233 

> <ROCS_RefTverskyCombo>
0.516 

> <ROCS_FitTversky>
1.553 

> <ROCS_FitColorTversky>
0.774 

> <ROCS_FitTverskyCombo>
2.327 

> <ROCS_ColorScore>
-7.114

> <ROCS_Overlap>
1963.269

> <ROCS_Rank>
175                 

$$$$
untitled-dbase-1018_956
  -OEChem-11132309573D

 42 44  0     0  0  0  0  0  0999 V2000
   11.7442   15.9119   22.9500 C   0  0  0  0  0  0  0  0  0  0  0  0
    6.1921   11.9896   25.8569 C   0  0  0  0  0  0  0  0  0  0  0  0
    6.8640   13.1010   25.3566 C   0  0  0  0  0  0  0  0  0  0  0  0
    9.2104    9.0625   23.4087 C   0  0  0  0  0  0  0  0  0  0  0  0
    6.6040   10.7053   25.5004 C   0  0  0  0  0  0  0  0  0  0  0  0
    7.9504   12.9322   24.4978 C   0  0  0  0  0  0  0  0  0  0  0  0
    8.1240    9.2313   24.2676 C   0  0  0  0  0  0  0  0  0  0  0  0
    9.8823   10.1739   22.9083 C   0  0  0  0  0  0  0  0  0  0  0  0
   13.8771   16.5345   18.3658 C   0  0  0  0  0  0  0  0  0  0  0  0
   12.4836   16.4857   18.4024 C   0  0  0  0  0  0  0  0  0  0  0  0
   13.9795   15.0213   20.2465 C   0  0  0  0  0  0  0  0  0  0  0  0
    7.6956   10.5167   24.6370 C   0  0  0  0  0  0  0  0  0  0  0  0
    8.3788   11.6468   24.1282 C   0  0  0  0  0  0  0  0  0  0  0  0
   12.5860   14.9726   20.2831 C   0  0  0  0  0  0  0  0  0  0  0  0
    9.4703   11.4582   23.2649 C   0  0  0  0  0  0  0  0  0  0  0  0
   14.6251   15.8022   19.2878 C   0  0  0  0  0  0  0  0  0  0  0  0
   11.8380   15.7048   19.3611 C   0  0  0  0  0  0  0  0  0  0  0  0
   11.9290   14.1429   21.3052 C   0  0  0  0  0  0  0  0  0  0  0  0
   11.5484   14.5615   22.5285 C   0  0  0  0  0  0  0  0  0  0  0  0
   10.8844   13.5365   23.4230 C   0  0  0  0  0  0  0  0  0  0  0  0
   16.5792   16.6693   18.2460 C   0  0  0  0  0  0  0  0  0  0  0  0
   11.9005   17.0083   23.2967 N   0  0  0  0  0  0  0  0  0  0  0  0
   10.1841   12.5383   22.7318 N   0  0  0  0  0  0  0  0  0  0  0  0
   10.9823   13.6219   24.6447 O   0  0  0  0  0  0  0  0  0  0  0  0
   10.4748   15.6742   19.3741 O   0  0  0  0  0  0  0  0  0  0  0  0
   15.9848   15.8504   19.2519 O   0  0  0  0  0  0  0  0  0  0  0  0
    5.3462   12.1217   26.5254 H   0  0  0  0  0  0  0  0  0  0  0  0
    6.5426   14.1005   25.6349 H   0  0  0  0  0  0  0  0  0  0  0  0
    9.5314    8.0627   23.1311 H   0  0  0  0  0  0  0  0  0  0  0  0
    6.0639    9.8511   25.9033 H   0  0  0  0  0  0  0  0  0  0  0  0
    8.4485   13.8260   24.1290 H   0  0  0  0  0  0  0  0  0  0  0  0
    7.6138    8.3483   24.6469 H   0  0  0  0  0  0  0  0  0  0  0  0
   10.7272   10.0268   22.2401 H   0  0  0  0  0  0  0  0  0  0  0  0
   14.3737   17.1440   17.6158 H   0  0  0  0  0  0  0  0  0  0  0  0
   11.9072   17.0579   17.6805 H   0  0  0  0  0  0  0  0  0  0  0  0
   14.5720   14.4550   20.9620 H   0  0  0  0  0  0  0  0  0  0  0  0
   11.7485   13.1217   20.9767 H   0  0  0  0  0  0  0  0  0  0  0  0
   17.6676   16.6177   18.3292 H   0  0  0  0  0  0  0  0  0  0  0  0
   16.2422   17.7016   18.3692 H   0  0  0  0  0  0  0  0  0  0  0  0
   16.2734   16.3031   17.2631 H   0  0  0  0  0  0  0  0  0  0  0  0
   10.1959   12.6077   21.7102 H   0  0  0  0  0  0  0  0  0  0  0  0
   10.1215   16.2371   18.6680 H   0  0  0  0  0  0  0  0  0  0  0  0
  1 19  1  0  0  0  0
  1 22  3  0  0  0  0
  2  3  1  0  0  0  0
  2  5  2  0  0  0  0
  3  6  2  0  0  0  0
  4  7  1  0  0  0  0
  4  8  2  0  0  0  0
  5 12  1  0  0  0  0
  6 13  1  0  0  0  0
  7 12  2  0  0  0  0
  8 15  1  0  0  0  0
  9 10  2  0  0  0  0
  9 16  1  0  0  0  0
 10 17  1  0  0  0  0
 11 14  1  0  0  0  0
 11 16  2  0  0  0  0
 12 13  1  0  0  0  0
 13 15  2  0  0  0  0
 14 17  2  0  0  0  0
 14 18  1  4  0  0  0
 15 23  1  0  0  0  0
 16 26  1  0  0  0  0
 17 25  1  0  0  0  0
 18 19  2  0  0  0  0
 19 20  1  0  0  0  0
 20 23  1  0  0  0  0
 20 24  2  0  0  0  0
 21 26  1  0  0  0  0
  2 27  1  0  0  0  0
  3 28  1  0  0  0  0
  4 29  1  0  0  0  0
  5 30  1  0  0  0  0
  6 31  1  0  0  0  0
  7 32  1  0  0  0  0
  8 33  1  0  0  0  0
  9 34  1  0  0  0  0
 10 35  1  0  0  0  0
 11 36  1  0  0  0  0
 18 37  1  0  0  0  0
 21 38  1  0  0  0  0
 21 39  1  0  0  0  0
 21 40  1  0  0  0  0
 23 41  1  0  0  0  0
 25 42  1  0  0  0  0
M  END
> <Catalog ID>
Z54311127

> <MW>
344.363

> <MW (desalted)>
344.363

> <ClogP>
3.593

> <logS>
-5.7

> <HBD>
2

> <HBA>
4

> <TPSA>
82.35

> <RotBonds>
4

> <ROCS_ShapeQuery>
A71EV2A-x0451_0A_A71EV2A-x0310_0A_A71EV2A-x0416_0A_peptide

> <ROCS_TanimotoCombo>
0.533 

> <ROCS_ShapeTanimoto>
0.376 

> <ROCS_ColorTanimoto>
0.157 

> <ROCS_RefTversky>
0.331 

> <ROCS_RefColorTversky>
0.181 

> <ROCS_RefTverskyCombo>
0.512 

> <ROCS_FitTversky>
1.550 

> <ROCS_FitColorTversky>
0.545 

> <ROCS_FitTverskyCombo>
2.094 

> <ROCS_ColorScore>
-5.523

> <ROCS_Overlap>
2305.460

> <ROCS_Rank>
176                 

$$$$
untitled-dbase-3355_2228
  -OEChem-11132309573D

 52 55  0     1  0  0  0  0  0999 V2000
    4.8466   12.6882   28.5252 C   0  0  0  0  0  0  0  0  0  0  0  0
    5.6117   11.5227   28.4848 C   0  0  0  0  0  0  0  0  0  0  0  0
    4.7598   13.5050   27.3978 C   0  0  0  0  0  0  0  0  0  0  0  0
   13.9488   15.7264   18.3973 C   0  0  0  0  0  0  0  0  0  0  0  0
   12.8162   16.5351   18.3696 C   0  0  0  0  0  0  0  0  0  0  0  0
    6.2902   11.1739   27.3170 C   0  0  0  0  0  0  0  0  0  0  0  0
    5.4383   13.1563   26.2300 C   0  0  0  0  0  0  0  0  0  0  0  0
   14.1888   14.9025   19.4961 C   0  0  0  0  0  0  0  0  0  0  0  0
   11.9258   16.5233   19.4430 C   0  0  0  0  0  0  0  0  0  0  0  0
    6.2035   11.9908   26.1896 C   0  0  0  0  0  0  0  0  0  0  0  0
   13.2906   14.8743   20.5717 C   0  0  0  0  0  0  0  0  0  0  0  0
   12.1562   15.6973   20.5531 C   0  0  0  0  0  0  0  0  0  0  0  0
    8.9509   11.0602   24.1174 C   0  0  0  0  0  0  0  0  0  0  0  0
   11.2953   17.1236   24.7009 C   0  0  0  0  0  0  0  0  0  0  0  0
   10.3752   16.1732   24.5238 C   0  0  0  0  0  0  0  0  0  0  0  0
   10.2732   11.2035   23.4755 C   0  0  0  0  0  0  0  0  0  0  0  0
   10.8059   14.8429   24.0441 C   0  0  0  0  0  0  0  0  0  0  0  0
   13.5657   14.0027   21.7630 C   0  0  0  0  0  0  0  0  0  0  0  0
   11.1828   15.7263   21.7021 C   0  0  0  0  0  0  0  0  0  0  0  0
    8.3411   12.1808   24.8587 C   0  0  0  0  0  0  0  0  0  0  0  0
    6.9362   11.6148   24.9280 C   0  0  1  0  0  0  0  0  0  0  0  0
   12.2871   13.6049   22.5085 C   0  0  2  0  0  0  0  0  0  0  0  0
   11.4809   12.5338   21.7645 C   0  0  0  0  0  0  0  0  0  0  0  0
    8.2969    9.9500   24.0931 N   0  0  0  0  0  0  0  0  0  0  0  0
   11.4458   14.7793   22.8006 N   0  0  0  0  0  0  0  0  0  0  0  0
   10.3157   12.2096   22.5127 N   0  0  0  0  0  0  0  0  0  0  0  0
   11.2076   10.4795   23.8014 O   0  0  0  0  0  0  0  0  0  0  0  0
   10.5700   13.8714   24.7642 O   0  0  0  0  0  0  0  0  0  0  0  0
    7.1035   10.1871   24.8227 O   0  0  0  0  0  0  0  0  0  0  0  0
    4.3173   12.9589   29.4342 H   0  0  0  0  0  0  0  0  0  0  0  0
    5.6785   10.8860   29.3622 H   0  0  0  0  0  0  0  0  0  0  0  0
    4.1634   14.4120   27.4286 H   0  0  0  0  0  0  0  0  0  0  0  0
   14.6465   15.7390   17.5652 H   0  0  0  0  0  0  0  0  0  0  0  0
   12.6284   17.1789   17.5154 H   0  0  0  0  0  0  0  0  0  0  0  0
    6.8841   10.2640   27.2947 H   0  0  0  0  0  0  0  0  0  0  0  0
    5.3650   13.7989   25.3566 H   0  0  0  0  0  0  0  0  0  0  0  0
   15.0799   14.2800   19.5084 H   0  0  0  0  0  0  0  0  0  0  0  0
   11.0494   17.1661   19.4123 H   0  0  0  0  0  0  0  0  0  0  0  0
   11.0408   18.1186   25.0505 H   0  0  0  0  0  0  0  0  0  0  0  0
   12.3397   16.9152   24.4942 H   0  0  0  0  0  0  0  0  0  0  0  0
    9.3244   16.3426   24.7195 H   0  0  0  0  0  0  0  0  0  0  0  0
   14.1032   13.0979   21.4532 H   0  0  0  0  0  0  0  0  0  0  0  0
   14.2266   14.5559   22.4426 H   0  0  0  0  0  0  0  0  0  0  0  0
   11.1826   16.7398   22.1183 H   0  0  0  0  0  0  0  0  0  0  0  0
   10.1768   15.5007   21.3278 H   0  0  0  0  0  0  0  0  0  0  0  0
    8.8301   12.2738   25.8335 H   0  0  0  0  0  0  0  0  0  0  0  0
    8.3915   13.1278   24.3173 H   0  0  0  0  0  0  0  0  0  0  0  0
    6.3345   11.9471   24.0563 H   0  0  0  0  0  0  0  0  0  0  0  0
   12.5980   13.1527   23.4585 H   0  0  0  0  0  0  0  0  0  0  0  0
   11.2162   12.9518   20.7967 H   0  0  0  0  0  0  0  0  0  0  0  0
   12.1277   11.6667   21.6594 H   0  0  0  0  0  0  0  0  0  0  0  0
    9.4589   12.7464   22.3334 H   0  0  0  0  0  0  0  0  0  0  0  0
  1  2  1  0  0  0  0
  1  3  2  0  0  0  0
  2  6  2  0  0  0  0
  3  7  1  0  0  0  0
  4  5  1  0  0  0  0
  4  8  2  0  0  0  0
  5  9  2  0  0  0  0
  6 10  1  0  0  0  0
  7 10  2  0  0  0  0
  8 11  1  0  0  0  0
  9 12  1  0  0  0  0
 10 21  1  0  0  0  0
 11 12  2  0  0  0  0
 11 18  1  0  0  0  0
 12 19  1  0  0  0  0
 13 16  1  0  0  0  0
 13 20  1  0  0  0  0
 13 24  2  0  0  0  0
 14 15  2  0  0  0  0
 15 17  1  0  0  0  0
 16 26  1  0  0  0  0
 16 27  2  0  0  0  0
 17 25  1  0  0  0  0
 17 28  2  0  0  0  0
 18 22  1  0  0  0  0
 19 25  1  0  0  0  0
 20 21  1  0  0  0  0
 21 29  1  0  0  0  0
 22 23  1  0  0  0  0
 22 25  1  0  0  0  0
 23 26  1  0  0  0  0
 24 29  1  0  0  0  0
  1 30  1  0  0  0  0
  2 31  1  0  0  0  0
  3 32  1  0  0  0  0
  4 33  1  0  0  0  0
  5 34  1  0  0  0  0
  6 35  1  0  0  0  0
  7 36  1  0  0  0  0
  8 37  1  0  0  0  0
  9 38  1  0  0  0  0
 14 39  1  0  0  0  0
 14 40  1  0  0  0  0
 15 41  1  0  0  0  0
 18 42  1  0  0  0  0
 18 43  1  0  0  0  0
 19 44  1  0  0  0  0
 19 45  1  0  0  0  0
 20 46  1  0  0  0  0
 20 47  1  0  0  0  0
 21 48  1  0  0  0  0
 22 49  1  0  0  0  0
 23 50  1  0  0  0  0
 23 51  1  0  0  0  0
 26 52  1  0  0  0  0
M  END
> <Catalog ID>
Z4942813125

> <MW>
389.447

> <MW (desalted)>
389.447

> <ClogP>
3.502

> <logS>
-5.098

> <HBD>
1

> <HBA>
4

> <TPSA>
71

> <RotBonds>
5

> <ROCS_ShapeQuery>
A71EV2A-x0451_0A_A71EV2A-x0310_0A_A71EV2A-x0416_0A_peptide

> <ROCS_TanimotoCombo>
0.532 

> <ROCS_ShapeTanimoto>
0.361 

> <ROCS_ColorTanimoto>
0.172 

> <ROCS_RefTversky>
0.327 

> <ROCS_RefColorTversky>
0.195 

> <ROCS_RefTverskyCombo>
0.522 

> <ROCS_FitTversky>
1.405 

> <ROCS_FitColorTversky>
0.589 

> <ROCS_FitTverskyCombo>
1.994 

> <ROCS_ColorScore>
-5.974

> <ROCS_Overlap>
2273.606

> <ROCS_Rank>
177                 

$$$$
untitled-dbase-9626_14248
  -OEChem-11132309573D

 54 56  0     0  0  0  0  0  0999 V2000
   12.8576   11.2256   24.4067 C   0  0  0  0  0  0  0  0  0  0  0  0
    4.0983   11.5805   29.2796 C   0  0  0  0  0  0  0  0  0  0  0  0
    3.3896   11.8659   28.1126 C   0  0  0  0  0  0  0  0  0  0  0  0
    5.4784   11.7785   29.3237 C   0  0  0  0  0  0  0  0  0  0  0  0
    7.4112    7.1055   22.8773 C   0  0  0  0  0  0  0  0  0  0  0  0
    4.0610   12.3493   26.9896 C   0  0  0  0  0  0  0  0  0  0  0  0
    6.1498   12.2619   28.2007 C   0  0  0  0  0  0  0  0  0  0  0  0
    7.0714    8.2262   23.6891 C   0  0  0  0  0  0  0  0  0  0  0  0
    8.5246   12.2549   25.5878 C   0  0  0  0  0  0  0  0  0  0  0  0
    8.6534    7.2438   22.2982 C   0  0  0  0  0  0  0  0  0  0  0  0
    9.0898   11.1545   24.9909 C   0  0  0  0  0  0  0  0  0  0  0  0
    5.4411   12.5473   27.0336 C   0  0  0  0  0  0  0  0  0  0  0  0
    7.9986   10.4475   24.4512 C   0  0  0  0  0  0  0  0  0  0  0  0
    8.0671    9.1782   23.6996 C   0  0  0  0  0  0  0  0  0  0  0  0
   10.5271   10.8424   24.9571 C   0  0  0  0  0  0  0  0  0  0  0  0
   11.4819   11.6073   24.3927 C   0  0  0  0  0  0  0  0  0  0  0  0
   11.0289   12.9012   23.7652 C   0  0  0  0  0  0  0  0  0  0  0  0
   11.8320   17.5651   24.7880 C   0  0  0  0  0  0  0  0  0  0  0  0
    6.1661   13.0685   25.8223 C   0  0  0  0  0  0  0  0  0  0  0  0
   11.3892   14.6960   20.9905 C   0  0  0  0  0  0  0  0  0  0  0  0
   10.2449   13.9345   21.6464 C   0  0  0  0  0  0  0  0  0  0  0  0
   12.6073   16.6473   23.8670 C   0  0  0  0  0  0  0  0  0  0  0  0
   12.3951   15.2356   22.0002 C   0  0  0  0  0  0  0  0  0  0  0  0
   13.9768   10.9190   24.4163 N   0  0  0  0  0  0  0  0  0  0  0  0
    6.8287   11.0481   24.6848 N   0  0  0  0  0  0  0  0  0  0  0  0
    7.1815   12.1441   25.3779 N   0  0  0  0  0  0  0  0  0  0  0  0
   10.7044   12.8032   22.4211 N   0  0  0  0  0  0  0  0  0  0  0  0
   10.9573   13.9438   24.4140 O   0  0  0  0  0  0  0  0  0  0  0  0
   11.7201   16.1085   22.8963 O   0  0  0  0  0  0  0  0  0  0  0  0
    9.4046    8.7198   22.7335 S   0  0  0  0  0  0  0  0  0  0  0  0
    3.5752   11.2054   30.1544 H   0  0  0  0  0  0  0  0  0  0  0  0
    2.3149   11.7128   28.0785 H   0  0  0  0  0  0  0  0  0  0  0  0
    6.0302   11.5574   30.2325 H   0  0  0  0  0  0  0  0  0  0  0  0
    6.7768    6.2417   22.7266 H   0  0  0  0  0  0  0  0  0  0  0  0
    3.5007   12.5688   26.0846 H   0  0  0  0  0  0  0  0  0  0  0  0
    7.2251   12.4130   28.2441 H   0  0  0  0  0  0  0  0  0  0  0  0
    6.1406    8.3210   24.2348 H   0  0  0  0  0  0  0  0  0  0  0  0
    8.9499   13.0885   26.1309 H   0  0  0  0  0  0  0  0  0  0  0  0
    9.1563    6.5486   21.6409 H   0  0  0  0  0  0  0  0  0  0  0  0
   10.7718    9.8930   25.4285 H   0  0  0  0  0  0  0  0  0  0  0  0
   11.3833   18.3908   24.2289 H   0  0  0  0  0  0  0  0  0  0  0  0
   11.0382   17.0143   25.3031 H   0  0  0  0  0  0  0  0  0  0  0  0
   12.4872   17.9777   25.5625 H   0  0  0  0  0  0  0  0  0  0  0  0
    5.4729   13.2428   24.9904 H   0  0  0  0  0  0  0  0  0  0  0  0
    6.6476   14.0313   26.0326 H   0  0  0  0  0  0  0  0  0  0  0  0
   11.9108   14.0325   20.2894 H   0  0  0  0  0  0  0  0  0  0  0  0
   11.0008   15.5252   20.3859 H   0  0  0  0  0  0  0  0  0  0  0  0
    9.7008   14.5910   22.3325 H   0  0  0  0  0  0  0  0  0  0  0  0
    9.5391   13.5624   20.8969 H   0  0  0  0  0  0  0  0  0  0  0  0
   13.0534   15.8237   24.4324 H   0  0  0  0  0  0  0  0  0  0  0  0
   13.3995   17.1994   23.3525 H   0  0  0  0  0  0  0  0  0  0  0  0
   12.8464   14.4262   22.5823 H   0  0  0  0  0  0  0  0  0  0  0  0
   13.1879   15.7989   21.4977 H   0  0  0  0  0  0  0  0  0  0  0  0
   10.7928   11.9024   21.9629 H   0  0  0  0  0  0  0  0  0  0  0  0
  1 16  1  0  0  0  0
  1 24  3  0  0  0  0
  2  3  1  0  0  0  0
  2  4  2  0  0  0  0
  3  6  2  0  0  0  0
  4  7  1  0  0  0  0
  5  8  1  0  0  0  0
  5 10  2  0  0  0  0
  6 12  1  0  0  0  0
  7 12  2  0  0  0  0
  8 14  2  0  0  0  0
  9 11  2  0  0  0  0
  9 26  1  0  0  0  0
 10 30  1  0  0  0  0
 11 13  1  0  0  0  0
 11 15  1  4  0  0  0
 12 19  1  0  0  0  0
 13 14  1  0  0  0  0
 13 25  2  0  0  0  0
 14 30  1  0  0  0  0
 15 16  2  0  0  0  0
 16 17  1  0  0  0  0
 17 27  1  0  0  0  0
 17 28  2  0  0  0  0
 18 22  1  0  0  0  0
 19 26  1  0  0  0  0
 20 21  1  0  0  0  0
 20 23  1  0  0  0  0
 21 27  1  0  0  0  0
 22 29  1  0  0  0  0
 23 29  1  0  0  0  0
 25 26  1  0  0  0  0
  2 31  1  0  0  0  0
  3 32  1  0  0  0  0
  4 33  1  0  0  0  0
  5 34  1  0  0  0  0
  6 35  1  0  0  0  0
  7 36  1  0  0  0  0
  8 37  1  0  0  0  0
  9 38  1  0  0  0  0
 10 39  1  0  0  0  0
 15 40  1  0  0  0  0
 18 41  1  0  0  0  0
 18 42  1  0  0  0  0
 18 43  1  0  0  0  0
 19 44  1  0  0  0  0
 19 45  1  0  0  0  0
 20 46  1  0  0  0  0
 20 47  1  0  0  0  0
 21 48  1  0  0  0  0
 21 49  1  0  0  0  0
 22 50  1  0  0  0  0
 22 51  1  0  0  0  0
 23 52  1  0  0  0  0
 23 53  1  0  0  0  0
 27 54  1  0  0  0  0
M  END
> <Catalog ID>
Z46106636

> <MW>
420.527

> <MW (desalted)>
420.527

> <ClogP>
4.146

> <logS>
-4.563

> <HBD>
1

> <HBA>
4

> <TPSA>
79.94

> <RotBonds>
10

> <ROCS_ShapeQuery>
A71EV2A-x0451_0A_A71EV2A-x0310_0A_A71EV2A-x0416_0A_peptide

> <ROCS_TanimotoCombo>
0.532 

> <ROCS_ShapeTanimoto>
0.347 

> <ROCS_ColorTanimoto>
0.185 

> <ROCS_RefTversky>
0.317 

> <ROCS_RefColorTversky>
0.203 

> <ROCS_RefTverskyCombo>
0.521 

> <ROCS_FitTversky>
1.369 

> <ROCS_FitColorTversky>
0.676 

> <ROCS_FitTverskyCombo>
2.045 

> <ROCS_ColorScore>
-6.211

> <ROCS_Overlap>
2209.501

> <ROCS_Rank>
178                 

$$$$
untitled-dbase-2132_1919
  -OEChem-11132309573D

 45 47  0     0  0  0  0  0  0999 V2000
   13.7043   15.9066   20.8118 C   0  0  0  0  0  0  0  0  0  0  0  0
   11.7393   15.0557   19.6929 C   0  0  0  0  0  0  0  0  0  0  0  0
   14.2481   16.2705   19.5799 C   0  0  0  0  0  0  0  0  0  0  0  0
   12.2831   15.4196   18.4611 C   0  0  0  0  0  0  0  0  0  0  0  0
    7.7261   13.1025   25.0287 C   0  0  0  0  0  0  0  0  0  0  0  0
    6.7074   10.5333   25.3600 C   0  0  0  0  0  0  0  0  0  0  0  0
   12.4499   15.2992   20.8683 C   0  0  0  0  0  0  0  0  0  0  0  0
    8.3942   12.0335   24.4168 C   0  0  0  0  0  0  0  0  0  0  0  0
   13.5376   16.0270   18.4046 C   0  0  0  0  0  0  0  0  0  0  0  0
    7.8507   10.7431   24.5796 C   0  0  0  0  0  0  0  0  0  0  0  0
    6.5896   12.8893   25.8165 C   0  0  0  0  0  0  0  0  0  0  0  0
    6.0842   11.6058   25.9879 C   0  0  0  0  0  0  0  0  0  0  0  0
   14.0255   17.9916   13.9656 C   0  0  0  0  0  0  0  0  0  0  0  0
   14.3464   17.0885   14.8973 C   0  0  0  0  0  0  0  0  0  0  0  0
   13.4014   16.7757   16.0084 C   0  0  0  0  0  0  0  0  0  0  0  0
   10.3952   13.2981   23.4815 C   0  0  0  0  0  0  0  0  0  0  0  0
    9.7617   11.0759   22.6565 C   0  0  0  0  0  0  0  0  0  0  0  0
    9.6642    9.7819   23.4371 C   0  0  0  0  0  0  0  0  0  0  0  0
   11.8615   14.9054   22.2013 C   0  0  0  0  0  0  0  0  0  0  0  0
   10.9408   13.6926   22.1310 C   0  0  0  0  0  0  0  0  0  0  0  0
    9.5356   12.2012   23.5674 N   0  0  0  0  0  0  0  0  0  0  0  0
   14.0812   16.3911   17.1724 N   0  0  0  0  0  0  0  0  0  0  0  0
   12.1889   16.8642   15.8550 O   0  0  0  0  0  0  0  0  0  0  0  0
   10.6733   14.0140   24.4510 O   0  0  0  0  0  0  0  0  0  0  0  0
    8.3579    9.6127   23.9842 O   0  0  0  0  0  0  0  0  0  0  0  0
    5.9956   13.9257   26.4224 F   0  0  0  0  0  0  0  0  0  0  0  0
    5.0084   11.4026   26.7592 F   0  0  0  0  0  0  0  0  0  0  0  0
   14.2659   16.0981   21.7224 H   0  0  0  0  0  0  0  0  0  0  0  0
   10.7616   14.5822   19.7276 H   0  0  0  0  0  0  0  0  0  0  0  0
   15.2264   16.7436   19.5478 H   0  0  0  0  0  0  0  0  0  0  0  0
   11.7213   15.2242   17.5511 H   0  0  0  0  0  0  0  0  0  0  0  0
    8.0698   14.1275   24.9548 H   0  0  0  0  0  0  0  0  0  0  0  0
    6.2947    9.5343   25.4747 H   0  0  0  0  0  0  0  0  0  0  0  0
   14.6864   18.2447   13.1441 H   0  0  0  0  0  0  0  0  0  0  0  0
   13.0706   18.5046   14.0137 H   0  0  0  0  0  0  0  0  0  0  0  0
   15.3006   16.5750   14.8498 H   0  0  0  0  0  0  0  0  0  0  0  0
   10.7566   11.2035   22.2260 H   0  0  0  0  0  0  0  0  0  0  0  0
    9.0253   11.0588   21.8568 H   0  0  0  0  0  0  0  0  0  0  0  0
    9.9259    8.9088   22.8224 H   0  0  0  0  0  0  0  0  0  0  0  0
   10.3686    9.8041   24.2775 H   0  0  0  0  0  0  0  0  0  0  0  0
   11.3385   15.7608   22.6485 H   0  0  0  0  0  0  0  0  0  0  0  0
   12.6877   14.6739   22.8862 H   0  0  0  0  0  0  0  0  0  0  0  0
   10.0961   13.8730   21.4664 H   0  0  0  0  0  0  0  0  0  0  0  0
   11.4914   12.8339   21.7464 H   0  0  0  0  0  0  0  0  0  0  0  0
   15.1064   16.3753   17.1104 H   0  0  0  0  0  0  0  0  0  0  0  0
  1  3  2  0  0  0  0
  1  7  1  0  0  0  0
  2  4  1  0  0  0  0
  2  7  2  0  0  0  0
  3  9  1  0  0  0  0
  4  9  2  0  0  0  0
  5  8  2  0  0  0  0
  5 11  1  0  0  0  0
  6 10  2  0  0  0  0
  6 12  1  0  0  0  0
  7 19  1  0  0  0  0
  8 10  1  0  0  0  0
  8 21  1  0  0  0  0
  9 22  1  0  0  0  0
 10 25  1  0  0  0  0
 11 12  2  0  0  0  0
 11 26  1  0  0  0  0
 12 27  1  0  0  0  0
 13 14  2  0  0  0  0
 14 15  1  0  0  0  0
 15 22  1  0  0  0  0
 15 23  2  0  0  0  0
 16 20  1  0  0  0  0
 16 21  1  0  0  0  0
 16 24  2  0  0  0  0
 17 18  1  0  0  0  0
 17 21  1  0  0  0  0
 18 25  1  0  0  0  0
 19 20  1  0  0  0  0
  1 28  1  0  0  0  0
  2 29  1  0  0  0  0
  3 30  1  0  0  0  0
  4 31  1  0  0  0  0
  5 32  1  0  0  0  0
  6 33  1  0  0  0  0
 13 34  1  0  0  0  0
 13 35  1  0  0  0  0
 14 36  1  0  0  0  0
 17 37  1  0  0  0  0
 17 38  1  0  0  0  0
 18 39  1  0  0  0  0
 18 40  1  0  0  0  0
 19 41  1  0  0  0  0
 19 42  1  0  0  0  0
 20 43  1  0  0  0  0
 20 44  1  0  0  0  0
 22 45  1  0  0  0  0
M  END
> <Catalog ID>
Z4899706112

> <MW>
372.365

> <MW (desalted)>
372.365

> <ClogP>
2.877

> <logS>
-5.25

> <HBD>
1

> <HBA>
3

> <TPSA>
58.64

> <RotBonds>
5

> <ROCS_ShapeQuery>
A71EV2A-x0451_0A_A71EV2A-x0310_0A_A71EV2A-x0416_0A_peptide

> <ROCS_TanimotoCombo>
0.532 

> <ROCS_ShapeTanimoto>
0.359 

> <ROCS_ColorTanimoto>
0.173 

> <ROCS_RefTversky>
0.322 

> <ROCS_RefColorTversky>
0.192 

> <ROCS_RefTverskyCombo>
0.514 

> <ROCS_FitTversky>
1.471 

> <ROCS_FitColorTversky>
0.637 

> <ROCS_FitTverskyCombo>
2.108 

> <ROCS_ColorScore>
-5.859

> <ROCS_Overlap>
2241.381

> <ROCS_Rank>
179                 

$$$$
untitled-dbase-2068_410
  -OEChem-11132309573D

 51 53  0     1  0  0  0  0  0999 V2000
   10.1262   13.6222   20.9408 C   0  0  0  0  0  0  0  0  0  0  0  0
   13.5885   14.5993   23.8906 C   0  0  0  0  0  0  0  0  0  0  0  0
   13.7854   12.2272   23.4767 C   0  0  0  0  0  0  0  0  0  0  0  0
   14.4607   14.4829   24.9729 C   0  0  0  0  0  0  0  0  0  0  0  0
   14.6577   12.1107   24.5589 C   0  0  0  0  0  0  0  0  0  0  0  0
   13.2508   13.4715   23.1425 C   0  0  0  0  0  0  0  0  0  0  0  0
   14.9953   13.2386   25.3071 C   0  0  0  0  0  0  0  0  0  0  0  0
   12.3311   13.5943   22.0014 C   0  0  0  0  0  0  0  0  0  0  0  0
   10.9928   13.4993   22.0610 C   0  0  0  0  0  0  0  0  0  0  0  0
   10.4162   13.2232   23.3915 C   0  0  0  0  0  0  0  0  0  0  0  0
    9.2800    9.8976   24.3209 C   0  0  0  0  0  0  0  0  0  0  0  0
    8.4938   11.8463   25.6733 C   0  0  0  0  0  0  0  0  0  0  0  0
    6.9276   10.6661   23.9679 C   0  0  0  0  0  0  0  0  0  0  0  0
    8.9157   11.3587   22.4888 C   0  0  0  0  0  0  0  0  0  0  0  0
    9.6219   11.3114   24.7780 C   0  0  2  0  0  0  0  0  0  0  0  0
    8.2272   10.2125   23.2521 C   0  0  1  0  0  0  0  0  0  0  0  0
    7.0811   11.8106   25.0182 C   0  0  0  0  0  0  0  0  0  0  0  0
    7.9483    9.0167   22.3451 C   0  0  0  0  0  0  0  0  0  0  0  0
    6.7560   13.1782   24.3755 C   0  0  0  0  0  0  0  0  0  0  0  0
    6.0294   11.6014   26.1317 C   0  0  0  0  0  0  0  0  0  0  0  0
   15.4577   12.2637   27.4267 C   0  0  0  0  0  0  0  0  0  0  0  0
    9.4158   13.7207   20.0285 N   0  0  0  0  0  0  0  0  0  0  0  0
    9.6941   12.0534   23.5193 N   0  0  0  0  0  0  0  0  0  0  0  0
   10.6055   14.0320   24.2992 O   0  0  0  0  0  0  0  0  0  0  0  0
   15.8463   13.1250   26.3632 O   0  0  0  0  0  0  0  0  0  0  0  0
   14.7497   13.0058   28.3168 F   0  0  0  0  0  0  0  0  0  0  0  0
   14.6084   11.3215   26.9485 F   0  0  0  0  0  0  0  0  0  0  0  0
   13.1799   15.5760   23.6425 H   0  0  0  0  0  0  0  0  0  0  0  0
   13.5317   11.3389   22.9030 H   0  0  0  0  0  0  0  0  0  0  0  0
   14.7200   15.3650   25.5520 H   0  0  0  0  0  0  0  0  0  0  0  0
   15.0709   11.1388   24.8144 H   0  0  0  0  0  0  0  0  0  0  0  0
   12.8275   13.8007   21.0546 H   0  0  0  0  0  0  0  0  0  0  0  0
   10.1610    9.4085   23.8863 H   0  0  0  0  0  0  0  0  0  0  0  0
    8.8995    9.2618   25.1274 H   0  0  0  0  0  0  0  0  0  0  0  0
    8.4869   11.2302   26.5829 H   0  0  0  0  0  0  0  0  0  0  0  0
    8.7344   12.8631   26.0088 H   0  0  0  0  0  0  0  0  0  0  0  0
    6.1764   10.9475   23.2179 H   0  0  0  0  0  0  0  0  0  0  0  0
    6.5143    9.7824   24.4751 H   0  0  0  0  0  0  0  0  0  0  0  0
    9.6257   10.9878   21.7402 H   0  0  0  0  0  0  0  0  0  0  0  0
    8.2131   12.0367   21.9962 H   0  0  0  0  0  0  0  0  0  0  0  0
   10.5800   11.3578   25.3062 H   0  0  0  0  0  0  0  0  0  0  0  0
    7.1972    9.2828   21.6028 H   0  0  0  0  0  0  0  0  0  0  0  0
    7.5818    8.1802   22.9384 H   0  0  0  0  0  0  0  0  0  0  0  0
    8.8630    8.7181   21.8351 H   0  0  0  0  0  0  0  0  0  0  0  0
    5.7716   13.1302   23.9273 H   0  0  0  0  0  0  0  0  0  0  0  0
    7.4982   13.3950   23.6177 H   0  0  0  0  0  0  0  0  0  0  0  0
    6.7768   13.9408   25.1439 H   0  0  0  0  0  0  0  0  0  0  0  0
    5.0444   11.5755   25.6832 H   0  0  0  0  0  0  0  0  0  0  0  0
    6.0954   12.4219   26.8348 H   0  0  0  0  0  0  0  0  0  0  0  0
    6.2329   10.6644   26.6345 H   0  0  0  0  0  0  0  0  0  0  0  0
   16.3052   11.8066   27.9488 H   0  0  0  0  0  0  0  0  0  0  0  0
  1  9  1  0  0  0  0
  1 22  3  0  0  0  0
  2  4  2  0  0  0  0
  2  6  1  0  0  0  0
  3  5  1  0  0  0  0
  3  6  2  0  0  0  0
  4  7  1  0  0  0  0
  5  7  2  0  0  0  0
  6  8  1  4  0  0  0
  7 25  1  0  0  0  0
  8  9  2  0  0  0  0
  9 10  1  0  0  0  0
 10 23  1  0  0  0  0
 10 24  2  0  0  0  0
 11 15  1  0  0  0  0
 11 16  1  0  0  0  0
 12 15  1  0  0  0  0
 12 17  1  0  0  0  0
 13 16  1  0  0  0  0
 13 17  1  0  0  0  0
 14 16  1  0  0  0  0
 14 23  1  0  0  0  0
 15 23  1  0  0  0  0
 16 18  1  0  0  0  0
 17 19  1  0  0  0  0
 17 20  1  0  0  0  0
 21 25  1  0  0  0  0
 21 26  1  0  0  0  0
 21 27  1  0  0  0  0
  2 28  1  0  0  0  0
  3 29  1  0  0  0  0
  4 30  1  0  0  0  0
  5 31  1  0  0  0  0
  8 32  1  0  0  0  0
 11 33  1  0  0  0  0
 11 34  1  0  0  0  0
 12 35  1  0  0  0  0
 12 36  1  0  0  0  0
 13 37  1  0  0  0  0
 13 38  1  0  0  0  0
 14 39  1  0  0  0  0
 14 40  1  0  0  0  0
 15 41  1  0  0  0  0
 18 42  1  0  0  0  0
 18 43  1  0  0  0  0
 18 44  1  0  0  0  0
 19 45  1  0  0  0  0
 19 46  1  0  0  0  0
 19 47  1  0  0  0  0
 20 48  1  0  0  0  0
 20 49  1  0  0  0  0
 20 50  1  0  0  0  0
 21 51  1  0  0  0  0
M  END
> <Catalog ID>
Z56793229

> <MW>
374.424

> <MW (desalted)>
374.424

> <ClogP>
4.826

> <logS>
-5.09

> <HBD>
0

> <HBA>
3

> <TPSA>
53.33

> <RotBonds>
4

> <ROCS_ShapeQuery>
A71EV2A-x0451_0A_A71EV2A-x0310_0A_A71EV2A-x0416_0A_peptide

> <ROCS_TanimotoCombo>
0.532 

> <ROCS_ShapeTanimoto>
0.333 

> <ROCS_ColorTanimoto>
0.199 

> <ROCS_RefTversky>
0.304 

> <ROCS_RefColorTversky>
0.230 

> <ROCS_RefTverskyCombo>
0.534 

> <ROCS_FitTversky>
1.399 

> <ROCS_FitColorTversky>
0.596 

> <ROCS_FitTverskyCombo>
1.995 

> <ROCS_ColorScore>
-7.055

> <ROCS_Overlap>
2116.461

> <ROCS_Rank>
180                 

$$$$
untitled-dbase-11102_8867
  -OEChem-11132309573D

 61 63  0     1  0  0  0  0  0999 V2000
    6.9408   13.3108   25.8987 C   0  0  0  0  0  0  0  0  0  0  0  0
    8.0253   13.2683   25.0147 C   0  0  0  0  0  0  0  0  0  0  0  0
    6.7072   10.9319   25.7265 C   0  0  0  0  0  0  0  0  0  0  0  0
    7.7840   10.8809   24.8228 C   0  0  0  0  0  0  0  0  0  0  0  0
    6.2891   12.1423   26.2646 C   0  0  0  0  0  0  0  0  0  0  0  0
    8.4934   12.0553   24.4791 C   0  0  0  0  0  0  0  0  0  0  0  0
   13.6870   14.9712   24.9149 C   0  0  0  0  0  0  0  0  0  0  0  0
   13.4179   14.5133   23.6879 C   0  0  0  0  0  0  0  0  0  0  0  0
   12.4128   15.2087   22.8346 C   0  0  0  0  0  0  0  0  0  0  0  0
   10.5670   13.0448   23.4657 C   0  0  0  0  0  0  0  0  0  0  0  0
    8.1704    9.5397   24.2627 C   0  0  0  0  0  0  0  0  0  0  0  0
    8.7401    9.7334   22.8742 C   0  0  0  0  0  0  0  0  0  0  0  0
    3.6736   11.6766   29.5417 C   0  0  0  0  0  0  0  0  0  0  0  0
    4.9263   12.5467   29.5773 C   0  0  0  0  0  0  0  0  0  0  0  0
    3.7596   10.6523   28.4119 C   0  0  0  0  0  0  0  0  0  0  0  0
    9.9195   10.6865   22.9435 C   0  0  0  0  0  0  0  0  0  0  0  0
    5.1778   13.2036   28.2238 C   0  0  0  0  0  0  0  0  0  0  0  0
    4.0742   11.2817   27.0421 C   0  0  1  0  0  0  0  0  0  0  0  0
    3.1732   12.5784   25.1071 C   0  0  0  0  0  0  0  0  0  0  0  0
   12.1869   14.7879   19.5410 C   0  0  0  0  0  0  0  0  0  0  0  0
   11.3995   13.0527   22.2008 C   0  0  0  0  0  0  0  0  0  0  0  0
    2.8690   12.0200   26.4563 C   0  0  0  0  0  0  0  0  0  0  0  0
   11.1824   14.9460   20.6313 C   0  0  0  0  0  0  0  0  0  0  0  0
    9.6408   11.9835   23.5915 N   0  0  0  0  0  0  0  0  0  0  0  0
    5.2351   12.1806   27.1731 N   0  0  3  0  0  0  0  0  0  0  0  0
   11.6966   14.4206   21.9083 N   0  0  0  0  0  0  0  0  0  0  0  0
   12.2593   16.4266   22.9408 O   0  0  0  0  0  0  0  0  0  0  0  0
   10.7724   13.9409   24.2865 O   0  0  0  0  0  0  0  0  0  0  0  0
    6.6263   14.2695   26.3043 H   0  0  0  0  0  0  0  0  0  0  0  0
    8.5022   14.2193   24.8024 H   0  0  0  0  0  0  0  0  0  0  0  0
    6.1974   10.0128   26.0080 H   0  0  0  0  0  0  0  0  0  0  0  0
   14.4099   14.4979   25.5701 H   0  0  0  0  0  0  0  0  0  0  0  0
   13.1776   15.8537   25.2881 H   0  0  0  0  0  0  0  0  0  0  0  0
   13.9610   13.6588   23.3034 H   0  0  0  0  0  0  0  0  0  0  0  0
    8.9145    9.0891   24.9161 H   0  0  0  0  0  0  0  0  0  0  0  0
    7.3046    8.8845   24.2044 H   0  0  0  0  0  0  0  0  0  0  0  0
    9.0579    8.7682   22.4644 H   0  0  0  0  0  0  0  0  0  0  0  0
    7.9774   10.1359   22.1957 H   0  0  0  0  0  0  0  0  0  0  0  0
    3.5585   11.1573   30.5022 H   0  0  0  0  0  0  0  0  0  0  0  0
    2.7832   12.3071   29.4174 H   0  0  0  0  0  0  0  0  0  0  0  0
    4.8157   13.3164   30.3446 H   0  0  0  0  0  0  0  0  0  0  0  0
    5.7899   11.9350   29.8542 H   0  0  0  0  0  0  0  0  0  0  0  0
    4.5460    9.9236   28.6534 H   0  0  0  0  0  0  0  0  0  0  0  0
    2.8216   10.0850   28.3603 H   0  0  0  0  0  0  0  0  0  0  0  0
   10.7707   10.2277   23.4879 H   0  0  0  0  0  0  0  0  0  0  0  0
   10.2766   10.8455   21.9091 H   0  0  0  0  0  0  0  0  0  0  0  0
    4.3849   13.9254   27.9974 H   0  0  0  0  0  0  0  0  0  0  0  0
    6.1211   13.7598   28.2746 H   0  0  0  0  0  0  0  0  0  0  0  0
    4.3305   10.4610   26.3586 H   0  0  0  0  0  0  0  0  0  0  0  0
    4.0170   13.2743   25.1827 H   0  0  0  0  0  0  0  0  0  0  0  0
    2.3146   13.1281   24.7071 H   0  0  0  0  0  0  0  0  0  0  0  0
    3.4503   11.7833   24.4069 H   0  0  0  0  0  0  0  0  0  0  0  0
   12.4273   13.7219   19.4150 H   0  0  0  0  0  0  0  0  0  0  0  0
   11.7737   15.1840   18.6017 H   0  0  0  0  0  0  0  0  0  0  0  0
   13.1010   15.3415   19.8018 H   0  0  0  0  0  0  0  0  0  0  0  0
   10.8121   12.5967   21.4115 H   0  0  0  0  0  0  0  0  0  0  0  0
   12.3020   12.4823   22.3912 H   0  0  0  0  0  0  0  0  0  0  0  0
    2.0296   11.3258   26.3895 H   0  0  0  0  0  0  0  0  0  0  0  0
    2.5859   12.8259   27.1357 H   0  0  0  0  0  0  0  0  0  0  0  0
   10.9475   16.0139   20.7510 H   0  0  0  0  0  0  0  0  0  0  0  0
   10.2683   14.3977   20.3595 H   0  0  0  0  0  0  0  0  0  0  0  0
  1  2  2  0  0  0  0
  1  5  1  0  0  0  0
  2  6  1  0  0  0  0
  3  4  1  0  0  0  0
  3  5  2  0  0  0  0
  4  6  2  0  0  0  0
  4 11  1  0  0  0  0
  5 25  1  0  0  0  0
  6 24  1  0  0  0  0
  7  8  2  0  0  0  0
  8  9  1  0  0  0  0
  9 26  1  0  0  0  0
  9 27  2  0  0  0  0
 10 21  1  0  0  0  0
 10 24  1  0  0  0  0
 10 28  2  0  0  0  0
 11 12  1  0  0  0  0
 12 16  1  0  0  0  0
 13 14  1  0  0  0  0
 13 15  1  0  0  0  0
 14 17  1  0  0  0  0
 15 18  1  0  0  0  0
 16 24  1  0  0  0  0
 17 25  1  0  0  0  0
 18 22  1  0  0  0  0
 18 25  1  0  0  0  0
 19 22  1  0  0  0  0
 20 23  1  0  0  0  0
 21 26  1  0  0  0  0
 23 26  1  0  0  0  0
  1 29  1  0  0  0  0
  2 30  1  0  0  0  0
  3 31  1  0  0  0  0
  7 32  1  0  0  0  0
  7 33  1  0  0  0  0
  8 34  1  0  0  0  0
 11 35  1  0  0  0  0
 11 36  1  0  0  0  0
 12 37  1  0  0  0  0
 12 38  1  0  0  0  0
 13 39  1  0  0  0  0
 13 40  1  0  0  0  0
 14 41  1  0  0  0  0
 14 42  1  0  0  0  0
 15 43  1  0  0  0  0
 15 44  1  0  0  0  0
 16 45  1  0  0  0  0
 16 46  1  0  0  0  0
 17 47  1  0  0  0  0
 17 48  1  0  0  0  0
 18 49  1  0  0  0  0
 19 50  1  0  0  0  0
 19 51  1  0  0  0  0
 19 52  1  0  0  0  0
 20 53  1  0  0  0  0
 20 54  1  0  0  0  0
 20 55  1  0  0  0  0
 21 56  1  0  0  0  0
 21 57  1  0  0  0  0
 22 58  1  0  0  0  0
 22 59  1  0  0  0  0
 23 60  1  0  0  0  0
 23 61  1  0  0  0  0
M  END
> <Catalog ID>
Z3664804499

> <MW>
383.527

> <MW (desalted)>
383.527

> <ClogP>
4.37

> <logS>
-4.741

> <HBD>
0

> <HBA>
3

> <TPSA>
43.86

> <RotBonds>
6

> <ROCS_ShapeQuery>
A71EV2A-x0451_0A_A71EV2A-x0310_0A_A71EV2A-x0416_0A_peptide

> <ROCS_TanimotoCombo>
0.532 

> <ROCS_ShapeTanimoto>
0.369 

> <ROCS_ColorTanimoto>
0.163 

> <ROCS_RefTversky>
0.329 

> <ROCS_RefColorTversky>
0.178 

> <ROCS_RefTverskyCombo>
0.507 

> <ROCS_FitTversky>
1.491 

> <ROCS_FitColorTversky>
0.660 

> <ROCS_FitTverskyCombo>
2.151 

> <ROCS_ColorScore>
-5.437

> <ROCS_Overlap>
2287.664

> <ROCS_Rank>
181                 

$$$$
untitled-dbase-1424_8027
  -OEChem-11132309573D

 54 56  0     0  0  0  0  0  0999 V2000
    9.5218   12.0020   23.7014 C   0  0  0  0  0  0  0  0  0  0  0  0
    8.2485   11.8563   24.2786 C   0  0  0  0  0  0  0  0  0  0  0  0
    9.8626   10.7262   23.3379 C   0  0  0  0  0  0  0  0  0  0  0  0
   10.3471   13.2220   23.5071 C   0  0  0  0  0  0  0  0  0  0  0  0
   13.6183   13.0154   23.1171 C   0  0  0  0  0  0  0  0  0  0  0  0
   13.2417   16.0800   18.8451 C   0  0  0  0  0  0  0  0  0  0  0  0
    5.6194   13.2086   26.5228 C   0  0  0  0  0  0  0  0  0  0  0  0
    4.9513   12.7826   25.2277 C   0  0  0  0  0  0  0  0  0  0  0  0
   13.5534   16.4823   20.2826 C   0  0  0  0  0  0  0  0  0  0  0  0
   12.1231   15.0462   18.7740 C   0  0  0  0  0  0  0  0  0  0  0  0
    7.0456   12.7068   26.3551 C   0  0  0  0  0  0  0  0  0  0  0  0
    6.0011   13.0800   24.1630 C   0  0  0  0  0  0  0  0  0  0  0  0
   13.8558   15.2656   21.1565 C   0  0  0  0  0  0  0  0  0  0  0  0
   12.4245   13.8283   19.6467 C   0  0  0  0  0  0  0  0  0  0  0  0
    7.3654   12.9272   24.8657 C   0  0  0  0  0  0  0  0  0  0  0  0
   12.7523   14.1886   21.1114 C   0  0  0  0  0  0  0  0  0  0  0  0
   11.0384   10.1287   22.6906 C   0  0  0  0  0  0  0  0  0  0  0  0
   14.0689   11.6646   23.6114 C   0  0  0  0  0  0  0  0  0  0  0  0
   11.4894   14.6686   21.8463 C   0  0  0  0  0  0  0  0  0  0  0  0
    7.8315   10.5871   24.2733 N   0  0  0  0  0  0  0  0  0  0  0  0
   10.6867   13.5473   22.1897 N   0  0  0  0  0  0  0  0  0  0  0  0
   13.2404   12.9963   21.7912 N   0  0  0  0  0  0  0  0  0  0  0  0
   10.7052   13.8668   24.4892 O   0  0  0  0  0  0  0  0  0  0  0  0
   13.5900   13.9995   23.8540 O   0  0  0  0  0  0  0  0  0  0  0  0
    8.8619    9.8726   23.6740 O   0  0  0  0  0  0  0  0  0  0  0  0
   13.6912   11.5629   25.3382 Cl  0  0  0  0  0  0  0  0  0  0  0  0
   12.9507   16.9706   18.2729 H   0  0  0  0  0  0  0  0  0  0  0  0
   14.1455   15.6798   18.3699 H   0  0  0  0  0  0  0  0  0  0  0  0
    5.6096   14.3010   26.6161 H   0  0  0  0  0  0  0  0  0  0  0  0
    5.1302   12.7836   27.4037 H   0  0  0  0  0  0  0  0  0  0  0  0
    4.7347   11.7080   25.2498 H   0  0  0  0  0  0  0  0  0  0  0  0
    4.0137   13.3157   25.0453 H   0  0  0  0  0  0  0  0  0  0  0  0
   14.4065   17.1714   20.2944 H   0  0  0  0  0  0  0  0  0  0  0  0
   12.7012   17.0301   20.7013 H   0  0  0  0  0  0  0  0  0  0  0  0
   11.1836   15.5048   19.1038 H   0  0  0  0  0  0  0  0  0  0  0  0
   11.9693   14.7392   17.7330 H   0  0  0  0  0  0  0  0  0  0  0  0
    7.7427   13.2419   27.0075 H   0  0  0  0  0  0  0  0  0  0  0  0
    7.0957   11.6433   26.6201 H   0  0  0  0  0  0  0  0  0  0  0  0
    5.8793   12.4321   23.2885 H   0  0  0  0  0  0  0  0  0  0  0  0
    5.8838   14.1161   23.8214 H   0  0  0  0  0  0  0  0  0  0  0  0
   14.8236   14.8342   20.8584 H   0  0  0  0  0  0  0  0  0  0  0  0
   13.9884   15.6087   22.1946 H   0  0  0  0  0  0  0  0  0  0  0  0
   11.5501   13.1592   19.6226 H   0  0  0  0  0  0  0  0  0  0  0  0
   13.2519   13.2559   19.2010 H   0  0  0  0  0  0  0  0  0  0  0  0
    7.9169   13.8911   24.7593 H   0  0  0  0  0  0  0  0  0  0  0  0
   11.7943    9.8173   23.4337 H   0  0  0  0  0  0  0  0  0  0  0  0
   10.7801    9.2366   22.0900 H   0  0  0  0  0  0  0  0  0  0  0  0
   11.5334   10.8272   21.9901 H   0  0  0  0  0  0  0  0  0  0  0  0
   13.5705   10.8407   23.0948 H   0  0  0  0  0  0  0  0  0  0  0  0
   15.1497   11.5699   23.4751 H   0  0  0  0  0  0  0  0  0  0  0  0
   11.8246   15.1946   22.7355 H   0  0  0  0  0  0  0  0  0  0  0  0
   10.9627   15.3308   21.1654 H   0  0  0  0  0  0  0  0  0  0  0  0
   10.3931   12.9122   21.4393 H   0  0  0  0  0  0  0  0  0  0  0  0
   13.3039   12.1295   21.2758 H   0  0  0  0  0  0  0  0  0  0  0  0
  1  2  1  0  0  0  0
  1  3  2  0  0  0  0
  1  4  1  0  0  0  0
  2 15  1  0  0  0  0
  2 20  2  0  0  0  0
  3 17  1  0  0  0  0
  3 25  1  0  0  0  0
  4 21  1  0  0  0  0
  4 23  2  0  0  0  0
  5 18  1  0  0  0  0
  5 22  1  0  0  0  0
  5 24  2  0  0  0  0
  6  9  1  0  0  0  0
  6 10  1  0  0  0  0
  7  8  1  0  0  0  0
  7 11  1  0  0  0  0
  8 12  1  0  0  0  0
  9 13  1  0  0  0  0
 10 14  1  0  0  0  0
 11 15  1  0  0  0  0
 12 15  1  0  0  0  0
 13 16  1  0  0  0  0
 14 16  1  0  0  0  0
 16 19  1  0  0  0  0
 16 22  1  0  0  0  0
 18 26  1  0  0  0  0
 19 21  1  0  0  0  0
 20 25  1  0  0  0  0
  6 27  1  0  0  0  0
  6 28  1  0  0  0  0
  7 29  1  0  0  0  0
  7 30  1  0  0  0  0
  8 31  1  0  0  0  0
  8 32  1  0  0  0  0
  9 33  1  0  0  0  0
  9 34  1  0  0  0  0
 10 35  1  0  0  0  0
 10 36  1  0  0  0  0
 11 37  1  0  0  0  0
 11 38  1  0  0  0  0
 12 39  1  0  0  0  0
 12 40  1  0  0  0  0
 13 41  1  0  0  0  0
 13 42  1  0  0  0  0
 14 43  1  0  0  0  0
 14 44  1  0  0  0  0
 15 45  1  0  0  0  0
 17 46  1  0  0  0  0
 17 47  1  0  0  0  0
 17 48  1  0  0  0  0
 18 49  1  0  0  0  0
 18 50  1  0  0  0  0
 19 51  1  0  0  0  0
 19 52  1  0  0  0  0
 21 53  1  0  0  0  0
 22 54  1  0  0  0  0
M  END
> <Catalog ID>
Z4425211095

> <MW>
381.897

> <MW (desalted)>
381.897

> <ClogP>
2.804

> <logS>
-4.502

> <HBD>
2

> <HBA>
3

> <TPSA>
84.23

> <RotBonds>
6

> <ROCS_ShapeQuery>
A71EV2A-x0451_0A_A71EV2A-x0310_0A_A71EV2A-x0416_0A_peptide

> <ROCS_TanimotoCombo>
0.532 

> <ROCS_ShapeTanimoto>
0.345 

> <ROCS_ColorTanimoto>
0.186 

> <ROCS_RefTversky>
0.310 

> <ROCS_RefColorTversky>
0.204 

> <ROCS_RefTverskyCombo>
0.515 

> <ROCS_FitTversky>
1.494 

> <ROCS_FitColorTversky>
0.679 

> <ROCS_FitTverskyCombo>
2.173 

> <ROCS_ColorScore>
-6.241

> <ROCS_Overlap>
2155.818

> <ROCS_Rank>
182                 

$$$$
untitled-dbase-5005_1604
  -OEChem-11132309573D

 42 44  0     1  0  0  0  0  0999 V2000
   14.3350   16.6585   19.1078 C   0  0  0  0  0  0  0  0  0  0  0  0
    9.1254   10.3124   23.4289 C   0  0  0  0  0  0  0  0  0  0  0  0
   14.2698   15.8669   17.9600 C   0  0  0  0  0  0  0  0  0  0  0  0
    8.0619    9.7049   24.0963 C   0  0  0  0  0  0  0  0  0  0  0  0
   12.5813   14.4302   18.9805 C   0  0  0  0  0  0  0  0  0  0  0  0
    8.3598   12.4775   24.1797 C   0  0  0  0  0  0  0  0  0  0  0  0
   12.6539   15.2160   20.1159 C   0  0  0  0  0  0  0  0  0  0  0  0
   13.5166   16.3089   20.1632 C   0  0  0  0  0  0  0  0  0  0  0  0
    9.2744   11.6987   23.4706 C   0  0  0  0  0  0  0  0  0  0  0  0
    7.2963   11.8699   24.8471 C   0  0  0  0  0  0  0  0  0  0  0  0
   13.4003   14.7624   17.8965 C   0  0  0  0  0  0  0  0  0  0  0  0
    7.1474   10.4836   24.8054 C   0  0  0  0  0  0  0  0  0  0  0  0
   12.4803   16.2939   22.2191 C   0  0  0  0  0  0  0  0  0  0  0  0
    3.9962   13.2754   28.2324 C   0  0  0  0  0  0  0  0  0  0  0  0
    4.7760   13.4185   27.1562 C   0  0  0  0  0  0  0  0  0  0  0  0
    5.6481   12.2990   26.6966 C   0  0  0  0  0  0  0  0  0  0  0  0
   11.0093   13.4935   23.1373 C   0  0  0  0  0  0  0  0  0  0  0  0
   11.9003   15.1162   21.4114 C   0  0  2  0  0  0  0  0  0  0  0  0
   12.1145   13.7996   22.1380 C   0  0  0  0  0  0  0  0  0  0  0  0
   13.4113   16.9392   21.3978 N   0  0  0  0  0  0  0  0  0  0  0  0
    6.3829   12.6510   25.5561 N   0  0  0  0  0  0  0  0  0  0  0  0
   10.3534   12.3149   22.7932 N   0  0  0  0  0  0  0  0  0  0  0  0
   12.1722   16.5929   23.3628 O   0  0  0  0  0  0  0  0  0  0  0  0
    5.6713   11.2270   27.2897 O   0  0  0  0  0  0  0  0  0  0  0  0
   10.7770   14.2238   24.0950 O   0  0  0  0  0  0  0  0  0  0  0  0
   13.3564   14.0210   16.7806 F   0  0  0  0  0  0  0  0  0  0  0  0
    6.1291    9.8887   25.4427 F   0  0  0  0  0  0  0  0  0  0  0  0
   15.0033   17.5103   19.1593 H   0  0  0  0  0  0  0  0  0  0  0  0
    9.8319    9.6953   22.8793 H   0  0  0  0  0  0  0  0  0  0  0  0
   14.8956   16.1049   17.1042 H   0  0  0  0  0  0  0  0  0  0  0  0
    7.9457    8.6256   24.0646 H   0  0  0  0  0  0  0  0  0  0  0  0
   11.9097   13.5808   18.9237 H   0  0  0  0  0  0  0  0  0  0  0  0
    8.4765   13.5591   24.2118 H   0  0  0  0  0  0  0  0  0  0  0  0
    3.3497   14.0663   28.5958 H   0  0  0  0  0  0  0  0  0  0  0  0
    3.9945   12.3387   28.7801 H   0  0  0  0  0  0  0  0  0  0  0  0
    4.7781   14.3544   26.6080 H   0  0  0  0  0  0  0  0  0  0  0  0
   10.8361   15.3112   21.2389 H   0  0  0  0  0  0  0  0  0  0  0  0
   13.0698   13.8302   22.6741 H   0  0  0  0  0  0  0  0  0  0  0  0
   12.1599   12.9834   21.4082 H   0  0  0  0  0  0  0  0  0  0  0  0
   13.9516   17.7551   21.6601 H   0  0  0  0  0  0  0  0  0  0  0  0
    6.2301   13.6015   25.1980 H   0  0  0  0  0  0  0  0  0  0  0  0
   10.6778   11.8292   21.9595 H   0  0  0  0  0  0  0  0  0  0  0  0
  1  3  2  0  0  0  0
  1  8  1  0  0  0  0
  2  4  2  0  0  0  0
  2  9  1  0  0  0  0
  3 11  1  0  0  0  0
  4 12  1  0  0  0  0
  5  7  1  0  0  0  0
  5 11  2  0  0  0  0
  6  9  2  0  0  0  0
  6 10  1  0  0  0  0
  7  8  2  0  0  0  0
  7 18  1  0  0  0  0
  8 20  1  0  0  0  0
  9 22  1  0  0  0  0
 10 12  2  0  0  0  0
 10 21  1  0  0  0  0
 11 26  1  0  0  0  0
 12 27  1  0  0  0  0
 13 18  1  0  0  0  0
 13 20  1  0  0  0  0
 13 23  2  0  0  0  0
 14 15  2  0  0  0  0
 15 16  1  0  0  0  0
 16 21  1  0  0  0  0
 16 24  2  0  0  0  0
 17 19  1  0  0  0  0
 17 22  1  0  0  0  0
 17 25  2  0  0  0  0
 18 19  1  0  0  0  0
  1 28  1  0  0  0  0
  2 29  1  0  0  0  0
  3 30  1  0  0  0  0
  4 31  1  0  0  0  0
  5 32  1  0  0  0  0
  6 33  1  0  0  0  0
 14 34  1  0  0  0  0
 14 35  1  0  0  0  0
 15 36  1  0  0  0  0
 18 37  1  0  0  0  0
 19 38  1  0  0  0  0
 19 39  1  0  0  0  0
 20 40  1  0  0  0  0
 21 41  1  0  0  0  0
 22 42  1  0  0  0  0
M  END
> <Catalog ID>
Z3886495219

> <MW>
371.338

> <MW (desalted)>
371.338

> <ClogP>
1.418

> <logS>
-4.309

> <HBD>
3

> <HBA>
3

> <TPSA>
87.3

> <RotBonds>
5

> <ROCS_ShapeQuery>
A71EV2A-x0451_0A_A71EV2A-x0310_0A_A71EV2A-x0416_0A_peptide

> <ROCS_TanimotoCombo>
0.532 

> <ROCS_ShapeTanimoto>
0.357 

> <ROCS_ColorTanimoto>
0.175 

> <ROCS_RefTversky>
0.321 

> <ROCS_RefColorTversky>
0.203 

> <ROCS_RefTverskyCombo>
0.524 

> <ROCS_FitTversky>
1.456 

> <ROCS_FitColorTversky>
0.560 

> <ROCS_FitTverskyCombo>
2.016 

> <ROCS_ColorScore>
-6.218

> <ROCS_Overlap>
2233.015

> <ROCS_Rank>
183                 

$$$$
untitled-dbase-5512_11102
  -OEChem-11132309573D

 47 49  0     0  0  0  0  0  0999 V2000
    8.8134    9.4402   23.5422 C   0  0  0  0  0  0  0  0  0  0  0  0
    9.7633   10.3072   23.0022 C   0  0  0  0  0  0  0  0  0  0  0  0
    7.7511    9.9478   24.2902 C   0  0  0  0  0  0  0  0  0  0  0  0
   14.1533   15.4953   21.9604 C   0  0  0  0  0  0  0  0  0  0  0  0
    5.4189   12.7923   29.6001 C   0  0  0  0  0  0  0  0  0  0  0  0
   13.7610   15.7691   20.6548 C   0  0  0  0  0  0  0  0  0  0  0  0
    4.0754   13.1193   29.4533 C   0  0  0  0  0  0  0  0  0  0  0  0
    8.5885   12.1895   23.9582 C   0  0  0  0  0  0  0  0  0  0  0  0
    9.6508   11.6819   23.2102 C   0  0  0  0  0  0  0  0  0  0  0  0
    7.6386   11.3224   24.4982 C   0  0  0  0  0  0  0  0  0  0  0  0
   13.2778   14.8426   22.8211 C   0  0  0  0  0  0  0  0  0  0  0  0
    6.0764   12.1055   28.5856 C   0  0  0  0  0  0  0  0  0  0  0  0
   12.0312   14.4874   22.3314 C   0  0  0  0  0  0  0  0  0  0  0  0
    5.3513   11.7712   27.4532 C   0  0  0  0  0  0  0  0  0  0  0  0
   12.4929   15.3723   20.2621 C   0  0  0  0  0  0  0  0  0  0  0  0
    3.4400   12.7398   28.2819 C   0  0  0  0  0  0  0  0  0  0  0  0
   11.0363   13.7935   23.1670 C   0  0  0  0  0  0  0  0  0  0  0  0
    5.9580   11.0470   26.3309 C   0  0  0  0  0  0  0  0  0  0  0  0
    3.6988   12.3445   24.3983 C   0  0  0  0  0  0  0  0  0  0  0  0
    4.9109   13.1456   23.9448 C   0  0  0  0  0  0  0  0  0  0  0  0
    6.0241   13.1694   24.9854 C   0  0  0  0  0  0  0  0  0  0  0  0
   11.6147   14.7364   21.0696 N   0  0  0  0  0  0  0  0  0  0  0  0
    4.0454   12.0717   27.2746 N   0  0  0  0  0  0  0  0  0  0  0  0
   10.6010   12.5486   22.6694 N   0  0  0  0  0  0  0  0  0  0  0  0
    6.5219   11.8552   25.2843 N   0  0  0  0  0  0  0  0  0  0  0  0
   10.6108   14.3053   24.2005 O   0  0  0  0  0  0  0  0  0  0  0  0
    5.9354    9.8149   26.3137 O   0  0  0  0  0  0  0  0  0  0  0  0
   13.7683   14.5064   24.4359 Cl  0  0  0  0  0  0  0  0  0  0  0  0
    7.7390   11.7031   28.7726 Cl  0  0  0  0  0  0  0  0  0  0  0  0
   11.9235   15.6694   18.6714 Cl  0  0  0  0  0  0  0  0  0  0  0  0
    1.7841   13.0993   28.0146 Cl  0  0  0  0  0  0  0  0  0  0  0  0
    8.9004    8.3699   23.3794 H   0  0  0  0  0  0  0  0  0  0  0  0
   10.5873    9.8999   22.4217 H   0  0  0  0  0  0  0  0  0  0  0  0
    7.0176    9.2620   24.7067 H   0  0  0  0  0  0  0  0  0  0  0  0
   15.1434   15.7970   22.2920 H   0  0  0  0  0  0  0  0  0  0  0  0
    5.9390   13.0791   30.5103 H   0  0  0  0  0  0  0  0  0  0  0  0
   14.4374   16.2781   19.9764 H   0  0  0  0  0  0  0  0  0  0  0  0
    3.5543   13.6549   30.2397 H   0  0  0  0  0  0  0  0  0  0  0  0
    8.5010   13.2619   24.1207 H   0  0  0  0  0  0  0  0  0  0  0  0
    3.9725   11.3064   24.6124 H   0  0  0  0  0  0  0  0  0  0  0  0
    3.2803   12.7792   25.3118 H   0  0  0  0  0  0  0  0  0  0  0  0
    2.9130   12.3440   23.6366 H   0  0  0  0  0  0  0  0  0  0  0  0
    4.5942   14.1752   23.7417 H   0  0  0  0  0  0  0  0  0  0  0  0
    5.2856   12.7294   23.0022 H   0  0  0  0  0  0  0  0  0  0  0  0
    6.8708   13.7555   24.6145 H   0  0  0  0  0  0  0  0  0  0  0  0
    5.6825   13.6197   25.9227 H   0  0  0  0  0  0  0  0  0  0  0  0
   11.0405   12.2394   21.7948 H   0  0  0  0  0  0  0  0  0  0  0  0
  1  2  1  0  0  0  0
  1  3  2  0  0  0  0
  2  9  2  0  0  0  0
  3 10  1  0  0  0  0
  4  6  2  0  0  0  0
  4 11  1  0  0  0  0
  5  7  2  0  0  0  0
  5 12  1  0  0  0  0
  6 15  1  0  0  0  0
  7 16  1  0  0  0  0
  8  9  1  0  0  0  0
  8 10  2  0  0  0  0
  9 24  1  0  0  0  0
 10 25  1  0  0  0  0
 11 13  2  0  0  0  0
 11 28  1  0  0  0  0
 12 14  2  0  0  0  0
 12 29  1  0  0  0  0
 13 17  1  0  0  0  0
 13 22  1  0  0  0  0
 14 18  1  0  0  0  0
 14 23  1  0  0  0  0
 15 22  2  0  0  0  0
 15 30  1  0  0  0  0
 16 23  2  0  0  0  0
 16 31  1  0  0  0  0
 17 24  1  0  0  0  0
 17 26  2  0  0  0  0
 18 25  1  0  0  0  0
 18 27  2  0  0  0  0
 19 20  1  0  0  0  0
 20 21  1  0  0  0  0
 21 25  1  0  0  0  0
  1 32  1  0  0  0  0
  2 33  1  0  0  0  0
  3 34  1  0  0  0  0
  4 35  1  0  0  0  0
  5 36  1  0  0  0  0
  6 37  1  0  0  0  0
  7 38  1  0  0  0  0
  8 39  1  0  0  0  0
 19 40  1  0  0  0  0
 19 41  1  0  0  0  0
 19 42  1  0  0  0  0
 20 43  1  0  0  0  0
 20 44  1  0  0  0  0
 21 45  1  0  0  0  0
 21 46  1  0  0  0  0
 24 47  1  0  0  0  0
M  END
> <Catalog ID>
Z594949324

> <MW>
498.189

> <MW (desalted)>
498.189

> <ClogP>
4.618

> <logS>
-8.597

> <HBD>
1

> <HBA>
4

> <TPSA>
75.19

> <RotBonds>
6

> <ROCS_ShapeQuery>
A71EV2A-x0451_0A_A71EV2A-x0310_0A_A71EV2A-x0416_0A_peptide

> <ROCS_TanimotoCombo>
0.532 

> <ROCS_ShapeTanimoto>
0.364 

> <ROCS_ColorTanimoto>
0.167 

> <ROCS_RefTversky>
0.331 

> <ROCS_RefColorTversky>
0.191 

> <ROCS_RefTverskyCombo>
0.522 

> <ROCS_FitTversky>
1.383 

> <ROCS_FitColorTversky>
0.576 

> <ROCS_FitTverskyCombo>
1.959 

> <ROCS_ColorScore>
-5.836

> <ROCS_Overlap>
2305.296

> <ROCS_Rank>
184                 

$$$$
untitled-dbase-6587_22
  -OEChem-11132309573D

 36 38  0     0  0  0  0  0  0999 V2000
    6.7925   12.8367   26.2566 C   0  0  0  0  0  0  0  0  0  0  0  0
    6.1341   11.6266   26.0683 C   0  0  0  0  0  0  0  0  0  0  0  0
    8.0099   13.0618   25.6217 C   0  0  0  0  0  0  0  0  0  0  0  0
   12.0504   15.0801   20.7830 C   0  0  0  0  0  0  0  0  0  0  0  0
    6.6939   10.6446   25.2458 C   0  0  0  0  0  0  0  0  0  0  0  0
   12.9100   14.6980   21.8130 C   0  0  0  0  0  0  0  0  0  0  0  0
   10.1578   14.3317   22.0849 C   0  0  0  0  0  0  0  0  0  0  0  0
    8.5663   12.0693   24.7962 C   0  0  0  0  0  0  0  0  0  0  0  0
   10.6743   14.8969   20.9190 C   0  0  0  0  0  0  0  0  0  0  0  0
    7.9108   10.8431   24.5980 C   0  0  0  0  0  0  0  0  0  0  0  0
   12.3934   14.1328   22.9789 C   0  0  0  0  0  0  0  0  0  0  0  0
   11.0173   13.9496   23.1149 C   0  0  0  0  0  0  0  0  0  0  0  0
    9.7793   12.2310   24.1327 C   0  0  0  0  0  0  0  0  0  0  0  0
    9.6154   10.1649   23.2231 C   0  0  0  0  0  0  0  0  0  0  0  0
    9.7780   15.2973   19.8459 C   0  0  0  0  0  0  0  0  0  0  0  0
   13.7508   12.4315   23.9377 C   0  0  0  0  0  0  0  0  0  0  0  0
   10.1894    9.0992   22.3522 C   0  0  0  0  0  0  0  0  0  0  0  0
    8.4338    9.8871   23.8105 N   0  0  0  0  0  0  0  0  0  0  0  0
   10.3312   11.2952   23.3375 N   0  0  0  0  0  0  0  0  0  0  0  0
   10.1727   15.8042   18.7922 O   0  0  0  0  0  0  0  0  0  0  0  0
   10.4935   13.3937   24.2645 O   0  0  0  0  0  0  0  0  0  0  0  0
   13.2434   13.7638   23.9776 O   0  0  0  0  0  0  0  0  0  0  0  0
    9.4151    7.9762   22.2782 F   0  0  0  0  0  0  0  0  0  0  0  0
   10.3723    9.4913   21.0565 F   0  0  0  0  0  0  0  0  0  0  0  0
   11.4128    8.6723   22.7815 F   0  0  0  0  0  0  0  0  0  0  0  0
    6.3605   13.6001   26.8962 H   0  0  0  0  0  0  0  0  0  0  0  0
    5.1834   11.4422   26.5600 H   0  0  0  0  0  0  0  0  0  0  0  0
    8.5126   14.0126   25.7789 H   0  0  0  0  0  0  0  0  0  0  0  0
   12.4640   15.5196   19.8790 H   0  0  0  0  0  0  0  0  0  0  0  0
    6.1592    9.7055   25.1155 H   0  0  0  0  0  0  0  0  0  0  0  0
   13.9809   14.8430   21.7009 H   0  0  0  0  0  0  0  0  0  0  0  0
    9.0851   14.1897   22.1951 H   0  0  0  0  0  0  0  0  0  0  0  0
    8.6895   15.1316   20.0001 H   0  0  0  0  0  0  0  0  0  0  0  0
   14.4151   12.2681   24.7898 H   0  0  0  0  0  0  0  0  0  0  0  0
   14.2949   12.2758   23.0027 H   0  0  0  0  0  0  0  0  0  0  0  0
   12.9142   11.7308   23.9911 H   0  0  0  0  0  0  0  0  0  0  0  0
  1  2  1  0  0  0  0
  1  3  2  0  0  0  0
  2  5  2  0  0  0  0
  3  8  1  0  0  0  0
  4  6  2  0  0  0  0
  4  9  1  0  0  0  0
  5 10  1  0  0  0  0
  6 11  1  0  0  0  0
  7  9  2  0  0  0  0
  7 12  1  0  0  0  0
  8 10  1  0  0  0  0
  8 13  2  0  0  0  0
  9 15  1  0  0  0  0
 10 18  2  0  0  0  0
 11 12  2  0  0  0  0
 11 22  1  0  0  0  0
 12 21  1  0  0  0  0
 13 19  1  0  0  0  0
 13 21  1  0  0  0  0
 14 17  1  0  0  0  0
 14 18  1  0  0  0  0
 14 19  2  0  0  0  0
 15 20  2  0  0  0  0
 16 22  1  0  0  0  0
 17 23  1  0  0  0  0
 17 24  1  0  0  0  0
 17 25  1  0  0  0  0
  1 26  1  0  0  0  0
  2 27  1  0  0  0  0
  3 28  1  0  0  0  0
  4 29  1  0  0  0  0
  5 30  1  0  0  0  0
  6 31  1  0  0  0  0
  7 32  1  0  0  0  0
 15 33  1  0  0  0  0
 16 34  1  0  0  0  0
 16 35  1  0  0  0  0
 16 36  1  0  0  0  0
M  END
> <Catalog ID>
Z86256172

> <MW>
348.276

> <MW (desalted)>
348.276

> <ClogP>
3.407

> <logS>
-5.18

> <HBD>
0

> <HBA>
4

> <TPSA>
61.31

> <RotBonds>
5

> <ROCS_ShapeQuery>
A71EV2A-x0451_0A_A71EV2A-x0310_0A_A71EV2A-x0416_0A_peptide

> <ROCS_TanimotoCombo>
0.532 

> <ROCS_ShapeTanimoto>
0.379 

> <ROCS_ColorTanimoto>
0.153 

> <ROCS_RefTversky>
0.333 

> <ROCS_RefColorTversky>
0.173 

> <ROCS_RefTverskyCombo>
0.506 

> <ROCS_FitTversky>
1.567 

> <ROCS_FitColorTversky>
0.573 

> <ROCS_FitTverskyCombo>
2.140 

> <ROCS_ColorScore>
-5.277

> <ROCS_Overlap>
2315.639

> <ROCS_Rank>
185                 

$$$$
untitled-dbase-10302_6275
  -OEChem-11132309573D

 50 53  0     1  0  0  0  0  0999 V2000
   13.2135   16.9345   18.7276 C   0  0  0  0  0  0  0  0  0  0  0  0
   13.2942   15.6023   18.3330 C   0  0  0  0  0  0  0  0  0  0  0  0
    8.9111    9.6172   23.0735 C   0  0  0  0  0  0  0  0  0  0  0  0
   13.1609   17.2595   20.0834 C   0  0  0  0  0  0  0  0  0  0  0  0
   13.3227   14.5900   19.2927 C   0  0  0  0  0  0  0  0  0  0  0  0
   13.1364   16.5624   22.4320 C   0  0  0  0  0  0  0  0  0  0  0  0
    9.9289   10.5807   23.1724 C   0  0  0  0  0  0  0  0  0  0  0  0
    7.7012    9.7865   23.7521 C   0  0  0  0  0  0  0  0  0  0  0  0
   13.1648   15.5501   23.3917 C   0  0  0  0  0  0  0  0  0  0  0  0
   13.2980   13.8929   21.6413 C   0  0  0  0  0  0  0  0  0  0  0  0
   13.1885   16.2535   21.0630 C   0  0  0  0  0  0  0  0  0  0  0  0
   13.2705   14.8988   20.6617 C   0  0  0  0  0  0  0  0  0  0  0  0
    9.7513   11.7244   23.9531 C   0  0  0  0  0  0  0  0  0  0  0  0
    7.5425   10.9184   24.5300 C   0  0  0  0  0  0  0  0  0  0  0  0
   13.2455   14.2179   22.9971 C   0  0  0  0  0  0  0  0  0  0  0  0
    8.5525   11.8643   24.6248 C   0  0  0  0  0  0  0  0  0  0  0  0
   10.8261   12.7453   24.0519 C   0  0  0  0  0  0  0  0  0  0  0  0
   15.4633   12.0804   26.2903 C   0  0  0  0  0  0  0  0  0  0  0  0
    6.3646   11.3803   25.2959 C   0  0  0  0  0  0  0  0  0  0  0  0
    7.0268   12.4963   26.1052 C   0  0  0  0  0  0  0  0  0  0  0  0
   15.5120   11.1631   27.4854 C   0  0  0  0  0  0  0  0  0  0  0  0
   14.5565   12.2686   23.9915 C   0  0  0  0  0  0  0  0  0  0  0  0
   13.2759   13.1370   24.0245 C   0  0  2  0  0  0  0  0  0  0  0  0
   12.0965   12.2524   23.9240 N   0  0  0  0  0  0  0  0  0  0  0  0
   14.7458   11.5534   25.2266 N   0  0  0  0  0  0  0  0  0  0  0  0
   10.5228   13.9181   24.2548 O   0  0  0  0  0  0  0  0  0  0  0  0
   16.0027   13.1855   26.2983 O   0  0  0  0  0  0  0  0  0  0  0  0
    8.2256   12.9324   25.4210 O   0  0  0  0  0  0  0  0  0  0  0  0
   14.1215   11.5370   28.5158 Cl  0  0  0  0  0  0  0  0  0  0  0  0
   13.1912   17.7217   17.9799 H   0  0  0  0  0  0  0  0  0  0  0  0
   13.3346   15.3501   17.2774 H   0  0  0  0  0  0  0  0  0  0  0  0
    9.0651    8.7358   22.4568 H   0  0  0  0  0  0  0  0  0  0  0  0
   13.0985   18.3078   20.3685 H   0  0  0  0  0  0  0  0  0  0  0  0
   13.3856   13.5555   18.9612 H   0  0  0  0  0  0  0  0  0  0  0  0
   13.0729   17.5970   22.7633 H   0  0  0  0  0  0  0  0  0  0  0  0
   10.8576   10.4248   22.6282 H   0  0  0  0  0  0  0  0  0  0  0  0
    6.9095    9.0508   23.6619 H   0  0  0  0  0  0  0  0  0  0  0  0
   13.1231   15.8119   24.4456 H   0  0  0  0  0  0  0  0  0  0  0  0
   13.3613   12.8467   21.3461 H   0  0  0  0  0  0  0  0  0  0  0  0
    5.6048   11.7819   24.6177 H   0  0  0  0  0  0  0  0  0  0  0  0
    5.9259   10.6147   25.9404 H   0  0  0  0  0  0  0  0  0  0  0  0
    6.3546   13.3505   26.2385 H   0  0  0  0  0  0  0  0  0  0  0  0
    7.3218   12.1407   27.1008 H   0  0  0  0  0  0  0  0  0  0  0  0
   15.4675   10.1074   27.2066 H   0  0  0  0  0  0  0  0  0  0  0  0
   16.4327   11.3458   28.0463 H   0  0  0  0  0  0  0  0  0  0  0  0
   14.5080   11.5116   23.2004 H   0  0  0  0  0  0  0  0  0  0  0  0
   15.4559   12.8695   23.8204 H   0  0  0  0  0  0  0  0  0  0  0  0
   13.2260   13.5842   25.0357 H   0  0  0  0  0  0  0  0  0  0  0  0
   12.2985   11.2779   23.8223 H   0  0  0  0  0  0  0  0  0  0  0  0
   14.3379   10.6261   25.3228 H   0  0  0  0  0  0  0  0  0  0  0  0
  1  2  1  0  0  0  0
  1  4  2  0  0  0  0
  2  5  2  0  0  0  0
  3  7  2  0  0  0  0
  3  8  1  0  0  0  0
  4 11  1  0  0  0  0
  5 12  1  0  0  0  0
  6  9  2  0  0  0  0
  6 11  1  0  0  0  0
  7 13  1  0  0  0  0
  8 14  2  0  0  0  0
  9 15  1  0  0  0  0
 10 12  1  0  0  0  0
 10 15  2  0  0  0  0
 11 12  2  0  0  0  0
 13 16  2  0  0  0  0
 13 17  1  0  0  0  0
 14 16  1  0  0  0  0
 14 19  1  0  0  0  0
 15 23  1  0  0  0  0
 16 28  1  0  0  0  0
 17 24  1  0  0  0  0
 17 26  2  0  0  0  0
 18 21  1  0  0  0  0
 18 25  1  0  0  0  0
 18 27  2  0  0  0  0
 19 20  1  0  0  0  0
 20 28  1  0  0  0  0
 21 29  1  0  0  0  0
 22 23  1  0  0  0  0
 22 25  1  0  0  0  0
 23 24  1  0  0  0  0
  1 30  1  0  0  0  0
  2 31  1  0  0  0  0
  3 32  1  0  0  0  0
  4 33  1  0  0  0  0
  5 34  1  0  0  0  0
  6 35  1  0  0  0  0
  7 36  1  0  0  0  0
  8 37  1  0  0  0  0
  9 38  1  0  0  0  0
 10 39  1  0  0  0  0
 19 40  1  0  0  0  0
 19 41  1  0  0  0  0
 20 42  1  0  0  0  0
 20 43  1  0  0  0  0
 21 44  1  0  0  0  0
 21 45  1  0  0  0  0
 22 46  1  0  0  0  0
 22 47  1  0  0  0  0
 23 48  1  0  0  0  0
 24 49  1  0  0  0  0
 25 50  1  0  0  0  0
M  END
> <Catalog ID>
Z4425211653

> <MW>
408.877

> <MW (desalted)>
408.877

> <ClogP>
4.032

> <logS>
-6.404

> <HBD>
2

> <HBA>
3

> <TPSA>
67.43

> <RotBonds>
6

> <ROCS_ShapeQuery>
A71EV2A-x0451_0A_A71EV2A-x0310_0A_A71EV2A-x0416_0A_peptide

> <ROCS_TanimotoCombo>
0.532 

> <ROCS_ShapeTanimoto>
0.351 

> <ROCS_ColorTanimoto>
0.181 

> <ROCS_RefTversky>
0.320 

> <ROCS_RefColorTversky>
0.204 

> <ROCS_RefTverskyCombo>
0.524 

> <ROCS_FitTversky>
1.378 

> <ROCS_FitColorTversky>
0.614 

> <ROCS_FitTverskyCombo>
1.993 

> <ROCS_ColorScore>
-6.243

> <ROCS_Overlap>
2226.644

> <ROCS_Rank>
186                 

$$$$
untitled-dbase-3857_6
  -OEChem-11132309573D

 30 32  0     0  0  0  0  0  0999 V2000
   11.5254   10.6204   22.7203 C   0  0  0  0  0  0  0  0  0  0  0  0
    7.0384   13.6074   25.2912 C   0  0  0  0  0  0  0  0  0  0  0  0
    6.0230   12.6839   25.6047 C   0  0  0  0  0  0  0  0  0  0  0  0
    8.2243   13.1923   24.6745 C   0  0  0  0  0  0  0  0  0  0  0  0
    6.1736   11.3285   25.3079 C   0  0  0  0  0  0  0  0  0  0  0  0
   11.7025   17.1603   22.2653 C   0  0  0  0  0  0  0  0  0  0  0  0
   11.7969   17.1003   20.8907 C   0  0  0  0  0  0  0  0  0  0  0  0
    8.3669   11.8484   24.3833 C   0  0  0  0  0  0  0  0  0  0  0  0
    7.3533   10.9498   24.7002 C   0  0  0  0  0  0  0  0  0  0  0  0
   11.3278   15.0155   22.0024 C   0  0  0  0  0  0  0  0  0  0  0  0
    9.4208   11.0465   23.7624 C   0  0  0  0  0  0  0  0  0  0  0  0
    7.8602    9.6623   24.2508 C   0  0  0  0  0  0  0  0  0  0  0  0
   10.5847   11.5204   23.3055 C   0  0  0  0  0  0  0  0  0  0  0  0
   10.8475   13.0019   23.4359 C   0  0  0  0  0  0  0  0  0  0  0  0
   12.2908    9.8890   22.2447 N   0  0  0  0  0  0  0  0  0  0  0  0
   11.4331   15.9659   22.9045 N   0  0  0  0  0  0  0  0  0  0  0  0
    9.0443    9.7115   23.7128 N   0  0  0  0  0  0  0  0  0  0  0  0
    7.1112    8.5282   24.4067 N   0  0  0  0  0  0  0  0  0  0  0  0
   11.0583   13.6402   22.2192 N   0  0  0  0  0  0  0  0  0  0  0  0
   10.8594   13.5300   24.5448 O   0  0  0  0  0  0  0  0  0  0  0  0
   11.5416   15.4875   20.3664 S   0  0  0  0  0  0  0  0  0  0  0  0
    6.8977   14.6581   25.5320 H   0  0  0  0  0  0  0  0  0  0  0  0
    5.1122   13.0336   26.0836 H   0  0  0  0  0  0  0  0  0  0  0  0
    8.9990   13.9139   24.4392 H   0  0  0  0  0  0  0  0  0  0  0  0
    5.3925   10.6180   25.5497 H   0  0  0  0  0  0  0  0  0  0  0  0
   11.8243   18.0585   22.8556 H   0  0  0  0  0  0  0  0  0  0  0  0
   11.9995   17.8999   20.1928 H   0  0  0  0  0  0  0  0  0  0  0  0
    7.4883    7.6644   24.0881 H   0  0  0  0  0  0  0  0  0  0  0  0
    6.2158    8.6070   24.8332 H   0  0  0  0  0  0  0  0  0  0  0  0
   11.0213   13.0848   21.3686 H   0  0  0  0  0  0  0  0  0  0  0  0
  1 13  1  0  0  0  0
  1 15  3  0  0  0  0
  2  3  1  0  0  0  0
  2  4  2  0  0  0  0
  3  5  2  0  0  0  0
  4  8  1  0  0  0  0
  5  9  1  0  0  0  0
  6  7  2  0  0  0  0
  6 16  1  0  0  0  0
  7 21  1  0  0  0  0
  8  9  2  0  0  0  0
  8 11  1  0  0  0  0
  9 12  1  0  0  0  0
 10 16  2  0  0  0  0
 10 19  1  0  0  0  0
 10 21  1  0  0  0  0
 11 13  2  0  0  0  0
 11 17  1  4  0  0  0
 12 17  2  0  0  0  0
 12 18  1  0  0  0  0
 13 14  1  0  0  0  0
 14 19  1  0  0  0  0
 14 20  2  0  0  0  0
  2 22  1  0  0  0  0
  3 23  1  0  0  0  0
  4 24  1  0  0  0  0
  5 25  1  0  0  0  0
  6 26  1  0  0  0  0
  7 27  1  0  0  0  0
 18 28  1  0  0  0  0
 18 29  1  0  0  0  0
 19 30  1  0  0  0  0
M  END
> <Catalog ID>
Z55625919

> <MW>
295.053

> <MW (desalted)>
295.319

> <ClogP>
0.755

> <logS>
-3.68

> <HBD>
2

> <HBA>
5

> <TPSA>
104.16

> <RotBonds>
2

> <ROCS_ShapeQuery>
A71EV2A-x0451_0A_A71EV2A-x0310_0A_A71EV2A-x0416_0A_peptide

> <ROCS_TanimotoCombo>
0.532 

> <ROCS_ShapeTanimoto>
0.346 

> <ROCS_ColorTanimoto>
0.185 

> <ROCS_RefTversky>
0.304 

> <ROCS_RefColorTversky>
0.208 

> <ROCS_RefTverskyCombo>
0.513 

> <ROCS_FitTversky>
1.658 

> <ROCS_FitColorTversky>
0.627 

> <ROCS_FitTverskyCombo>
2.285 

> <ROCS_ColorScore>
-6.367

> <ROCS_Overlap>
2114.010

> <ROCS_Rank>
187                 

$$$$
untitled-dbase-10534_7738
  -OEChem-11132309573D

 34 35  0     0  0  0  0  0  0999 V2000
   12.8639   14.8253   18.5398 C   0  0  0  0  0  0  0  0  0  0  0  0
   12.8901   16.0529   20.6077 C   0  0  0  0  0  0  0  0  0  0  0  0
    8.1177   12.2667   25.1376 C   0  0  0  0  0  0  0  0  0  0  0  0
   13.7998   15.7253   18.0561 C   0  0  0  0  0  0  0  0  0  0  0  0
   13.8249   16.8979   20.0316 C   0  0  0  0  0  0  0  0  0  0  0  0
    9.1217   10.7480   23.6072 C   0  0  0  0  0  0  0  0  0  0  0  0
    7.3487   10.0310   24.8802 C   0  0  0  0  0  0  0  0  0  0  0  0
    9.0851   12.0129   24.1717 C   0  0  0  0  0  0  0  0  0  0  0  0
   12.4055   14.9992   19.8409 C   0  0  0  0  0  0  0  0  0  0  0  0
    7.2291   11.2622   25.5044 C   0  0  0  0  0  0  0  0  0  0  0  0
   10.0276   13.0414   23.7669 C   0  0  0  0  0  0  0  0  0  0  0  0
   11.3856   14.0486   20.4182 C   0  0  0  0  0  0  0  0  0  0  0  0
   11.5142   13.8838   21.9305 C   0  0  0  0  0  0  0  0  0  0  0  0
   14.2938   16.7608   18.7710 N   0  0  0  0  0  0  0  0  0  0  0  0
    8.2754    9.7470   23.9378 N   0  0  0  0  0  0  0  0  0  0  0  0
   10.5506   12.9519   22.4708 N   0  0  0  0  0  0  0  0  0  0  0  0
   10.3595   13.9428   24.5585 O   0  0  0  0  0  0  0  0  0  0  0  0
    4.0099   12.3080   27.1837 O   0  0  0  0  0  0  0  0  0  0  0  0
    5.7277   13.9379   26.2736 O   0  0  0  0  0  0  0  0  0  0  0  0
    6.2755   11.4811   26.4433 O   0  0  0  0  0  0  0  0  0  0  0  0
    4.5188   12.4340   24.8341 F   0  0  0  0  0  0  0  0  0  0  0  0
    5.1105   12.6267   26.2960 S   0  0  0  0  0  0  0  0  0  0  0  0
   12.5050   14.0139   17.9155 H   0  0  0  0  0  0  0  0  0  0  0  0
   12.5521   16.2145   21.6256 H   0  0  0  0  0  0  0  0  0  0  0  0
    8.0530   13.2454   25.6069 H   0  0  0  0  0  0  0  0  0  0  0  0
   14.1882   15.6340   17.0470 H   0  0  0  0  0  0  0  0  0  0  0  0
   14.2339   17.7347   20.5880 H   0  0  0  0  0  0  0  0  0  0  0  0
    9.8545   10.4901   22.8486 H   0  0  0  0  0  0  0  0  0  0  0  0
    6.6822    9.2106   25.1275 H   0  0  0  0  0  0  0  0  0  0  0  0
   11.5086   13.0709   19.9352 H   0  0  0  0  0  0  0  0  0  0  0  0
   10.3743   14.3878   20.1599 H   0  0  0  0  0  0  0  0  0  0  0  0
   12.5056   13.4929   22.1802 H   0  0  0  0  0  0  0  0  0  0  0  0
   11.3813   14.8367   22.4535 H   0  0  0  0  0  0  0  0  0  0  0  0
   10.2953   12.1619   21.8874 H   0  0  0  0  0  0  0  0  0  0  0  0
  1  4  2  0  0  0  0
  1  9  1  0  0  0  0
  2  5  1  0  0  0  0
  2  9  2  0  0  0  0
  3  8  1  0  0  0  0
  3 10  2  0  0  0  0
  4 14  1  0  0  0  0
  5 14  2  0  0  0  0
  6  8  2  0  0  0  0
  6 15  1  0  0  0  0
  7 10  1  0  0  0  0
  7 15  2  0  0  0  0
  8 11  1  0  0  0  0
  9 12  1  0  0  0  0
 10 20  1  0  0  0  0
 11 16  1  0  0  0  0
 11 17  2  0  0  0  0
 12 13  1  0  0  0  0
 13 16  1  0  0  0  0
 18 22  2  0  0  0  0
 19 22  2  0  0  0  0
 20 22  1  0  0  0  0
 21 22  1  0  0  0  0
  1 23  1  0  0  0  0
  2 24  1  0  0  0  0
  3 25  1  0  0  0  0
  4 26  1  0  0  0  0
  5 27  1  0  0  0  0
  6 28  1  0  0  0  0
  7 29  1  0  0  0  0
 12 30  1  0  0  0  0
 12 31  1  0  0  0  0
 13 32  1  0  0  0  0
 13 33  1  0  0  0  0
 16 34  1  0  0  0  0
M  END
> <Catalog ID>
Z4262492108

> <MW>
325.315

> <MW (desalted)>
325.315

> <ClogP>
-0.868

> <logS>
-1.763

> <HBD>
1

> <HBA>
5

> <TPSA>
98.25

> <RotBonds>
6

> <ROCS_ShapeQuery>
A71EV2A-x0451_0A_A71EV2A-x0310_0A_A71EV2A-x0416_0A_peptide

> <ROCS_TanimotoCombo>
0.531 

> <ROCS_ShapeTanimoto>
0.314 

> <ROCS_ColorTanimoto>
0.218 

> <ROCS_RefTversky>
0.283 

> <ROCS_RefColorTversky>
0.233 

> <ROCS_RefTverskyCombo>
0.516 

> <ROCS_FitTversky>
1.532 

> <ROCS_FitColorTversky>
0.773 

> <ROCS_FitTverskyCombo>
2.305 

> <ROCS_ColorScore>
-7.104

> <ROCS_Overlap>
1963.925

> <ROCS_Rank>
188                 

$$$$
untitled-dbase-5554_565
  -OEChem-11132309573D

 46 49  0     1  0  0  0  0  0999 V2000
   10.2351    9.7420   23.0369 C   0  0  0  0  0  0  0  0  0  0  0  0
   10.6773   11.0556   22.9775 C   0  0  0  0  0  0  0  0  0  0  0  0
    9.0219    9.4332   23.6613 C   0  0  0  0  0  0  0  0  0  0  0  0
   14.1860   16.2701   20.1240 C   0  0  0  0  0  0  0  0  0  0  0  0
   13.9975   15.8085   18.8204 C   0  0  0  0  0  0  0  0  0  0  0  0
   11.8395   14.8597   19.4261 C   0  0  0  0  0  0  0  0  0  0  0  0
    9.9015   12.0633   23.5381 C   0  0  0  0  0  0  0  0  0  0  0  0
   12.0427   15.3112   20.7191 C   0  0  0  0  0  0  0  0  0  0  0  0
    8.6853   11.7648   24.1799 C   0  0  0  0  0  0  0  0  0  0  0  0
    8.2264   10.4291   24.2565 C   0  0  0  0  0  0  0  0  0  0  0  0
   13.1971   16.0041   21.0520 C   0  0  0  0  0  0  0  0  0  0  0  0
   12.8316   15.1070   18.4734 C   0  0  0  0  0  0  0  0  0  0  0  0
    5.1964    8.6437   27.1733 C   0  0  0  0  0  0  0  0  0  0  0  0
    5.2448    8.6492   25.8395 C   0  0  0  0  0  0  0  0  0  0  0  0
   10.4169   13.4254   23.4435 C   0  0  0  0  0  0  0  0  0  0  0  0
    6.5575    8.8084   25.1718 C   0  0  0  0  0  0  0  0  0  0  0  0
    7.8896   12.9190   24.7302 C   0  0  0  0  0  0  0  0  0  0  0  0
    6.9041   12.4495   25.7806 C   0  0  0  0  0  0  0  0  0  0  0  0
    6.1042   11.2783   25.2381 C   0  0  0  0  0  0  0  0  0  0  0  0
   12.1333   15.7105   22.9848 C   0  0  0  0  0  0  0  0  0  0  0  0
   11.1525   15.2417   21.9026 C   0  0  2  0  0  0  0  0  0  0  0  0
    6.9583   10.1250   24.8904 N   0  0  0  0  0  0  0  0  0  0  0  0
   10.6290   13.9313   22.1582 N   0  0  0  0  0  0  0  0  0  0  0  0
   10.6661   14.0735   24.4723 O   0  0  0  0  0  0  0  0  0  0  0  0
    7.1860    7.7793   24.9275 O   0  0  0  0  0  0  0  0  0  0  0  0
   13.2410   16.4045   22.3621 O   0  0  0  0  0  0  0  0  0  0  0  0
   12.6273   14.5373   16.8610 Cl  0  0  0  0  0  0  0  0  0  0  0  0
   10.8397    8.9465   22.6098 H   0  0  0  0  0  0  0  0  0  0  0  0
   11.6312   11.2783   22.5070 H   0  0  0  0  0  0  0  0  0  0  0  0
    8.7551    8.3826   23.6900 H   0  0  0  0  0  0  0  0  0  0  0  0
   15.0796   16.8228   20.3934 H   0  0  0  0  0  0  0  0  0  0  0  0
   14.7681   15.9987   18.0775 H   0  0  0  0  0  0  0  0  0  0  0  0
   10.9317   14.3211   19.1696 H   0  0  0  0  0  0  0  0  0  0  0  0
    4.2655    8.5308   27.7189 H   0  0  0  0  0  0  0  0  0  0  0  0
    6.1077    8.7544   27.7514 H   0  0  0  0  0  0  0  0  0  0  0  0
    4.3580    8.5411   25.2288 H   0  0  0  0  0  0  0  0  0  0  0  0
    8.5835   13.6485   25.1658 H   0  0  0  0  0  0  0  0  0  0  0  0
    7.3207   13.4220   23.9399 H   0  0  0  0  0  0  0  0  0  0  0  0
    7.4419   12.1515   26.6878 H   0  0  0  0  0  0  0  0  0  0  0  0
    6.2244   13.2637   26.0634 H   0  0  0  0  0  0  0  0  0  0  0  0
    5.3599   10.9315   25.9653 H   0  0  0  0  0  0  0  0  0  0  0  0
    5.5674   11.6310   24.3520 H   0  0  0  0  0  0  0  0  0  0  0  0
   11.6451   16.4192   23.6700 H   0  0  0  0  0  0  0  0  0  0  0  0
   12.5207   14.8845   23.5953 H   0  0  0  0  0  0  0  0  0  0  0  0
   10.2930   15.9438   21.8337 H   0  0  0  0  0  0  0  0  0  0  0  0
   10.4672   13.3339   21.3539 H   0  0  0  0  0  0  0  0  0  0  0  0
  1  2  2  0  0  0  0
  1  3  1  0  0  0  0
  2  7  1  0  0  0  0
  3 10  2  0  0  0  0
  4  5  2  0  0  0  0
  4 11  1  0  0  0  0
  5 12  1  0  0  0  0
  6  8  1  0  0  0  0
  6 12  2  0  0  0  0
  7  9  2  0  0  0  0
  7 15  1  0  0  0  0
  8 11  2  0  0  0  0
  8 21  1  0  0  0  0
  9 10  1  0  0  0  0
  9 17  1  0  0  0  0
 10 22  1  0  0  0  0
 11 26  1  0  0  0  0
 12 27  1  0  0  0  0
 13 14  2  0  0  0  0
 14 16  1  0  0  0  0
 15 23  1  0  0  0  0
 15 24  2  0  0  0  0
 16 22  1  0  0  0  0
 16 25  2  0  0  0  0
 17 18  1  0  0  0  0
 18 19  1  0  0  0  0
 19 22  1  0  0  0  0
 20 21  1  0  0  0  0
 20 26  1  0  0  0  0
 21 23  1  0  0  0  0
  1 28  1  0  0  0  0
  2 29  1  0  0  0  0
  3 30  1  0  0  0  0
  4 31  1  0  0  0  0
  5 32  1  0  0  0  0
  6 33  1  0  0  0  0
 13 34  1  0  0  0  0
 13 35  1  0  0  0  0
 14 36  1  0  0  0  0
 17 37  1  0  0  0  0
 17 38  1  0  0  0  0
 18 39  1  0  0  0  0
 18 40  1  0  0  0  0
 19 41  1  0  0  0  0
 19 42  1  0  0  0  0
 20 43  1  0  0  0  0
 20 44  1  0  0  0  0
 21 45  1  0  0  0  0
 23 46  1  0  0  0  0
M  END
> <Catalog ID>
Z4899446279

> <MW>
382.84

> <MW (desalted)>
382.84

> <ClogP>
4.246

> <logS>
-6.138

> <HBD>
1

> <HBA>
3

> <TPSA>
58.64

> <RotBonds>
3

> <ROCS_ShapeQuery>
A71EV2A-x0451_0A_A71EV2A-x0310_0A_A71EV2A-x0416_0A_peptide

> <ROCS_TanimotoCombo>
0.531 

> <ROCS_ShapeTanimoto>
0.376 

> <ROCS_ColorTanimoto>
0.155 

> <ROCS_RefTversky>
0.334 

> <ROCS_RefColorTversky>
0.179 

> <ROCS_RefTverskyCombo>
0.513 

> <ROCS_FitTversky>
1.513 

> <ROCS_FitColorTversky>
0.539 

> <ROCS_FitTverskyCombo>
2.051 

> <ROCS_ColorScore>
-5.471

> <ROCS_Overlap>
2322.005

> <ROCS_Rank>
189                 

$$$$
untitled-dbase-4470_2945
  -OEChem-11132309573D

 45 47  0     1  0  0  0  0  0999 V2000
    6.3295   10.7068   25.1135 C   0  0  0  0  0  0  0  0  0  0  0  0
    6.0045   11.8868   25.7791 C   0  0  0  0  0  0  0  0  0  0  0  0
    8.2275   12.7314   25.3563 C   0  0  0  0  0  0  0  0  0  0  0  0
    8.5686   11.5502   24.6785 C   0  0  0  0  0  0  0  0  0  0  0  0
    7.6024   10.5452   24.5608 C   0  0  0  0  0  0  0  0  0  0  0  0
    6.9529   12.8992   25.9004 C   0  0  0  0  0  0  0  0  0  0  0  0
   14.6998   17.3109   21.8448 C   0  0  0  0  0  0  0  0  0  0  0  0
   13.8088   16.5088   21.2528 C   0  0  0  0  0  0  0  0  0  0  0  0
   12.6601   15.9645   22.0315 C   0  0  0  0  0  0  0  0  0  0  0  0
   10.6116   13.5963   23.1248 C   0  0  0  0  0  0  0  0  0  0  0  0
    9.5298    8.3382   21.1787 C   0  0  0  0  0  0  0  0  0  0  0  0
    9.2963    7.8028   22.5985 C   0  0  0  0  0  0  0  0  0  0  0  0
    8.6852    9.5639   21.5589 C   0  0  0  0  0  0  0  0  0  0  0  0
   10.2255    9.9236   23.7031 C   0  0  0  0  0  0  0  0  0  0  0  0
    9.9516   11.3810   24.0994 C   0  0  1  0  0  0  0  0  0  0  0  0
    8.9981    9.2672   23.0628 C   0  0  0  0  0  0  0  0  0  0  0  0
   13.0749   13.7375   21.0594 C   0  0  0  0  0  0  0  0  0  0  0  0
   10.7798   14.2781   21.7909 C   0  0  0  0  0  0  0  0  0  0  0  0
   10.1934   12.2837   22.9706 N   0  0  0  0  0  0  0  0  0  0  0  0
   12.1731   14.7210   21.6357 N   0  0  0  0  0  0  0  0  0  0  0  0
   12.1801   16.6248   22.9543 O   0  0  0  0  0  0  0  0  0  0  0  0
   10.8258   14.1514   24.1992 O   0  0  0  0  0  0  0  0  0  0  0  0
    7.8527    9.3419   23.9492 O   0  0  0  0  0  0  0  0  0  0  0  0
    6.5146   14.4984   26.8070 Br  0  0  0  0  0  0  0  0  0  0  0  0
    5.5909    9.9127   25.0378 H   0  0  0  0  0  0  0  0  0  0  0  0
    5.0105   11.9968   26.2050 H   0  0  0  0  0  0  0  0  0  0  0  0
    8.9630   13.5240   25.4661 H   0  0  0  0  0  0  0  0  0  0  0  0
   15.5501   17.7296   21.3181 H   0  0  0  0  0  0  0  0  0  0  0  0
   14.5835   17.5711   22.8918 H   0  0  0  0  0  0  0  0  0  0  0  0
   13.9045   16.2880   20.1969 H   0  0  0  0  0  0  0  0  0  0  0  0
   10.5785    8.5741   20.9628 H   0  0  0  0  0  0  0  0  0  0  0  0
    9.1327    7.7218   20.3678 H   0  0  0  0  0  0  0  0  0  0  0  0
    8.4322    7.1315   22.6799 H   0  0  0  0  0  0  0  0  0  0  0  0
   10.1599    7.3083   23.0522 H   0  0  0  0  0  0  0  0  0  0  0  0
    9.0475   10.5186   21.1672 H   0  0  0  0  0  0  0  0  0  0  0  0
    7.6238    9.4638   21.3027 H   0  0  0  0  0  0  0  0  0  0  0  0
   11.0676    9.8751   22.9835 H   0  0  0  0  0  0  0  0  0  0  0  0
   10.5627    9.3567   24.5923 H   0  0  0  0  0  0  0  0  0  0  0  0
   10.6698   11.6890   24.8815 H   0  0  0  0  0  0  0  0  0  0  0  0
   13.4963   13.1120   21.8601 H   0  0  0  0  0  0  0  0  0  0  0  0
   12.5213   13.1030   20.3515 H   0  0  0  0  0  0  0  0  0  0  0  0
   13.8896   14.2531   20.5298 H   0  0  0  0  0  0  0  0  0  0  0  0
   10.5323   13.5794   20.9863 H   0  0  0  0  0  0  0  0  0  0  0  0
   10.1180   15.1471   21.7325 H   0  0  0  0  0  0  0  0  0  0  0  0
   10.0476   11.9307   22.0304 H   0  0  0  0  0  0  0  0  0  0  0  0
  1  2  2  0  0  0  0
  1  5  1  0  0  0  0
  2  6  1  0  0  0  0
  3  4  1  0  0  0  0
  3  6  2  0  0  0  0
  4  5  2  0  0  0  0
  4 15  1  0  0  0  0
  5 23  1  0  0  0  0
  6 24  1  0  0  0  0
  7  8  2  0  0  0  0
  8  9  1  0  0  0  0
  9 20  1  0  0  0  0
  9 21  2  0  0  0  0
 10 18  1  0  0  0  0
 10 19  1  0  0  0  0
 10 22  2  0  0  0  0
 11 12  1  0  0  0  0
 11 13  1  0  0  0  0
 12 16  1  0  0  0  0
 13 16  1  0  0  0  0
 14 15  1  0  0  0  0
 14 16  1  0  0  0  0
 15 19  1  0  0  0  0
 16 23  1  0  0  0  0
 17 20  1  0  0  0  0
 18 20  1  0  0  0  0
  1 25  1  0  0  0  0
  2 26  1  0  0  0  0
  3 27  1  0  0  0  0
  7 28  1  0  0  0  0
  7 29  1  0  0  0  0
  8 30  1  0  0  0  0
 11 31  1  0  0  0  0
 11 32  1  0  0  0  0
 12 33  1  0  0  0  0
 12 34  1  0  0  0  0
 13 35  1  0  0  0  0
 13 36  1  0  0  0  0
 14 37  1  0  0  0  0
 14 38  1  0  0  0  0
 15 39  1  0  0  0  0
 17 40  1  0  0  0  0
 17 41  1  0  0  0  0
 17 42  1  0  0  0  0
 18 43  1  0  0  0  0
 18 44  1  0  0  0  0
 19 45  1  0  0  0  0
M  END
> <Catalog ID>
Z2932952697

> <MW>
393.275

> <MW (desalted)>
393.275

> <ClogP>
2.852

> <logS>
-4.83

> <HBD>
1

> <HBA>
3

> <TPSA>
58.64

> <RotBonds>
4

> <ROCS_ShapeQuery>
A71EV2A-x0451_0A_A71EV2A-x0310_0A_A71EV2A-x0416_0A_peptide

> <ROCS_TanimotoCombo>
0.531 

> <ROCS_ShapeTanimoto>
0.353 

> <ROCS_ColorTanimoto>
0.178 

> <ROCS_RefTversky>
0.312 

> <ROCS_RefColorTversky>
0.202 

> <ROCS_RefTverskyCombo>
0.514 

> <ROCS_FitTversky>
1.586 

> <ROCS_FitColorTversky>
0.608 

> <ROCS_FitTverskyCombo>
2.194 

> <ROCS_ColorScore>
-6.165

> <ROCS_Overlap>
2169.804

> <ROCS_Rank>
190                 

$$$$
untitled-dbase-7029_10583
  -OEChem-11132309573D

 64 67  0     1  0  0  0  0  0999 V2000
    6.6789   15.1787   24.9295 C   0  0  0  0  0  0  0  0  0  0  0  0
    5.9345   15.4416   26.0795 C   0  0  0  0  0  0  0  0  0  0  0  0
    9.9520   13.6520   20.6984 C   0  0  0  0  0  0  0  0  0  0  0  0
    9.4922   12.7092   21.6177 C   0  0  0  0  0  0  0  0  0  0  0  0
    7.0334   13.8673   24.6128 C   0  0  0  0  0  0  0  0  0  0  0  0
   10.7115   14.7380   21.1338 C   0  0  0  0  0  0  0  0  0  0  0  0
    5.5446   14.3931   26.9127 C   0  0  0  0  0  0  0  0  0  0  0  0
    9.7917   12.8524   22.9725 C   0  0  0  0  0  0  0  0  0  0  0  0
   11.0110   14.8812   22.4886 C   0  0  0  0  0  0  0  0  0  0  0  0
    6.6435   12.8188   25.4461 C   0  0  0  0  0  0  0  0  0  0  0  0
   10.5511   13.9384   23.4080 C   0  0  0  0  0  0  0  0  0  0  0  0
    5.8991   13.0817   26.5961 C   0  0  0  0  0  0  0  0  0  0  0  0
    8.2813    9.9216   23.7426 C   0  0  0  0  0  0  0  0  0  0  0  0
   15.2911   11.3965   25.0754 C   0  0  0  0  0  0  0  0  0  0  0  0
   14.6564   11.5939   27.3898 C   0  0  0  0  0  0  0  0  0  0  0  0
   15.6312   12.8842   25.0712 C   0  0  0  0  0  0  0  0  0  0  0  0
   15.0104   13.0771   27.3308 C   0  0  0  0  0  0  0  0  0  0  0  0
    9.2616   11.7721   24.0025 C   0  0  1  0  0  0  0  0  0  0  0  0
    7.7574   11.3601   23.9337 C   0  0  2  0  0  0  0  0  0  0  0  0
   13.1695   15.7755   22.9323 C   0  0  0  0  0  0  0  0  0  0  0  0
   10.3846   15.2677   25.3729 C   0  0  0  0  0  0  0  0  0  0  0  0
   11.6901   10.0583   24.9001 C   0  0  0  0  0  0  0  0  0  0  0  0
   13.0267    9.3084   24.9082 C   0  0  0  0  0  0  0  0  0  0  0  0
   10.8151    9.6797   23.7092 C   0  0  0  0  0  0  0  0  0  0  0  0
   13.9010    9.7064   26.0910 C   0  0  0  0  0  0  0  0  0  0  0  0
    9.5582   10.3658   23.7148 N   0  0  0  0  0  0  0  0  0  0  0  0
   14.2346   11.1289   26.0612 N   0  0  0  0  0  0  0  0  0  0  0  0
    7.7906    8.8188   23.6637 O   0  0  0  0  0  0  0  0  0  0  0  0
   16.0444   13.3037   26.3723 O   0  0  0  0  0  0  0  0  0  0  0  0
    6.9908   11.5370   25.1356 O   0  0  0  0  0  0  0  0  0  0  0  0
   11.7539   15.9464   22.9001 O   0  0  0  0  0  0  0  0  0  0  0  0
   10.8448   14.0803   24.7318 O   0  0  0  0  0  0  0  0  0  0  0  0
    5.5215   12.0787   27.4008 F   0  0  0  0  0  0  0  0  0  0  0  0
    6.9819   15.9953   24.2805 H   0  0  0  0  0  0  0  0  0  0  0  0
    5.6591   16.4628   26.3263 H   0  0  0  0  0  0  0  0  0  0  0  0
    9.7198   13.5400   19.6434 H   0  0  0  0  0  0  0  0  0  0  0  0
    8.9017   11.8658   21.2703 H   0  0  0  0  0  0  0  0  0  0  0  0
    7.6129   13.6690   23.7154 H   0  0  0  0  0  0  0  0  0  0  0  0
   11.0671   15.4688   20.4124 H   0  0  0  0  0  0  0  0  0  0  0  0
    4.9651   14.5975   27.8080 H   0  0  0  0  0  0  0  0  0  0  0  0
   14.9577   11.1049   24.0735 H   0  0  0  0  0  0  0  0  0  0  0  0
   16.1913   10.8180   25.3179 H   0  0  0  0  0  0  0  0  0  0  0  0
   15.5294   11.0241   27.7320 H   0  0  0  0  0  0  0  0  0  0  0  0
   13.8490   11.4507   28.1161 H   0  0  0  0  0  0  0  0  0  0  0  0
   16.4595   13.0743   24.3810 H   0  0  0  0  0  0  0  0  0  0  0  0
   14.7795   13.4924   24.7435 H   0  0  0  0  0  0  0  0  0  0  0  0
   14.1377   13.6927   27.0800 H   0  0  0  0  0  0  0  0  0  0  0  0
   15.3813   13.4111   28.3050 H   0  0  0  0  0  0  0  0  0  0  0  0
    9.5830   12.0305   25.0220 H   0  0  0  0  0  0  0  0  0  0  0  0
    7.2094   11.7253   23.0580 H   0  0  0  0  0  0  0  0  0  0  0  0
   13.6409   16.6988   23.2779 H   0  0  0  0  0  0  0  0  0  0  0  0
   13.5297   15.5222   21.9320 H   0  0  0  0  0  0  0  0  0  0  0  0
   13.4140   14.9640   23.6218 H   0  0  0  0  0  0  0  0  0  0  0  0
   10.6850   15.2553   26.4234 H   0  0  0  0  0  0  0  0  0  0  0  0
    9.2961   15.3266   25.2948 H   0  0  0  0  0  0  0  0  0  0  0  0
   10.8308   16.1342   24.8789 H   0  0  0  0  0  0  0  0  0  0  0  0
   11.8699   11.1402   24.8948 H   0  0  0  0  0  0  0  0  0  0  0  0
   11.1432    9.8258   25.8218 H   0  0  0  0  0  0  0  0  0  0  0  0
   12.8379    8.2295   24.9563 H   0  0  0  0  0  0  0  0  0  0  0  0
   13.5699    9.5043   23.9763 H   0  0  0  0  0  0  0  0  0  0  0  0
   10.5942    8.6079   23.7331 H   0  0  0  0  0  0  0  0  0  0  0  0
   11.3149    9.9031   22.7615 H   0  0  0  0  0  0  0  0  0  0  0  0
   13.4031    9.4906   27.0417 H   0  0  0  0  0  0  0  0  0  0  0  0
   14.8409    9.1459   26.0665 H   0  0  0  0  0  0  0  0  0  0  0  0
  1  2  1  0  0  0  0
  1  5  2  0  0  0  0
  2  7  2  0  0  0  0
  3  4  1  0  0  0  0
  3  6  2  0  0  0  0
  4  8  2  0  0  0  0
  5 10  1  0  0  0  0
  6  9  1  0  0  0  0
  7 12  1  0  0  0  0
  8 11  1  0  0  0  0
  8 18  1  0  0  0  0
  9 11  2  0  0  0  0
  9 31  1  0  0  0  0
 10 12  2  0  0  0  0
 10 30  1  0  0  0  0
 11 32  1  0  0  0  0
 12 33  1  0  0  0  0
 13 19  1  0  0  0  0
 13 26  1  0  0  0  0
 13 28  2  0  0  0  0
 14 16  1  0  0  0  0
 14 27  1  0  0  0  0
 15 17  1  0  0  0  0
 15 27  1  0  0  0  0
 16 29  1  0  0  0  0
 17 29  1  0  0  0  0
 18 19  1  0  0  0  0
 18 26  1  0  0  0  0
 19 30  1  0  0  0  0
 20 31  1  0  0  0  0
 21 32  1  0  0  0  0
 22 23  1  0  0  0  0
 22 24  1  0  0  0  0
 23 25  1  0  0  0  0
 24 26  1  0  0  0  0
 25 27  1  0  0  0  0
  1 34  1  0  0  0  0
  2 35  1  0  0  0  0
  3 36  1  0  0  0  0
  4 37  1  0  0  0  0
  5 38  1  0  0  0  0
  6 39  1  0  0  0  0
  7 40  1  0  0  0  0
 14 41  1  0  0  0  0
 14 42  1  0  0  0  0
 15 43  1  0  0  0  0
 15 44  1  0  0  0  0
 16 45  1  0  0  0  0
 16 46  1  0  0  0  0
 17 47  1  0  0  0  0
 17 48  1  0  0  0  0
 18 49  1  0  0  0  0
 19 50  1  0  0  0  0
 20 51  1  0  0  0  0
 20 52  1  0  0  0  0
 20 53  1  0  0  0  0
 21 54  1  0  0  0  0
 21 55  1  0  0  0  0
 21 56  1  0  0  0  0
 22 57  1  0  0  0  0
 22 58  1  0  0  0  0
 23 59  1  0  0  0  0
 23 60  1  0  0  0  0
 24 61  1  0  0  0  0
 24 62  1  0  0  0  0
 25 63  1  0  0  0  0
 25 64  1  0  0  0  0
M  END
> <Catalog ID>
Z775894134

> <MW>
458.522

> <MW (desalted)>
458.522

> <ClogP>
3.521

> <logS>
-4.26

> <HBD>
0

> <HBA>
6

> <TPSA>
60.47

> <RotBonds>
10

> <ROCS_ShapeQuery>
A71EV2A-x0451_0A_A71EV2A-x0310_0A_A71EV2A-x0416_0A_peptide

> <ROCS_TanimotoCombo>
0.531 

> <ROCS_ShapeTanimoto>
0.367 

> <ROCS_ColorTanimoto>
0.165 

> <ROCS_RefTversky>
0.336 

> <ROCS_RefColorTversky>
0.192 

> <ROCS_RefTverskyCombo>
0.529 

> <ROCS_FitTversky>
1.327 

> <ROCS_FitColorTversky>
0.532 

> <ROCS_FitTverskyCombo>
1.859 

> <ROCS_ColorScore>
-5.894

> <ROCS_Overlap>
2344.559

> <ROCS_Rank>
191                 

$$$$
untitled-dbase-7731_3166
  -OEChem-11132309573D

 46 47  0     1  0  0  0  0  0999 V2000
   14.2681   16.3615   18.7198 C   0  0  0  0  0  0  0  0  0  0  0  0
   13.0975   17.0610   19.0132 C   0  0  0  0  0  0  0  0  0  0  0  0
   14.4429   15.0628   19.1978 C   0  0  0  0  0  0  0  0  0  0  0  0
   12.1018   16.4618   19.7848 C   0  0  0  0  0  0  0  0  0  0  0  0
   13.4472   14.4636   19.9693 C   0  0  0  0  0  0  0  0  0  0  0  0
    8.2036   12.5792   24.6943 C   0  0  0  0  0  0  0  0  0  0  0  0
    7.1809   12.0904   25.5072 C   0  0  0  0  0  0  0  0  0  0  0  0
    8.4760   10.3860   23.7183 C   0  0  0  0  0  0  0  0  0  0  0  0
   12.2767   15.1631   20.2628 C   0  0  0  0  0  0  0  0  0  0  0  0
    8.8512   11.7269   23.7998 C   0  0  0  0  0  0  0  0  0  0  0  0
    7.4533    9.8972   24.5312 C   0  0  0  0  0  0  0  0  0  0  0  0
    6.8058   10.7494   25.4257 C   0  0  0  0  0  0  0  0  0  0  0  0
    7.3069    5.1723   23.1241 C   0  0  0  0  0  0  0  0  0  0  0  0
    6.9376    6.2475   23.8273 C   0  0  0  0  0  0  0  0  0  0  0  0
    7.6121    7.5611   23.6156 C   0  0  0  0  0  0  0  0  0  0  0  0
   10.7710   13.2581   23.2553 C   0  0  0  0  0  0  0  0  0  0  0  0
   10.9178   16.3959   22.7118 C   0  0  0  0  0  0  0  0  0  0  0  0
   11.7480   13.4970   22.1138 C   0  0  0  0  0  0  0  0  0  0  0  0
   11.1954   14.5116   21.1012 C   0  0  1  0  0  0  0  0  0  0  0  0
    9.9495   17.2515   23.2059 N   0  0  0  0  0  0  0  0  0  0  0  0
    7.0796    8.5554   24.4476 N   0  0  0  0  0  0  0  0  0  0  0  0
    9.8883   12.2228   22.9757 N   0  0  0  0  0  0  0  0  0  0  0  0
   10.3992   15.5140   21.7749 N   0  0  0  0  0  0  0  0  0  0  0  0
    8.5152    7.6869   22.7970 O   0  0  0  0  0  0  0  0  0  0  0  0
   10.8064   13.9639   24.2594 O   0  0  0  0  0  0  0  0  0  0  0  0
   12.0912   16.4348   23.0780 O   0  0  0  0  0  0  0  0  0  0  0  0
    5.8218   10.2909   26.2121 F   0  0  0  0  0  0  0  0  0  0  0  0
   15.0427   16.8277   18.1179 H   0  0  0  0  0  0  0  0  0  0  0  0
   12.9608   18.0718   18.6402 H   0  0  0  0  0  0  0  0  0  0  0  0
   15.3537   14.5175   18.9685 H   0  0  0  0  0  0  0  0  0  0  0  0
   11.1932   17.0145   20.0086 H   0  0  0  0  0  0  0  0  0  0  0  0
   13.5922   13.4514   20.3375 H   0  0  0  0  0  0  0  0  0  0  0  0
    8.4875   13.6261   24.7667 H   0  0  0  0  0  0  0  0  0  0  0  0
    6.6762   12.7536   26.2034 H   0  0  0  0  0  0  0  0  0  0  0  0
    8.9817    9.7214   23.0203 H   0  0  0  0  0  0  0  0  0  0  0  0
    6.8400    4.2019   23.2507 H   0  0  0  0  0  0  0  0  0  0  0  0
    8.1039    5.2506   22.3921 H   0  0  0  0  0  0  0  0  0  0  0  0
    6.1408    6.1701   24.5590 H   0  0  0  0  0  0  0  0  0  0  0  0
   12.6764   13.8776   22.5597 H   0  0  0  0  0  0  0  0  0  0  0  0
   12.0142   12.5476   21.6332 H   0  0  0  0  0  0  0  0  0  0  0  0
   10.4925   13.9923   20.4373 H   0  0  0  0  0  0  0  0  0  0  0  0
    8.9860   17.2037   22.8925 H   0  0  0  0  0  0  0  0  0  0  0  0
   10.1757   17.9548   23.9013 H   0  0  0  0  0  0  0  0  0  0  0  0
    6.3204    8.2598   25.0731 H   0  0  0  0  0  0  0  0  0  0  0  0
   10.0009   11.7680   22.0725 H   0  0  0  0  0  0  0  0  0  0  0  0
    9.4118   15.5752   21.5509 H   0  0  0  0  0  0  0  0  0  0  0  0
  1  2  1  0  0  0  0
  1  3  2  0  0  0  0
  2  4  2  0  0  0  0
  3  5  1  0  0  0  0
  4  9  1  0  0  0  0
  5  9  2  0  0  0  0
  6  7  2  0  0  0  0
  6 10  1  0  0  0  0
  7 12  1  0  0  0  0
  8 10  2  0  0  0  0
  8 11  1  0  0  0  0
  9 19  1  0  0  0  0
 10 22  1  0  0  0  0
 11 12  2  0  0  0  0
 11 21  1  0  0  0  0
 12 27  1  0  0  0  0
 13 14  2  0  0  0  0
 14 15  1  0  0  0  0
 15 21  1  0  0  0  0
 15 24  2  0  0  0  0
 16 18  1  0  0  0  0
 16 22  1  0  0  0  0
 16 25  2  0  0  0  0
 17 20  1  0  0  0  0
 17 23  1  0  0  0  0
 17 26  2  0  0  0  0
 18 19  1  0  0  0  0
 19 23  1  0  0  0  0
  1 28  1  0  0  0  0
  2 29  1  0  0  0  0
  3 30  1  0  0  0  0
  4 31  1  0  0  0  0
  5 32  1  0  0  0  0
  6 33  1  0  0  0  0
  7 34  1  0  0  0  0
  8 35  1  0  0  0  0
 13 36  1  0  0  0  0
 13 37  1  0  0  0  0
 14 38  1  0  0  0  0
 18 39  1  0  0  0  0
 18 40  1  0  0  0  0
 19 41  1  0  0  0  0
 20 42  1  0  0  0  0
 20 43  1  0  0  0  0
 21 44  1  0  0  0  0
 22 45  1  0  0  0  0
 23 46  1  0  0  0  0
M  END
> <Catalog ID>
Z1410269425

> <MW>
370.378

> <MW (desalted)>
370.378

> <ClogP>
0.97

> <logS>
-4.606

> <HBD>
4

> <HBA>
3

> <TPSA>
113.32

> <RotBonds>
7

> <ROCS_ShapeQuery>
A71EV2A-x0451_0A_A71EV2A-x0310_0A_A71EV2A-x0416_0A_peptide

> <ROCS_TanimotoCombo>
0.531 

> <ROCS_ShapeTanimoto>
0.334 

> <ROCS_ColorTanimoto>
0.197 

> <ROCS_RefTversky>
0.305 

> <ROCS_RefColorTversky>
0.224 

> <ROCS_RefTverskyCombo>
0.529 

> <ROCS_FitTversky>
1.411 

> <ROCS_FitColorTversky>
0.619 

> <ROCS_FitTverskyCombo>
2.029 

> <ROCS_ColorScore>
-6.863

> <ROCS_Overlap>
2120.167

> <ROCS_Rank>
192                 

$$$$
untitled-dbase-3654_2506
  -OEChem-11132309573D

 56 59  0     0  0  0  0  0  0999 V2000
   12.5835   17.8734   20.3117 C   0  0  0  0  0  0  0  0  0  0  0  0
   11.7640   17.9204   21.4394 C   0  0  0  0  0  0  0  0  0  0  0  0
   13.4154   16.7740   20.0994 C   0  0  0  0  0  0  0  0  0  0  0  0
    9.6548    9.4695   23.2383 C   0  0  0  0  0  0  0  0  0  0  0  0
   11.7762   16.8680   22.3548 C   0  0  0  0  0  0  0  0  0  0  0  0
   13.4277   15.7216   21.0147 C   0  0  0  0  0  0  0  0  0  0  0  0
    9.8470   10.5838   22.4207 C   0  0  0  0  0  0  0  0  0  0  0  0
    8.8387    9.5614   24.3659 C   0  0  0  0  0  0  0  0  0  0  0  0
   12.6081   15.7685   22.1425 C   0  0  0  0  0  0  0  0  0  0  0  0
    9.2326   11.7964   22.7344 C   0  0  0  0  0  0  0  0  0  0  0  0
    8.2123   10.7698   24.6723 C   0  0  0  0  0  0  0  0  0  0  0  0
    8.4270   11.8926   23.8692 C   0  0  0  0  0  0  0  0  0  0  0  0
   14.6019   10.0634   25.8536 C   0  0  0  0  0  0  0  0  0  0  0  0
   15.5073   11.0030   25.5730 C   0  0  0  0  0  0  0  0  0  0  0  0
   15.1646   12.4189   25.8153 C   0  0  0  0  0  0  0  0  0  0  0  0
   11.2170   14.0411   23.2090 C   0  0  0  0  0  0  0  0  0  0  0  0
   13.0266   15.1270   24.5558 C   0  0  0  0  0  0  0  0  0  0  0  0
   13.5761   13.4476   22.7654 C   0  0  0  0  0  0  0  0  0  0  0  0
   13.1956   14.0249   25.6073 C   0  0  0  0  0  0  0  0  0  0  0  0
   13.6904   12.3733   23.8459 C   0  0  0  0  0  0  0  0  0  0  0  0
    6.5600   11.9454   25.8005 C   0  0  0  0  0  0  0  0  0  0  0  0
    7.3616   13.1899   25.4719 C   0  0  0  0  0  0  0  0  0  0  0  0
   12.6223   14.6074   23.1520 C   0  0  0  0  0  0  0  0  0  0  0  0
    9.4437   12.9758   21.8296 C   0  0  0  0  0  0  0  0  0  0  0  0
   14.0708   12.9490   25.1338 N   0  0  0  0  0  0  0  0  0  0  0  0
   10.7549   13.5597   21.9990 N   0  0  0  0  0  0  0  0  0  0  0  0
   15.8722   13.0481   26.6040 O   0  0  0  0  0  0  0  0  0  0  0  0
   10.6074   14.0434   24.2721 O   0  0  0  0  0  0  0  0  0  0  0  0
    7.4055   10.7921   25.7798 O   0  0  0  0  0  0  0  0  0  0  0  0
    7.8674   13.1147   24.1361 O   0  0  0  0  0  0  0  0  0  0  0  0
   12.5729   18.6923   19.5984 H   0  0  0  0  0  0  0  0  0  0  0  0
   11.1154   18.7758   21.6044 H   0  0  0  0  0  0  0  0  0  0  0  0
   14.0528   16.7366   19.2209 H   0  0  0  0  0  0  0  0  0  0  0  0
   10.1449    8.5303   22.9990 H   0  0  0  0  0  0  0  0  0  0  0  0
   11.1344   16.9132   23.2307 H   0  0  0  0  0  0  0  0  0  0  0  0
   14.0791   14.8692   20.8412 H   0  0  0  0  0  0  0  0  0  0  0  0
   10.4754   10.4949   21.5382 H   0  0  0  0  0  0  0  0  0  0  0  0
    8.7067    8.6927   25.0051 H   0  0  0  0  0  0  0  0  0  0  0  0
   14.7950    9.0074   25.6972 H   0  0  0  0  0  0  0  0  0  0  0  0
   13.6329   10.3435   26.2530 H   0  0  0  0  0  0  0  0  0  0  0  0
   16.4842   10.7630   25.1740 H   0  0  0  0  0  0  0  0  0  0  0  0
   12.2857   15.8510   24.9205 H   0  0  0  0  0  0  0  0  0  0  0  0
   13.9762   15.6761   24.4825 H   0  0  0  0  0  0  0  0  0  0  0  0
   14.5803   13.8446   22.5600 H   0  0  0  0  0  0  0  0  0  0  0  0
   13.2388   12.9753   21.8331 H   0  0  0  0  0  0  0  0  0  0  0  0
   13.5735   14.4869   26.5204 H   0  0  0  0  0  0  0  0  0  0  0  0
   12.2267   13.5715   25.8463 H   0  0  0  0  0  0  0  0  0  0  0  0
   12.7300   11.8639   23.9879 H   0  0  0  0  0  0  0  0  0  0  0  0
   14.4110   11.6123   23.5292 H   0  0  0  0  0  0  0  0  0  0  0  0
    6.0892   12.0172   26.7888 H   0  0  0  0  0  0  0  0  0  0  0  0
    5.7719   11.7936   25.0565 H   0  0  0  0  0  0  0  0  0  0  0  0
    6.7541   14.0984   25.5659 H   0  0  0  0  0  0  0  0  0  0  0  0
    8.2179   13.2802   26.1476 H   0  0  0  0  0  0  0  0  0  0  0  0
    9.3389   12.6808   20.7798 H   0  0  0  0  0  0  0  0  0  0  0  0
    8.7016   13.7574   22.0234 H   0  0  0  0  0  0  0  0  0  0  0  0
   11.3660   13.6189   21.1900 H   0  0  0  0  0  0  0  0  0  0  0  0
  1  2  1  0  0  0  0
  1  3  2  0  0  0  0
  2  5  2  0  0  0  0
  3  6  1  0  0  0  0
  4  7  2  0  0  0  0
  4  8  1  0  0  0  0
  5  9  1  0  0  0  0
  6  9  2  0  0  0  0
  7 10  1  0  0  0  0
  8 11  2  0  0  0  0
  9 23  1  0  0  0  0
 10 12  2  0  0  0  0
 10 24  1  0  0  0  0
 11 12  1  0  0  0  0
 11 29  1  0  0  0  0
 12 30  1  0  0  0  0
 13 14  2  0  0  0  0
 14 15  1  0  0  0  0
 15 25  1  0  0  0  0
 15 27  2  0  0  0  0
 16 23  1  0  0  0  0
 16 26  1  0  0  0  0
 16 28  2  0  0  0  0
 17 19  1  0  0  0  0
 17 23  1  0  0  0  0
 18 20  1  0  0  0  0
 18 23  1  0  0  0  0
 19 25  1  0  0  0  0
 20 25  1  0  0  0  0
 21 22  1  0  0  0  0
 21 29  1  0  0  0  0
 22 30  1  0  0  0  0
 24 26  1  0  0  0  0
  1 31  1  0  0  0  0
  2 32  1  0  0  0  0
  3 33  1  0  0  0  0
  4 34  1  0  0  0  0
  5 35  1  0  0  0  0
  6 36  1  0  0  0  0
  7 37  1  0  0  0  0
  8 38  1  0  0  0  0
 13 39  1  0  0  0  0
 13 40  1  0  0  0  0
 14 41  1  0  0  0  0
 17 42  1  0  0  0  0
 17 43  1  0  0  0  0
 18 44  1  0  0  0  0
 18 45  1  0  0  0  0
 19 46  1  0  0  0  0
 19 47  1  0  0  0  0
 20 48  1  0  0  0  0
 20 49  1  0  0  0  0
 21 50  1  0  0  0  0
 21 51  1  0  0  0  0
 22 52  1  0  0  0  0
 22 53  1  0  0  0  0
 24 54  1  0  0  0  0
 24 55  1  0  0  0  0
 26 56  1  0  0  0  0
M  END
> <Catalog ID>
Z3672058033

> <MW>
406.474

> <MW (desalted)>
406.474

> <ClogP>
2.335

> <logS>
-4.418

> <HBD>
1

> <HBA>
4

> <TPSA>
67.87

> <RotBonds>
5

> <ROCS_ShapeQuery>
A71EV2A-x0451_0A_A71EV2A-x0310_0A_A71EV2A-x0416_0A_peptide

> <ROCS_TanimotoCombo>
0.531 

> <ROCS_ShapeTanimoto>
0.358 

> <ROCS_ColorTanimoto>
0.173 

> <ROCS_RefTversky>
0.327 

> <ROCS_RefColorTversky>
0.201 

> <ROCS_RefTverskyCombo>
0.528 

> <ROCS_FitTversky>
1.368 

> <ROCS_FitColorTversky>
0.555 

> <ROCS_FitTverskyCombo>
1.923 

> <ROCS_ColorScore>
-6.152

> <ROCS_Overlap>
2276.209

> <ROCS_Rank>
193                 

$$$$
untitled-dbase-7504_793
  -OEChem-11132309573D

 42 45  0     0  0  0  0  0  0999 V2000
    4.5341   12.7324   28.7183 C   0  0  0  0  0  0  0  0  0  0  0  0
    9.5736    9.2624   21.9971 C   0  0  0  0  0  0  0  0  0  0  0  0
    4.1944   13.0067   27.3936 C   0  0  0  0  0  0  0  0  0  0  0  0
    5.7583   12.1330   29.0146 C   0  0  0  0  0  0  0  0  0  0  0  0
    8.5875    8.4189   22.4934 C   0  0  0  0  0  0  0  0  0  0  0  0
    9.7232   10.5367   22.5368 C   0  0  0  0  0  0  0  0  0  0  0  0
    5.0788   12.6816   26.3651 C   0  0  0  0  0  0  0  0  0  0  0  0
    6.6427   11.8079   27.9862 C   0  0  0  0  0  0  0  0  0  0  0  0
   13.4923   14.8301   21.8805 C   0  0  0  0  0  0  0  0  0  0  0  0
   11.8772   15.6689   20.2915 C   0  0  0  0  0  0  0  0  0  0  0  0
    7.7538    8.8511   23.5277 C   0  0  0  0  0  0  0  0  0  0  0  0
   12.5393   13.9429   22.3808 C   0  0  0  0  0  0  0  0  0  0  0  0
   10.9242   14.7817   20.7918 C   0  0  0  0  0  0  0  0  0  0  0  0
    8.1694   12.6480   25.1652 C   0  0  0  0  0  0  0  0  0  0  0  0
    8.8845   10.9712   23.5771 C   0  0  0  0  0  0  0  0  0  0  0  0
    6.3030   12.0821   26.6614 C   0  0  0  0  0  0  0  0  0  0  0  0
   13.1612   15.6932   20.8358 C   0  0  0  0  0  0  0  0  0  0  0  0
    9.0131   12.2487   24.1387 C   0  0  0  0  0  0  0  0  0  0  0  0
    7.8813   10.1200   24.0861 C   0  0  0  0  0  0  0  0  0  0  0  0
   11.2553   13.9187   21.8365 C   0  0  0  0  0  0  0  0  0  0  0  0
    7.2182   11.7459   25.5967 C   0  0  0  0  0  0  0  0  0  0  0  0
   14.1547   16.6181   20.3139 C   0  0  0  0  0  0  0  0  0  0  0  0
   10.0157   13.2092   23.6876 C   0  0  0  0  0  0  0  0  0  0  0  0
    7.0610   10.5048   25.0821 N   0  0  0  0  0  0  0  0  0  0  0  0
   13.9239   17.4053   19.3919 O   0  0  0  0  0  0  0  0  0  0  0  0
   10.5303   14.0678   24.4127 O   0  0  0  0  0  0  0  0  0  0  0  0
   10.3002   13.0301   22.3376 O   0  0  0  0  0  0  0  0  0  0  0  0
    3.8460   12.9873   29.5190 H   0  0  0  0  0  0  0  0  0  0  0  0
   10.2236    8.9300   21.1934 H   0  0  0  0  0  0  0  0  0  0  0  0
    3.2420   13.4749   27.1628 H   0  0  0  0  0  0  0  0  0  0  0  0
    6.0240   11.9205   30.0460 H   0  0  0  0  0  0  0  0  0  0  0  0
    8.4640    7.4229   22.0783 H   0  0  0  0  0  0  0  0  0  0  0  0
   10.5029   11.1756   22.1292 H   0  0  0  0  0  0  0  0  0  0  0  0
    4.7996   12.9020   25.3374 H   0  0  0  0  0  0  0  0  0  0  0  0
    7.5937   11.3415   28.2325 H   0  0  0  0  0  0  0  0  0  0  0  0
   14.4897   14.8398   22.3124 H   0  0  0  0  0  0  0  0  0  0  0  0
   11.6093   16.3372   19.4771 H   0  0  0  0  0  0  0  0  0  0  0  0
    6.9887    8.1714   23.8984 H   0  0  0  0  0  0  0  0  0  0  0  0
   12.8032   13.2733   23.1948 H   0  0  0  0  0  0  0  0  0  0  0  0
    9.9255   14.7676   20.3639 H   0  0  0  0  0  0  0  0  0  0  0  0
    8.2551   13.6345   25.6112 H   0  0  0  0  0  0  0  0  0  0  0  0
   15.1642   16.6007   20.7795 H   0  0  0  0  0  0  0  0  0  0  0  0
  1  3  1  0  0  0  0
  1  4  2  0  0  0  0
  2  5  1  0  0  0  0
  2  6  2  0  0  0  0
  3  7  2  0  0  0  0
  4  8  1  0  0  0  0
  5 11  2  0  0  0  0
  6 15  1  0  0  0  0
  7 16  1  0  0  0  0
  8 16  2  0  0  0  0
  9 12  2  0  0  0  0
  9 17  1  0  0  0  0
 10 13  1  0  0  0  0
 10 17  2  0  0  0  0
 11 19  1  0  0  0  0
 12 20  1  0  0  0  0
 13 20  2  0  0  0  0
 14 18  1  0  0  0  0
 14 21  2  0  0  0  0
 15 18  2  0  0  0  0
 15 19  1  0  0  0  0
 16 21  1  0  0  0  0
 17 22  1  0  0  0  0
 18 23  1  0  0  0  0
 19 24  2  0  0  0  0
 20 27  1  0  0  0  0
 21 24  1  0  0  0  0
 22 25  2  0  0  0  0
 23 26  2  0  0  0  0
 23 27  1  0  0  0  0
  1 28  1  0  0  0  0
  2 29  1  0  0  0  0
  3 30  1  0  0  0  0
  4 31  1  0  0  0  0
  5 32  1  0  0  0  0
  6 33  1  0  0  0  0
  7 34  1  0  0  0  0
  8 35  1  0  0  0  0
  9 36  1  0  0  0  0
 10 37  1  0  0  0  0
 11 38  1  0  0  0  0
 12 39  1  0  0  0  0
 13 40  1  0  0  0  0
 14 41  1  0  0  0  0
 22 42  1  0  0  0  0
M  END
> <Catalog ID>
Z57153039

> <MW>
353.37

> <MW (desalted)>
353.37

> <ClogP>
5.423

> <logS>
-6.44

> <HBD>
0

> <HBA>
3

> <TPSA>
56.26

> <RotBonds>
5

> <ROCS_ShapeQuery>
A71EV2A-x0451_0A_A71EV2A-x0310_0A_A71EV2A-x0416_0A_peptide

> <ROCS_TanimotoCombo>
0.531 

> <ROCS_ShapeTanimoto>
0.394 

> <ROCS_ColorTanimoto>
0.137 

> <ROCS_RefTversky>
0.346 

> <ROCS_RefColorTversky>
0.153 

> <ROCS_RefTverskyCombo>
0.499 

> <ROCS_FitTversky>
1.543 

> <ROCS_FitColorTversky>
0.567 

> <ROCS_FitTverskyCombo>
2.110 

> <ROCS_ColorScore>
-4.671

> <ROCS_Overlap>
2408.012

> <ROCS_Rank>
194                 

$$$$
untitled-dbase-3631_3453
  -OEChem-11132309573D

 41 43  0     0  0  0  0  0  0999 V2000
    9.7090    7.0385   22.4054 C   0  0  0  0  0  0  0  0  0  0  0  0
   10.4810    7.6710   23.3798 C   0  0  0  0  0  0  0  0  0  0  0  0
    8.4658    7.5629   22.0515 C   0  0  0  0  0  0  0  0  0  0  0  0
   10.0098    8.8279   24.0004 C   0  0  0  0  0  0  0  0  0  0  0  0
    7.9946    8.7197   22.6722 C   0  0  0  0  0  0  0  0  0  0  0  0
    8.0777   12.5465   24.9904 C   0  0  0  0  0  0  0  0  0  0  0  0
    8.7666    9.3523   23.6467 C   0  0  0  0  0  0  0  0  0  0  0  0
   14.7114   16.7933   19.2403 C   0  0  0  0  0  0  0  0  0  0  0  0
   14.3090   16.2564   20.4581 C   0  0  0  0  0  0  0  0  0  0  0  0
   13.7961   16.9044   18.1994 C   0  0  0  0  0  0  0  0  0  0  0  0
   12.9907   15.8486   20.5832 C   0  0  0  0  0  0  0  0  0  0  0  0
    7.0171   11.7140   25.3951 C   0  0  0  0  0  0  0  0  0  0  0  0
   12.5009   16.4675   18.4256 C   0  0  0  0  0  0  0  0  0  0  0  0
    8.8969   11.7257   24.2544 C   0  0  0  0  0  0  0  0  0  0  0  0
   12.4572   15.2633   21.8390 C   0  0  0  0  0  0  0  0  0  0  0  0
   10.7882   13.2189   23.5342 C   0  0  0  0  0  0  0  0  0  0  0  0
    5.8491   12.0827   26.2127 C   0  0  0  0  0  0  0  0  0  0  0  0
   12.0633   13.1109   22.7266 C   0  0  0  0  0  0  0  0  0  0  0  0
   12.0730   15.9406   19.5947 N   0  0  0  0  0  0  0  0  0  0  0  0
    7.1479   10.4605   24.9527 N   0  0  0  0  0  0  0  0  0  0  0  0
    8.3003   10.4993   24.2624 N   0  0  0  0  0  0  0  0  0  0  0  0
   10.0775   11.9958   23.6135 N   0  0  0  0  0  0  0  0  0  0  0  0
   12.4520   15.8578   22.9058 O   0  0  0  0  0  0  0  0  0  0  0  0
   10.4584   14.2887   24.0372 O   0  0  0  0  0  0  0  0  0  0  0  0
   11.9855   13.9987   21.6306 O   0  0  0  0  0  0  0  0  0  0  0  0
   16.3540   17.3225   19.0227 Cl  0  0  0  0  0  0  0  0  0  0  0  0
   15.3951   16.0890   21.7957 Cl  0  0  0  0  0  0  0  0  0  0  0  0
   14.2445   17.5668   16.6626 Cl  0  0  0  0  0  0  0  0  0  0  0  0
   11.2515   16.5364   17.2396 Cl  0  0  0  0  0  0  0  0  0  0  0  0
   10.0761    6.1387   21.9205 H   0  0  0  0  0  0  0  0  0  0  0  0
   11.4496    7.2636   23.6545 H   0  0  0  0  0  0  0  0  0  0  0  0
    7.8659    7.0705   21.2916 H   0  0  0  0  0  0  0  0  0  0  0  0
   10.6220    9.3115   24.7578 H   0  0  0  0  0  0  0  0  0  0  0  0
    7.0242    9.1182   22.3863 H   0  0  0  0  0  0  0  0  0  0  0  0
    8.2266   13.5956   25.2030 H   0  0  0  0  0  0  0  0  0  0  0  0
    5.0123   12.4297   25.5825 H   0  0  0  0  0  0  0  0  0  0  0  0
    5.4799   11.2360   26.8185 H   0  0  0  0  0  0  0  0  0  0  0  0
    6.0808   12.8893   26.9312 H   0  0  0  0  0  0  0  0  0  0  0  0
   12.9259   13.3682   23.3487 H   0  0  0  0  0  0  0  0  0  0  0  0
   12.1984   12.0909   22.3541 H   0  0  0  0  0  0  0  0  0  0  0  0
   10.5110   11.1937   23.1178 H   0  0  0  0  0  0  0  0  0  0  0  0
  1  2  1  0  0  0  0
  1  3  2  0  0  0  0
  2  4  2  0  0  0  0
  3  5  1  0  0  0  0
  4  7  1  0  0  0  0
  5  7  2  0  0  0  0
  6 12  1  0  0  0  0
  6 14  2  0  0  0  0
  7 21  1  0  0  0  0
  8  9  1  0  0  0  0
  8 10  2  0  0  0  0
  8 26  1  0  0  0  0
  9 11  2  0  0  0  0
  9 27  1  0  0  0  0
 10 13  1  0  0  0  0
 10 28  1  0  0  0  0
 11 15  1  0  0  0  0
 11 19  1  0  0  0  0
 12 17  1  0  0  0  0
 12 20  2  0  0  0  0
 13 19  2  0  0  0  0
 13 29  1  0  0  0  0
 14 21  1  0  0  0  0
 14 22  1  0  0  0  0
 15 23  2  0  0  0  0
 15 25  1  0  0  0  0
 16 18  1  0  0  0  0
 16 22  1  0  0  0  0
 16 24  2  0  0  0  0
 18 25  1  0  0  0  0
 20 21  1  0  0  0  0
  1 30  1  0  0  0  0
  2 31  1  0  0  0  0
  3 32  1  0  0  0  0
  4 33  1  0  0  0  0
  5 34  1  0  0  0  0
  6 35  1  0  0  0  0
 17 36  1  0  0  0  0
 17 37  1  0  0  0  0
 17 38  1  0  0  0  0
 18 39  1  0  0  0  0
 18 40  1  0  0  0  0
 22 41  1  0  0  0  0
M  END
> <Catalog ID>
Z16408152

> <MW>
474.125

> <MW (desalted)>
474.125

> <ClogP>
4.034

> <logS>
-7.07

> <HBD>
1

> <HBA>
4

> <TPSA>
86.11

> <RotBonds>
6

> <ROCS_ShapeQuery>
A71EV2A-x0451_0A_A71EV2A-x0310_0A_A71EV2A-x0416_0A_peptide

> <ROCS_TanimotoCombo>
0.531 

> <ROCS_ShapeTanimoto>
0.362 

> <ROCS_ColorTanimoto>
0.169 

> <ROCS_RefTversky>
0.327 

> <ROCS_RefColorTversky>
0.188 

> <ROCS_RefTverskyCombo>
0.515 

> <ROCS_FitTversky>
1.424 

> <ROCS_FitColorTversky>
0.626 

> <ROCS_FitTverskyCombo>
2.050 

> <ROCS_ColorScore>
-5.750

> <ROCS_Overlap>
2274.137

> <ROCS_Rank>
195                 

$$$$
untitled-dbase-6807_3424
  -OEChem-11132309573D

 54 57  0     1  0  0  0  0  0999 V2000
    6.8097   12.3245   28.0826 C   0  0  0  0  0  0  0  0  0  0  0  0
   12.5868   15.3787   23.0760 C   0  0  0  0  0  0  0  0  0  0  0  0
    7.3877   11.8994   26.8916 C   0  0  0  0  0  0  0  0  0  0  0  0
   13.4208   16.1447   22.2543 C   0  0  0  0  0  0  0  0  0  0  0  0
   11.6303   14.3416   21.1368 C   0  0  0  0  0  0  0  0  0  0  0  0
    5.4350   12.4956   28.1115 C   0  0  0  0  0  0  0  0  0  0  0  0
    5.2202   11.8621   25.9136 C   0  0  0  0  0  0  0  0  0  0  0  0
   11.6893   14.4796   22.5185 C   0  0  0  0  0  0  0  0  0  0  0  0
    6.5848   11.6616   25.7817 C   0  0  0  0  0  0  0  0  0  0  0  0
   12.4549   15.1148   20.2986 C   0  0  0  0  0  0  0  0  0  0  0  0
   13.3678   16.0424   20.8523 C   0  0  0  0  0  0  0  0  0  0  0  0
   17.2078   17.1993   19.7067 C   0  0  0  0  0  0  0  0  0  0  0  0
   16.2799   18.1573   19.7560 C   0  0  0  0  0  0  0  0  0  0  0  0
   10.8302   13.6758   23.3731 C   0  0  0  0  0  0  0  0  0  0  0  0
   15.0107   17.8881   20.4710 C   0  0  0  0  0  0  0  0  0  0  0  0
   12.3526   14.8784   18.8148 C   0  0  0  0  0  0  0  0  0  0  0  0
   12.8938   16.0599   18.0364 C   0  0  0  0  0  0  0  0  0  0  0  0
    9.3111   10.2553   22.7971 C   0  0  0  0  0  0  0  0  0  0  0  0
    8.2107   12.2052   23.9201 C   0  0  0  0  0  0  0  0  0  0  0  0
   14.2684   16.4291   18.5658 C   0  0  0  0  0  0  0  0  0  0  0  0
    8.2874    9.3444   23.4736 C   0  0  0  0  0  0  0  0  0  0  0  0
    7.1832   11.1977   24.4717 C   0  0  1  0  0  0  0  0  0  0  0  0
    9.5454   11.5379   23.5881 C   0  0  2  0  0  0  0  0  0  0  0  0
    4.6224   12.2745   27.0539 N   0  0  0  0  0  0  0  0  0  0  0  0
   14.2389   16.8173   19.9901 N   0  0  0  0  0  0  0  0  0  0  0  0
   10.4152   12.4365   22.8718 N   0  0  0  0  0  0  0  0  0  0  0  0
   10.4746   14.0985   24.4876 O   0  0  0  0  0  0  0  0  0  0  0  0
   14.7378   18.6259   21.4171 O   0  0  0  0  0  0  0  0  0  0  0  0
    7.7702    9.9076   24.6771 O   0  0  0  0  0  0  0  0  0  0  0  0
    7.4160   12.5158   28.9606 H   0  0  0  0  0  0  0  0  0  0  0  0
   12.6625   15.4865   24.1554 H   0  0  0  0  0  0  0  0  0  0  0  0
    8.4635   11.7560   26.8377 H   0  0  0  0  0  0  0  0  0  0  0  0
   14.1307   16.7874   22.7634 H   0  0  0  0  0  0  0  0  0  0  0  0
   10.9389   13.6251   20.6970 H   0  0  0  0  0  0  0  0  0  0  0  0
    4.9360   12.8261   29.0166 H   0  0  0  0  0  0  0  0  0  0  0  0
    4.5435   11.6926   25.0818 H   0  0  0  0  0  0  0  0  0  0  0  0
   18.1563   17.3369   19.1985 H   0  0  0  0  0  0  0  0  0  0  0  0
   17.0279   16.2423   20.1850 H   0  0  0  0  0  0  0  0  0  0  0  0
   16.4226   19.1244   19.2918 H   0  0  0  0  0  0  0  0  0  0  0  0
   12.9186   13.9722   18.5662 H   0  0  0  0  0  0  0  0  0  0  0  0
   11.3084   14.7110   18.5251 H   0  0  0  0  0  0  0  0  0  0  0  0
   12.9543   15.8067   16.9721 H   0  0  0  0  0  0  0  0  0  0  0  0
   12.2186   16.9210   18.1235 H   0  0  0  0  0  0  0  0  0  0  0  0
   10.2658    9.7146   22.7339 H   0  0  0  0  0  0  0  0  0  0  0  0
    9.0035   10.4736   21.7667 H   0  0  0  0  0  0  0  0  0  0  0  0
    7.8059   12.7354   23.0487 H   0  0  0  0  0  0  0  0  0  0  0  0
    8.4029   12.9717   24.6845 H   0  0  0  0  0  0  0  0  0  0  0  0
   14.9728   15.5943   18.4649 H   0  0  0  0  0  0  0  0  0  0  0  0
   14.6418   17.2578   17.9560 H   0  0  0  0  0  0  0  0  0  0  0  0
    7.4518    9.1052   22.7944 H   0  0  0  0  0  0  0  0  0  0  0  0
    8.7634    8.3861   23.7333 H   0  0  0  0  0  0  0  0  0  0  0  0
    6.3346   11.0838   23.7567 H   0  0  0  0  0  0  0  0  0  0  0  0
   10.0752   11.2968   24.5240 H   0  0  0  0  0  0  0  0  0  0  0  0
   10.6829   12.1674   21.9307 H   0  0  0  0  0  0  0  0  0  0  0  0
  1  3  2  0  0  0  0
  1  6  1  0  0  0  0
  2  4  2  0  0  0  0
  2  8  1  0  0  0  0
  3  9  1  0  0  0  0
  4 11  1  0  0  0  0
  5  8  2  0  0  0  0
  5 10  1  0  0  0  0
  6 24  2  0  0  0  0
  7  9  2  0  0  0  0
  7 24  1  0  0  0  0
  8 14  1  0  0  0  0
  9 22  1  1  0  0  0
 10 11  2  0  0  0  0
 10 16  1  0  0  0  0
 11 25  1  0  0  0  0
 12 13  2  0  0  0  0
 13 15  1  0  0  0  0
 14 26  1  0  0  0  0
 14 27  2  0  0  0  0
 15 25  1  0  0  0  0
 15 28  2  0  0  0  0
 16 17  1  0  0  0  0
 17 20  1  0  0  0  0
 18 21  1  0  0  0  0
 18 23  1  0  0  0  0
 19 22  1  0  0  0  0
 19 23  1  0  0  0  0
 20 25  1  0  0  0  0
 21 29  1  0  0  0  0
 22 29  1  0  0  0  0
 23 26  1  6  0  0  0
  1 30  1  0  0  0  0
  2 31  1  0  0  0  0
  3 32  1  0  0  0  0
  4 33  1  0  0  0  0
  5 34  1  0  0  0  0
  6 35  1  0  0  0  0
  7 36  1  0  0  0  0
 12 37  1  0  0  0  0
 12 38  1  0  0  0  0
 13 39  1  0  0  0  0
 16 40  1  0  0  0  0
 16 41  1  0  0  0  0
 17 42  1  0  0  0  0
 17 43  1  0  0  0  0
 18 44  1  0  0  0  0
 18 45  1  0  0  0  0
 19 46  1  0  0  0  0
 19 47  1  0  0  0  0
 20 48  1  0  0  0  0
 20 49  1  0  0  0  0
 21 50  1  0  0  0  0
 21 51  1  0  0  0  0
 22 52  1  0  0  0  0
 23 53  1  0  0  0  0
 26 54  1  0  0  0  0
M  END
> <Catalog ID>
Z3756508410

> <MW>
391.463

> <MW (desalted)>
391.463

> <ClogP>
1.348

> <logS>
-4.563

> <HBD>
1

> <HBA>
4

> <TPSA>
71.53

> <RotBonds>
4

> <ROCS_ShapeQuery>
A71EV2A-x0451_0A_A71EV2A-x0310_0A_A71EV2A-x0416_0A_peptide

> <ROCS_TanimotoCombo>
0.531 

> <ROCS_ShapeTanimoto>
0.350 

> <ROCS_ColorTanimoto>
0.181 

> <ROCS_RefTversky>
0.319 

> <ROCS_RefColorTversky>
0.209 

> <ROCS_RefTverskyCombo>
0.528 

> <ROCS_FitTversky>
1.378 

> <ROCS_FitColorTversky>
0.578 

> <ROCS_FitTverskyCombo>
1.956 

> <ROCS_ColorScore>
-6.407

> <ROCS_Overlap>
2220.318

> <ROCS_Rank>
196                 

$$$$
untitled-dbase-2108_238
  -OEChem-11132309573D

 34 36  0     0  0  0  0  0  0999 V2000
   10.9325   13.5662   24.9914 C   0  0  0  0  0  0  0  0  0  0  0  0
   12.8913   15.6066   18.1571 C   0  0  0  0  0  0  0  0  0  0  0  0
   13.8106   16.5885   18.5264 C   0  0  0  0  0  0  0  0  0  0  0  0
   12.2409   14.8564   19.1368 C   0  0  0  0  0  0  0  0  0  0  0  0
   14.0796   16.8201   19.8753 C   0  0  0  0  0  0  0  0  0  0  0  0
   12.5099   15.0880   20.4858 C   0  0  0  0  0  0  0  0  0  0  0  0
   13.4293   16.0698   20.8551 C   0  0  0  0  0  0  0  0  0  0  0  0
    9.3031   11.6458   23.4551 C   0  0  0  0  0  0  0  0  0  0  0  0
    9.3614   10.2800   23.3065 C   0  0  0  0  0  0  0  0  0  0  0  0
    7.7767   10.6223   24.6996 C   0  0  0  0  0  0  0  0  0  0  0  0
    6.6971   10.6032   25.6310 C   0  0  0  0  0  0  0  0  0  0  0  0
    6.2223   11.7626   26.1258 C   0  0  0  0  0  0  0  0  0  0  0  0
    6.7848   13.0449   25.7330 C   0  0  0  0  0  0  0  0  0  0  0  0
    7.8015   13.0712   24.8560 C   0  0  0  0  0  0  0  0  0  0  0  0
   10.0330   12.7130   22.9020 C   0  0  0  0  0  0  0  0  0  0  0  0
   10.8070   13.6488   23.5712 C   0  0  0  0  0  0  0  0  0  0  0  0
   11.5150   14.7207   22.7703 C   0  0  0  0  0  0  0  0  0  0  0  0
   11.0382   13.5026   26.1454 N   0  0  0  0  0  0  0  0  0  0  0  0
    8.4158    9.6526   24.0775 N   0  0  0  0  0  0  0  0  0  0  0  0
    8.2873   11.8693   24.3487 N   0  0  0  0  0  0  0  0  0  0  0  0
   11.8469   14.3238   21.4796 N   0  0  0  0  0  0  0  0  0  0  0  0
   11.7477   15.8182   23.2709 O   0  0  0  0  0  0  0  0  0  0  0  0
   13.6958   16.3013   22.1486 F   0  0  0  0  0  0  0  0  0  0  0  0
   10.4373    9.4035   22.3152 Cl  0  0  0  0  0  0  0  0  0  0  0  0
   12.6829   15.4261   17.1067 H   0  0  0  0  0  0  0  0  0  0  0  0
   14.3175   17.1724   17.7637 H   0  0  0  0  0  0  0  0  0  0  0  0
   11.5267   14.0937   18.8370 H   0  0  0  0  0  0  0  0  0  0  0  0
   14.7953   17.5843   20.1627 H   0  0  0  0  0  0  0  0  0  0  0  0
    6.2689    9.6532   25.9307 H   0  0  0  0  0  0  0  0  0  0  0  0
    5.4022   11.7681   26.8356 H   0  0  0  0  0  0  0  0  0  0  0  0
    6.3700   13.9514   26.1569 H   0  0  0  0  0  0  0  0  0  0  0  0
    8.2553   13.9993   24.5305 H   0  0  0  0  0  0  0  0  0  0  0  0
   10.0003   12.8100   21.7917 H   0  0  0  0  0  0  0  0  0  0  0  0
   11.5841   13.3772   21.2184 H   0  0  0  0  0  0  0  0  0  0  0  0
  1 16  1  0  0  0  0
  1 18  3  0  0  0  0
  2  3  1  0  0  0  0
  2  4  2  0  0  0  0
  3  5  2  0  0  0  0
  4  6  1  0  0  0  0
  5  7  1  0  0  0  0
  6  7  2  0  0  0  0
  6 21  1  0  0  0  0
  7 23  1  0  0  0  0
  8  9  2  0  0  0  0
  8 15  1  4  0  0  0
  8 20  1  0  0  0  0
  9 19  1  0  0  0  0
  9 24  1  0  0  0  0
 10 11  1  0  0  0  0
 10 19  2  0  0  0  0
 10 20  1  0  0  0  0
 11 12  2  0  0  0  0
 12 13  1  0  0  0  0
 13 14  2  0  0  0  0
 14 20  1  0  0  0  0
 15 16  2  0  0  0  0
 16 17  1  0  0  0  0
 17 21  1  0  0  0  0
 17 22  2  0  0  0  0
  2 25  1  0  0  0  0
  3 26  1  0  0  0  0
  4 27  1  0  0  0  0
  5 28  1  0  0  0  0
 11 29  1  0  0  0  0
 12 30  1  0  0  0  0
 13 31  1  0  0  0  0
 14 32  1  0  0  0  0
 15 33  1  0  0  0  0
 21 34  1  0  0  0  0
M  END
> <Catalog ID>
Z46076621

> <MW>
340.739

> <MW (desalted)>
340.739

> <ClogP>
2.792

> <logS>
-5.67

> <HBD>
1

> <HBA>
3

> <TPSA>
70.19

> <RotBonds>
3

> <ROCS_ShapeQuery>
A71EV2A-x0451_0A_A71EV2A-x0310_0A_A71EV2A-x0416_0A_peptide

> <ROCS_TanimotoCombo>
0.531 

> <ROCS_ShapeTanimoto>
0.373 

> <ROCS_ColorTanimoto>
0.158 

> <ROCS_RefTversky>
0.327 

> <ROCS_RefColorTversky>
0.178 

> <ROCS_RefTverskyCombo>
0.504 

> <ROCS_FitTversky>
1.613 

> <ROCS_FitColorTversky>
0.589 

> <ROCS_FitTverskyCombo>
2.202 

> <ROCS_ColorScore>
-5.423

> <ROCS_Overlap>
2270.534

> <ROCS_Rank>
197                 

$$$$
untitled-dbase-9273_410
  -OEChem-11132309573D

 46 48  0     0  0  0  0  0  0999 V2000
    9.1903    9.0423   24.3794 C   0  0  0  0  0  0  0  0  0  0  0  0
   13.0448   17.1143   23.0471 C   0  0  0  0  0  0  0  0  0  0  0  0
    8.0725    9.4354   25.1152 C   0  0  0  0  0  0  0  0  0  0  0  0
   13.5677   17.5619   21.8339 C   0  0  0  0  0  0  0  0  0  0  0  0
    9.8592    9.9669   23.5815 C   0  0  0  0  0  0  0  0  0  0  0  0
   12.3134   15.9276   23.0959 C   0  0  0  0  0  0  0  0  0  0  0  0
   12.6276   15.6362   20.7182 C   0  0  0  0  0  0  0  0  0  0  0  0
    7.6092   10.7576   25.0557 C   0  0  0  0  0  0  0  0  0  0  0  0
    8.2770   11.6842   24.2377 C   0  0  0  0  0  0  0  0  0  0  0  0
   13.3591   16.8229   20.6695 C   0  0  0  0  0  0  0  0  0  0  0  0
   12.1048   15.1885   21.9314 C   0  0  0  0  0  0  0  0  0  0  0  0
    9.4080   11.2845   23.5136 C   0  0  0  0  0  0  0  0  0  0  0  0
    4.4789   13.1606   28.9573 C   0  0  0  0  0  0  0  0  0  0  0  0
    4.7055   12.4889   27.8264 C   0  0  0  0  0  0  0  0  0  0  0  0
    5.1619   13.2326   26.6336 C   0  0  0  0  0  0  0  0  0  0  0  0
   10.7670   13.3826   23.1010 C   0  0  0  0  0  0  0  0  0  0  0  0
    7.8054   13.1112   24.1780 C   0  0  0  0  0  0  0  0  0  0  0  0
    6.4107   11.1540   25.8834 C   0  0  0  0  0  0  0  0  0  0  0  0
    6.3101   13.1966   24.4550 C   0  0  0  0  0  0  0  0  0  0  0  0
   13.9183   17.3019   19.3727 C   0  0  0  0  0  0  0  0  0  0  0  0
    5.9747   12.5519   25.7256 N   0  0  0  0  0  0  0  0  0  0  0  0
   11.3634   13.9845   21.9814 N   0  0  0  0  0  0  0  0  0  0  0  0
   10.1197   12.1856   22.7156 N   0  0  0  0  0  0  0  0  0  0  0  0
    4.7924   14.4011   26.5099 O   0  0  0  0  0  0  0  0  0  0  0  0
   10.7992   13.8241   24.2452 O   0  0  0  0  0  0  0  0  0  0  0  0
    9.5421    8.0162   24.4339 H   0  0  0  0  0  0  0  0  0  0  0  0
   13.2076   17.6895   23.9539 H   0  0  0  0  0  0  0  0  0  0  0  0
    7.5655    8.7054   25.7415 H   0  0  0  0  0  0  0  0  0  0  0  0
   14.1355   18.4878   21.8059 H   0  0  0  0  0  0  0  0  0  0  0  0
   10.7342    9.6496   23.0196 H   0  0  0  0  0  0  0  0  0  0  0  0
   11.9105   15.5884   24.0469 H   0  0  0  0  0  0  0  0  0  0  0  0
   12.4656   15.0619   19.8086 H   0  0  0  0  0  0  0  0  0  0  0  0
    4.1429   12.6705   29.8649 H   0  0  0  0  0  0  0  0  0  0  0  0
    4.6298   14.2344   28.9920 H   0  0  0  0  0  0  0  0  0  0  0  0
    4.5667   11.4182   27.7527 H   0  0  0  0  0  0  0  0  0  0  0  0
    8.3635   13.7056   24.9113 H   0  0  0  0  0  0  0  0  0  0  0  0
    7.9851   13.5426   23.1868 H   0  0  0  0  0  0  0  0  0  0  0  0
    5.5556   10.5250   25.6090 H   0  0  0  0  0  0  0  0  0  0  0  0
    6.6542   10.9794   26.9367 H   0  0  0  0  0  0  0  0  0  0  0  0
    5.9934   14.2445   24.4524 H   0  0  0  0  0  0  0  0  0  0  0  0
    5.7365   12.6826   23.6730 H   0  0  0  0  0  0  0  0  0  0  0  0
   14.9268   16.8986   19.2192 H   0  0  0  0  0  0  0  0  0  0  0  0
   13.2881   16.9932   18.5285 H   0  0  0  0  0  0  0  0  0  0  0  0
   13.9738   18.3980   19.3432 H   0  0  0  0  0  0  0  0  0  0  0  0
   11.2482   13.4947   21.0977 H   0  0  0  0  0  0  0  0  0  0  0  0
   10.1870   11.9567   21.7196 H   0  0  0  0  0  0  0  0  0  0  0  0
  1  3  1  0  0  0  0
  1  5  2  0  0  0  0
  2  4  2  0  0  0  0
  2  6  1  0  0  0  0
  3  8  2  0  0  0  0
  4 10  1  0  0  0  0
  5 12  1  0  0  0  0
  6 11  2  0  0  0  0
  7 10  2  0  0  0  0
  7 11  1  0  0  0  0
  8  9  1  0  0  0  0
  8 18  1  0  0  0  0
  9 12  2  0  0  0  0
  9 17  1  0  0  0  0
 10 20  1  0  0  0  0
 11 22  1  0  0  0  0
 12 23  1  0  0  0  0
 13 14  2  0  0  0  0
 14 15  1  0  0  0  0
 15 21  1  0  0  0  0
 15 24  2  0  0  0  0
 16 22  1  0  0  0  0
 16 23  1  0  0  0  0
 16 25  2  0  0  0  0
 17 19  1  0  0  0  0
 18 21  1  0  0  0  0
 19 21  1  0  0  0  0
  1 26  1  0  0  0  0
  2 27  1  0  0  0  0
  3 28  1  0  0  0  0
  4 29  1  0  0  0  0
  5 30  1  0  0  0  0
  6 31  1  0  0  0  0
  7 32  1  0  0  0  0
 13 33  1  0  0  0  0
 13 34  1  0  0  0  0
 14 35  1  0  0  0  0
 17 36  1  0  0  0  0
 17 37  1  0  0  0  0
 18 38  1  0  0  0  0
 18 39  1  0  0  0  0
 19 40  1  0  0  0  0
 19 41  1  0  0  0  0
 20 42  1  0  0  0  0
 20 43  1  0  0  0  0
 20 44  1  0  0  0  0
 22 45  1  0  0  0  0
 23 46  1  0  0  0  0
M  END
> <Catalog ID>
Z3766086476

> <MW>
335.4

> <MW (desalted)>
335.4

> <ClogP>
2.753

> <logS>
-4.991

> <HBD>
2

> <HBA>
2

> <TPSA>
61.44

> <RotBonds>
3

> <ROCS_ShapeQuery>
A71EV2A-x0451_0A_A71EV2A-x0310_0A_A71EV2A-x0416_0A_peptide

> <ROCS_TanimotoCombo>
0.531 

> <ROCS_ShapeTanimoto>
0.360 

> <ROCS_ColorTanimoto>
0.171 

> <ROCS_RefTversky>
0.319 

> <ROCS_RefColorTversky>
0.190 

> <ROCS_RefTverskyCombo>
0.509 

> <ROCS_FitTversky>
1.549 

> <ROCS_FitColorTversky>
0.629 

> <ROCS_FitTverskyCombo>
2.178 

> <ROCS_ColorScore>
-5.790

> <ROCS_Overlap>
2221.191

> <ROCS_Rank>
198                 

$$$$
untitled-dbase-11529_1400
  -OEChem-11132309573D

 42 43  0     1  0  0  0  0  0999 V2000
    8.1977   12.7906   25.5022 C   0  0  0  0  0  0  0  0  0  0  0  0
    6.9205   12.9152   26.0498 C   0  0  0  0  0  0  0  0  0  0  0  0
    6.3369   10.7410   25.1812 C   0  0  0  0  0  0  0  0  0  0  0  0
    8.5592   11.6390   24.7863 C   0  0  0  0  0  0  0  0  0  0  0  0
    7.6115   10.6190   24.6202 C   0  0  0  0  0  0  0  0  0  0  0  0
    5.9916   11.8898   25.8913 C   0  0  0  0  0  0  0  0  0  0  0  0
   15.2273   11.7204   23.2924 C   0  0  0  0  0  0  0  0  0  0  0  0
   14.4801   12.2529   22.3206 C   0  0  0  0  0  0  0  0  0  0  0  0
   13.5767   13.3990   22.6079 C   0  0  0  0  0  0  0  0  0  0  0  0
   10.4888   13.7135   23.1820 C   0  0  0  0  0  0  0  0  0  0  0  0
   10.2298   10.0668   23.8100 C   0  0  0  0  0  0  0  0  0  0  0  0
    9.0170    9.4700   23.1090 C   0  0  0  0  0  0  0  0  0  0  0  0
    9.9472   11.5126   24.2159 C   0  0  1  0  0  0  0  0  0  0  0  0
    4.4618   13.2101   27.1451 C   0  0  0  0  0  0  0  0  0  0  0  0
   10.5568   14.3901   21.8246 C   0  0  0  0  0  0  0  0  0  0  0  0
   11.9513   14.9083   21.5008 C   0  0  0  0  0  0  0  0  0  0  0  0
   12.8870   13.8106   21.4788 N   0  0  0  0  0  0  0  0  0  0  0  0
   10.0918   12.3894   23.0717 N   0  0  0  0  0  0  0  0  0  0  0  0
   13.4796   13.8994   23.7238 O   0  0  0  0  0  0  0  0  0  0  0  0
   10.7584   14.2876   24.2335 O   0  0  0  0  0  0  0  0  0  0  0  0
    7.8635    9.4474   23.9540 O   0  0  0  0  0  0  0  0  0  0  0  0
    4.7476   12.0088   26.4303 O   0  0  0  0  0  0  0  0  0  0  0  0
    8.9142   13.5965   25.6423 H   0  0  0  0  0  0  0  0  0  0  0  0
    6.6584   13.8132   26.6026 H   0  0  0  0  0  0  0  0  0  0  0  0
    5.6100    9.9412   25.0611 H   0  0  0  0  0  0  0  0  0  0  0  0
   15.8831   10.8837   23.0753 H   0  0  0  0  0  0  0  0  0  0  0  0
   15.2119   12.0915   24.3113 H   0  0  0  0  0  0  0  0  0  0  0  0
   14.5255   11.8519   21.3139 H   0  0  0  0  0  0  0  0  0  0  0  0
   10.4320    9.4817   24.7173 H   0  0  0  0  0  0  0  0  0  0  0  0
   11.1231    9.9986   23.1788 H   0  0  0  0  0  0  0  0  0  0  0  0
    8.7723   10.0073   22.1849 H   0  0  0  0  0  0  0  0  0  0  0  0
    9.2320    8.4327   22.8309 H   0  0  0  0  0  0  0  0  0  0  0  0
   10.6869   11.8271   24.9474 H   0  0  0  0  0  0  0  0  0  0  0  0
    3.4368   13.1754   27.5224 H   0  0  0  0  0  0  0  0  0  0  0  0
    4.5882   14.0690   26.4813 H   0  0  0  0  0  0  0  0  0  0  0  0
    5.1543   13.2968   27.9858 H   0  0  0  0  0  0  0  0  0  0  0  0
   10.2377   13.6682   21.0626 H   0  0  0  0  0  0  0  0  0  0  0  0
    9.8365   15.2178   21.8145 H   0  0  0  0  0  0  0  0  0  0  0  0
   12.2721   15.6423   22.2479 H   0  0  0  0  0  0  0  0  0  0  0  0
   11.9590   15.4100   20.5272 H   0  0  0  0  0  0  0  0  0  0  0  0
   13.0568   13.3532   20.5864 H   0  0  0  0  0  0  0  0  0  0  0  0
    9.8937   12.0178   22.1477 H   0  0  0  0  0  0  0  0  0  0  0  0
  1  2  2  0  0  0  0
  1  4  1  0  0  0  0
  2  6  1  0  0  0  0
  3  5  1  0  0  0  0
  3  6  2  0  0  0  0
  4  5  2  0  0  0  0
  4 13  1  0  0  0  0
  5 21  1  0  0  0  0
  6 22  1  0  0  0  0
  7  8  2  0  0  0  0
  8  9  1  0  0  0  0
  9 17  1  0  0  0  0
  9 19  2  0  0  0  0
 10 15  1  0  0  0  0
 10 18  1  0  0  0  0
 10 20  2  0  0  0  0
 11 12  1  0  0  0  0
 11 13  1  0  0  0  0
 12 21  1  0  0  0  0
 13 18  1  0  0  0  0
 14 22  1  0  0  0  0
 15 16  1  0  0  0  0
 16 17  1  0  0  0  0
  1 23  1  0  0  0  0
  2 24  1  0  0  0  0
  3 25  1  0  0  0  0
  7 26  1  0  0  0  0
  7 27  1  0  0  0  0
  8 28  1  0  0  0  0
 11 29  1  0  0  0  0
 11 30  1  0  0  0  0
 12 31  1  0  0  0  0
 12 32  1  0  0  0  0
 13 33  1  0  0  0  0
 14 34  1  0  0  0  0
 14 35  1  0  0  0  0
 14 36  1  0  0  0  0
 15 37  1  0  0  0  0
 15 38  1  0  0  0  0
 16 39  1  0  0  0  0
 16 40  1  0  0  0  0
 17 41  1  0  0  0  0
 18 42  1  0  0  0  0
M  END
> <Catalog ID>
Z1479333050

> <MW>
304.341

> <MW (desalted)>
304.341

> <ClogP>
0.799

> <logS>
-2.914

> <HBD>
2

> <HBA>
4

> <TPSA>
76.66

> <RotBonds>
6

> <ROCS_ShapeQuery>
A71EV2A-x0451_0A_A71EV2A-x0310_0A_A71EV2A-x0416_0A_peptide

> <ROCS_TanimotoCombo>
0.531 

> <ROCS_ShapeTanimoto>
0.340 

> <ROCS_ColorTanimoto>
0.191 

> <ROCS_RefTversky>
0.300 

> <ROCS_RefColorTversky>
0.214 

> <ROCS_RefTverskyCombo>
0.514 

> <ROCS_FitTversky>
1.627 

> <ROCS_FitColorTversky>
0.645 

> <ROCS_FitTverskyCombo>
2.272 

> <ROCS_ColorScore>
-6.537

> <ROCS_Overlap>
2085.176

> <ROCS_Rank>
199                 

$$$$
untitled-dbase-5267_39
  -OEChem-11132309573D

 30 31  0     1  0  0  0  0  0999 V2000
    8.4745   12.4408   24.2152 C   0  0  0  0  0  0  0  0  0  0  0  0
    6.3638    9.9631   25.6365 C   0  0  0  0  0  0  0  0  0  0  0  0
    7.4538   10.3259   24.8257 C   0  0  0  0  0  0  0  0  0  0  0  0
    7.5080   11.7104   24.8999 C   0  0  0  0  0  0  0  0  0  0  0  0
    9.3733   11.6926   23.4589 C   0  0  0  0  0  0  0  0  0  0  0  0
    9.2520   10.3073   23.4365 C   0  0  0  0  0  0  0  0  0  0  0  0
   10.9903   13.5466   23.1013 C   0  0  0  0  0  0  0  0  0  0  0  0
   11.4833   14.8915   21.0163 C   0  0  0  0  0  0  0  0  0  0  0  0
    6.1097   13.4041   26.1201 C   0  0  0  0  0  0  0  0  0  0  0  0
   10.2152    9.4966   22.6253 C   0  0  0  0  0  0  0  0  0  0  0  0
   12.0407   13.9530   22.0749 C   0  0  1  0  0  0  0  0  0  0  0  0
    5.7639   11.0222   26.1880 N   0  0  0  0  0  0  0  0  0  0  0  0
    8.3186    9.5810   24.0960 N   0  0  0  0  0  0  0  0  0  0  0  0
    6.4780   12.0647   25.7242 N   0  0  0  0  0  0  0  0  0  0  0  0
   10.3774   12.3486   22.7441 N   0  0  0  0  0  0  0  0  0  0  0  0
   10.7778   14.2289   24.0993 O   0  0  0  0  0  0  0  0  0  0  0  0
    9.9475    8.1723   22.7497 F   0  0  0  0  0  0  0  0  0  0  0  0
   11.4844    9.6813   23.0676 F   0  0  0  0  0  0  0  0  0  0  0  0
   13.3471   14.7703   22.9739 Cl  0  0  0  0  0  0  0  0  0  0  0  0
    8.5219   13.5227   24.2698 H   0  0  0  0  0  0  0  0  0  0  0  0
    5.9794    8.9760   25.8501 H   0  0  0  0  0  0  0  0  0  0  0  0
   11.0505   15.7871   21.4745 H   0  0  0  0  0  0  0  0  0  0  0  0
   10.7064   14.4110   20.4111 H   0  0  0  0  0  0  0  0  0  0  0  0
   12.2772   15.2132   20.3337 H   0  0  0  0  0  0  0  0  0  0  0  0
    5.3899   13.7854   25.3911 H   0  0  0  0  0  0  0  0  0  0  0  0
    5.6655   13.3794   27.1191 H   0  0  0  0  0  0  0  0  0  0  0  0
    7.0039   14.0334   26.1413 H   0  0  0  0  0  0  0  0  0  0  0  0
   10.1822    9.7532   21.5672 H   0  0  0  0  0  0  0  0  0  0  0  0
   12.4670   13.0669   21.5934 H   0  0  0  0  0  0  0  0  0  0  0  0
   10.6848   11.8906   21.8887 H   0  0  0  0  0  0  0  0  0  0  0  0
  1  4  2  0  0  0  0
  1  5  1  0  0  0  0
  2  3  1  0  0  0  0
  2 12  2  0  0  0  0
  3  4  1  0  0  0  0
  3 13  2  0  0  0  0
  4 14  1  0  0  0  0
  5  6  2  0  0  0  0
  5 15  1  0  0  0  0
  6 10  1  0  0  0  0
  6 13  1  0  0  0  0
  7 11  1  0  0  0  0
  7 15  1  0  0  0  0
  7 16  2  0  0  0  0
  8 11  1  0  0  0  0
  9 14  1  0  0  0  0
 10 17  1  0  0  0  0
 10 18  1  0  0  0  0
 11 19  1  0  0  0  0
 12 14  1  0  0  0  0
  1 20  1  0  0  0  0
  2 21  1  0  0  0  0
  8 22  1  0  0  0  0
  8 23  1  0  0  0  0
  8 24  1  0  0  0  0
  9 25  1  0  0  0  0
  9 26  1  0  0  0  0
  9 27  1  0  0  0  0
 10 28  1  0  0  0  0
 11 29  1  0  0  0  0
 15 30  1  0  0  0  0
M  END
> <Catalog ID>
Z3775078747

> <MW>
288.681

> <MW (desalted)>
288.681

> <ClogP>
1.277

> <logS>
-2.278

> <HBD>
1

> <HBA>
3

> <TPSA>
59.81

> <RotBonds>
3

> <ROCS_ShapeQuery>
A71EV2A-x0451_0A_A71EV2A-x0310_0A_A71EV2A-x0416_0A_peptide

> <ROCS_TanimotoCombo>
0.531 

> <ROCS_ShapeTanimoto>
0.356 

> <ROCS_ColorTanimoto>
0.175 

> <ROCS_RefTversky>
0.307 

> <ROCS_RefColorTversky>
0.185 

> <ROCS_RefTverskyCombo>
0.492 

> <ROCS_FitTversky>
1.802 

> <ROCS_FitColorTversky>
0.770 

> <ROCS_FitTverskyCombo>
2.572 

> <ROCS_ColorScore>
-5.625

> <ROCS_Overlap>
2130.288

> <ROCS_Rank>
200                 

$$$$
untitled-dbase-6562_571
  -OEChem-11132309573D

 39 41  0     0  0  0  0  0  0999 V2000
   13.7035   15.6906   18.0564 C   0  0  0  0  0  0  0  0  0  0  0  0
   14.2122   16.8496   18.6429 C   0  0  0  0  0  0  0  0  0  0  0  0
   12.9037   14.8267   18.8009 C   0  0  0  0  0  0  0  0  0  0  0  0
   13.9220   17.1481   19.9771 C   0  0  0  0  0  0  0  0  0  0  0  0
    9.4724   10.4725   22.9479 C   0  0  0  0  0  0  0  0  0  0  0  0
    8.6626    9.5092   23.5495 C   0  0  0  0  0  0  0  0  0  0  0  0
    8.5251   12.1670   24.3861 C   0  0  0  0  0  0  0  0  0  0  0  0
   12.6237   15.1395   20.1318 C   0  0  0  0  0  0  0  0  0  0  0  0
   13.1202   16.2911   20.7394 C   0  0  0  0  0  0  0  0  0  0  0  0
    9.4037   11.8014   23.3663 C   0  0  0  0  0  0  0  0  0  0  0  0
    7.7152   11.2037   24.9876 C   0  0  0  0  0  0  0  0  0  0  0  0
    7.7840    9.8748   24.5693 C   0  0  0  0  0  0  0  0  0  0  0  0
   11.7913   14.2754   20.9671 C   0  0  0  0  0  0  0  0  0  0  0  0
   11.5528   14.7086   22.3865 C   0  0  0  0  0  0  0  0  0  0  0  0
    5.5565   13.6610   28.4045 C   0  0  0  0  0  0  0  0  0  0  0  0
    5.3322   12.7985   27.4083 C   0  0  0  0  0  0  0  0  0  0  0  0
   10.7243   13.9233   23.3443 C   0  0  0  0  0  0  0  0  0  0  0  0
    6.1947   12.8039   26.1911 C   0  0  0  0  0  0  0  0  0  0  0  0
   12.0583   15.8012   22.8676 N   0  0  0  0  0  0  0  0  0  0  0  0
   12.8252   16.5822   22.0747 N   0  0  0  0  0  0  0  0  0  0  0  0
   10.2260   12.7793   22.7553 N   0  0  0  0  0  0  0  0  0  0  0  0
    6.8373   11.5718   26.0078 N   0  0  0  0  0  0  0  0  0  0  0  0
   11.2905   13.2371   20.5717 O   0  0  0  0  0  0  0  0  0  0  0  0
   10.5808   14.3438   24.4794 O   0  0  0  0  0  0  0  0  0  0  0  0
    6.2858   13.7986   25.4814 O   0  0  0  0  0  0  0  0  0  0  0  0
    7.0103    8.9405   25.1397 F   0  0  0  0  0  0  0  0  0  0  0  0
   13.9313   15.4627   17.0192 H   0  0  0  0  0  0  0  0  0  0  0  0
   14.8359   17.5225   18.0614 H   0  0  0  0  0  0  0  0  0  0  0  0
   12.5114   13.9268   18.3369 H   0  0  0  0  0  0  0  0  0  0  0  0
   14.3279   18.0564   20.4164 H   0  0  0  0  0  0  0  0  0  0  0  0
   10.1533   10.1759   22.1540 H   0  0  0  0  0  0  0  0  0  0  0  0
    8.7161    8.4744   23.2245 H   0  0  0  0  0  0  0  0  0  0  0  0
    8.4718   13.2041   24.7120 H   0  0  0  0  0  0  0  0  0  0  0  0
    4.9511   13.6866   29.3036 H   0  0  0  0  0  0  0  0  0  0  0  0
    6.3717   14.3734   28.3318 H   0  0  0  0  0  0  0  0  0  0  0  0
    4.5177   12.0859   27.4803 H   0  0  0  0  0  0  0  0  0  0  0  0
   13.2088   17.4310   22.4741 H   0  0  0  0  0  0  0  0  0  0  0  0
   10.4598   12.5968   21.7814 H   0  0  0  0  0  0  0  0  0  0  0  0
    6.6373   10.8508   26.7115 H   0  0  0  0  0  0  0  0  0  0  0  0
  1  2  1  0  0  0  0
  1  3  2  0  0  0  0
  2  4  2  0  0  0  0
  3  8  1  0  0  0  0
  4  9  1  0  0  0  0
  5  6  2  0  0  0  0
  5 10  1  0  0  0  0
  6 12  1  0  0  0  0
  7 10  2  0  0  0  0
  7 11  1  0  0  0  0
  8  9  2  0  0  0  0
  8 13  1  0  0  0  0
  9 20  1  0  0  0  0
 10 21  1  0  0  0  0
 11 12  2  0  0  0  0
 11 22  1  0  0  0  0
 12 26  1  0  0  0  0
 13 14  1  0  0  0  0
 13 23  2  0  0  0  0
 14 17  1  0  0  0  0
 14 19  2  0  0  0  0
 15 16  2  0  0  0  0
 16 18  1  0  0  0  0
 17 21  1  0  0  0  0
 17 24  2  0  0  0  0
 18 22  1  0  0  0  0
 18 25  2  0  0  0  0
 19 20  1  0  0  0  0
  1 27  1  0  0  0  0
  2 28  1  0  0  0  0
  3 29  1  0  0  0  0
  4 30  1  0  0  0  0
  5 31  1  0  0  0  0
  6 32  1  0  0  0  0
  7 33  1  0  0  0  0
 15 34  1  0  0  0  0
 15 35  1  0  0  0  0
 16 36  1  0  0  0  0
 20 37  1  0  0  0  0
 21 38  1  0  0  0  0
 22 39  1  0  0  0  0
M  END
> <Catalog ID>
Z1410268677

> <MW>
352.319

> <MW (desalted)>
352.319

> <ClogP>
1.478

> <logS>
-5.174

> <HBD>
3

> <HBA>
5

> <TPSA>
99.66

> <RotBonds>
4

> <ROCS_ShapeQuery>
A71EV2A-x0451_0A_A71EV2A-x0310_0A_A71EV2A-x0416_0A_peptide

> <ROCS_TanimotoCombo>
0.531 

> <ROCS_ShapeTanimoto>
0.374 

> <ROCS_ColorTanimoto>
0.157 

> <ROCS_RefTversky>
0.331 

> <ROCS_RefColorTversky>
0.189 

> <ROCS_RefTverskyCombo>
0.520 

> <ROCS_FitTversky>
1.531 

> <ROCS_FitColorTversky>
0.482 

> <ROCS_FitTverskyCombo>
2.013 

> <ROCS_ColorScore>
-5.801

> <ROCS_Overlap>
2300.083

> <ROCS_Rank>
201                 

$$$$
untitled-dbase-7065_1245
  -OEChem-11132309573D

 53 56  0     0  0  0  0  0  0999 V2000
    8.0900    9.3755   24.4015 C   0  0  0  0  0  0  0  0  0  0  0  0
    7.2656   10.0331   25.3145 C   0  0  0  0  0  0  0  0  0  0  0  0
    8.9727   10.1065   23.6066 C   0  0  0  0  0  0  0  0  0  0  0  0
    8.2066   12.1528   24.6375 C   0  0  0  0  0  0  0  0  0  0  0  0
    7.3238   11.4217   25.4325 C   0  0  0  0  0  0  0  0  0  0  0  0
    9.0310   11.4952   23.7245 C   0  0  0  0  0  0  0  0  0  0  0  0
   13.1318   14.9475   23.3912 C   0  0  0  0  0  0  0  0  0  0  0  0
   14.3912   14.1076   24.8012 C   0  0  0  0  0  0  0  0  0  0  0  0
    5.9538   13.3072   26.3374 C   0  0  0  0  0  0  0  0  0  0  0  0
   10.5570   13.4451   23.2245 C   0  0  0  0  0  0  0  0  0  0  0  0
    5.2976   13.0276   27.7027 C   0  0  0  0  0  0  0  0  0  0  0  0
   10.0757   16.5847   20.0401 C   0  0  0  0  0  0  0  0  0  0  0  0
   11.0769   15.7121   19.2944 C   0  0  0  0  0  0  0  0  0  0  0  0
    9.8927   16.2436   21.5116 C   0  0  0  0  0  0  0  0  0  0  0  0
   12.5133   15.9845   19.7158 C   0  0  0  0  0  0  0  0  0  0  0  0
   11.1680   16.2649   22.3654 C   0  0  0  0  0  0  0  0  0  0  0  0
   13.0241   15.1652   20.8998 C   0  0  0  0  0  0  0  0  0  0  0  0
    5.9689   11.6422   27.6162 C   0  0  0  0  0  0  0  0  0  0  0  0
   12.1521   15.0755   22.1833 C   0  0  0  0  0  0  0  0  0  0  0  0
   15.2309   13.2819   25.6796 C   0  0  0  0  0  0  0  0  0  0  0  0
   13.6463   13.7472   23.7868 N   0  0  0  0  0  0  0  0  0  0  0  0
   13.5205   16.0093   24.1034 N   0  0  0  0  0  0  0  0  0  0  0  0
    6.4992   12.0788   26.3463 N   0  0  0  0  0  0  0  0  0  0  0  0
    9.9264   12.2359   22.9182 N   0  0  0  0  0  0  0  0  0  0  0  0
   11.3631   13.8455   22.1598 N   0  0  0  0  0  0  0  0  0  0  0  0
    5.9857   14.2325   25.5591 O   0  0  0  0  0  0  0  0  0  0  0  0
   10.4427   14.0877   24.2655 O   0  0  0  0  0  0  0  0  0  0  0  0
   14.3732   15.4417   25.0586 O   0  0  0  0  0  0  0  0  0  0  0  0
    8.0454    8.2942   24.3104 H   0  0  0  0  0  0  0  0  0  0  0  0
    6.5810    9.4528   25.9281 H   0  0  0  0  0  0  0  0  0  0  0  0
    9.6096    9.5829   22.8980 H   0  0  0  0  0  0  0  0  0  0  0  0
    8.2518   13.2361   24.7293 H   0  0  0  0  0  0  0  0  0  0  0  0
    5.6581   13.6730   28.5074 H   0  0  0  0  0  0  0  0  0  0  0  0
    4.2053   13.0216   27.6764 H   0  0  0  0  0  0  0  0  0  0  0  0
   10.3657   17.6387   19.9372 H   0  0  0  0  0  0  0  0  0  0  0  0
    9.1047   16.4889   19.5366 H   0  0  0  0  0  0  0  0  0  0  0  0
   10.8337   14.6638   19.4470 H   0  0  0  0  0  0  0  0  0  0  0  0
   10.9789   15.9178   18.2307 H   0  0  0  0  0  0  0  0  0  0  0  0
    9.2018   17.0002   21.9370 H   0  0  0  0  0  0  0  0  0  0  0  0
    9.3563   15.2791   21.6296 H   0  0  0  0  0  0  0  0  0  0  0  0
   13.1569   15.7418   18.8437 H   0  0  0  0  0  0  0  0  0  0  0  0
   12.6744   17.0713   19.8832 H   0  0  0  0  0  0  0  0  0  0  0  0
   11.6948   17.2188   22.1951 H   0  0  0  0  0  0  0  0  0  0  0  0
   10.8700   16.3145   23.4265 H   0  0  0  0  0  0  0  0  0  0  0  0
   13.2500   14.1383   20.5387 H   0  0  0  0  0  0  0  0  0  0  0  0
   14.0211   15.5679   21.1832 H   0  0  0  0  0  0  0  0  0  0  0  0
    6.7375   11.4476   28.3693 H   0  0  0  0  0  0  0  0  0  0  0  0
    5.2825   10.7947   27.5368 H   0  0  0  0  0  0  0  0  0  0  0  0
   16.2597   13.1912   25.2869 H   0  0  0  0  0  0  0  0  0  0  0  0
   15.3043   13.6961   26.7024 H   0  0  0  0  0  0  0  0  0  0  0  0
   14.8329   12.2570   25.8002 H   0  0  0  0  0  0  0  0  0  0  0  0
   10.1338   11.8359   22.0065 H   0  0  0  0  0  0  0  0  0  0  0  0
   11.4037   13.2600   21.3363 H   0  0  0  0  0  0  0  0  0  0  0  0
  1  2  1  0  0  0  0
  1  3  2  0  0  0  0
  2  5  2  0  0  0  0
  3  6  1  0  0  0  0
  4  5  1  0  0  0  0
  4  6  2  0  0  0  0
  5 23  1  0  0  0  0
  6 24  1  0  0  0  0
  7 19  1  0  0  0  0
  7 21  1  0  0  0  0
  7 22  2  0  0  0  0
  8 20  1  0  0  0  0
  8 21  2  0  0  0  0
  8 28  1  0  0  0  0
  9 11  1  0  0  0  0
  9 23  1  0  0  0  0
  9 26  2  0  0  0  0
 10 24  1  0  0  0  0
 10 25  1  0  0  0  0
 10 27  2  0  0  0  0
 11 18  1  0  0  0  0
 12 13  1  0  0  0  0
 12 14  1  0  0  0  0
 13 15  1  0  0  0  0
 14 16  1  0  0  0  0
 15 17  1  0  0  0  0
 16 19  1  0  0  0  0
 17 19  1  0  0  0  0
 18 23  1  0  0  0  0
 19 25  1  0  0  0  0
 22 28  1  0  0  0  0
  1 29  1  0  0  0  0
  2 30  1  0  0  0  0
  3 31  1  0  0  0  0
  4 32  1  0  0  0  0
 11 33  1  0  0  0  0
 11 34  1  0  0  0  0
 12 35  1  0  0  0  0
 12 36  1  0  0  0  0
 13 37  1  0  0  0  0
 13 38  1  0  0  0  0
 14 39  1  0  0  0  0
 14 40  1  0  0  0  0
 15 41  1  0  0  0  0
 15 42  1  0  0  0  0
 16 43  1  0  0  0  0
 16 44  1  0  0  0  0
 17 45  1  0  0  0  0
 17 46  1  0  0  0  0
 18 47  1  0  0  0  0
 18 48  1  0  0  0  0
 20 49  1  0  0  0  0
 20 50  1  0  0  0  0
 20 51  1  0  0  0  0
 24 52  1  0  0  0  0
 25 53  1  0  0  0  0
M  END
> <Catalog ID>
Z1931382735

> <MW>
383.444

> <MW (desalted)>
383.444

> <ClogP>
2.471

> <logS>
-4.595

> <HBD>
2

> <HBA>
4

> <TPSA>
100.36

> <RotBonds>
4

> <ROCS_ShapeQuery>
A71EV2A-x0451_0A_A71EV2A-x0310_0A_A71EV2A-x0416_0A_peptide

> <ROCS_TanimotoCombo>
0.531 

> <ROCS_ShapeTanimoto>
0.360 

> <ROCS_ColorTanimoto>
0.171 

> <ROCS_RefTversky>
0.325 

> <ROCS_RefColorTversky>
0.199 

> <ROCS_RefTverskyCombo>
0.523 

> <ROCS_FitTversky>
1.435 

> <ROCS_FitColorTversky>
0.547 

> <ROCS_FitTverskyCombo>
1.983 

> <ROCS_ColorScore>
-6.079

> <ROCS_Overlap>
2259.824

> <ROCS_Rank>
202                 

$$$$
untitled-dbase-9856_7556
  -OEChem-11132309573D

 52 54  0     0  0  0  0  0  0999 V2000
   13.2432   13.9111   22.9079 C   0  0  0  0  0  0  0  0  0  0  0  0
    8.1929    9.6311   24.3599 C   0  0  0  0  0  0  0  0  0  0  0  0
   13.0919   16.5961   20.5345 C   0  0  0  0  0  0  0  0  0  0  0  0
   13.0121   14.5009   19.3343 C   0  0  0  0  0  0  0  0  0  0  0  0
   14.0245   17.0847   19.6196 C   0  0  0  0  0  0  0  0  0  0  0  0
   13.9448   14.9895   18.4193 C   0  0  0  0  0  0  0  0  0  0  0  0
    9.2455   10.3218   23.7595 C   0  0  0  0  0  0  0  0  0  0  0  0
    7.1009   10.3319   24.8720 C   0  0  0  0  0  0  0  0  0  0  0  0
    8.1144   12.4142   24.1833 C   0  0  0  0  0  0  0  0  0  0  0  0
   12.5857   15.3042   20.3919 C   0  0  0  0  0  0  0  0  0  0  0  0
   14.4510   16.2814   18.5620 C   0  0  0  0  0  0  0  0  0  0  0  0
    9.2063   11.7133   23.6712 C   0  0  0  0  0  0  0  0  0  0  0  0
    7.0617   11.7235   24.7837 C   0  0  0  0  0  0  0  0  0  0  0  0
   11.6021   14.7885   21.3569 C   0  0  0  0  0  0  0  0  0  0  0  0
   11.8933   14.1441   22.5043 C   0  0  0  0  0  0  0  0  0  0  0  0
   10.7207   13.7005   23.3527 C   0  0  0  0  0  0  0  0  0  0  0  0
    4.8292   12.6191   29.3827 C   0  0  0  0  0  0  0  0  0  0  0  0
    6.2263   12.4128   28.8008 C   0  0  0  0  0  0  0  0  0  0  0  0
    3.7979   12.8337   28.2765 C   0  0  0  0  0  0  0  0  0  0  0  0
    6.2344   11.2959   27.7633 C   0  0  0  0  0  0  0  0  0  0  0  0
    3.8474   11.7095   27.2480 C   0  0  0  0  0  0  0  0  0  0  0  0
   15.4464   16.8053   17.5829 C   0  0  0  0  0  0  0  0  0  0  0  0
   14.3386   13.7202   23.2404 N   0  0  0  0  0  0  0  0  0  0  0  0
    5.2248   11.5617   26.7011 N   0  0  0  0  0  0  0  0  0  0  0  0
   10.2589   12.4042   23.0704 N   0  0  0  0  0  0  0  0  0  0  0  0
   10.2493   14.4521   24.2024 O   0  0  0  0  0  0  0  0  0  0  0  0
    6.1732   13.8468   25.9983 O   0  0  0  0  0  0  0  0  0  0  0  0
    4.6385   12.6102   24.4288 O   0  0  0  0  0  0  0  0  0  0  0  0
   15.8520   18.0832   17.8449 F   0  0  0  0  0  0  0  0  0  0  0  0
   16.5969   16.0712   17.5269 F   0  0  0  0  0  0  0  0  0  0  0  0
   14.9648   16.8289   16.3060 F   0  0  0  0  0  0  0  0  0  0  0  0
    5.6802   12.6098   25.4328 S   0  0  0  0  0  0  0  0  0  0  0  0
    8.2229    8.5476   24.4283 H   0  0  0  0  0  0  0  0  0  0  0  0
   12.7693   17.2340   21.3539 H   0  0  0  0  0  0  0  0  0  0  0  0
   12.6264   13.4919   19.2096 H   0  0  0  0  0  0  0  0  0  0  0  0
   14.4132   18.0927   19.7382 H   0  0  0  0  0  0  0  0  0  0  0  0
   14.2717   14.3569   17.5982 H   0  0  0  0  0  0  0  0  0  0  0  0
   10.0909    9.7649   23.3633 H   0  0  0  0  0  0  0  0  0  0  0  0
    6.2864    9.7841   25.3382 H   0  0  0  0  0  0  0  0  0  0  0  0
    8.0830   13.4994   24.1147 H   0  0  0  0  0  0  0  0  0  0  0  0
   10.5729   14.9922   21.0696 H   0  0  0  0  0  0  0  0  0  0  0  0
    4.5480   11.7426   29.9818 H   0  0  0  0  0  0  0  0  0  0  0  0
    4.8323   13.4817   30.0606 H   0  0  0  0  0  0  0  0  0  0  0  0
    6.5641   13.3475   28.3363 H   0  0  0  0  0  0  0  0  0  0  0  0
    6.9314   12.1781   29.6056 H   0  0  0  0  0  0  0  0  0  0  0  0
    2.7949   12.8946   28.7127 H   0  0  0  0  0  0  0  0  0  0  0  0
    3.9949   13.7928   27.7818 H   0  0  0  0  0  0  0  0  0  0  0  0
    7.2350   11.2387   27.3107 H   0  0  0  0  0  0  0  0  0  0  0  0
    6.0243   10.3256   28.2384 H   0  0  0  0  0  0  0  0  0  0  0  0
    3.5242   10.7586   27.6983 H   0  0  0  0  0  0  0  0  0  0  0  0
    3.1525   11.9465   26.4292 H   0  0  0  0  0  0  0  0  0  0  0  0
   10.7591   11.9020   22.3284 H   0  0  0  0  0  0  0  0  0  0  0  0
  1 15  1  0  0  0  0
  1 23  3  0  0  0  0
  2  7  2  0  0  0  0
  2  8  1  0  0  0  0
  3  5  2  0  0  0  0
  3 10  1  0  0  0  0
  4  6  1  0  0  0  0
  4 10  2  0  0  0  0
  5 11  1  0  0  0  0
  6 11  2  0  0  0  0
  7 12  1  0  0  0  0
  8 13  2  0  0  0  0
  9 12  2  0  0  0  0
  9 13  1  0  0  0  0
 10 14  1  4  0  0  0
 11 22  1  0  0  0  0
 12 25  1  0  0  0  0
 13 32  1  0  0  0  0
 14 15  2  0  0  0  0
 15 16  1  0  0  0  0
 16 25  1  0  0  0  0
 16 26  2  0  0  0  0
 17 18  1  0  0  0  0
 17 19  1  0  0  0  0
 18 20  1  0  0  0  0
 19 21  1  0  0  0  0
 20 24  1  0  0  0  0
 21 24  1  0  0  0  0
 22 29  1  0  0  0  0
 22 30  1  0  0  0  0
 22 31  1  0  0  0  0
 24 32  1  0  0  0  0
 27 32  2  0  0  0  0
 28 32  2  0  0  0  0
  2 33  1  0  0  0  0
  3 34  1  0  0  0  0
  4 35  1  0  0  0  0
  5 36  1  0  0  0  0
  6 37  1  0  0  0  0
  7 38  1  0  0  0  0
  8 39  1  0  0  0  0
  9 40  1  0  0  0  0
 14 41  1  0  0  0  0
 17 42  1  0  0  0  0
 17 43  1  0  0  0  0
 18 44  1  0  0  0  0
 18 45  1  0  0  0  0
 19 46  1  0  0  0  0
 19 47  1  0  0  0  0
 20 48  1  0  0  0  0
 20 49  1  0  0  0  0
 21 50  1  0  0  0  0
 21 51  1  0  0  0  0
 25 52  1  0  0  0  0
M  END
> <Catalog ID>
Z44371584

> <MW>
463.473

> <MW (desalted)>
463.473

> <ClogP>
4.718

> <logS>
-5.999

> <HBD>
1

> <HBA>
4

> <TPSA>
90.27

> <RotBonds>
5

> <ROCS_ShapeQuery>
A71EV2A-x0451_0A_A71EV2A-x0310_0A_A71EV2A-x0416_0A_peptide

> <ROCS_TanimotoCombo>
0.531 

> <ROCS_ShapeTanimoto>
0.346 

> <ROCS_ColorTanimoto>
0.184 

> <ROCS_RefTversky>
0.320 

> <ROCS_RefColorTversky>
0.202 

> <ROCS_RefTverskyCombo>
0.523 

> <ROCS_FitTversky>
1.307 

> <ROCS_FitColorTversky>
0.672 

> <ROCS_FitTverskyCombo>
1.979 

> <ROCS_ColorScore>
-6.176

> <ROCS_Overlap>
2232.135

> <ROCS_Rank>
203                 

$$$$
untitled-dbase-5399_4872
  -OEChem-11132309573D

 50 52  0     1  0  0  0  0  0999 V2000
   13.9728   17.0057   19.0435 C   0  0  0  0  0  0  0  0  0  0  0  0
   13.2419   16.1643   18.2010 C   0  0  0  0  0  0  0  0  0  0  0  0
   13.8625   16.9066   20.4373 C   0  0  0  0  0  0  0  0  0  0  0  0
   12.3762   15.1953   18.7172 C   0  0  0  0  0  0  0  0  0  0  0  0
   12.6177   15.5327   22.2845 C   0  0  0  0  0  0  0  0  0  0  0  0
   12.9979   15.9389   20.9782 C   0  0  0  0  0  0  0  0  0  0  0  0
   12.2877   15.1204   20.1060 C   0  0  0  0  0  0  0  0  0  0  0  0
   11.7140   14.5079   22.1243 C   0  0  0  0  0  0  0  0  0  0  0  0
    5.9035   13.4481   29.4599 C   0  0  0  0  0  0  0  0  0  0  0  0
    5.4612   12.4176   28.7320 C   0  0  0  0  0  0  0  0  0  0  0  0
   10.9724   13.6875   23.1162 C   0  0  0  0  0  0  0  0  0  0  0  0
    4.6036   12.6604   27.5371 C   0  0  0  0  0  0  0  0  0  0  0  0
    7.1033   11.3845   25.8698 C   0  0  0  0  0  0  0  0  0  0  0  0
    8.9105    9.1793   23.6709 C   0  0  0  0  0  0  0  0  0  0  0  0
    9.7859   10.1322   22.8580 C   0  0  0  0  0  0  0  0  0  0  0  0
    7.5656    9.8127   24.0147 C   0  0  0  0  0  0  0  0  0  0  0  0
    8.5595   12.0797   23.9028 C   0  0  0  0  0  0  0  0  0  0  0  0
    9.9276   11.4801   23.5685 C   0  0  2  0  0  0  0  0  0  0  0  0
    4.5003   13.0990   25.1135 C   0  0  0  0  0  0  0  0  0  0  0  0
    6.7221   12.8027   26.1483 C   0  0  0  0  0  0  0  0  0  0  0  0
    7.7417   11.1175   24.6542 N   0  0  0  0  0  0  0  0  0  0  0  0
   10.6668   12.3932   22.7239 N   0  0  0  0  0  0  0  0  0  0  0  0
    5.3010   12.8299   26.3172 N   0  0  0  0  0  0  0  0  0  0  0  0
   10.6581   14.1873   24.1932 O   0  0  0  0  0  0  0  0  0  0  0  0
    3.3798   12.7212   27.6658 O   0  0  0  0  0  0  0  0  0  0  0  0
    6.8369   10.5403   26.7213 O   0  0  0  0  0  0  0  0  0  0  0  0
   11.5069   14.2503   20.8065 O   0  0  0  0  0  0  0  0  0  0  0  0
   14.6383   17.7494   18.6125 H   0  0  0  0  0  0  0  0  0  0  0  0
   13.3477   16.2642   17.1236 H   0  0  0  0  0  0  0  0  0  0  0  0
   14.4372   17.5672   21.0794 H   0  0  0  0  0  0  0  0  0  0  0  0
   11.8071   14.5391   18.0697 H   0  0  0  0  0  0  0  0  0  0  0  0
   12.9623   15.9409   23.2245 H   0  0  0  0  0  0  0  0  0  0  0  0
    6.5291   13.3191   30.3362 H   0  0  0  0  0  0  0  0  0  0  0  0
    5.6432   14.4630   29.1774 H   0  0  0  0  0  0  0  0  0  0  0  0
    5.7603   11.4097   28.9921 H   0  0  0  0  0  0  0  0  0  0  0  0
    8.7496    8.2547   23.1053 H   0  0  0  0  0  0  0  0  0  0  0  0
    9.4309    8.9027   24.5962 H   0  0  0  0  0  0  0  0  0  0  0  0
   10.7715    9.6770   22.7035 H   0  0  0  0  0  0  0  0  0  0  0  0
    9.3355   10.2750   21.8670 H   0  0  0  0  0  0  0  0  0  0  0  0
    6.9777    9.9758   23.1035 H   0  0  0  0  0  0  0  0  0  0  0  0
    6.9922    9.1355   24.6555 H   0  0  0  0  0  0  0  0  0  0  0  0
    8.6896   13.0135   24.4536 H   0  0  0  0  0  0  0  0  0  0  0  0
    8.0040   12.3177   22.9870 H   0  0  0  0  0  0  0  0  0  0  0  0
   10.5100   11.3619   24.4750 H   0  0  0  0  0  0  0  0  0  0  0  0
    4.3701   14.1848   24.9943 H   0  0  0  0  0  0  0  0  0  0  0  0
    5.0168   12.6928   24.2314 H   0  0  0  0  0  0  0  0  0  0  0  0
    3.5150   12.6206   25.2142 H   0  0  0  0  0  0  0  0  0  0  0  0
    7.0298   13.4087   25.3013 H   0  0  0  0  0  0  0  0  0  0  0  0
    7.2327   13.1196   27.0528 H   0  0  0  0  0  0  0  0  0  0  0  0
   10.9057   12.0706   21.7913 H   0  0  0  0  0  0  0  0  0  0  0  0
  1  2  1  0  0  0  0
  1  3  2  0  0  0  0
  2  4  2  0  0  0  0
  3  6  1  0  0  0  0
  4  7  1  0  0  0  0
  5  6  1  0  0  0  0
  5  8  2  0  0  0  0
  6  7  2  0  0  0  0
  7 27  1  0  0  0  0
  8 11  1  0  0  0  0
  8 27  1  0  0  0  0
  9 10  2  0  0  0  0
 10 12  1  0  0  0  0
 11 22  1  0  0  0  0
 11 24  2  0  0  0  0
 12 23  1  0  0  0  0
 12 25  2  0  0  0  0
 13 20  1  0  0  0  0
 13 21  1  0  0  0  0
 13 26  2  0  0  0  0
 14 15  1  0  0  0  0
 14 16  1  0  0  0  0
 15 18  1  0  0  0  0
 16 21  1  0  0  0  0
 17 18  1  0  0  0  0
 17 21  1  0  0  0  0
 18 22  1  0  0  0  0
 19 23  1  0  0  0  0
 20 23  1  0  0  0  0
  1 28  1  0  0  0  0
  2 29  1  0  0  0  0
  3 30  1  0  0  0  0
  4 31  1  0  0  0  0
  5 32  1  0  0  0  0
  9 33  1  0  0  0  0
  9 34  1  0  0  0  0
 10 35  1  0  0  0  0
 14 36  1  0  0  0  0
 14 37  1  0  0  0  0
 15 38  1  0  0  0  0
 15 39  1  0  0  0  0
 16 40  1  0  0  0  0
 16 41  1  0  0  0  0
 17 42  1  0  0  0  0
 17 43  1  0  0  0  0
 18 44  1  0  0  0  0
 19 45  1  0  0  0  0
 19 46  1  0  0  0  0
 19 47  1  0  0  0  0
 20 48  1  0  0  0  0
 20 49  1  0  0  0  0
 22 50  1  0  0  0  0
M  END
> <Catalog ID>
Z2707539435

> <MW>
369.414

> <MW (desalted)>
369.414

> <ClogP>
1.917

> <logS>
-4.585

> <HBD>
1

> <HBA>
3

> <TPSA>
82.86

> <RotBonds>
5

> <ROCS_ShapeQuery>
A71EV2A-x0451_0A_A71EV2A-x0310_0A_A71EV2A-x0416_0A_peptide

> <ROCS_TanimotoCombo>
0.531 

> <ROCS_ShapeTanimoto>
0.379 

> <ROCS_ColorTanimoto>
0.152 

> <ROCS_RefTversky>
0.335 

> <ROCS_RefColorTversky>
0.175 

> <ROCS_RefTverskyCombo>
0.510 

> <ROCS_FitTversky>
1.532 

> <ROCS_FitColorTversky>
0.528 

> <ROCS_FitTverskyCombo>
2.060 

> <ROCS_ColorScore>
-5.360

> <ROCS_Overlap>
2330.192

> <ROCS_Rank>
204                 

$$$$
untitled-dbase-1691_12749
  -OEChem-11132309573D

 53 55  0     0  0  0  0  0  0999 V2000
   13.2452   13.9114   22.9071 C   0  0  0  0  0  0  0  0  0  0  0  0
    8.1957    9.6314   24.3616 C   0  0  0  0  0  0  0  0  0  0  0  0
   13.0933   16.5951   20.5324 C   0  0  0  0  0  0  0  0  0  0  0  0
   13.0142   14.4992   19.3331 C   0  0  0  0  0  0  0  0  0  0  0  0
    9.2482   10.3219   23.7608 C   0  0  0  0  0  0  0  0  0  0  0  0
   14.0258   17.0835   19.6174 C   0  0  0  0  0  0  0  0  0  0  0  0
   13.9467   14.9877   18.4180 C   0  0  0  0  0  0  0  0  0  0  0  0
    7.1036   10.3323   24.8732 C   0  0  0  0  0  0  0  0  0  0  0  0
    8.1166   12.4143   24.1833 C   0  0  0  0  0  0  0  0  0  0  0  0
   12.5875   15.3029   20.3903 C   0  0  0  0  0  0  0  0  0  0  0  0
    9.2087   11.7133   23.6716 C   0  0  0  0  0  0  0  0  0  0  0  0
   14.4525   16.2799   18.5601 C   0  0  0  0  0  0  0  0  0  0  0  0
    7.0641   11.7237   24.7841 C   0  0  0  0  0  0  0  0  0  0  0  0
   11.6040   14.7876   21.3556 C   0  0  0  0  0  0  0  0  0  0  0  0
   11.8953   14.1440   22.5034 C   0  0  0  0  0  0  0  0  0  0  0  0
   10.7227   13.7006   23.3520 C   0  0  0  0  0  0  0  0  0  0  0  0
    4.8313   12.6217   29.3825 C   0  0  0  0  0  0  0  0  0  0  0  0
    6.2285   12.4153   28.8008 C   0  0  0  0  0  0  0  0  0  0  0  0
    3.8000   12.8354   28.2761 C   0  0  0  0  0  0  0  0  0  0  0  0
    6.2368   11.2978   27.7640 C   0  0  0  0  0  0  0  0  0  0  0  0
    3.8497   11.7106   27.2484 C   0  0  0  0  0  0  0  0  0  0  0  0
   15.8382   18.0860   17.8719 C   0  0  0  0  0  0  0  0  0  0  0  0
   14.3406   13.7209   23.2398 N   0  0  0  0  0  0  0  0  0  0  0  0
    5.2272   11.5628   26.7016 N   0  0  0  0  0  0  0  0  0  0  0  0
   10.2612   12.4041   23.0705 N   0  0  0  0  0  0  0  0  0  0  0  0
   10.2512   14.4527   24.2013 O   0  0  0  0  0  0  0  0  0  0  0  0
    6.1751   13.8477   25.9974 O   0  0  0  0  0  0  0  0  0  0  0  0
    4.6407   12.6098   24.4287 O   0  0  0  0  0  0  0  0  0  0  0  0
   15.3625   16.7566   17.6672 O   0  0  0  0  0  0  0  0  0  0  0  0
    5.6824   12.6102   25.4326 S   0  0  0  0  0  0  0  0  0  0  0  0
    8.2259    8.5479   24.4307 H   0  0  0  0  0  0  0  0  0  0  0  0
   12.7704   17.2335   21.3513 H   0  0  0  0  0  0  0  0  0  0  0  0
   12.6291   13.4899   19.2091 H   0  0  0  0  0  0  0  0  0  0  0  0
   10.0937    9.7649   23.3650 H   0  0  0  0  0  0  0  0  0  0  0  0
   14.4163   18.0909   19.7332 H   0  0  0  0  0  0  0  0  0  0  0  0
   14.2754   14.3570   17.5964 H   0  0  0  0  0  0  0  0  0  0  0  0
    6.2891    9.7846   25.3398 H   0  0  0  0  0  0  0  0  0  0  0  0
    8.0850   13.4994   24.1141 H   0  0  0  0  0  0  0  0  0  0  0  0
   10.5747   14.9910   21.0681 H   0  0  0  0  0  0  0  0  0  0  0  0
    4.5502   11.7455   29.9822 H   0  0  0  0  0  0  0  0  0  0  0  0
    4.8342   13.4847   30.0599 H   0  0  0  0  0  0  0  0  0  0  0  0
    6.5661   13.3498   28.3358 H   0  0  0  0  0  0  0  0  0  0  0  0
    6.9335   12.1812   29.6057 H   0  0  0  0  0  0  0  0  0  0  0  0
    2.7969   12.8964   28.7123 H   0  0  0  0  0  0  0  0  0  0  0  0
    3.9968   13.7943   27.7809 H   0  0  0  0  0  0  0  0  0  0  0  0
    7.2374   11.2405   27.3114 H   0  0  0  0  0  0  0  0  0  0  0  0
    6.0268   10.3277   28.2396 H   0  0  0  0  0  0  0  0  0  0  0  0
    3.5267   10.7599   27.6992 H   0  0  0  0  0  0  0  0  0  0  0  0
    3.1547   11.9470   26.4294 H   0  0  0  0  0  0  0  0  0  0  0  0
   16.5577   18.3408   17.0900 H   0  0  0  0  0  0  0  0  0  0  0  0
   16.3113   18.1574   18.8545 H   0  0  0  0  0  0  0  0  0  0  0  0
   14.9932   18.7770   17.8255 H   0  0  0  0  0  0  0  0  0  0  0  0
   10.7615   11.9015   22.3288 H   0  0  0  0  0  0  0  0  0  0  0  0
  1 15  1  0  0  0  0
  1 23  3  0  0  0  0
  2  5  2  0  0  0  0
  2  8  1  0  0  0  0
  3  6  2  0  0  0  0
  3 10  1  0  0  0  0
  4  7  1  0  0  0  0
  4 10  2  0  0  0  0
  5 11  1  0  0  0  0
  6 12  1  0  0  0  0
  7 12  2  0  0  0  0
  8 13  2  0  0  0  0
  9 11  2  0  0  0  0
  9 13  1  0  0  0  0
 10 14  1  4  0  0  0
 11 25  1  0  0  0  0
 12 29  1  0  0  0  0
 13 30  1  0  0  0  0
 14 15  2  0  0  0  0
 15 16  1  0  0  0  0
 16 25  1  0  0  0  0
 16 26  2  0  0  0  0
 17 18  1  0  0  0  0
 17 19  1  0  0  0  0
 18 20  1  0  0  0  0
 19 21  1  0  0  0  0
 20 24  1  0  0  0  0
 21 24  1  0  0  0  0
 22 29  1  0  0  0  0
 24 30  1  0  0  0  0
 27 30  2  0  0  0  0
 28 30  2  0  0  0  0
  2 31  1  0  0  0  0
  3 32  1  0  0  0  0
  4 33  1  0  0  0  0
  5 34  1  0  0  0  0
  6 35  1  0  0  0  0
  7 36  1  0  0  0  0
  8 37  1  0  0  0  0
  9 38  1  0  0  0  0
 14 39  1  0  0  0  0
 17 40  1  0  0  0  0
 17 41  1  0  0  0  0
 18 42  1  0  0  0  0
 18 43  1  0  0  0  0
 19 44  1  0  0  0  0
 19 45  1  0  0  0  0
 20 46  1  0  0  0  0
 20 47  1  0  0  0  0
 21 48  1  0  0  0  0
 21 49  1  0  0  0  0
 22 50  1  0  0  0  0
 22 51  1  0  0  0  0
 22 52  1  0  0  0  0
 25 53  1  0  0  0  0
M  END
> <Catalog ID>
Z44371582

> <MW>
425.501

> <MW (desalted)>
425.501

> <ClogP>
3.754

> <logS>
-5.044

> <HBD>
1

> <HBA>
5

> <TPSA>
99.5

> <RotBonds>
5

> <ROCS_ShapeQuery>
A71EV2A-x0451_0A_A71EV2A-x0310_0A_A71EV2A-x0416_0A_peptide

> <ROCS_TanimotoCombo>
0.531 

> <ROCS_ShapeTanimoto>
0.352 

> <ROCS_ColorTanimoto>
0.179 

> <ROCS_RefTversky>
0.320 

> <ROCS_RefColorTversky>
0.202 

> <ROCS_RefTverskyCombo>
0.522 

> <ROCS_FitTversky>
1.384 

> <ROCS_FitColorTversky>
0.609 

> <ROCS_FitTverskyCombo>
1.993 

> <ROCS_ColorScore>
-6.176

> <ROCS_Overlap>
2230.594

> <ROCS_Rank>
205                 

$$$$
untitled-dbase-5854_15245
  -OEChem-11132309573D

 52 55  0     1  0  0  0  0  0999 V2000
    5.4910   10.6484   25.7395 C   0  0  0  0  0  0  0  0  0  0  0  0
    6.2836   11.3015   26.6787 C   0  0  0  0  0  0  0  0  0  0  0  0
   13.7779   14.9978   18.9940 C   0  0  0  0  0  0  0  0  0  0  0  0
   14.3423   15.2651   20.2511 C   0  0  0  0  0  0  0  0  0  0  0  0
    6.0025   10.3590   24.4741 C   0  0  0  0  0  0  0  0  0  0  0  0
    7.5907   11.6676   26.3563 C   0  0  0  0  0  0  0  0  0  0  0  0
    7.8471   10.4366   22.8635 C   0  0  0  0  0  0  0  0  0  0  0  0
   12.3925   14.9182   18.8381 C   0  0  0  0  0  0  0  0  0  0  0  0
   13.5293   15.4558   21.3703 C   0  0  0  0  0  0  0  0  0  0  0  0
    9.1541   10.8027   22.5410 C   0  0  0  0  0  0  0  0  0  0  0  0
    9.4353   11.7453   24.7456 C   0  0  0  0  0  0  0  0  0  0  0  0
    7.3159   10.7200   24.1323 C   0  0  0  0  0  0  0  0  0  0  0  0
    8.1219   11.3842   25.0875 C   0  0  0  0  0  0  0  0  0  0  0  0
   11.5934   15.1199   19.9510 C   0  0  0  0  0  0  0  0  0  0  0  0
   12.1552   15.3818   21.2063 C   0  0  0  0  0  0  0  0  0  0  0  0
    9.9467   11.4558   23.4803 C   0  0  0  0  0  0  0  0  0  0  0  0
   10.9753   14.3083   23.1043 C   0  0  0  0  0  0  0  0  0  0  0  0
   14.4486   12.9501   23.7148 C   0  0  0  0  0  0  0  0  0  0  0  0
   10.1022   15.0462   20.0354 C   0  0  0  0  0  0  0  0  0  0  0  0
    9.8365   15.7361   21.3849 C   0  0  0  0  0  0  0  0  0  0  0  0
   11.0924   15.5305   22.2519 C   0  0  2  0  0  0  0  0  0  0  0  0
   15.8770   12.6594   23.3310 C   0  0  0  0  0  0  0  0  0  0  0  0
   12.3168   11.8502   24.3373 C   0  0  0  0  0  0  0  0  0  0  0  0
   11.3695   11.8534   23.1274 C   0  0  2  0  0  0  0  0  0  0  0  0
   11.3954   13.1472   22.4838 N   0  0  0  0  0  0  0  0  0  0  0  0
   13.7003   11.8045   23.9417 N   0  0  0  0  0  0  0  0  0  0  0  0
   10.5371   14.4066   24.2445 O   0  0  0  0  0  0  0  0  0  0  0  0
   14.0271   14.1004   23.8227 O   0  0  0  0  0  0  0  0  0  0  0  0
   16.8359   12.5855   24.8176 Cl  0  0  0  0  0  0  0  0  0  0  0  0
    4.4736   10.3641   25.9913 H   0  0  0  0  0  0  0  0  0  0  0  0
    5.8845   11.5269   27.6633 H   0  0  0  0  0  0  0  0  0  0  0  0
   14.4268   14.8468   18.1355 H   0  0  0  0  0  0  0  0  0  0  0  0
   15.4228   15.3198   20.3536 H   0  0  0  0  0  0  0  0  0  0  0  0
    5.3647    9.8473   23.7561 H   0  0  0  0  0  0  0  0  0  0  0  0
    8.1921   12.1776   27.1061 H   0  0  0  0  0  0  0  0  0  0  0  0
    7.2453    9.9270   22.1135 H   0  0  0  0  0  0  0  0  0  0  0  0
   11.9590   14.7018   17.8676 H   0  0  0  0  0  0  0  0  0  0  0  0
   13.9685   15.6553   22.3419 H   0  0  0  0  0  0  0  0  0  0  0  0
    9.5447   10.5737   21.5530 H   0  0  0  0  0  0  0  0  0  0  0  0
   10.0660   12.2564   25.4713 H   0  0  0  0  0  0  0  0  0  0  0  0
    9.6097   15.5752   19.2146 H   0  0  0  0  0  0  0  0  0  0  0  0
    9.7774   14.0008   20.0557 H   0  0  0  0  0  0  0  0  0  0  0  0
    9.7006   16.8124   21.2077 H   0  0  0  0  0  0  0  0  0  0  0  0
    8.9169   15.3684   21.8526 H   0  0  0  0  0  0  0  0  0  0  0  0
   11.2716   16.3994   22.8927 H   0  0  0  0  0  0  0  0  0  0  0  0
   15.9840   11.7116   22.7978 H   0  0  0  0  0  0  0  0  0  0  0  0
   16.2557   13.4685   22.7005 H   0  0  0  0  0  0  0  0  0  0  0  0
   12.1936   12.7668   24.9253 H   0  0  0  0  0  0  0  0  0  0  0  0
   12.1398   11.0013   25.0063 H   0  0  0  0  0  0  0  0  0  0  0  0
   11.7580   11.1307   22.3979 H   0  0  0  0  0  0  0  0  0  0  0  0
   11.7388   13.2059   21.5299 H   0  0  0  0  0  0  0  0  0  0  0  0
   14.1461   10.8974   23.8241 H   0  0  0  0  0  0  0  0  0  0  0  0
  1  2  1  0  0  0  0
  1  5  2  0  0  0  0
  2  6  2  0  0  0  0
  3  4  1  0  0  0  0
  3  8  2  0  0  0  0
  4  9  2  0  0  0  0
  5 12  1  0  0  0  0
  6 13  1  0  0  0  0
  7 10  2  0  0  0  0
  7 12  1  0  0  0  0
  8 14  1  0  0  0  0
  9 15  1  0  0  0  0
 10 16  1  0  0  0  0
 11 13  1  0  0  0  0
 11 16  2  0  0  0  0
 12 13  2  0  0  0  0
 14 15  2  0  0  0  0
 14 19  1  0  0  0  0
 15 21  1  0  0  0  0
 16 24  1  0  0  0  0
 17 21  1  1  0  0  0
 17 25  1  0  0  0  0
 17 27  2  0  0  0  0
 18 22  1  0  0  0  0
 18 26  1  0  0  0  0
 18 28  2  0  0  0  0
 19 20  1  0  0  0  0
 20 21  1  0  0  0  0
 22 29  1  0  0  0  0
 23 24  1  0  0  0  0
 23 26  1  0  0  0  0
 24 25  1  0  0  0  0
  1 30  1  0  0  0  0
  2 31  1  0  0  0  0
  3 32  1  0  0  0  0
  4 33  1  0  0  0  0
  5 34  1  0  0  0  0
  6 35  1  0  0  0  0
  7 36  1  0  0  0  0
  8 37  1  0  0  0  0
  9 38  1  0  0  0  0
 10 39  1  0  0  0  0
 11 40  1  0  0  0  0
 19 41  1  0  0  0  0
 19 42  1  0  0  0  0
 20 43  1  0  0  0  0
 20 44  1  0  0  0  0
 21 45  1  0  0  0  0
 22 46  1  0  0  0  0
 22 47  1  0  0  0  0
 23 48  1  0  0  0  0
 23 49  1  0  0  0  0
 24 50  1  0  0  0  0
 25 51  1  0  0  0  0
 26 52  1  0  0  0  0
M  END
> <Catalog ID>
Z4439378231

> <MW>
406.905

> <MW (desalted)>
406.905

> <ClogP>
4.165

> <logS>
-6.47

> <HBD>
2

> <HBA>
2

> <TPSA>
58.2

> <RotBonds>
6

> <ROCS_ShapeQuery>
A71EV2A-x0451_0A_A71EV2A-x0310_0A_A71EV2A-x0416_0A_peptide

> <ROCS_TanimotoCombo>
0.530 

> <ROCS_ShapeTanimoto>
0.336 

> <ROCS_ColorTanimoto>
0.195 

> <ROCS_RefTversky>
0.309 

> <ROCS_RefColorTversky>
0.212 

> <ROCS_RefTverskyCombo>
0.522 

> <ROCS_FitTversky>
1.341 

> <ROCS_FitColorTversky>
0.704 

> <ROCS_FitTverskyCombo>
2.044 

> <ROCS_ColorScore>
-6.477

> <ROCS_Overlap>
2153.282

> <ROCS_Rank>
206                 

$$$$
untitled-dbase-9913_16168
  -OEChem-11132309573D

 50 52  0     1  0  0  0  0  0999 V2000
    6.3024   12.4965   25.9920 C   0  0  0  0  0  0  0  0  0  0  0  0
    5.8923   11.1407   26.1399 C   0  0  0  0  0  0  0  0  0  0  0  0
    7.4181   12.8973   25.2335 C   0  0  0  0  0  0  0  0  0  0  0  0
   14.4924   15.5968   18.5172 C   0  0  0  0  0  0  0  0  0  0  0  0
   13.0717   17.3800   19.3166 C   0  0  0  0  0  0  0  0  0  0  0  0
   13.8878   14.7140   19.4119 C   0  0  0  0  0  0  0  0  0  0  0  0
   12.4671   16.4971   20.2114 C   0  0  0  0  0  0  0  0  0  0  0  0
    6.5616   10.0537   25.5414 C   0  0  0  0  0  0  0  0  0  0  0  0
    8.0764   11.8174   24.6438 C   0  0  0  0  0  0  0  0  0  0  0  0
   14.0844   16.9299   18.4696 C   0  0  0  0  0  0  0  0  0  0  0  0
   12.8752   15.1640   20.2590 C   0  0  0  0  0  0  0  0  0  0  0  0
    7.6914   10.4059   24.7680 C   0  0  0  0  0  0  0  0  0  0  0  0
    9.1920   11.9894   23.8612 C   0  0  0  0  0  0  0  0  0  0  0  0
    9.9197   13.1490   23.4641 C   0  0  0  0  0  0  0  0  0  0  0  0
   13.1334   15.2323   23.2904 C   0  0  0  0  0  0  0  0  0  0  0  0
   15.4570   19.0301   18.2271 C   0  0  0  0  0  0  0  0  0  0  0  0
   13.7357   18.4408   16.4822 C   0  0  0  0  0  0  0  0  0  0  0  0
   13.9260   14.9194   24.5338 C   0  0  0  0  0  0  0  0  0  0  0  0
   10.7472   14.5463   21.5230 C   0  0  0  0  0  0  0  0  0  0  0  0
   14.7303   17.8745   17.5133 C   0  0  0  0  0  0  0  0  0  0  0  0
   12.2161   14.2016   21.2317 C   0  0  2  0  0  0  0  0  0  0  0  0
    8.5044    9.5809   24.0947 N   0  0  0  0  0  0  0  0  0  0  0  0
   10.0264   13.4255   22.0825 N   0  0  0  0  0  0  0  0  0  0  0  0
   12.9729   14.1313   22.4875 N   0  0  0  0  0  0  0  0  0  0  0  0
   10.4735   13.9018   24.3073 O   0  0  0  0  0  0  0  0  0  0  0  0
   12.6875   16.3573   23.0714 O   0  0  0  0  0  0  0  0  0  0  0  0
    9.6946   10.4440   23.3327 S   0  0  0  0  0  0  0  0  0  0  0  0
   13.3702   16.0012   25.8205 Cl  0  0  0  0  0  0  0  0  0  0  0  0
    5.7173   13.2653   26.4957 H   0  0  0  0  0  0  0  0  0  0  0  0
    5.0132   10.9344   26.7493 H   0  0  0  0  0  0  0  0  0  0  0  0
    7.7045   13.9370   25.1400 H   0  0  0  0  0  0  0  0  0  0  0  0
   15.2811   15.2376   17.8613 H   0  0  0  0  0  0  0  0  0  0  0  0
   12.7469   18.4167   19.2853 H   0  0  0  0  0  0  0  0  0  0  0  0
   14.2110   13.6768   19.4410 H   0  0  0  0  0  0  0  0  0  0  0  0
   11.6790   16.8561   20.8680 H   0  0  0  0  0  0  0  0  0  0  0  0
    6.2276    9.0317   25.6708 H   0  0  0  0  0  0  0  0  0  0  0  0
   14.7683   19.6221   18.8398 H   0  0  0  0  0  0  0  0  0  0  0  0
   15.9312   19.7091   17.5101 H   0  0  0  0  0  0  0  0  0  0  0  0
   16.2396   18.6398   18.8873 H   0  0  0  0  0  0  0  0  0  0  0  0
   12.9300   18.9854   16.9872 H   0  0  0  0  0  0  0  0  0  0  0  0
   13.2788   17.6431   15.8863 H   0  0  0  0  0  0  0  0  0  0  0  0
   14.2245   19.1344   15.7893 H   0  0  0  0  0  0  0  0  0  0  0  0
   13.7970   13.8860   24.8650 H   0  0  0  0  0  0  0  0  0  0  0  0
   14.9870   15.1038   24.3443 H   0  0  0  0  0  0  0  0  0  0  0  0
   10.6802   15.3554   22.2593 H   0  0  0  0  0  0  0  0  0  0  0  0
   10.2064   14.8685   20.6268 H   0  0  0  0  0  0  0  0  0  0  0  0
   15.5053   17.3442   16.9276 H   0  0  0  0  0  0  0  0  0  0  0  0
   12.2416   13.1961   20.7917 H   0  0  0  0  0  0  0  0  0  0  0  0
    9.6220   12.7637   21.4280 H   0  0  0  0  0  0  0  0  0  0  0  0
   13.3826   13.2571   22.7655 H   0  0  0  0  0  0  0  0  0  0  0  0
  1  2  1  0  0  0  0
  1  3  2  0  0  0  0
  2  8  2  0  0  0  0
  3  9  1  0  0  0  0
  4  6  2  0  0  0  0
  4 10  1  0  0  0  0
  5  7  1  0  0  0  0
  5 10  2  0  0  0  0
  6 11  1  0  0  0  0
  7 11  2  0  0  0  0
  8 12  1  0  0  0  0
  9 12  1  0  0  0  0
  9 13  2  0  0  0  0
 10 20  1  0  0  0  0
 11 21  1  0  0  0  0
 12 22  2  0  0  0  0
 13 14  1  0  0  0  0
 13 27  1  0  0  0  0
 14 23  1  0  0  0  0
 14 25  2  0  0  0  0
 15 18  1  0  0  0  0
 15 24  1  0  0  0  0
 15 26  2  0  0  0  0
 16 20  1  0  0  0  0
 17 20  1  0  0  0  0
 18 28  1  0  0  0  0
 19 21  1  0  0  0  0
 19 23  1  0  0  0  0
 21 24  1  0  0  0  0
 22 27  1  0  0  0  0
  1 29  1  0  0  0  0
  2 30  1  0  0  0  0
  3 31  1  0  0  0  0
  4 32  1  0  0  0  0
  5 33  1  0  0  0  0
  6 34  1  0  0  0  0
  7 35  1  0  0  0  0
  8 36  1  0  0  0  0
 16 37  1  0  0  0  0
 16 38  1  0  0  0  0
 16 39  1  0  0  0  0
 17 40  1  0  0  0  0
 17 41  1  0  0  0  0
 17 42  1  0  0  0  0
 18 43  1  0  0  0  0
 18 44  1  0  0  0  0
 19 45  1  0  0  0  0
 19 46  1  0  0  0  0
 20 47  1  0  0  0  0
 21 48  1  0  0  0  0
 23 49  1  0  0  0  0
 24 50  1  0  0  0  0
M  END
> <Catalog ID>
Z4425211797

> <MW>
415.936

> <MW (desalted)>
415.936

> <ClogP>
4.533

> <logS>
-6.534

> <HBD>
2

> <HBA>
3

> <TPSA>
71.09

> <RotBonds>
7

> <ROCS_ShapeQuery>
A71EV2A-x0451_0A_A71EV2A-x0310_0A_A71EV2A-x0416_0A_peptide

> <ROCS_TanimotoCombo>
0.530 

> <ROCS_ShapeTanimoto>
0.325 

> <ROCS_ColorTanimoto>
0.206 

> <ROCS_RefTversky>
0.299 

> <ROCS_RefColorTversky>
0.227 

> <ROCS_RefTverskyCombo>
0.526 

> <ROCS_FitTversky>
1.363 

> <ROCS_FitColorTversky>
0.684 

> <ROCS_FitTverskyCombo>
2.048 

> <ROCS_ColorScore>
-6.950

> <ROCS_Overlap>
2079.074

> <ROCS_Rank>
207                 

$$$$
untitled-dbase-6000_10918
  -OEChem-11132309573D

 52 54  0     0  0  0  0  0  0999 V2000
   14.2900   16.5369   18.9123 C   0  0  0  0  0  0  0  0  0  0  0  0
   14.0799   16.3290   20.2710 C   0  0  0  0  0  0  0  0  0  0  0  0
    6.9033   10.5593   24.2610 C   0  0  0  0  0  0  0  0  0  0  0  0
    7.9548    9.7277   23.8758 C   0  0  0  0  0  0  0  0  0  0  0  0
    8.4244   12.4333   24.3677 C   0  0  0  0  0  0  0  0  0  0  0  0
   13.3964   15.9629   18.0226 C   0  0  0  0  0  0  0  0  0  0  0  0
   12.9978   15.5643   20.6924 C   0  0  0  0  0  0  0  0  0  0  0  0
    9.4760   11.6017   23.9825 C   0  0  0  0  0  0  0  0  0  0  0  0
    7.1381   11.9122   24.5069 C   0  0  0  0  0  0  0  0  0  0  0  0
    9.2411   10.2489   23.7366 C   0  0  0  0  0  0  0  0  0  0  0  0
   12.1618   15.0341   19.7229 C   0  0  0  0  0  0  0  0  0  0  0  0
   12.7821   15.3493   22.1456 C   0  0  0  0  0  0  0  0  0  0  0  0
   11.1434   13.4828   24.0612 C   0  0  0  0  0  0  0  0  0  0  0  0
    4.9809   12.4191   29.4640 C   0  0  0  0  0  0  0  0  0  0  0  0
    3.8582   11.4529   29.0817 C   0  0  0  0  0  0  0  0  0  0  0  0
    6.3446   11.9852   28.9282 C   0  0  0  0  0  0  0  0  0  0  0  0
    3.5031   11.4215   27.5961 C   0  0  0  0  0  0  0  0  0  0  0  0
    6.6574   12.4626   27.5124 C   0  0  0  0  0  0  0  0  0  0  0  0
    4.6838   11.1409   26.6727 C   0  0  0  0  0  0  0  0  0  0  0  0
   12.6225   13.6875   23.8155 C   0  0  0  0  0  0  0  0  0  0  0  0
   12.3339   15.2142   18.3942 N   0  0  0  0  0  0  0  0  0  0  0  0
    5.5126   12.3686   26.5693 N   0  0  0  0  0  0  0  0  0  0  0  0
   10.7531   12.1554   23.8516 N   0  0  0  0  0  0  0  0  0  0  0  0
   12.5984   16.2606   22.9375 O   0  0  0  0  0  0  0  0  0  0  0  0
   10.4318   14.4245   24.3974 O   0  0  0  0  0  0  0  0  0  0  0  0
    6.3208   14.3146   25.0846 O   0  0  0  0  0  0  0  0  0  0  0  0
    4.6675   12.6573   24.1530 O   0  0  0  0  0  0  0  0  0  0  0  0
   12.8172   14.0199   22.4564 O   0  0  0  0  0  0  0  0  0  0  0  0
    5.8063   12.9648   24.9920 S   0  0  0  0  0  0  0  0  0  0  0  0
   10.5143    9.1836   23.2578 Cl  0  0  0  0  0  0  0  0  0  0  0  0
   10.7912   14.0700   20.1146 Cl  0  0  0  0  0  0  0  0  0  0  0  0
   15.1263   17.1303   18.5609 H   0  0  0  0  0  0  0  0  0  0  0  0
   14.7646   16.7692   20.9910 H   0  0  0  0  0  0  0  0  0  0  0  0
    5.9050   10.1432   24.3653 H   0  0  0  0  0  0  0  0  0  0  0  0
    7.7545    8.6756   23.6876 H   0  0  0  0  0  0  0  0  0  0  0  0
    8.6045   13.4889   24.5595 H   0  0  0  0  0  0  0  0  0  0  0  0
   13.5157   16.0958   16.9522 H   0  0  0  0  0  0  0  0  0  0  0  0
    4.7499   13.4007   29.0591 H   0  0  0  0  0  0  0  0  0  0  0  0
    5.0296   12.5124   30.5452 H   0  0  0  0  0  0  0  0  0  0  0  0
    4.1908   10.4368   29.3702 H   0  0  0  0  0  0  0  0  0  0  0  0
    2.9563   11.6457   29.6956 H   0  0  0  0  0  0  0  0  0  0  0  0
    7.1291   12.3274   29.6179 H   0  0  0  0  0  0  0  0  0  0  0  0
    6.3780   10.8873   28.9426 H   0  0  0  0  0  0  0  0  0  0  0  0
    2.7053   10.6927   27.4178 H   0  0  0  0  0  0  0  0  0  0  0  0
    3.0863   12.3946   27.3125 H   0  0  0  0  0  0  0  0  0  0  0  0
    6.9827   13.5307   27.5787 H   0  0  0  0  0  0  0  0  0  0  0  0
    7.5579   11.9440   27.0939 H   0  0  0  0  0  0  0  0  0  0  0  0
    5.2690   10.3312   27.0630 H   0  0  0  0  0  0  0  0  0  0  0  0
    4.3078   10.9085   25.6926 H   0  0  0  0  0  0  0  0  0  0  0  0
   13.0014   14.4943   24.4501 H   0  0  0  0  0  0  0  0  0  0  0  0
   13.1813   12.7755   24.0462 H   0  0  0  0  0  0  0  0  0  0  0  0
   11.4958   11.5087   23.5668 H   0  0  0  0  0  0  0  0  0  0  0  0
  1  2  2  0  0  0  0
  1  6  1  0  0  0  0
  2  7  1  0  0  0  0
  3  4  2  0  0  0  0
  3  9  1  0  0  0  0
  4 10  1  0  0  0  0
  5  8  1  0  0  0  0
  5  9  2  0  0  0  0
  6 21  2  0  0  0  0
  7 11  2  0  0  0  0
  7 12  1  0  0  0  0
  8 10  2  0  0  0  0
  8 23  1  0  0  0  0
  9 29  1  0  0  0  0
 10 30  1  0  0  0  0
 11 21  1  0  0  0  0
 11 31  1  0  0  0  0
 12 24  2  0  0  0  0
 12 28  1  0  0  0  0
 13 20  1  0  0  0  0
 13 23  1  0  0  0  0
 13 25  2  0  0  0  0
 14 15  1  0  0  0  0
 14 16  1  0  0  0  0
 15 17  1  0  0  0  0
 16 18  1  0  0  0  0
 17 19  1  0  0  0  0
 18 22  1  0  0  0  0
 19 22  1  0  0  0  0
 20 28  1  0  0  0  0
 22 29  1  0  0  0  0
 26 29  2  0  0  0  0
 27 29  2  0  0  0  0
  1 32  1  0  0  0  0
  2 33  1  0  0  0  0
  3 34  1  0  0  0  0
  4 35  1  0  0  0  0
  5 36  1  0  0  0  0
  6 37  1  0  0  0  0
 14 38  1  0  0  0  0
 14 39  1  0  0  0  0
 15 40  1  0  0  0  0
 15 41  1  0  0  0  0
 16 42  1  0  0  0  0
 16 43  1  0  0  0  0
 17 44  1  0  0  0  0
 17 45  1  0  0  0  0
 18 46  1  0  0  0  0
 18 47  1  0  0  0  0
 19 48  1  0  0  0  0
 19 49  1  0  0  0  0
 20 50  1  0  0  0  0
 20 51  1  0  0  0  0
 23 52  1  0  0  0  0
M  END
> <Catalog ID>
Z19817820

> <MW>
486.369

> <MW (desalted)>
486.369

> <ClogP>
3.03

> <logS>
-5.723

> <HBD>
1

> <HBA>
5

> <TPSA>
105.67

> <RotBonds>
6

> <ROCS_ShapeQuery>
A71EV2A-x0451_0A_A71EV2A-x0310_0A_A71EV2A-x0416_0A_peptide

> <ROCS_TanimotoCombo>
0.530 

> <ROCS_ShapeTanimoto>
0.361 

> <ROCS_ColorTanimoto>
0.169 

> <ROCS_RefTversky>
0.328 

> <ROCS_RefColorTversky>
0.193 

> <ROCS_RefTverskyCombo>
0.521 

> <ROCS_FitTversky>
1.390 

> <ROCS_FitColorTversky>
0.582 

> <ROCS_FitTverskyCombo>
1.971 

> <ROCS_ColorScore>
-5.898

> <ROCS_Overlap>
2282.867

> <ROCS_Rank>
208                 

$$$$
untitled-dbase-7345_15366
  -OEChem-11132309573D

 44 46  0     1  0  0  0  0  0999 V2000
   13.6755   17.2559   17.9476 C   0  0  0  0  0  0  0  0  0  0  0  0
   14.3132   17.5159   19.1606 C   0  0  0  0  0  0  0  0  0  0  0  0
   12.7543   16.2128   17.8534 C   0  0  0  0  0  0  0  0  0  0  0  0
   14.0298   16.7326   20.2794 C   0  0  0  0  0  0  0  0  0  0  0  0
   12.4708   15.4295   18.9722 C   0  0  0  0  0  0  0  0  0  0  0  0
    6.0385   10.5874   24.8376 C   0  0  0  0  0  0  0  0  0  0  0  0
    5.6120   11.5313   25.7775 C   0  0  0  0  0  0  0  0  0  0  0  0
    7.8256   12.5517   25.8736 C   0  0  0  0  0  0  0  0  0  0  0  0
    8.2671   11.6110   24.9315 C   0  0  0  0  0  0  0  0  0  0  0  0
   13.1086   15.6893   20.1852 C   0  0  0  0  0  0  0  0  0  0  0  0
    7.3725   10.6715   24.4496 C   0  0  0  0  0  0  0  0  0  0  0  0
    6.4871   12.4961   26.2874 C   0  0  0  0  0  0  0  0  0  0  0  0
    9.4657   11.3010   24.2601 C   0  0  0  0  0  0  0  0  0  0  0  0
   10.8622   13.3102   23.6354 C   0  0  0  0  0  0  0  0  0  0  0  0
   13.4430   14.9556   23.7934 C   0  0  0  0  0  0  0  0  0  0  0  0
   10.7697   11.9748   24.3767 C   0  0  0  0  0  0  0  0  0  0  0  0
   13.6571   15.9255   24.9273 C   0  0  0  0  0  0  0  0  0  0  0  0
   11.3673   14.2792   21.4048 C   0  0  0  0  0  0  0  0  0  0  0  0
   12.7997   14.8359   21.4030 C   0  0  2  0  0  0  0  0  0  0  0  0
    9.3312   10.2601   23.4328 N   0  0  0  0  0  0  0  0  0  0  0  0
   11.2213   13.1584   22.3036 N   0  0  0  0  0  0  0  0  0  0  0  0
   13.0474   15.5856   22.6404 N   0  0  0  0  0  0  0  0  0  0  0  0
   10.6344   14.3846   24.1855 O   0  0  0  0  0  0  0  0  0  0  0  0
   13.6301   13.7477   23.9289 O   0  0  0  0  0  0  0  0  0  0  0  0
    8.0051    9.8638   23.5551 O   0  0  0  0  0  0  0  0  0  0  0  0
    6.0392   13.3827   27.1873 F   0  0  0  0  0  0  0  0  0  0  0  0
   13.2995   15.0805   26.4415 Cl  0  0  0  0  0  0  0  0  0  0  0  0
   13.8953   17.8668   17.0769 H   0  0  0  0  0  0  0  0  0  0  0  0
   15.0297   18.3288   19.2344 H   0  0  0  0  0  0  0  0  0  0  0  0
   12.2568   16.0108   16.9095 H   0  0  0  0  0  0  0  0  0  0  0  0
   14.5316   16.9422   21.2204 H   0  0  0  0  0  0  0  0  0  0  0  0
   11.7518   14.6187   18.8895 H   0  0  0  0  0  0  0  0  0  0  0  0
    5.3691    9.8355   24.4377 H   0  0  0  0  0  0  0  0  0  0  0  0
    4.5800   11.5132   26.1191 H   0  0  0  0  0  0  0  0  0  0  0  0
    8.4932   13.3061   26.2775 H   0  0  0  0  0  0  0  0  0  0  0  0
   11.0269   12.1694   25.4378 H   0  0  0  0  0  0  0  0  0  0  0  0
   11.5910   11.3339   23.9964 H   0  0  0  0  0  0  0  0  0  0  0  0
   14.6821   16.3019   24.9700 H   0  0  0  0  0  0  0  0  0  0  0  0
   12.9710   16.7697   24.8176 H   0  0  0  0  0  0  0  0  0  0  0  0
   10.6580   15.0424   21.7447 H   0  0  0  0  0  0  0  0  0  0  0  0
   11.0456   13.9465   20.4122 H   0  0  0  0  0  0  0  0  0  0  0  0
   13.4893   13.9816   21.4087 H   0  0  0  0  0  0  0  0  0  0  0  0
   11.3879   12.2220   21.9469 H   0  0  0  0  0  0  0  0  0  0  0  0
   12.9246   16.5827   22.6432 H   0  0  0  0  0  0  0  0  0  0  0  0
  1  2  1  0  0  0  0
  1  3  2  0  0  0  0
  2  4  2  0  0  0  0
  3  5  1  0  0  0  0
  4 10  1  0  0  0  0
  5 10  2  0  0  0  0
  6  7  2  0  0  0  0
  6 11  1  0  0  0  0
  7 12  1  0  0  0  0
  8  9  1  0  0  0  0
  8 12  2  0  0  0  0
  9 11  2  0  0  0  0
  9 13  1  0  0  0  0
 10 19  1  0  0  0  0
 11 25  1  0  0  0  0
 12 26  1  0  0  0  0
 13 16  1  0  0  0  0
 13 20  2  0  0  0  0
 14 16  1  0  0  0  0
 14 21  1  0  0  0  0
 14 23  2  0  0  0  0
 15 17  1  0  0  0  0
 15 22  1  0  0  0  0
 15 24  2  0  0  0  0
 17 27  1  0  0  0  0
 18 19  1  0  0  0  0
 18 21  1  0  0  0  0
 19 22  1  0  0  0  0
 20 25  1  0  0  0  0
  1 28  1  0  0  0  0
  2 29  1  0  0  0  0
  3 30  1  0  0  0  0
  4 31  1  0  0  0  0
  5 32  1  0  0  0  0
  6 33  1  0  0  0  0
  7 34  1  0  0  0  0
  8 35  1  0  0  0  0
 16 36  1  0  0  0  0
 16 37  1  0  0  0  0
 17 38  1  0  0  0  0
 17 39  1  0  0  0  0
 18 40  1  0  0  0  0
 18 41  1  0  0  0  0
 19 42  1  0  0  0  0
 21 43  1  0  0  0  0
 22 44  1  0  0  0  0
M  END
> <Catalog ID>
Z4425211370

> <MW>
389.808

> <MW (desalted)>
389.808

> <ClogP>
2.199

> <logS>
-4.513

> <HBD>
2

> <HBA>
3

> <TPSA>
84.23

> <RotBonds>
7

> <ROCS_ShapeQuery>
A71EV2A-x0451_0A_A71EV2A-x0310_0A_A71EV2A-x0416_0A_peptide

> <ROCS_TanimotoCombo>
0.530 

> <ROCS_ShapeTanimoto>
0.341 

> <ROCS_ColorTanimoto>
0.189 

> <ROCS_RefTversky>
0.310 

> <ROCS_RefColorTversky>
0.207 

> <ROCS_RefTverskyCombo>
0.517 

> <ROCS_FitTversky>
1.424 

> <ROCS_FitColorTversky>
0.687 

> <ROCS_FitTverskyCombo>
2.111 

> <ROCS_ColorScore>
-6.322

> <ROCS_Overlap>
2154.477

> <ROCS_Rank>
209                 

$$$$
untitled-dbase-7746_4730
  -OEChem-11132309573D

 53 55  0     1  0  0  0  0  0999 V2000
   14.0273   15.9650   18.4955 C   0  0  0  0  0  0  0  0  0  0  0  0
   14.4669   16.0569   19.8160 C   0  0  0  0  0  0  0  0  0  0  0  0
   12.7754   15.4182   18.2136 C   0  0  0  0  0  0  0  0  0  0  0  0
    6.8220   12.4143   25.7725 C   0  0  0  0  0  0  0  0  0  0  0  0
    7.9639   13.0379   25.2565 C   0  0  0  0  0  0  0  0  0  0  0  0
   13.6547   15.6018   20.8548 C   0  0  0  0  0  0  0  0  0  0  0  0
   11.9632   14.9631   19.2523 C   0  0  0  0  0  0  0  0  0  0  0  0
    8.6239   10.9999   24.1098 C   0  0  0  0  0  0  0  0  0  0  0  0
    5.8401    8.9441   25.1777 C   0  0  0  0  0  0  0  0  0  0  0  0
    6.5735   11.0641   25.4551 C   0  0  0  0  0  0  0  0  0  0  0  0
    8.8496   12.3397   24.4382 C   0  0  0  0  0  0  0  0  0  0  0  0
    5.5453   10.1397   25.7913 C   0  0  0  0  0  0  0  0  0  0  0  0
   12.4028   15.0549   20.5729 C   0  0  0  0  0  0  0  0  0  0  0  0
    7.4784   10.3894   24.6327 C   0  0  0  0  0  0  0  0  0  0  0  0
    4.3904   10.3596   26.6151 C   0  0  0  0  0  0  0  0  0  0  0  0
   10.0279   13.0139   23.9150 C   0  0  0  0  0  0  0  0  0  0  0  0
   12.9832   12.8753   22.9042 C   0  0  0  0  0  0  0  0  0  0  0  0
   13.3234   10.9179   24.9472 C   0  0  0  0  0  0  0  0  0  0  0  0
   14.8310    9.7475   23.3143 C   0  0  0  0  0  0  0  0  0  0  0  0
   15.4223   12.0458   24.1368 C   0  0  0  0  0  0  0  0  0  0  0  0
   11.5220   14.5612   21.6984 C   0  0  0  0  0  0  0  0  0  0  0  0
   11.7251   13.0854   22.0720 C   0  0  2  0  0  0  0  0  0  0  0  0
   14.2816   11.0974   23.7706 C   0  0  0  0  0  0  0  0  0  0  0  0
    7.0080    9.1045   24.4815 N   0  0  0  0  0  0  0  0  0  0  0  0
   10.5480   12.5371   22.7064 N   0  0  0  0  0  0  0  0  0  0  0  0
    4.1300   11.4440   27.1675 O   0  0  0  0  0  0  0  0  0  0  0  0
   10.5455   13.9558   24.5405 O   0  0  0  0  0  0  0  0  0  0  0  0
   13.4172   13.7266   23.6736 O   0  0  0  0  0  0  0  0  0  0  0  0
   13.5552   11.6604   22.6735 O   0  0  0  0  0  0  0  0  0  0  0  0
   14.6592   16.3206   17.6869 H   0  0  0  0  0  0  0  0  0  0  0  0
   15.4412   16.4837   20.0358 H   0  0  0  0  0  0  0  0  0  0  0  0
   12.4323   15.3475   17.1857 H   0  0  0  0  0  0  0  0  0  0  0  0
    6.1408   12.9721   26.4090 H   0  0  0  0  0  0  0  0  0  0  0  0
    8.1501   14.0804   25.5049 H   0  0  0  0  0  0  0  0  0  0  0  0
   14.0056   15.6772   21.8806 H   0  0  0  0  0  0  0  0  0  0  0  0
   10.9894   14.5384   19.0233 H   0  0  0  0  0  0  0  0  0  0  0  0
    9.3087   10.4487   23.4725 H   0  0  0  0  0  0  0  0  0  0  0  0
    5.3262    7.9926   25.1720 H   0  0  0  0  0  0  0  0  0  0  0  0
    3.6806    9.5068   26.7717 H   0  0  0  0  0  0  0  0  0  0  0  0
   12.9268   11.8845   25.2778 H   0  0  0  0  0  0  0  0  0  0  0  0
   12.4820   10.2676   24.6866 H   0  0  0  0  0  0  0  0  0  0  0  0
   13.8411   10.4846   25.8106 H   0  0  0  0  0  0  0  0  0  0  0  0
   15.5191    9.8716   22.4702 H   0  0  0  0  0  0  0  0  0  0  0  0
   14.0232    9.0966   22.9609 H   0  0  0  0  0  0  0  0  0  0  0  0
   15.3622    9.2336   24.1219 H   0  0  0  0  0  0  0  0  0  0  0  0
   16.1098   12.1747   23.2930 H   0  0  0  0  0  0  0  0  0  0  0  0
   15.0483   13.0316   24.4315 H   0  0  0  0  0  0  0  0  0  0  0  0
   16.0181   11.6385   24.9616 H   0  0  0  0  0  0  0  0  0  0  0  0
   10.4728   14.7259   21.4181 H   0  0  0  0  0  0  0  0  0  0  0  0
   11.6920   15.1929   22.5803 H   0  0  0  0  0  0  0  0  0  0  0  0
   11.8638   12.4984   21.1562 H   0  0  0  0  0  0  0  0  0  0  0  0
    7.4599    8.3847   23.9346 H   0  0  0  0  0  0  0  0  0  0  0  0
   10.1241   11.7251   22.2696 H   0  0  0  0  0  0  0  0  0  0  0  0
  1  2  1  0  0  0  0
  1  3  2  0  0  0  0
  2  6  2  0  0  0  0
  3  7  1  0  0  0  0
  4  5  2  0  0  0  0
  4 10  1  0  0  0  0
  5 11  1  0  0  0  0
  6 13  1  0  0  0  0
  7 13  2  0  0  0  0
  8 11  2  0  0  0  0
  8 14  1  0  0  0  0
  9 12  2  0  0  0  0
  9 24  1  0  0  0  0
 10 12  1  0  0  0  0
 10 14  2  0  0  0  0
 11 16  1  0  0  0  0
 12 15  1  0  0  0  0
 13 21  1  0  0  0  0
 14 24  1  0  0  0  0
 15 26  2  0  0  0  0
 16 25  1  0  0  0  0
 16 27  2  0  0  0  0
 17 22  1  0  0  0  0
 17 28  2  0  0  0  0
 17 29  1  0  0  0  0
 18 23  1  0  0  0  0
 19 23  1  0  0  0  0
 20 23  1  0  0  0  0
 21 22  1  0  0  0  0
 22 25  1  1  0  0  0
 23 29  1  0  0  0  0
  1 30  1  0  0  0  0
  2 31  1  0  0  0  0
  3 32  1  0  0  0  0
  4 33  1  0  0  0  0
  5 34  1  0  0  0  0
  6 35  1  0  0  0  0
  7 36  1  0  0  0  0
  8 37  1  0  0  0  0
  9 38  1  0  0  0  0
 15 39  1  0  0  0  0
 18 40  1  0  0  0  0
 18 41  1  0  0  0  0
 18 42  1  0  0  0  0
 19 43  1  0  0  0  0
 19 44  1  0  0  0  0
 19 45  1  0  0  0  0
 20 46  1  0  0  0  0
 20 47  1  0  0  0  0
 20 48  1  0  0  0  0
 21 49  1  0  0  0  0
 21 50  1  0  0  0  0
 22 51  1  0  0  0  0
 24 52  1  0  0  0  0
 25 53  1  0  0  0  0
M  END
> <Catalog ID>
Z2707902954

> <MW>
392.448

> <MW (desalted)>
392.448

> <ClogP>
3.827

> <logS>
-5.273

> <HBD>
2

> <HBA>
3

> <TPSA>
88.26

> <RotBonds>
8

> <ROCS_ShapeQuery>
A71EV2A-x0451_0A_A71EV2A-x0310_0A_A71EV2A-x0416_0A_peptide

> <ROCS_TanimotoCombo>
0.530 

> <ROCS_ShapeTanimoto>
0.327 

> <ROCS_ColorTanimoto>
0.203 

> <ROCS_RefTversky>
0.303 

> <ROCS_RefColorTversky>
0.225 

> <ROCS_RefTverskyCombo>
0.529 

> <ROCS_FitTversky>
1.312 

> <ROCS_FitColorTversky>
0.678 

> <ROCS_FitTverskyCombo>
1.990 

> <ROCS_ColorScore>
-6.883

> <ROCS_Overlap>
2112.522

> <ROCS_Rank>
210                 

$$$$
untitled-dbase-11109_5061
  -OEChem-11132309573D

 53 55  0     0  0  0  0  0  0999 V2000
    7.5267    9.7393   24.7544 C   0  0  0  0  0  0  0  0  0  0  0  0
    6.6234   10.6869   25.2357 C   0  0  0  0  0  0  0  0  0  0  0  0
    8.0298   12.4586   24.3873 C   0  0  0  0  0  0  0  0  0  0  0  0
    8.9332   11.5110   23.9060 C   0  0  0  0  0  0  0  0  0  0  0  0
    8.6817   10.1514   24.0896 C   0  0  0  0  0  0  0  0  0  0  0  0
    6.8749   12.0465   25.0521 C   0  0  0  0  0  0  0  0  0  0  0  0
   14.3514   17.0877   18.7130 C   0  0  0  0  0  0  0  0  0  0  0  0
   13.6283   16.9005   19.8191 C   0  0  0  0  0  0  0  0  0  0  0  0
   12.2940   16.2793   19.7021 C   0  0  0  0  0  0  0  0  0  0  0  0
   10.8033   13.1263   23.4388 C   0  0  0  0  0  0  0  0  0  0  0  0
    5.3711   12.4520   29.3768 C   0  0  0  0  0  0  0  0  0  0  0  0
    3.8939   12.4114   29.0377 C   0  0  0  0  0  0  0  0  0  0  0  0
   11.5399   13.1036   21.0628 C   0  0  0  0  0  0  0  0  0  0  0  0
   12.7983   14.4902   22.7901 C   0  0  0  0  0  0  0  0  0  0  0  0
    6.0398   12.0035   28.0843 C   0  0  0  0  0  0  0  0  0  0  0  0
    3.8686   12.9659   27.6222 C   0  0  0  0  0  0  0  0  0  0  0  0
   10.9291   14.4015   20.5339 C   0  0  0  0  0  0  0  0  0  0  0  0
   12.1462   15.7381   22.1950 C   0  0  0  0  0  0  0  0  0  0  0  0
   11.9904   13.2144   22.5241 C   0  0  0  0  0  0  0  0  0  0  0  0
   11.8324   15.5263   20.7774 N   0  0  0  0  0  0  0  0  0  0  0  0
    5.1026   12.4142   26.9980 N   0  0  0  0  0  0  0  0  0  0  0  0
   10.1012   11.9451   23.2352 N   0  0  0  0  0  0  0  0  0  0  0  0
   11.6705   16.4620   18.6551 O   0  0  0  0  0  0  0  0  0  0  0  0
   10.5575   14.0246   24.2372 O   0  0  0  0  0  0  0  0  0  0  0  0
    6.4943   14.3882   26.1220 O   0  0  0  0  0  0  0  0  0  0  0  0
    4.6871   13.4065   24.6667 O   0  0  0  0  0  0  0  0  0  0  0  0
    9.5521    9.2098   23.6274 O   0  0  0  0  0  0  0  0  0  0  0  0
    5.7432   13.2317   25.6542 S   0  0  0  0  0  0  0  0  0  0  0  0
    7.3255    8.6817   24.9020 H   0  0  0  0  0  0  0  0  0  0  0  0
    5.7272   10.3540   25.7527 H   0  0  0  0  0  0  0  0  0  0  0  0
    8.2258   13.5191   24.2450 H   0  0  0  0  0  0  0  0  0  0  0  0
   15.3378   17.5387   18.7350 H   0  0  0  0  0  0  0  0  0  0  0  0
   13.9581   16.7856   17.7481 H   0  0  0  0  0  0  0  0  0  0  0  0
   13.9864   17.1880   20.7990 H   0  0  0  0  0  0  0  0  0  0  0  0
    5.6720   13.4787   29.6181 H   0  0  0  0  0  0  0  0  0  0  0  0
    5.6314   11.8128   30.2250 H   0  0  0  0  0  0  0  0  0  0  0  0
    3.5321   11.3762   29.0486 H   0  0  0  0  0  0  0  0  0  0  0  0
    3.2826   12.9985   29.7283 H   0  0  0  0  0  0  0  0  0  0  0  0
   10.8137   12.2901   20.9464 H   0  0  0  0  0  0  0  0  0  0  0  0
   12.4080   12.8450   20.4429 H   0  0  0  0  0  0  0  0  0  0  0  0
   13.7988   14.3748   22.3541 H   0  0  0  0  0  0  0  0  0  0  0  0
   12.9359   14.6351   23.8685 H   0  0  0  0  0  0  0  0  0  0  0  0
    7.0290   12.4569   27.9727 H   0  0  0  0  0  0  0  0  0  0  0  0
    6.1454   10.9140   28.0517 H   0  0  0  0  0  0  0  0  0  0  0  0
    2.9793   12.6417   27.0755 H   0  0  0  0  0  0  0  0  0  0  0  0
    3.9121   14.0606   27.6386 H   0  0  0  0  0  0  0  0  0  0  0  0
   10.7149   14.2951   19.4656 H   0  0  0  0  0  0  0  0  0  0  0  0
    9.9796   14.6209   21.0358 H   0  0  0  0  0  0  0  0  0  0  0  0
   11.2004   15.9581   22.7042 H   0  0  0  0  0  0  0  0  0  0  0  0
   12.7858   16.6063   22.3566 H   0  0  0  0  0  0  0  0  0  0  0  0
   12.6139   12.3444   22.7655 H   0  0  0  0  0  0  0  0  0  0  0  0
   10.4577   11.3092   22.5249 H   0  0  0  0  0  0  0  0  0  0  0  0
    9.2265    8.3210   23.8387 H   0  0  0  0  0  0  0  0  0  0  0  0
  1  2  2  0  0  0  0
  1  5  1  0  0  0  0
  2  6  1  0  0  0  0
  3  4  1  0  0  0  0
  3  6  2  0  0  0  0
  4  5  2  0  0  0  0
  4 22  1  0  0  0  0
  5 27  1  0  0  0  0
  6 28  1  0  0  0  0
  7  8  2  0  0  0  0
  8  9  1  0  0  0  0
  9 20  1  0  0  0  0
  9 23  2  0  0  0  0
 10 19  1  0  0  0  0
 10 22  1  0  0  0  0
 10 24  2  0  0  0  0
 11 12  1  0  0  0  0
 11 15  1  0  0  0  0
 12 16  1  0  0  0  0
 13 17  1  0  0  0  0
 13 19  1  0  0  0  0
 14 18  1  0  0  0  0
 14 19  1  0  0  0  0
 15 21  1  0  0  0  0
 16 21  1  0  0  0  0
 17 20  1  0  0  0  0
 18 20  1  0  0  0  0
 21 28  1  0  0  0  0
 25 28  2  0  0  0  0
 26 28  2  0  0  0  0
  1 29  1  0  0  0  0
  2 30  1  0  0  0  0
  3 31  1  0  0  0  0
  7 32  1  0  0  0  0
  7 33  1  0  0  0  0
  8 34  1  0  0  0  0
 11 35  1  0  0  0  0
 11 36  1  0  0  0  0
 12 37  1  0  0  0  0
 12 38  1  0  0  0  0
 13 39  1  0  0  0  0
 13 40  1  0  0  0  0
 14 41  1  0  0  0  0
 14 42  1  0  0  0  0
 15 43  1  0  0  0  0
 15 44  1  0  0  0  0
 16 45  1  0  0  0  0
 16 46  1  0  0  0  0
 17 47  1  0  0  0  0
 17 48  1  0  0  0  0
 18 49  1  0  0  0  0
 18 50  1  0  0  0  0
 19 51  1  0  0  0  0
 22 52  1  0  0  0  0
 27 53  1  0  0  0  0
M  END
> <Catalog ID>
Z1576235946

> <MW>
407.484

> <MW (desalted)>
407.484

> <ClogP>
0.924

> <logS>
-3.018

> <HBD>
2

> <HBA>
5

> <TPSA>
107.02

> <RotBonds>
4

> <ROCS_ShapeQuery>
A71EV2A-x0451_0A_A71EV2A-x0310_0A_A71EV2A-x0416_0A_peptide

> <ROCS_TanimotoCombo>
0.530 

> <ROCS_ShapeTanimoto>
0.384 

> <ROCS_ColorTanimoto>
0.147 

> <ROCS_RefTversky>
0.338 

> <ROCS_RefColorTversky>
0.178 

> <ROCS_RefTverskyCombo>
0.516 

> <ROCS_FitTversky>
1.540 

> <ROCS_FitColorTversky>
0.453 

> <ROCS_FitTverskyCombo>
1.993 

> <ROCS_ColorScore>
-5.458

> <ROCS_Overlap>
2354.009

> <ROCS_Rank>
211                 

$$$$
untitled-dbase-1903_8492
  -OEChem-11132309573D

 38 39  0     0  0  0  0  0  0999 V2000
    7.7106   10.5147   25.0061 C   0  0  0  0  0  0  0  0  0  0  0  0
    8.7140   11.3896   23.2735 C   0  0  0  0  0  0  0  0  0  0  0  0
    6.9677   10.5608   26.2187 C   0  0  0  0  0  0  0  0  0  0  0  0
    6.9239   13.0016   26.0399 C   0  0  0  0  0  0  0  0  0  0  0  0
    7.6254   12.9563   24.8950 C   0  0  0  0  0  0  0  0  0  0  0  0
    6.5831   11.7534   26.7263 C   0  0  0  0  0  0  0  0  0  0  0  0
   14.6838   17.2002   21.3037 C   0  0  0  0  0  0  0  0  0  0  0  0
   13.4619   16.6675   21.2002 C   0  0  0  0  0  0  0  0  0  0  0  0
   12.9156   15.8305   22.3063 C   0  0  0  0  0  0  0  0  0  0  0  0
   11.2321   13.4866   23.3295 C   0  0  0  0  0  0  0  0  0  0  0  0
   13.9697   13.9279   21.1463 C   0  0  0  0  0  0  0  0  0  0  0  0
    9.2387   12.3834   22.3179 C   0  0  0  0  0  0  0  0  0  0  0  0
   12.7366   13.4770   23.2370 C   0  0  0  0  0  0  0  0  0  0  0  0
    5.8003   11.8460   28.0007 C   0  0  0  0  0  0  0  0  0  0  0  0
    8.2100    9.5297   24.2901 N   0  0  0  0  0  0  0  0  0  0  0  0
    8.8434   10.0838   23.1954 N   0  0  0  0  0  0  0  0  0  0  0  0
    8.0082   11.7205   24.3943 N   0  0  0  0  0  0  0  0  0  0  0  0
   10.6665   12.5850   22.4410 N   0  0  0  0  0  0  0  0  0  0  0  0
   13.1757   14.4638   22.2396 N   0  0  0  0  0  0  0  0  0  0  0  0
   12.2520   16.3576   23.2006 O   0  0  0  0  0  0  0  0  0  0  0  0
   10.6072   14.2076   24.1028 O   0  0  0  0  0  0  0  0  0  0  0  0
    5.5658   10.6206   28.5119 F   0  0  0  0  0  0  0  0  0  0  0  0
    6.4692   12.5605   28.9280 F   0  0  0  0  0  0  0  0  0  0  0  0
    4.6093   12.4446   27.7969 F   0  0  0  0  0  0  0  0  0  0  0  0
    6.7213    9.6304   26.7191 H   0  0  0  0  0  0  0  0  0  0  0  0
    6.6078   13.9488   26.4615 H   0  0  0  0  0  0  0  0  0  0  0  0
    7.9051   13.8466   24.3458 H   0  0  0  0  0  0  0  0  0  0  0  0
   15.1214   17.8150   20.5249 H   0  0  0  0  0  0  0  0  0  0  0  0
   15.2765   17.0284   22.1962 H   0  0  0  0  0  0  0  0  0  0  0  0
   12.8570   16.8785   20.3270 H   0  0  0  0  0  0  0  0  0  0  0  0
   15.0327   13.9293   21.4295 H   0  0  0  0  0  0  0  0  0  0  0  0
   13.6491   12.8979   20.9311 H   0  0  0  0  0  0  0  0  0  0  0  0
   13.8281   14.5507   20.2508 H   0  0  0  0  0  0  0  0  0  0  0  0
    9.0486   12.0883   21.2702 H   0  0  0  0  0  0  0  0  0  0  0  0
    8.7684   13.3750   22.4439 H   0  0  0  0  0  0  0  0  0  0  0  0
   13.1672   13.7321   24.2098 H   0  0  0  0  0  0  0  0  0  0  0  0
   13.0834   12.4839   22.9366 H   0  0  0  0  0  0  0  0  0  0  0  0
   11.2839   12.0399   21.8478 H   0  0  0  0  0  0  0  0  0  0  0  0
  1  3  1  0  0  0  0
  1 15  2  0  0  0  0
  1 17  1  0  0  0  0
  2 12  1  0  0  0  0
  2 16  2  0  0  0  0
  2 17  1  0  0  0  0
  3  6  2  0  0  0  0
  4  5  2  0  0  0  0
  4  6  1  0  0  0  0
  5 17  1  0  0  0  0
  6 14  1  0  0  0  0
  7  8  2  0  0  0  0
  8  9  1  0  0  0  0
  9 19  1  0  0  0  0
  9 20  2  0  0  0  0
 10 13  1  0  0  0  0
 10 18  1  0  0  0  0
 10 21  2  0  0  0  0
 11 19  1  0  0  0  0
 12 18  1  0  0  0  0
 13 19  1  0  0  0  0
 14 22  1  0  0  0  0
 14 23  1  0  0  0  0
 14 24  1  0  0  0  0
 15 16  1  0  0  0  0
  3 25  1  0  0  0  0
  4 26  1  0  0  0  0
  5 27  1  0  0  0  0
  7 28  1  0  0  0  0
  7 29  1  0  0  0  0
  8 30  1  0  0  0  0
 11 31  1  0  0  0  0
 11 32  1  0  0  0  0
 11 33  1  0  0  0  0
 12 34  1  0  0  0  0
 12 35  1  0  0  0  0
 13 36  1  0  0  0  0
 13 37  1  0  0  0  0
 18 38  1  0  0  0  0
M  END
> <Catalog ID>
Z2915253877

> <MW>
341.288

> <MW (desalted)>
341.288

> <ClogP>
0.218

> <logS>
-2.944

> <HBD>
1

> <HBA>
4

> <TPSA>
79.6

> <RotBonds>
6

> <ROCS_ShapeQuery>
A71EV2A-x0451_0A_A71EV2A-x0310_0A_A71EV2A-x0416_0A_peptide

> <ROCS_TanimotoCombo>
0.530 

> <ROCS_ShapeTanimoto>
0.327 

> <ROCS_ColorTanimoto>
0.203 

> <ROCS_RefTversky>
0.296 

> <ROCS_RefColorTversky>
0.222 

> <ROCS_RefTverskyCombo>
0.518 

> <ROCS_FitTversky>
1.468 

> <ROCS_FitColorTversky>
0.713 

> <ROCS_FitTverskyCombo>
2.181 

> <ROCS_ColorScore>
-6.766

> <ROCS_Overlap>
2057.899

> <ROCS_Rank>
212                 

$$$$
untitled-dbase-4219_371
  -OEChem-11132309573D

 36 38  0     0  0  0  0  0  0999 V2000
    8.6874   15.0943   19.7451 C   0  0  0  0  0  0  0  0  0  0  0  0
   11.3216    9.3724   23.1561 C   0  0  0  0  0  0  0  0  0  0  0  0
   14.6221   16.1293   19.2550 C   0  0  0  0  0  0  0  0  0  0  0  0
   10.0547    9.0351   23.6318 C   0  0  0  0  0  0  0  0  0  0  0  0
   11.7189   10.7069   23.1155 C   0  0  0  0  0  0  0  0  0  0  0  0
   13.4175   16.0381   18.5177 C   0  0  0  0  0  0  0  0  0  0  0  0
    8.6787   12.3711   24.4753 C   0  0  0  0  0  0  0  0  0  0  0  0
    7.4333   11.9730   24.9370 C   0  0  0  0  0  0  0  0  0  0  0  0
    7.8944    9.7553   24.5572 C   0  0  0  0  0  0  0  0  0  0  0  0
   14.2876   15.8797   20.5656 C   0  0  0  0  0  0  0  0  0  0  0  0
    9.1731   10.0363   24.0718 C   0  0  0  0  0  0  0  0  0  0  0  0
    9.5716   11.3885   24.0323 C   0  0  0  0  0  0  0  0  0  0  0  0
   10.8510   11.7101   23.5504 C   0  0  0  0  0  0  0  0  0  0  0  0
   12.4327   15.7391   19.4303 C   0  0  0  0  0  0  0  0  0  0  0  0
   10.9996   15.5427   19.1628 C   0  0  0  0  0  0  0  0  0  0  0  0
   10.0607   15.2710   20.0897 C   0  0  0  0  0  0  0  0  0  0  0  0
   10.5356   15.1416   21.5091 C   0  0  0  0  0  0  0  0  0  0  0  0
    7.5695   14.9494   19.4693 N   0  0  0  0  0  0  0  0  0  0  0  0
    7.0177   10.6896   24.9895 N   0  0  0  0  0  0  0  0  0  0  0  0
   10.9345   13.8157   21.8844 N   0  0  0  0  0  0  0  0  0  0  0  0
   10.5741   16.0908   22.2835 O   0  0  0  0  0  0  0  0  0  0  0  0
   10.7290   14.1642   24.4384 O   0  0  0  0  0  0  0  0  0  0  0  0
   12.8946   13.2999   23.4873 O   0  0  0  0  0  0  0  0  0  0  0  0
   12.9549   15.6408   20.6810 O   0  0  0  0  0  0  0  0  0  0  0  0
   11.4430   13.3618   23.4593 S   0  0  0  0  0  0  0  0  0  0  0  0
   11.9981    8.5936   22.8169 H   0  0  0  0  0  0  0  0  0  0  0  0
   15.6098   16.3520   18.8782 H   0  0  0  0  0  0  0  0  0  0  0  0
    9.7610    7.9883   23.6579 H   0  0  0  0  0  0  0  0  0  0  0  0
   12.7099   10.9523   22.7423 H   0  0  0  0  0  0  0  0  0  0  0  0
   13.2926   16.1763   17.4525 H   0  0  0  0  0  0  0  0  0  0  0  0
    8.9189   13.4290   24.4733 H   0  0  0  0  0  0  0  0  0  0  0  0
    6.7137   12.7053   25.2886 H   0  0  0  0  0  0  0  0  0  0  0  0
    7.5249    8.7351   24.6137 H   0  0  0  0  0  0  0  0  0  0  0  0
   14.8513   15.8395   21.4863 H   0  0  0  0  0  0  0  0  0  0  0  0
   10.7376   15.6566   18.1131 H   0  0  0  0  0  0  0  0  0  0  0  0
   10.8793   13.0538   21.1977 H   0  0  0  0  0  0  0  0  0  0  0  0
  1 16  1  0  0  0  0
  1 18  3  0  0  0  0
  2  4  1  0  0  0  0
  2  5  2  0  0  0  0
  3  6  1  0  0  0  0
  3 10  2  0  0  0  0
  4 11  2  0  0  0  0
  5 13  1  0  0  0  0
  6 14  2  0  0  0  0
  7  8  2  0  0  0  0
  7 12  1  0  0  0  0
  8 19  1  0  0  0  0
  9 11  1  0  0  0  0
  9 19  2  0  0  0  0
 10 24  1  0  0  0  0
 11 12  1  0  0  0  0
 12 13  2  0  0  0  0
 13 25  1  0  0  0  0
 14 15  1  4  0  0  0
 14 24  1  0  0  0  0
 15 16  2  0  0  0  0
 16 17  1  0  0  0  0
 17 20  1  0  0  0  0
 17 21  2  0  0  0  0
 20 25  1  0  0  0  0
 22 25  2  0  0  0  0
 23 25  2  0  0  0  0
  2 26  1  0  0  0  0
  3 27  1  0  0  0  0
  4 28  1  0  0  0  0
  5 29  1  0  0  0  0
  6 30  1  0  0  0  0
  7 31  1  0  0  0  0
  8 32  1  0  0  0  0
  9 33  1  0  0  0  0
 10 34  1  0  0  0  0
 15 35  1  0  0  0  0
 20 36  1  0  0  0  0
M  END
> <Catalog ID>
Z1169594480

> <MW>
353.352

> <MW (desalted)>
353.352

> <ClogP>
2.05

> <logS>
-4.42

> <HBD>
1

> <HBA>
5

> <TPSA>
113.06

> <RotBonds>
3

> <ROCS_ShapeQuery>
A71EV2A-x0451_0A_A71EV2A-x0310_0A_A71EV2A-x0416_0A_peptide

> <ROCS_TanimotoCombo>
0.530 

> <ROCS_ShapeTanimoto>
0.347 

> <ROCS_ColorTanimoto>
0.183 

> <ROCS_RefTversky>
0.311 

> <ROCS_RefColorTversky>
0.211 

> <ROCS_RefTverskyCombo>
0.522 

> <ROCS_FitTversky>
1.505 

> <ROCS_FitColorTversky>
0.582 

> <ROCS_FitTverskyCombo>
2.086 

> <ROCS_ColorScore>
-6.452

> <ROCS_Overlap>
2161.404

> <ROCS_Rank>
213                 

$$$$
untitled-dbase-8070_16
  -OEChem-11132309573D

 40 42  0     0  0  0  0  0  0999 V2000
   11.5553   10.6903   22.7824 C   0  0  0  0  0  0  0  0  0  0  0  0
    6.8965   13.6469   25.0692 C   0  0  0  0  0  0  0  0  0  0  0  0
    5.9097   12.7056   25.4190 C   0  0  0  0  0  0  0  0  0  0  0  0
    8.1111   13.2411   24.5043 C   0  0  0  0  0  0  0  0  0  0  0  0
    6.1182   11.3413   25.2110 C   0  0  0  0  0  0  0  0  0  0  0  0
    8.3110   11.8884   24.3011 C   0  0  0  0  0  0  0  0  0  0  0  0
    7.3251   10.9721   24.6528 C   0  0  0  0  0  0  0  0  0  0  0  0
    9.4084   11.0914   23.7535 C   0  0  0  0  0  0  0  0  0  0  0  0
    7.8904    9.6801   24.2955 C   0  0  0  0  0  0  0  0  0  0  0  0
   10.5674   11.5827   23.2904 C   0  0  0  0  0  0  0  0  0  0  0  0
   10.7634   13.0710   23.3332 C   0  0  0  0  0  0  0  0  0  0  0  0
   13.8771   15.4034   20.7140 C   0  0  0  0  0  0  0  0  0  0  0  0
   13.7264   15.0284   22.1859 C   0  0  0  0  0  0  0  0  0  0  0  0
   12.6787   14.9494   19.8849 C   0  0  0  0  0  0  0  0  0  0  0  0
   12.4079   15.5424   22.7655 C   0  0  0  0  0  0  0  0  0  0  0  0
   11.3626   15.4640   20.4698 C   0  0  0  0  0  0  0  0  0  0  0  0
   11.1859   15.0993   21.9498 C   0  0  0  0  0  0  0  0  0  0  0  0
   12.3614    9.9659   22.3674 N   0  0  0  0  0  0  0  0  0  0  0  0
    9.0839    9.7421   23.7800 N   0  0  0  0  0  0  0  0  0  0  0  0
    7.1814    8.5294   24.5069 N   0  0  0  0  0  0  0  0  0  0  0  0
   10.9753   13.6573   22.0950 N   0  0  0  0  0  0  0  0  0  0  0  0
   10.7348   13.6969   24.3917 O   0  0  0  0  0  0  0  0  0  0  0  0
    6.7108   14.7042   25.2407 H   0  0  0  0  0  0  0  0  0  0  0  0
    4.9756   13.0483   25.8561 H   0  0  0  0  0  0  0  0  0  0  0  0
    8.8633   13.9765   24.2402 H   0  0  0  0  0  0  0  0  0  0  0  0
    5.3591   10.6171   25.4808 H   0  0  0  0  0  0  0  0  0  0  0  0
   13.9993   16.4895   20.6212 H   0  0  0  0  0  0  0  0  0  0  0  0
   14.7913   14.9456   20.3135 H   0  0  0  0  0  0  0  0  0  0  0  0
   13.7768   13.9397   22.2960 H   0  0  0  0  0  0  0  0  0  0  0  0
   14.5631   15.4478   22.7573 H   0  0  0  0  0  0  0  0  0  0  0  0
   12.7868   15.3139   18.8564 H   0  0  0  0  0  0  0  0  0  0  0  0
   12.6568   13.8553   19.8367 H   0  0  0  0  0  0  0  0  0  0  0  0
   12.3118   15.1868   23.8060 H   0  0  0  0  0  0  0  0  0  0  0  0
   12.4453   16.6432   22.8179 H   0  0  0  0  0  0  0  0  0  0  0  0
   11.3196   16.5590   20.3449 H   0  0  0  0  0  0  0  0  0  0  0  0
   10.5245   15.0528   19.8807 H   0  0  0  0  0  0  0  0  0  0  0  0
   10.2906   15.5755   22.3412 H   0  0  0  0  0  0  0  0  0  0  0  0
    7.5980    7.6629   24.2509 H   0  0  0  0  0  0  0  0  0  0  0  0
    6.2740    8.5993   24.9091 H   0  0  0  0  0  0  0  0  0  0  0  0
   11.0019   13.0956   21.2498 H   0  0  0  0  0  0  0  0  0  0  0  0
  1 10  1  0  0  0  0
  1 18  3  0  0  0  0
  2  3  1  0  0  0  0
  2  4  2  0  0  0  0
  3  5  2  0  0  0  0
  4  6  1  0  0  0  0
  5  7  1  0  0  0  0
  6  7  2  0  0  0  0
  6  8  1  0  0  0  0
  7  9  1  0  0  0  0
  8 10  2  0  0  0  0
  8 19  1  4  0  0  0
  9 19  2  0  0  0  0
  9 20  1  0  0  0  0
 10 11  1  0  0  0  0
 11 21  1  0  0  0  0
 11 22  2  0  0  0  0
 12 13  1  0  0  0  0
 12 14  1  0  0  0  0
 13 15  1  0  0  0  0
 14 16  1  0  0  0  0
 15 17  1  0  0  0  0
 16 17  1  0  0  0  0
 17 21  1  0  0  0  0
  2 23  1  0  0  0  0
  3 24  1  0  0  0  0
  4 25  1  0  0  0  0
  5 26  1  0  0  0  0
 12 27  1  0  0  0  0
 12 28  1  0  0  0  0
 13 29  1  0  0  0  0
 13 30  1  0  0  0  0
 14 31  1  0  0  0  0
 14 32  1  0  0  0  0
 15 33  1  0  0  0  0
 15 34  1  0  0  0  0
 16 35  1  0  0  0  0
 16 36  1  0  0  0  0
 17 37  1  0  0  0  0
 20 38  1  0  0  0  0
 20 39  1  0  0  0  0
 21 40  1  0  0  0  0
M  END
> <Catalog ID>
Z55625871

> <MW>
294.148

> <MW (desalted)>
294.351

> <ClogP>
1.882

> <logS>
-3.9

> <HBD>
2

> <HBA>
4

> <TPSA>
91.27

> <RotBonds>
2

> <ROCS_ShapeQuery>
A71EV2A-x0451_0A_A71EV2A-x0310_0A_A71EV2A-x0416_0A_peptide

> <ROCS_TanimotoCombo>
0.530 

> <ROCS_ShapeTanimoto>
0.362 

> <ROCS_ColorTanimoto>
0.168 

> <ROCS_RefTversky>
0.316 

> <ROCS_RefColorTversky>
0.187 

> <ROCS_RefTverskyCombo>
0.503 

> <ROCS_FitTversky>
1.676 

> <ROCS_FitColorTversky>
0.622 

> <ROCS_FitTverskyCombo>
2.298 

> <ROCS_ColorScore>
-5.722

> <ROCS_Overlap>
2192.446

> <ROCS_Rank>
214                 

$$$$
untitled-dbase-2978_5927
  -OEChem-11132309573D

 52 54  0     0  0  0  0  0  0999 V2000
   13.2882   13.9209   22.8913 C   0  0  0  0  0  0  0  0  0  0  0  0
    8.4300    9.3450   24.0709 C   0  0  0  0  0  0  0  0  0  0  0  0
    9.4500   10.1171   23.5149 C   0  0  0  0  0  0  0  0  0  0  0  0
    7.3113    9.9643   24.6283 C   0  0  0  0  0  0  0  0  0  0  0  0
    8.2326   12.1277   24.0739 C   0  0  0  0  0  0  0  0  0  0  0  0
   12.5623   15.4434   20.4710 C   0  0  0  0  0  0  0  0  0  0  0  0
    9.3513   11.5084   23.5164 C   0  0  0  0  0  0  0  0  0  0  0  0
    7.2126   11.3556   24.6298 C   0  0  0  0  0  0  0  0  0  0  0  0
   13.1381   16.7274   20.5111 C   0  0  0  0  0  0  0  0  0  0  0  0
   13.0933   14.8639   19.3447 C   0  0  0  0  0  0  0  0  0  0  0  0
   11.6052   14.8254   21.4020 C   0  0  0  0  0  0  0  0  0  0  0  0
   11.9281   14.1216   22.5052 C   0  0  0  0  0  0  0  0  0  0  0  0
   10.7787   13.5747   23.3247 C   0  0  0  0  0  0  0  0  0  0  0  0
    4.4114   13.0789   29.0134 C   0  0  0  0  0  0  0  0  0  0  0  0
    3.8904   11.9211   28.1640 C   0  0  0  0  0  0  0  0  0  0  0  0
    5.5163   13.8423   28.2858 C   0  0  0  0  0  0  0  0  0  0  0  0
    5.0278   11.0158   27.7051 C   0  0  0  0  0  0  0  0  0  0  0  0
    6.6259   12.9042   27.8247 C   0  0  0  0  0  0  0  0  0  0  0  0
   12.9229   17.7891   21.5113 C   0  0  0  0  0  0  0  0  0  0  0  0
   12.9093   13.5387   18.7265 C   0  0  0  0  0  0  0  0  0  0  0  0
   14.3920   13.7558   23.2096 N   0  0  0  0  0  0  0  0  0  0  0  0
   13.9713   16.9509   19.4913 N   0  0  0  0  0  0  0  0  0  0  0  0
   13.9229   15.7995   18.8000 N   0  0  0  0  0  0  0  0  0  0  0  0
    6.0677   11.8053   26.9886 N   0  0  0  0  0  0  0  0  0  0  0  0
   10.3713   12.2808   22.9601 N   0  0  0  0  0  0  0  0  0  0  0  0
   10.2791   14.2494   24.2216 O   0  0  0  0  0  0  0  0  0  0  0  0
    5.9230   13.5632   25.1166 O   0  0  0  0  0  0  0  0  0  0  0  0
    4.6226   11.4163   24.8989 O   0  0  0  0  0  0  0  0  0  0  0  0
    5.7973   12.1388   25.3362 S   0  0  0  0  0  0  0  0  0  0  0  0
    8.5063    8.2616   24.0694 H   0  0  0  0  0  0  0  0  0  0  0  0
   10.3167    9.6233   23.0827 H   0  0  0  0  0  0  0  0  0  0  0  0
    6.5226    9.3534   25.0593 H   0  0  0  0  0  0  0  0  0  0  0  0
    8.1549   13.2128   24.0753 H   0  0  0  0  0  0  0  0  0  0  0  0
   10.5672   15.0030   21.1296 H   0  0  0  0  0  0  0  0  0  0  0  0
    3.5849   13.7635   29.2472 H   0  0  0  0  0  0  0  0  0  0  0  0
    4.7904   12.6976   29.9696 H   0  0  0  0  0  0  0  0  0  0  0  0
    3.1720   11.3378   28.7531 H   0  0  0  0  0  0  0  0  0  0  0  0
    3.3529   12.3132   27.2939 H   0  0  0  0  0  0  0  0  0  0  0  0
    5.0948   14.3713   27.4241 H   0  0  0  0  0  0  0  0  0  0  0  0
    5.9333   14.6011   28.9595 H   0  0  0  0  0  0  0  0  0  0  0  0
    5.4766   10.5346   28.5863 H   0  0  0  0  0  0  0  0  0  0  0  0
    4.6472   10.2212   27.0455 H   0  0  0  0  0  0  0  0  0  0  0  0
    7.3858   13.4563   27.2508 H   0  0  0  0  0  0  0  0  0  0  0  0
    7.1192   12.4758   28.7095 H   0  0  0  0  0  0  0  0  0  0  0  0
   13.6457   17.7086   22.3403 H   0  0  0  0  0  0  0  0  0  0  0  0
   13.0263   18.7980   21.0750 H   0  0  0  0  0  0  0  0  0  0  0  0
   11.9092   17.7498   21.9472 H   0  0  0  0  0  0  0  0  0  0  0  0
   12.0784   13.5482   18.0010 H   0  0  0  0  0  0  0  0  0  0  0  0
   13.8142   13.1995   18.1923 H   0  0  0  0  0  0  0  0  0  0  0  0
   12.6891   12.7574   19.4753 H   0  0  0  0  0  0  0  0  0  0  0  0
   14.4854   15.7208   17.9616 H   0  0  0  0  0  0  0  0  0  0  0  0
   10.8894   11.8490   22.1867 H   0  0  0  0  0  0  0  0  0  0  0  0
  1 12  1  0  0  0  0
  1 21  3  0  0  0  0
  2  3  2  0  0  0  0
  2  4  1  0  0  0  0
  3  7  1  0  0  0  0
  4  8  2  0  0  0  0
  5  7  2  0  0  0  0
  5  8  1  0  0  0  0
  6  9  1  0  0  0  0
  6 10  2  0  0  0  0
  6 11  1  4  0  0  0
  7 25  1  0  0  0  0
  8 29  1  0  0  0  0
  9 19  1  0  0  0  0
  9 22  2  0  0  0  0
 10 20  1  0  0  0  0
 10 23  1  0  0  0  0
 11 12  2  0  0  0  0
 12 13  1  0  0  0  0
 13 25  1  0  0  0  0
 13 26  2  0  0  0  0
 14 15  1  0  0  0  0
 14 16  1  0  0  0  0
 15 17  1  0  0  0  0
 16 18  1  0  0  0  0
 17 24  1  0  0  0  0
 18 24  1  0  0  0  0
 22 23  1  0  0  0  0
 24 29  1  0  0  0  0
 27 29  2  0  0  0  0
 28 29  2  0  0  0  0
  2 30  1  0  0  0  0
  3 31  1  0  0  0  0
  4 32  1  0  0  0  0
  5 33  1  0  0  0  0
 11 34  1  0  0  0  0
 14 35  1  0  0  0  0
 14 36  1  0  0  0  0
 15 37  1  0  0  0  0
 15 38  1  0  0  0  0
 16 39  1  0  0  0  0
 16 40  1  0  0  0  0
 17 41  1  0  0  0  0
 17 42  1  0  0  0  0
 18 43  1  0  0  0  0
 18 44  1  0  0  0  0
 19 45  1  0  0  0  0
 19 46  1  0  0  0  0
 19 47  1  0  0  0  0
 20 48  1  0  0  0  0
 20 49  1  0  0  0  0
 20 50  1  0  0  0  0
 23 51  1  0  0  0  0
 25 52  1  0  0  0  0
M  END
> <Catalog ID>
Z449717398

> <MW>
413.493

> <MW (desalted)>
413.493

> <ClogP>
2.472

> <logS>
-4.187

> <HBD>
2

> <HBA>
5

> <TPSA>
118.95

> <RotBonds>
4

> <ROCS_ShapeQuery>
A71EV2A-x0451_0A_A71EV2A-x0310_0A_A71EV2A-x0416_0A_peptide

> <ROCS_TanimotoCombo>
0.530 

> <ROCS_ShapeTanimoto>
0.358 

> <ROCS_ColorTanimoto>
0.171 

> <ROCS_RefTversky>
0.324 

> <ROCS_RefColorTversky>
0.199 

> <ROCS_RefTverskyCombo>
0.523 

> <ROCS_FitTversky>
1.429 

> <ROCS_FitColorTversky>
0.551 

> <ROCS_FitTverskyCombo>
1.980 

> <ROCS_ColorScore>
-6.106

> <ROCS_Overlap>
2252.442

> <ROCS_Rank>
215                 

$$$$
untitled-dbase-5566_1272
  -OEChem-11132309573D

 66 69  0     1  0  0  0  0  0999 V2000
   13.3427   16.8127   18.7030 C   0  0  0  0  0  0  0  0  0  0  0  0
   12.2095   16.1012   18.3089 C   0  0  0  0  0  0  0  0  0  0  0  0
   13.9861   16.4930   19.8987 C   0  0  0  0  0  0  0  0  0  0  0  0
   11.7196   15.0702   19.1105 C   0  0  0  0  0  0  0  0  0  0  0  0
   13.4962   15.4620   20.7003 C   0  0  0  0  0  0  0  0  0  0  0  0
   12.3630   14.7505   20.3062 C   0  0  0  0  0  0  0  0  0  0  0  0
   11.5561   13.4680   23.6783 C   0  0  0  0  0  0  0  0  0  0  0  0
    5.6712   12.9387   27.1908 C   0  0  0  0  0  0  0  0  0  0  0  0
    5.9043   12.5309   25.9415 C   0  0  0  0  0  0  0  0  0  0  0  0
    7.2352   12.7725   25.3490 C   0  0  0  0  0  0  0  0  0  0  0  0
    7.8707    9.4299   23.9616 C   0  0  0  0  0  0  0  0  0  0  0  0
    9.2018    9.6601   23.2519 C   0  0  0  0  0  0  0  0  0  0  0  0
   13.0050   12.2818   26.2219 C   0  0  0  0  0  0  0  0  0  0  0  0
   14.6162   12.1910   24.2535 C   0  0  0  0  0  0  0  0  0  0  0  0
   12.0185   11.5420   25.3117 C   0  0  0  0  0  0  0  0  0  0  0  0
   13.4872   11.7281   23.3207 C   0  0  0  0  0  0  0  0  0  0  0  0
    6.9808   10.6714   23.9228 C   0  0  0  0  0  0  0  0  0  0  0  0
    8.9843   12.1212   23.7393 C   0  0  0  0  0  0  0  0  0  0  0  0
    9.9035   10.8997   23.8125 C   0  0  2  0  0  0  0  0  0  0  0  0
   14.1557   12.9638   25.4834 C   0  0  0  0  0  0  0  0  0  0  0  0
   12.0486   12.0190   23.8357 C   0  0  0  0  0  0  0  0  0  0  0  0
   17.3087   14.2498   26.8775 C   0  0  0  0  0  0  0  0  0  0  0  0
   11.8349   13.6385   21.1716 C   0  0  0  0  0  0  0  0  0  0  0  0
   16.1575   14.1258   25.9022 C   0  0  0  0  0  0  0  0  0  0  0  0
   11.1397   14.2839   24.6192 N   0  0  0  0  0  0  0  0  0  0  0  0
   10.8107   15.4555   23.9757 N   0  0  0  0  0  0  0  0  0  0  0  0
   11.0225   15.3578   22.6689 N   0  0  0  0  0  0  0  0  0  0  0  0
   11.4882   14.1145   22.4855 N   0  0  0  0  0  0  0  0  0  0  0  0
    7.6974   11.8652   24.3969 N   0  0  0  0  0  0  0  0  0  0  0  0
   11.1312   11.1555   23.0618 N   0  0  0  0  0  0  0  0  0  0  0  0
    7.8552   13.7668   25.7304 O   0  0  0  0  0  0  0  0  0  0  0  0
   15.2636   13.1243   26.3666 O   0  0  0  0  0  0  0  0  0  0  0  0
   13.7248   17.6146   18.0781 H   0  0  0  0  0  0  0  0  0  0  0  0
   11.7091   16.3492   17.3774 H   0  0  0  0  0  0  0  0  0  0  0  0
   14.8690   17.0460   20.2053 H   0  0  0  0  0  0  0  0  0  0  0  0
   10.8360   14.5214   18.7956 H   0  0  0  0  0  0  0  0  0  0  0  0
   14.0039   15.2200   21.6303 H   0  0  0  0  0  0  0  0  0  0  0  0
    4.7143   12.7899   27.6799 H   0  0  0  0  0  0  0  0  0  0  0  0
    6.4518   13.4383   27.7547 H   0  0  0  0  0  0  0  0  0  0  0  0
    5.1516   12.0291   25.3476 H   0  0  0  0  0  0  0  0  0  0  0  0
    7.3467    8.5881   23.4947 H   0  0  0  0  0  0  0  0  0  0  0  0
    8.0571    9.1498   25.0060 H   0  0  0  0  0  0  0  0  0  0  0  0
    9.8367    8.7738   23.3713 H   0  0  0  0  0  0  0  0  0  0  0  0
    9.0190    9.7799   22.1758 H   0  0  0  0  0  0  0  0  0  0  0  0
   12.4582   13.0377   26.8181 H   0  0  0  0  0  0  0  0  0  0  0  0
   13.4117   11.5874   26.9832 H   0  0  0  0  0  0  0  0  0  0  0  0
   15.2350   11.3208   24.5654 H   0  0  0  0  0  0  0  0  0  0  0  0
   15.3304   12.8167   23.6751 H   0  0  0  0  0  0  0  0  0  0  0  0
   12.2186   10.4638   25.3698 H   0  0  0  0  0  0  0  0  0  0  0  0
   11.0074   11.6790   25.7203 H   0  0  0  0  0  0  0  0  0  0  0  0
   13.6310   12.2146   22.3407 H   0  0  0  0  0  0  0  0  0  0  0  0
   13.6088   10.6493   23.1266 H   0  0  0  0  0  0  0  0  0  0  0  0
    6.6583   10.8778   22.8956 H   0  0  0  0  0  0  0  0  0  0  0  0
    6.0884   10.4679   24.5158 H   0  0  0  0  0  0  0  0  0  0  0  0
    9.4771   12.9929   24.1840 H   0  0  0  0  0  0  0  0  0  0  0  0
    8.7582   12.3794   22.6964 H   0  0  0  0  0  0  0  0  0  0  0  0
   10.1722   10.7181   24.8610 H   0  0  0  0  0  0  0  0  0  0  0  0
   13.8398   13.9813   25.1791 H   0  0  0  0  0  0  0  0  0  0  0  0
   16.9500   14.5354   27.8703 H   0  0  0  0  0  0  0  0  0  0  0  0
   17.8513   13.3021   26.9567 H   0  0  0  0  0  0  0  0  0  0  0  0
   18.0276   15.0003   26.5323 H   0  0  0  0  0  0  0  0  0  0  0  0
   10.9435   13.1797   20.7267 H   0  0  0  0  0  0  0  0  0  0  0  0
   12.5751   12.8367   21.2820 H   0  0  0  0  0  0  0  0  0  0  0  0
   16.5231   13.8400   24.9114 H   0  0  0  0  0  0  0  0  0  0  0  0
   15.6159   15.0733   25.8249 H   0  0  0  0  0  0  0  0  0  0  0  0
   11.5882   10.2678   22.8631 H   0  0  0  0  0  0  0  0  0  0  0  0
  1  2  1  0  0  0  0
  1  3  2  0  0  0  0
  2  4  2  0  0  0  0
  3  5  1  0  0  0  0
  4  6  1  0  0  0  0
  5  6  2  0  0  0  0
  6 23  1  0  0  0  0
  7 21  1  0  0  0  0
  7 25  2  0  0  0  0
  7 28  1  0  0  0  0
  8  9  2  0  0  0  0
  9 10  1  0  0  0  0
 10 29  1  0  0  0  0
 10 31  2  0  0  0  0
 11 12  1  0  0  0  0
 11 17  1  0  0  0  0
 12 19  1  0  0  0  0
 13 15  1  0  0  0  0
 13 20  1  0  0  0  0
 14 16  1  0  0  0  0
 14 20  1  0  0  0  0
 15 21  1  0  0  0  0
 16 21  1  0  0  0  0
 17 29  1  0  0  0  0
 18 19  1  0  0  0  0
 18 29  1  0  0  0  0
 19 30  1  0  0  0  0
 20 32  1  0  0  0  0
 21 30  1  0  0  0  0
 22 24  1  0  0  0  0
 23 28  1  0  0  0  0
 24 32  1  0  0  0  0
 25 26  1  0  0  0  0
 26 27  2  0  0  0  0
 27 28  1  0  0  0  0
  1 33  1  0  0  0  0
  2 34  1  0  0  0  0
  3 35  1  0  0  0  0
  4 36  1  0  0  0  0
  5 37  1  0  0  0  0
  8 38  1  0  0  0  0
  8 39  1  0  0  0  0
  9 40  1  0  0  0  0
 11 41  1  0  0  0  0
 11 42  1  0  0  0  0
 12 43  1  0  0  0  0
 12 44  1  0  0  0  0
 13 45  1  0  0  0  0
 13 46  1  0  0  0  0
 14 47  1  0  0  0  0
 14 48  1  0  0  0  0
 15 49  1  0  0  0  0
 15 50  1  0  0  0  0
 16 51  1  0  0  0  0
 16 52  1  0  0  0  0
 17 53  1  0  0  0  0
 17 54  1  0  0  0  0
 18 55  1  0  0  0  0
 18 56  1  0  0  0  0
 19 57  1  0  0  0  0
 20 58  1  0  0  0  0
 22 59  1  0  0  0  0
 22 60  1  0  0  0  0
 22 61  1  0  0  0  0
 23 62  1  0  0  0  0
 23 63  1  0  0  0  0
 24 64  1  0  0  0  0
 24 65  1  0  0  0  0
 30 66  1  0  0  0  0
M  END
> <Catalog ID>
Z7888546067

> <MW>
438.566

> <MW (desalted)>
438.566

> <ClogP>
2.358

> <logS>
-2.906

> <HBD>
1

> <HBA>
6

> <TPSA>
85.17

> <RotBonds>
8

> <ROCS_ShapeQuery>
A71EV2A-x0451_0A_A71EV2A-x0310_0A_A71EV2A-x0416_0A_peptide

> <ROCS_TanimotoCombo>
0.530 

> <ROCS_ShapeTanimoto>
0.382 

> <ROCS_ColorTanimoto>
0.148 

> <ROCS_RefTversky>
0.345 

> <ROCS_RefColorTversky>
0.186 

> <ROCS_RefTverskyCombo>
0.531 

> <ROCS_FitTversky>
1.395 

> <ROCS_FitColorTversky>
0.420 

> <ROCS_FitTverskyCombo>
1.814 

> <ROCS_ColorScore>
-5.713

> <ROCS_Overlap>
2402.871

> <ROCS_Rank>
216                 

$$$$
untitled-dbase-10413_451
  -OEChem-11132309573D

 55 59  0     0  0  0  0  0  0999 V2000
   11.0877   13.7517   24.9137 C   0  0  0  0  0  0  0  0  0  0  0  0
   12.5570    8.6759   20.5716 C   0  0  0  0  0  0  0  0  0  0  0  0
    8.5010    5.5640   23.8923 C   0  0  0  0  0  0  0  0  0  0  0  0
    6.6886   12.6884   25.8413 C   0  0  0  0  0  0  0  0  0  0  0  0
   12.9767    9.4747   21.6352 C   0  0  0  0  0  0  0  0  0  0  0  0
   11.1956    8.4668   20.3512 C   0  0  0  0  0  0  0  0  0  0  0  0
    6.3019   11.3756   26.1032 C   0  0  0  0  0  0  0  0  0  0  0  0
    7.4122    6.3376   23.4903 C   0  0  0  0  0  0  0  0  0  0  0  0
    9.6878    6.1818   24.2870 C   0  0  0  0  0  0  0  0  0  0  0  0
   13.0400   15.7375   18.0616 C   0  0  0  0  0  0  0  0  0  0  0  0
   13.9510   16.7303   18.4220 C   0  0  0  0  0  0  0  0  0  0  0  0
    7.7361   12.9633   24.9546 C   0  0  0  0  0  0  0  0  0  0  0  0
   12.0351   10.0643   22.4786 C   0  0  0  0  0  0  0  0  0  0  0  0
   10.2539    9.0564   21.1946 C   0  0  0  0  0  0  0  0  0  0  0  0
    6.9471   10.2981   25.4896 C   0  0  0  0  0  0  0  0  0  0  0  0
    7.5101    7.7291   23.4830 C   0  0  0  0  0  0  0  0  0  0  0  0
    9.7857    7.5732   24.2796 C   0  0  0  0  0  0  0  0  0  0  0  0
   12.3941   14.9922   19.0480 C   0  0  0  0  0  0  0  0  0  0  0  0
   14.2163   16.9778   19.7688 C   0  0  0  0  0  0  0  0  0  0  0  0
    8.4015   11.8931   24.3241 C   0  0  0  0  0  0  0  0  0  0  0  0
   10.6736    9.8552   22.2583 C   0  0  0  0  0  0  0  0  0  0  0  0
    9.4755   11.8030   23.3950 C   0  0  0  0  0  0  0  0  0  0  0  0
    7.9925   10.5879   24.6056 C   0  0  0  0  0  0  0  0  0  0  0  0
    8.6968    8.3469   23.8776 C   0  0  0  0  0  0  0  0  0  0  0  0
   12.6594   15.2397   20.3949 C   0  0  0  0  0  0  0  0  0  0  0  0
   13.5705   16.2325   20.7553 C   0  0  0  0  0  0  0  0  0  0  0  0
    9.6938   10.4696   23.1354 C   0  0  0  0  0  0  0  0  0  0  0  0
   10.2022   12.8766   22.8285 C   0  0  0  0  0  0  0  0  0  0  0  0
   10.9635   13.8188   23.4926 C   0  0  0  0  0  0  0  0  0  0  0  0
   11.6642   14.8880   22.6817 C   0  0  0  0  0  0  0  0  0  0  0  0
   11.1922   13.7007   26.0684 N   0  0  0  0  0  0  0  0  0  0  0  0
    8.7943    9.7445   23.8700 N   0  0  0  0  0  0  0  0  0  0  0  0
   12.0010   14.4805   21.3956 N   0  0  0  0  0  0  0  0  0  0  0  0
   11.8876   15.9923   23.1714 O   0  0  0  0  0  0  0  0  0  0  0  0
   13.8334   16.4793   22.0467 F   0  0  0  0  0  0  0  0  0  0  0  0
   13.2902    8.2173   19.9145 H   0  0  0  0  0  0  0  0  0  0  0  0
    8.4248    4.4807   23.8999 H   0  0  0  0  0  0  0  0  0  0  0  0
    6.1721   13.5093   26.3317 H   0  0  0  0  0  0  0  0  0  0  0  0
   14.0368    9.6372   21.8067 H   0  0  0  0  0  0  0  0  0  0  0  0
   10.8687    7.8456   19.5223 H   0  0  0  0  0  0  0  0  0  0  0  0
    5.4854   11.1854   26.7951 H   0  0  0  0  0  0  0  0  0  0  0  0
    6.4877    5.8569   23.1843 H   0  0  0  0  0  0  0  0  0  0  0  0
   10.5347    5.5787   24.6012 H   0  0  0  0  0  0  0  0  0  0  0  0
   12.8344   15.5447   17.0128 H   0  0  0  0  0  0  0  0  0  0  0  0
   14.4544   17.3104   17.6540 H   0  0  0  0  0  0  0  0  0  0  0  0
    8.0242   13.9927   24.7617 H   0  0  0  0  0  0  0  0  0  0  0  0
   12.3781   10.6864   23.3017 H   0  0  0  0  0  0  0  0  0  0  0  0
    9.1964    8.8828   21.0102 H   0  0  0  0  0  0  0  0  0  0  0  0
    6.6381    9.2792   25.6987 H   0  0  0  0  0  0  0  0  0  0  0  0
    6.6536    8.3203   23.1681 H   0  0  0  0  0  0  0  0  0  0  0  0
   10.7163    8.0418   24.5904 H   0  0  0  0  0  0  0  0  0  0  0  0
   11.6863   14.2210   18.7551 H   0  0  0  0  0  0  0  0  0  0  0  0
   14.9256   17.7505   20.0493 H   0  0  0  0  0  0  0  0  0  0  0  0
   10.1659   12.9555   21.7207 H   0  0  0  0  0  0  0  0  0  0  0  0
   11.7459   13.5293   21.1437 H   0  0  0  0  0  0  0  0  0  0  0  0
  1 29  1  0  0  0  0
  1 31  3  0  0  0  0
  2  5  1  0  0  0  0
  2  6  2  0  0  0  0
  3  8  1  0  0  0  0
  3  9  2  0  0  0  0
  4  7  1  0  0  0  0
  4 12  2  0  0  0  0
  5 13  2  0  0  0  0
  6 14  1  0  0  0  0
  7 15  2  0  0  0  0
  8 16  2  0  0  0  0
  9 17  1  0  0  0  0
 10 11  1  0  0  0  0
 10 18  2  0  0  0  0
 11 19  2  0  0  0  0
 12 20  1  0  0  0  0
 13 21  1  0  0  0  0
 14 21  2  0  0  0  0
 15 23  1  0  0  0  0
 16 24  1  0  0  0  0
 17 24  2  0  0  0  0
 18 25  1  0  0  0  0
 19 26  1  0  0  0  0
 20 22  1  0  0  0  0
 20 23  2  0  0  0  0
 21 27  1  0  0  0  0
 22 27  2  0  0  0  0
 22 28  1  4  0  0  0
 23 32  1  0  0  0  0
 24 32  1  0  0  0  0
 25 26  2  0  0  0  0
 25 33  1  0  0  0  0
 26 35  1  0  0  0  0
 27 32  1  0  0  0  0
 28 29  2  0  0  0  0
 29 30  1  0  0  0  0
 30 33  1  0  0  0  0
 30 34  2  0  0  0  0
  2 36  1  0  0  0  0
  3 37  1  0  0  0  0
  4 38  1  0  0  0  0
  5 39  1  0  0  0  0
  6 40  1  0  0  0  0
  7 41  1  0  0  0  0
  8 42  1  0  0  0  0
  9 43  1  0  0  0  0
 10 44  1  0  0  0  0
 11 45  1  0  0  0  0
 12 46  1  0  0  0  0
 13 47  1  0  0  0  0
 14 48  1  0  0  0  0
 15 49  1  0  0  0  0
 16 50  1  0  0  0  0
 17 51  1  0  0  0  0
 18 52  1  0  0  0  0
 19 53  1  0  0  0  0
 28 54  1  0  0  0  0
 33 55  1  0  0  0  0
M  END
> <Catalog ID>
Z46076252

> <MW>
457.498

> <MW (desalted)>
457.498

> <ClogP>
7.421

> <logS>
-8.59

> <HBD>
1

> <HBA>
2

> <TPSA>
57.82

> <RotBonds>
5

> <ROCS_ShapeQuery>
A71EV2A-x0451_0A_A71EV2A-x0310_0A_A71EV2A-x0416_0A_peptide

> <ROCS_TanimotoCombo>
0.530 

> <ROCS_ShapeTanimoto>
0.397 

> <ROCS_ColorTanimoto>
0.133 

> <ROCS_RefTversky>
0.362 

> <ROCS_RefColorTversky>
0.153 

> <ROCS_RefTverskyCombo>
0.515 

> <ROCS_FitTversky>
1.319 

> <ROCS_FitColorTversky>
0.507 

> <ROCS_FitTverskyCombo>
1.826 

> <ROCS_ColorScore>
-4.669

> <ROCS_Overlap>
2525.926

> <ROCS_Rank>
217                 

$$$$
untitled-dbase-5457_5468
  -OEChem-11132309573D

 51 53  0     1  0  0  0  0  0999 V2000
   13.9163   16.8737   18.4497 C   0  0  0  0  0  0  0  0  0  0  0  0
    6.1309   11.8454   26.1965 C   0  0  0  0  0  0  0  0  0  0  0  0
    7.2303   12.5595   26.6648 C   0  0  0  0  0  0  0  0  0  0  0  0
   14.7028   16.6444   19.5785 C   0  0  0  0  0  0  0  0  0  0  0  0
   12.6918   16.2207   18.3084 C   0  0  0  0  0  0  0  0  0  0  0  0
    6.2612   11.0193   25.0816 C   0  0  0  0  0  0  0  0  0  0  0  0
    8.4610   12.4520   26.0164 C   0  0  0  0  0  0  0  0  0  0  0  0
   14.2650   15.7620   20.5661 C   0  0  0  0  0  0  0  0  0  0  0  0
   12.2539   15.3383   19.2960 C   0  0  0  0  0  0  0  0  0  0  0  0
    7.4968   10.8952   24.4324 C   0  0  0  0  0  0  0  0  0  0  0  0
    8.6086   11.6259   24.8902 C   0  0  0  0  0  0  0  0  0  0  0  0
   13.0405   15.1089   20.4248 C   0  0  0  0  0  0  0  0  0  0  0  0
   13.5030   16.8908   25.4616 C   0  0  0  0  0  0  0  0  0  0  0  0
   13.6164   15.7914   24.7101 C   0  0  0  0  0  0  0  0  0  0  0  0
   12.9021   15.6917   23.4094 C   0  0  0  0  0  0  0  0  0  0  0  0
   10.4130   12.8384   23.6791 C   0  0  0  0  0  0  0  0  0  0  0  0
    7.6206   10.0261   23.2109 C   0  0  0  0  0  0  0  0  0  0  0  0
    9.0679    9.6156   22.9932 C   0  0  0  0  0  0  0  0  0  0  0  0
    9.9467   11.5031   24.1815 C   0  0  1  0  0  0  0  0  0  0  0  0
   11.0252   10.8826   25.0736 C   0  0  0  0  0  0  0  0  0  0  0  0
   11.0324   14.0830   21.6177 C   0  0  0  0  0  0  0  0  0  0  0  0
   12.5632   14.1478   21.4997 C   0  0  2  0  0  0  0  0  0  0  0  0
   13.1522   14.4876   22.8005 N   0  0  0  0  0  0  0  0  0  0  0  0
   10.5904   12.8937   22.3099 N   0  0  0  0  0  0  0  0  0  0  0  0
   12.1939   16.5940   22.9742 O   0  0  0  0  0  0  0  0  0  0  0  0
   10.5970   13.7524   24.4744 O   0  0  0  0  0  0  0  0  0  0  0  0
    9.8845   10.7827   22.9369 O   0  0  0  0  0  0  0  0  0  0  0  0
   14.2567   17.5619   17.6815 H   0  0  0  0  0  0  0  0  0  0  0  0
    5.1716   11.9337   26.6980 H   0  0  0  0  0  0  0  0  0  0  0  0
    7.1296   13.2035   27.5336 H   0  0  0  0  0  0  0  0  0  0  0  0
   15.6557   17.1536   19.6893 H   0  0  0  0  0  0  0  0  0  0  0  0
   12.0786   16.3999   17.4302 H   0  0  0  0  0  0  0  0  0  0  0  0
    5.3943   10.4714   24.7213 H   0  0  0  0  0  0  0  0  0  0  0  0
    9.3050   13.0220   26.3969 H   0  0  0  0  0  0  0  0  0  0  0  0
   14.8845   15.5893   21.4422 H   0  0  0  0  0  0  0  0  0  0  0  0
   11.2986   14.8339   19.1773 H   0  0  0  0  0  0  0  0  0  0  0  0
   14.0263   16.9557   26.4099 H   0  0  0  0  0  0  0  0  0  0  0  0
   12.9008   17.7422   25.1644 H   0  0  0  0  0  0  0  0  0  0  0  0
   14.2299   14.9616   25.0441 H   0  0  0  0  0  0  0  0  0  0  0  0
    6.9978    9.1300   23.3076 H   0  0  0  0  0  0  0  0  0  0  0  0
    7.2653   10.6056   22.3503 H   0  0  0  0  0  0  0  0  0  0  0  0
    9.4258    8.9376   23.7764 H   0  0  0  0  0  0  0  0  0  0  0  0
    9.1651    9.0918   22.0368 H   0  0  0  0  0  0  0  0  0  0  0  0
   11.9608   10.8163   24.5233 H   0  0  0  0  0  0  0  0  0  0  0  0
   10.7167    9.8859   25.3800 H   0  0  0  0  0  0  0  0  0  0  0  0
   11.1699   11.5017   25.9560 H   0  0  0  0  0  0  0  0  0  0  0  0
   10.6543   14.9348   22.1944 H   0  0  0  0  0  0  0  0  0  0  0  0
   10.5357   14.0971   20.6417 H   0  0  0  0  0  0  0  0  0  0  0  0
   12.9208   13.1414   21.2451 H   0  0  0  0  0  0  0  0  0  0  0  0
   13.7710   13.8046   23.2026 H   0  0  0  0  0  0  0  0  0  0  0  0
   10.4010   12.0587   21.7637 H   0  0  0  0  0  0  0  0  0  0  0  0
  1  4  1  0  0  0  0
  1  5  2  0  0  0  0
  2  3  1  0  0  0  0
  2  6  2  0  0  0  0
  3  7  2  0  0  0  0
  4  8  2  0  0  0  0
  5  9  1  0  0  0  0
  6 10  1  0  0  0  0
  7 11  1  0  0  0  0
  8 12  1  0  0  0  0
  9 12  2  0  0  0  0
 10 11  2  0  0  0  0
 10 17  1  0  0  0  0
 11 19  1  0  0  0  0
 12 22  1  0  0  0  0
 13 14  2  0  0  0  0
 14 15  1  0  0  0  0
 15 23  1  0  0  0  0
 15 25  2  0  0  0  0
 16 19  1  0  0  0  0
 16 24  1  0  0  0  0
 16 26  2  0  0  0  0
 17 18  1  0  0  0  0
 18 27  1  0  0  0  0
 19 20  1  0  0  0  0
 19 27  1  0  0  0  0
 21 22  1  0  0  0  0
 21 24  1  0  0  0  0
 22 23  1  0  0  0  0
  1 28  1  0  0  0  0
  2 29  1  0  0  0  0
  3 30  1  0  0  0  0
  4 31  1  0  0  0  0
  5 32  1  0  0  0  0
  6 33  1  0  0  0  0
  7 34  1  0  0  0  0
  8 35  1  0  0  0  0
  9 36  1  0  0  0  0
 13 37  1  0  0  0  0
 13 38  1  0  0  0  0
 14 39  1  0  0  0  0
 17 40  1  0  0  0  0
 17 41  1  0  0  0  0
 18 42  1  0  0  0  0
 18 43  1  0  0  0  0
 20 44  1  0  0  0  0
 20 45  1  0  0  0  0
 20 46  1  0  0  0  0
 21 47  1  0  0  0  0
 21 48  1  0  0  0  0
 22 49  1  0  0  0  0
 23 50  1  0  0  0  0
 24 51  1  0  0  0  0
M  END
> <Catalog ID>
Z4425283342

> <MW>
364.438

> <MW (desalted)>
364.438

> <ClogP>
2.755

> <logS>
-4.872

> <HBD>
2

> <HBA>
3

> <TPSA>
67.43

> <RotBonds>
6

> <ROCS_ShapeQuery>
A71EV2A-x0451_0A_A71EV2A-x0310_0A_A71EV2A-x0416_0A_peptide

> <ROCS_TanimotoCombo>
0.530 

> <ROCS_ShapeTanimoto>
0.338 

> <ROCS_ColorTanimoto>
0.192 

> <ROCS_RefTversky>
0.308 

> <ROCS_RefColorTversky>
0.214 

> <ROCS_RefTverskyCombo>
0.522 

> <ROCS_FitTversky>
1.411 

> <ROCS_FitColorTversky>
0.647 

> <ROCS_FitTverskyCombo>
2.057 

> <ROCS_ColorScore>
-6.556

> <ROCS_Overlap>
2140.381

> <ROCS_Rank>
218                 

$$$$
untitled-dbase-6494_22
  -OEChem-11132309573D

 43 45  0     0  0  0  0  0  0999 V2000
   11.6231   12.9418   24.7023 C   0  0  0  0  0  0  0  0  0  0  0  0
   13.7510   16.8159   18.5682 C   0  0  0  0  0  0  0  0  0  0  0  0
   12.5386   16.1824   18.2957 C   0  0  0  0  0  0  0  0  0  0  0  0
   14.3912   16.6013   19.7888 C   0  0  0  0  0  0  0  0  0  0  0  0
   11.9663   15.3343   19.2438 C   0  0  0  0  0  0  0  0  0  0  0  0
   13.8189   15.7532   20.7369 C   0  0  0  0  0  0  0  0  0  0  0  0
   12.6064   15.1197   20.4645 C   0  0  0  0  0  0  0  0  0  0  0  0
    9.2310   11.6785   23.5255 C   0  0  0  0  0  0  0  0  0  0  0  0
    9.3405   10.3013   23.4222 C   0  0  0  0  0  0  0  0  0  0  0  0
    7.7311   10.6305   24.7321 C   0  0  0  0  0  0  0  0  0  0  0  0
    7.5156   12.9289   24.9307 C   0  0  0  0  0  0  0  0  0  0  0  0
    6.5163   12.5230   25.7370 C   0  0  0  0  0  0  0  0  0  0  0  0
    9.9198   12.7709   22.9777 C   0  0  0  0  0  0  0  0  0  0  0  0
   11.0418   13.4124   23.4857 C   0  0  0  0  0  0  0  0  0  0  0  0
   11.6291   14.5803   22.7222 C   0  0  0  0  0  0  0  0  0  0  0  0
   10.6665   14.6700   18.9228 C   0  0  0  0  0  0  0  0  0  0  0  0
   14.5293   15.5434   22.0349 C   0  0  0  0  0  0  0  0  0  0  0  0
   10.3076    9.5229   22.6291 C   0  0  0  0  0  0  0  0  0  0  0  0
    5.5780   13.3874   26.5011 C   0  0  0  0  0  0  0  0  0  0  0  0
   12.0995   12.5624   25.6902 N   0  0  0  0  0  0  0  0  0  0  0  0
    8.3913    9.6474   24.1858 N   0  0  0  0  0  0  0  0  0  0  0  0
    8.1848   11.8634   24.3767 N   0  0  0  0  0  0  0  0  0  0  0  0
   12.0245   14.2578   21.4287 N   0  0  0  0  0  0  0  0  0  0  0  0
   11.7224   15.6848   23.2520 O   0  0  0  0  0  0  0  0  0  0  0  0
    6.3862   10.7467   25.8239 S   0  0  0  0  0  0  0  0  0  0  0  0
   14.1969   17.4761   17.8300 H   0  0  0  0  0  0  0  0  0  0  0  0
   12.0474   16.3565   17.3420 H   0  0  0  0  0  0  0  0  0  0  0  0
   15.3358   17.0994   19.9909 H   0  0  0  0  0  0  0  0  0  0  0  0
    7.7981   13.9477   24.7105 H   0  0  0  0  0  0  0  0  0  0  0  0
    9.5335   13.1658   22.0075 H   0  0  0  0  0  0  0  0  0  0  0  0
   10.8446   13.7050   18.4352 H   0  0  0  0  0  0  0  0  0  0  0  0
   10.0746   14.5003   19.8302 H   0  0  0  0  0  0  0  0  0  0  0  0
   10.0584   15.2929   18.2558 H   0  0  0  0  0  0  0  0  0  0  0  0
   14.2021   16.2869   22.7704 H   0  0  0  0  0  0  0  0  0  0  0  0
   14.3314   14.5424   22.4367 H   0  0  0  0  0  0  0  0  0  0  0  0
   15.6155   15.6289   21.9094 H   0  0  0  0  0  0  0  0  0  0  0  0
   11.2183    9.3031   23.2120 H   0  0  0  0  0  0  0  0  0  0  0  0
    9.8886    8.5588   22.2904 H   0  0  0  0  0  0  0  0  0  0  0  0
   10.6194   10.0553   21.7128 H   0  0  0  0  0  0  0  0  0  0  0  0
    4.6960   13.6103   25.8971 H   0  0  0  0  0  0  0  0  0  0  0  0
    6.0675   14.3252   26.7735 H   0  0  0  0  0  0  0  0  0  0  0  0
    5.2625   12.8822   27.4167 H   0  0  0  0  0  0  0  0  0  0  0  0
   11.8798   13.2936   21.1412 H   0  0  0  0  0  0  0  0  0  0  0  0
  1 14  1  0  0  0  0
  1 20  3  0  0  0  0
  2  3  1  0  0  0  0
  2  4  2  0  0  0  0
  3  5  2  0  0  0  0
  4  6  1  0  0  0  0
  5  7  1  0  0  0  0
  5 16  1  0  0  0  0
  6  7  2  0  0  0  0
  6 17  1  0  0  0  0
  7 23  1  0  0  0  0
  8  9  2  0  0  0  0
  8 13  1  4  0  0  0
  8 22  1  0  0  0  0
  9 18  1  0  0  0  0
  9 21  1  0  0  0  0
 10 21  2  0  0  0  0
 10 22  1  0  0  0  0
 10 25  1  0  0  0  0
 11 12  2  0  0  0  0
 11 22  1  0  0  0  0
 12 19  1  0  0  0  0
 12 25  1  0  0  0  0
 13 14  2  0  0  0  0
 14 15  1  0  0  0  0
 15 23  1  0  0  0  0
 15 24  2  0  0  0  0
  2 26  1  0  0  0  0
  3 27  1  0  0  0  0
  4 28  1  0  0  0  0
 11 29  1  0  0  0  0
 13 30  1  0  0  0  0
 16 31  1  0  0  0  0
 16 32  1  0  0  0  0
 16 33  1  0  0  0  0
 17 34  1  0  0  0  0
 17 35  1  0  0  0  0
 17 36  1  0  0  0  0
 18 37  1  0  0  0  0
 18 38  1  0  0  0  0
 18 39  1  0  0  0  0
 19 40  1  0  0  0  0
 19 41  1  0  0  0  0
 19 42  1  0  0  0  0
 23 43  1  0  0  0  0
M  END
> <Catalog ID>
Z196348530

> <MW>
350.437

> <MW (desalted)>
350.437

> <ClogP>
2.708

> <logS>
-5.43

> <HBD>
1

> <HBA>
3

> <TPSA>
70.19

> <RotBonds>
3

> <ROCS_ShapeQuery>
A71EV2A-x0451_0A_A71EV2A-x0310_0A_A71EV2A-x0416_0A_peptide

> <ROCS_TanimotoCombo>
0.530 

> <ROCS_ShapeTanimoto>
0.373 

> <ROCS_ColorTanimoto>
0.157 

> <ROCS_RefTversky>
0.327 

> <ROCS_RefColorTversky>
0.177 

> <ROCS_RefTverskyCombo>
0.504 

> <ROCS_FitTversky>
1.590 

> <ROCS_FitColorTversky>
0.584 

> <ROCS_FitTverskyCombo>
2.175 

> <ROCS_ColorScore>
-5.396

> <ROCS_Overlap>
2276.554

> <ROCS_Rank>
219                 

$$$$
untitled-dbase-10863_3154
  -OEChem-11132309573D

 43 45  0     0  0  0  0  0  0999 V2000
   11.7144   15.9690   22.8664 C   0  0  0  0  0  0  0  0  0  0  0  0
    6.2030   12.0031   25.7915 C   0  0  0  0  0  0  0  0  0  0  0  0
    6.8604   13.1169   25.2778 C   0  0  0  0  0  0  0  0  0  0  0  0
    9.2937    9.0860   23.4230 C   0  0  0  0  0  0  0  0  0  0  0  0
    6.6402   10.7200   25.4614 C   0  0  0  0  0  0  0  0  0  0  0  0
    7.9577   12.9519   24.4320 C   0  0  0  0  0  0  0  0  0  0  0  0
    8.1966    9.2511   24.2688 C   0  0  0  0  0  0  0  0  0  0  0  0
    9.9512   10.1999   22.9092 C   0  0  0  0  0  0  0  0  0  0  0  0
   12.0834   15.2354   18.9666 C   0  0  0  0  0  0  0  0  0  0  0  0
    7.7428   10.5352   24.6116 C   0  0  0  0  0  0  0  0  0  0  0  0
    8.4114   11.6678   24.0891 C   0  0  0  0  0  0  0  0  0  0  0  0
    9.5141   11.4830   23.2392 C   0  0  0  0  0  0  0  0  0  0  0  0
   12.5971   14.9978   20.2243 C   0  0  0  0  0  0  0  0  0  0  0  0
   14.2049   16.2704   19.4463 C   0  0  0  0  0  0  0  0  0  0  0  0
   11.9447   14.1750   21.2548 C   0  0  0  0  0  0  0  0  0  0  0  0
   11.5456   14.6083   22.4670 C   0  0  0  0  0  0  0  0  0  0  0  0
   10.8909   13.5878   23.3734 C   0  0  0  0  0  0  0  0  0  0  0  0
   16.0339   17.6740   20.3930 C   0  0  0  0  0  0  0  0  0  0  0  0
   15.3915   17.6839   21.7613 C   0  0  0  0  0  0  0  0  0  0  0  0
   16.0263   17.0579   17.9517 C   0  0  0  0  0  0  0  0  0  0  0  0
   11.8486   17.0739   23.1950 N   0  0  0  0  0  0  0  0  0  0  0  0
   13.8138   15.5902   20.5010 N   0  0  0  0  0  0  0  0  0  0  0  0
   10.2142   12.5658   22.6936 N   0  0  0  0  0  0  0  0  0  0  0  0
   15.3532   17.0028   19.3002 N   0  0  0  0  0  0  0  0  0  0  0  0
   10.9758   13.6963   24.5942 O   0  0  0  0  0  0  0  0  0  0  0  0
   17.1072   18.2664   20.2558 O   0  0  0  0  0  0  0  0  0  0  0  0
   13.1580   16.2416   18.0868 S   0  0  0  0  0  0  0  0  0  0  0  0
    5.3488   12.1322   26.4498 H   0  0  0  0  0  0  0  0  0  0  0  0
    6.5194   14.1154   25.5354 H   0  0  0  0  0  0  0  0  0  0  0  0
    9.6344    8.0872   23.1659 H   0  0  0  0  0  0  0  0  0  0  0  0
    6.1109    9.8637   25.8745 H   0  0  0  0  0  0  0  0  0  0  0  0
    8.4439   13.8476   24.0520 H   0  0  0  0  0  0  0  0  0  0  0  0
    7.6981    8.3662   24.6590 H   0  0  0  0  0  0  0  0  0  0  0  0
   10.8048   10.0558   22.2513 H   0  0  0  0  0  0  0  0  0  0  0  0
   11.1597   14.8820   18.5293 H   0  0  0  0  0  0  0  0  0  0  0  0
   11.7849   13.1453   20.9428 H   0  0  0  0  0  0  0  0  0  0  0  0
   15.7157   16.8136   22.3380 H   0  0  0  0  0  0  0  0  0  0  0  0
   14.3022   17.7085   21.6720 H   0  0  0  0  0  0  0  0  0  0  0  0
   15.7065   18.5813   22.3036 H   0  0  0  0  0  0  0  0  0  0  0  0
   15.6265   17.9057   17.3761 H   0  0  0  0  0  0  0  0  0  0  0  0
   17.1103   17.1861   18.0880 H   0  0  0  0  0  0  0  0  0  0  0  0
   15.8334   16.1217   17.4072 H   0  0  0  0  0  0  0  0  0  0  0  0
   10.2345   12.6174   21.6711 H   0  0  0  0  0  0  0  0  0  0  0  0
  1 16  1  0  0  0  0
  1 21  3  0  0  0  0
  2  3  1  0  0  0  0
  2  5  2  0  0  0  0
  3  6  2  0  0  0  0
  4  7  1  0  0  0  0
  4  8  2  0  0  0  0
  5 10  1  0  0  0  0
  6 11  1  0  0  0  0
  7 10  2  0  0  0  0
  8 12  1  0  0  0  0
  9 13  2  0  0  0  0
  9 27  1  0  0  0  0
 10 11  1  0  0  0  0
 11 12  2  0  0  0  0
 12 23  1  0  0  0  0
 13 15  1  4  0  0  0
 13 22  1  0  0  0  0
 14 22  2  0  0  0  0
 14 24  1  0  0  0  0
 14 27  1  0  0  0  0
 15 16  2  0  0  0  0
 16 17  1  0  0  0  0
 17 23  1  0  0  0  0
 17 25  2  0  0  0  0
 18 19  1  0  0  0  0
 18 24  1  0  0  0  0
 18 26  2  0  0  0  0
 20 24  1  0  0  0  0
  2 28  1  0  0  0  0
  3 29  1  0  0  0  0
  4 30  1  0  0  0  0
  5 31  1  0  0  0  0
  6 32  1  0  0  0  0
  7 33  1  0  0  0  0
  8 34  1  0  0  0  0
  9 35  1  0  0  0  0
 15 36  1  0  0  0  0
 19 37  1  0  0  0  0
 19 38  1  0  0  0  0
 19 39  1  0  0  0  0
 20 40  1  0  0  0  0
 20 41  1  0  0  0  0
 20 42  1  0  0  0  0
 23 43  1  0  0  0  0
M  END
> <Catalog ID>
Z821193210

> <MW>
376.432

> <MW (desalted)>
376.432

> <ClogP>
1.47

> <logS>
-6.14

> <HBD>
1

> <HBA>
4

> <TPSA>
86.09

> <RotBonds>
4

> <ROCS_ShapeQuery>
A71EV2A-x0451_0A_A71EV2A-x0310_0A_A71EV2A-x0416_0A_peptide

> <ROCS_TanimotoCombo>
0.530 

> <ROCS_ShapeTanimoto>
0.368 

> <ROCS_ColorTanimoto>
0.162 

> <ROCS_RefTversky>
0.328 

> <ROCS_RefColorTversky>
0.181 

> <ROCS_RefTverskyCombo>
0.509 

> <ROCS_FitTversky>
1.505 

> <ROCS_FitColorTversky>
0.601 

> <ROCS_FitTverskyCombo>
2.105 

> <ROCS_ColorScore>
-5.523

> <ROCS_Overlap>
2279.534

> <ROCS_Rank>
220                 

$$$$
untitled-dbase-10666_2657
  -OEChem-11132309573D

 39 40  0     0  0  0  0  0  0999 V2000
    9.4298   10.2863   23.1715 C   0  0  0  0  0  0  0  0  0  0  0  0
    9.1407   11.6348   23.0397 C   0  0  0  0  0  0  0  0  0  0  0  0
    8.0963   10.7206   24.7360 C   0  0  0  0  0  0  0  0  0  0  0  0
    7.5875   12.9733   24.5486 C   0  0  0  0  0  0  0  0  0  0  0  0
    6.8487   12.6487   25.6266 C   0  0  0  0  0  0  0  0  0  0  0  0
   14.3948   10.5098   27.5632 C   0  0  0  0  0  0  0  0  0  0  0  0
   13.8035   10.6866   26.3778 C   0  0  0  0  0  0  0  0  0  0  0  0
   14.2194   11.8035   25.4881 C   0  0  0  0  0  0  0  0  0  0  0  0
   11.3463   13.6585   23.5301 C   0  0  0  0  0  0  0  0  0  0  0  0
   10.3172    9.4637   22.3325 C   0  0  0  0  0  0  0  0  0  0  0  0
    5.9795   13.5705   26.4055 C   0  0  0  0  0  0  0  0  0  0  0  0
    9.5985   12.6739   22.0575 C   0  0  0  0  0  0  0  0  0  0  0  0
   12.8211   14.0186   23.5250 C   0  0  0  0  0  0  0  0  0  0  0  0
   13.7152   12.8109   23.2799 C   0  0  0  0  0  0  0  0  0  0  0  0
    8.7674    9.7168   24.2432 N   0  0  0  0  0  0  0  0  0  0  0  0
    8.2781   11.8888   24.0618 N   0  0  0  0  0  0  0  0  0  0  0  0
   13.4940   11.8232   24.3077 N   0  0  0  0  0  0  0  0  0  0  0  0
   10.9517   13.1070   22.3200 N   0  0  0  0  0  0  0  0  0  0  0  0
   15.1062   12.5948   25.7925 O   0  0  0  0  0  0  0  0  0  0  0  0
   10.6133   13.8404   24.4983 O   0  0  0  0  0  0  0  0  0  0  0  0
    7.0048   10.9285   26.0701 S   0  0  0  0  0  0  0  0  0  0  0  0
    7.6673   13.9435   24.0814 H   0  0  0  0  0  0  0  0  0  0  0  0
   14.0851    9.6934   28.2072 H   0  0  0  0  0  0  0  0  0  0  0  0
   15.1881   11.1559   27.9227 H   0  0  0  0  0  0  0  0  0  0  0  0
   13.0136   10.0169   26.0555 H   0  0  0  0  0  0  0  0  0  0  0  0
   11.3516    9.4696   22.7172 H   0  0  0  0  0  0  0  0  0  0  0  0
    9.9872    8.4106   22.2834 H   0  0  0  0  0  0  0  0  0  0  0  0
   10.3498    9.8186   21.2866 H   0  0  0  0  0  0  0  0  0  0  0  0
    4.9692   13.5738   25.9912 H   0  0  0  0  0  0  0  0  0  0  0  0
    6.3808   14.5857   26.3699 H   0  0  0  0  0  0  0  0  0  0  0  0
    5.9339   13.2519   27.4492 H   0  0  0  0  0  0  0  0  0  0  0  0
    9.5623   12.2816   21.0353 H   0  0  0  0  0  0  0  0  0  0  0  0
    8.9521   13.5572   22.0899 H   0  0  0  0  0  0  0  0  0  0  0  0
   12.9893   14.7747   22.7480 H   0  0  0  0  0  0  0  0  0  0  0  0
   13.0677   14.4792   24.4899 H   0  0  0  0  0  0  0  0  0  0  0  0
   14.7700   13.1062   23.2826 H   0  0  0  0  0  0  0  0  0  0  0  0
   13.5037   12.3679   22.3007 H   0  0  0  0  0  0  0  0  0  0  0  0
   12.7971   11.1044   24.1291 H   0  0  0  0  0  0  0  0  0  0  0  0
   11.6454   13.0030   21.5852 H   0  0  0  0  0  0  0  0  0  0  0  0
  1  2  2  0  0  0  0
  1 10  1  0  0  0  0
  1 15  1  0  0  0  0
  2 12  1  0  0  0  0
  2 16  1  0  0  0  0
  3 15  2  0  0  0  0
  3 16  1  0  0  0  0
  3 21  1  0  0  0  0
  4  5  2  0  0  0  0
  4 16  1  0  0  0  0
  5 11  1  0  0  0  0
  5 21  1  0  0  0  0
  6  7  2  0  0  0  0
  7  8  1  0  0  0  0
  8 17  1  0  0  0  0
  8 19  2  0  0  0  0
  9 13  1  0  0  0  0
  9 18  1  0  0  0  0
  9 20  2  0  0  0  0
 12 18  1  0  0  0  0
 13 14  1  0  0  0  0
 14 17  1  0  0  0  0
  4 22  1  0  0  0  0
  6 23  1  0  0  0  0
  6 24  1  0  0  0  0
  7 25  1  0  0  0  0
 10 26  1  0  0  0  0
 10 27  1  0  0  0  0
 10 28  1  0  0  0  0
 11 29  1  0  0  0  0
 11 30  1  0  0  0  0
 11 31  1  0  0  0  0
 12 32  1  0  0  0  0
 12 33  1  0  0  0  0
 13 34  1  0  0  0  0
 13 35  1  0  0  0  0
 14 36  1  0  0  0  0
 14 37  1  0  0  0  0
 17 38  1  0  0  0  0
 18 39  1  0  0  0  0
M  END
> <Catalog ID>
Z2640573578

> <MW>
306.383

> <MW (desalted)>
306.383

> <ClogP>
0.818

> <logS>
-2.969

> <HBD>
2

> <HBA>
3

> <TPSA>
75.5

> <RotBonds>
6

> <ROCS_ShapeQuery>
A71EV2A-x0451_0A_A71EV2A-x0310_0A_A71EV2A-x0416_0A_peptide

> <ROCS_TanimotoCombo>
0.530 

> <ROCS_ShapeTanimoto>
0.322 

> <ROCS_ColorTanimoto>
0.207 

> <ROCS_RefTversky>
0.287 

> <ROCS_RefColorTversky>
0.229 

> <ROCS_RefTverskyCombo>
0.516 

> <ROCS_FitTversky>
1.617 

> <ROCS_FitColorTversky>
0.688 

> <ROCS_FitTverskyCombo>
2.305 

> <ROCS_ColorScore>
-7.002

> <ROCS_Overlap>
1991.735

> <ROCS_Rank>
221                 

$$$$
untitled-dbase-7290_2489
  -OEChem-11132309573D

 47 48  0     0  0  0  0  0  0999 V2000
    8.2696   12.3234   24.3479 C   0  0  0  0  0  0  0  0  0  0  0  0
    9.0660   10.2315   23.5440 C   0  0  0  0  0  0  0  0  0  0  0  0
    7.2259   10.2642   24.9192 C   0  0  0  0  0  0  0  0  0  0  0  0
    9.1912   11.6107   23.5890 C   0  0  0  0  0  0  0  0  0  0  0  0
    7.2651   11.6448   25.0289 C   0  0  0  0  0  0  0  0  0  0  0  0
   10.8506   13.4649   23.2252 C   0  0  0  0  0  0  0  0  0  0  0  0
   11.2162   13.9894   20.8552 C   0  0  0  0  0  0  0  0  0  0  0  0
   12.5521   15.1419   22.6605 C   0  0  0  0  0  0  0  0  0  0  0  0
   12.1787   14.5260   19.7971 C   0  0  0  0  0  0  0  0  0  0  0  0
   13.5163   15.6818   21.6055 C   0  0  0  0  0  0  0  0  0  0  0  0
   11.9086   13.8378   22.2044 C   0  0  0  0  0  0  0  0  0  0  0  0
   12.8307   15.8429   20.2414 C   0  0  0  0  0  0  0  0  0  0  0  0
   14.4354   17.6724   19.6384 C   0  0  0  0  0  0  0  0  0  0  0  0
   13.1094   16.5263   17.8455 C   0  0  0  0  0  0  0  0  0  0  0  0
   14.9519   15.2978   19.0212 C   0  0  0  0  0  0  0  0  0  0  0  0
   13.8268   16.3324   19.1919 C   0  0  0  0  0  0  0  0  0  0  0  0
    8.1036    9.5374   24.1918 N   0  0  0  0  0  0  0  0  0  0  0  0
   10.2238   12.2733   22.8839 N   0  0  0  0  0  0  0  0  0  0  0  0
   10.6406   14.1779   24.2011 O   0  0  0  0  0  0  0  0  0  0  0  0
    6.5355   11.7803   28.2347 O   0  0  0  0  0  0  0  0  0  0  0  0
    4.2589   12.1335   27.1724 O   0  0  0  0  0  0  0  0  0  0  0  0
    6.3521   12.3138   25.7756 O   0  0  0  0  0  0  0  0  0  0  0  0
    5.5263   10.1182   26.8153 F   0  0  0  0  0  0  0  0  0  0  0  0
    5.6327   11.6767   27.1054 S   0  0  0  0  0  0  0  0  0  0  0  0
    8.3302   13.4070   24.4112 H   0  0  0  0  0  0  0  0  0  0  0  0
    9.7562    9.6209   22.9693 H   0  0  0  0  0  0  0  0  0  0  0  0
    6.4643    9.6833   25.4302 H   0  0  0  0  0  0  0  0  0  0  0  0
   10.3567   14.6670   20.9435 H   0  0  0  0  0  0  0  0  0  0  0  0
   10.8133   13.0232   20.5273 H   0  0  0  0  0  0  0  0  0  0  0  0
   13.0895   14.9880   23.6042 H   0  0  0  0  0  0  0  0  0  0  0  0
   11.7801   15.8954   22.8652 H   0  0  0  0  0  0  0  0  0  0  0  0
   12.9532   13.7741   19.5986 H   0  0  0  0  0  0  0  0  0  0  0  0
   11.6348   14.6764   18.8568 H   0  0  0  0  0  0  0  0  0  0  0  0
   13.9144   16.6471   21.9405 H   0  0  0  0  0  0  0  0  0  0  0  0
   14.3712   14.9993   21.5155 H   0  0  0  0  0  0  0  0  0  0  0  0
   12.6299   13.0429   22.1788 H   0  0  0  0  0  0  0  0  0  0  0  0
   12.0428   16.6020   20.3389 H   0  0  0  0  0  0  0  0  0  0  0  0
   15.1558   18.0499   18.9040 H   0  0  0  0  0  0  0  0  0  0  0  0
   14.9590   17.5676   20.5954 H   0  0  0  0  0  0  0  0  0  0  0  0
   13.6585   18.4346   19.7653 H   0  0  0  0  0  0  0  0  0  0  0  0
   13.8055   16.8779   17.0756 H   0  0  0  0  0  0  0  0  0  0  0  0
   12.6712   15.5855   17.4940 H   0  0  0  0  0  0  0  0  0  0  0  0
   12.3009   17.2616   17.9246 H   0  0  0  0  0  0  0  0  0  0  0  0
   15.6799   15.6280   18.2717 H   0  0  0  0  0  0  0  0  0  0  0  0
   14.5582   14.3274   18.6985 H   0  0  0  0  0  0  0  0  0  0  0  0
   15.4903   15.1427   19.9630 H   0  0  0  0  0  0  0  0  0  0  0  0
   10.5340   11.8128   22.0307 H   0  0  0  0  0  0  0  0  0  0  0  0
  1  4  2  0  0  0  0
  1  5  1  0  0  0  0
  2  4  1  0  0  0  0
  2 17  2  0  0  0  0
  3  5  2  0  0  0  0
  3 17  1  0  0  0  0
  4 18  1  0  0  0  0
  5 22  1  0  0  0  0
  6 11  1  0  0  0  0
  6 18  1  0  0  0  0
  6 19  2  0  0  0  0
  7  9  1  0  0  0  0
  7 11  1  0  0  0  0
  8 10  1  0  0  0  0
  8 11  1  0  0  0  0
  9 12  1  0  0  0  0
 10 12  1  0  0  0  0
 12 16  1  0  0  0  0
 13 16  1  0  0  0  0
 14 16  1  0  0  0  0
 15 16  1  0  0  0  0
 20 24  2  0  0  0  0
 21 24  2  0  0  0  0
 22 24  1  0  0  0  0
 23 24  1  0  0  0  0
  1 25  1  0  0  0  0
  2 26  1  0  0  0  0
  3 27  1  0  0  0  0
  7 28  1  0  0  0  0
  7 29  1  0  0  0  0
  8 30  1  0  0  0  0
  8 31  1  0  0  0  0
  9 32  1  0  0  0  0
  9 33  1  0  0  0  0
 10 34  1  0  0  0  0
 10 35  1  0  0  0  0
 11 36  1  0  0  0  0
 12 37  1  0  0  0  0
 13 38  1  0  0  0  0
 13 39  1  0  0  0  0
 13 40  1  0  0  0  0
 14 41  1  0  0  0  0
 14 42  1  0  0  0  0
 14 43  1  0  0  0  0
 15 44  1  0  0  0  0
 15 45  1  0  0  0  0
 15 46  1  0  0  0  0
 18 47  1  0  0  0  0
M  END
> <Catalog ID>
Z4607528770

> <MW>
358.428

> <MW (desalted)>
358.428

> <ClogP>
2.793

> <logS>
-4.803

> <HBD>
1

> <HBA>
4

> <TPSA>
85.36

> <RotBonds>
5

> <ROCS_ShapeQuery>
A71EV2A-x0451_0A_A71EV2A-x0310_0A_A71EV2A-x0416_0A_peptide

> <ROCS_TanimotoCombo>
0.530 

> <ROCS_ShapeTanimoto>
0.348 

> <ROCS_ColorTanimoto>
0.181 

> <ROCS_RefTversky>
0.308 

> <ROCS_RefColorTversky>
0.200 

> <ROCS_RefTverskyCombo>
0.508 

> <ROCS_FitTversky>
1.593 

> <ROCS_FitColorTversky>
0.663 

> <ROCS_FitTverskyCombo>
2.256 

> <ROCS_ColorScore>
-6.096

> <ROCS_Overlap>
2141.940

> <ROCS_Rank>
222                 

$$$$
untitled-dbase-6213_9251
  -OEChem-11132309573D

 54 57  0     0  0  0  0  0  0999 V2000
   11.9143   15.8851   22.8261 C   0  0  0  0  0  0  0  0  0  0  0  0
    5.7692   15.0775   27.0519 C   0  0  0  0  0  0  0  0  0  0  0  0
    6.5640   14.0168   26.5292 C   0  0  0  0  0  0  0  0  0  0  0  0
   12.3410   16.0059   19.5687 C   0  0  0  0  0  0  0  0  0  0  0  0
    4.4806   14.6732   27.3235 C   0  0  0  0  0  0  0  0  0  0  0  0
    5.9449   10.3547   26.3523 C   0  0  0  0  0  0  0  0  0  0  0  0
    6.4107   11.5738   25.9120 C   0  0  0  0  0  0  0  0  0  0  0  0
    7.4492   11.4268   24.9495 C   0  0  0  0  0  0  0  0  0  0  0  0
   12.6610   14.7738   20.1904 C   0  0  0  0  0  0  0  0  0  0  0  0
    5.8526   12.8419   26.4214 C   0  0  0  0  0  0  0  0  0  0  0  0
   13.3490   16.2889   18.6736 C   0  0  0  0  0  0  0  0  0  0  0  0
   13.8549   14.3414   19.6565 C   0  0  0  0  0  0  0  0  0  0  0  0
    7.7420   10.0984   24.6870 C   0  0  0  0  0  0  0  0  0  0  0  0
    9.3395   10.5524   23.2035 C   0  0  0  0  0  0  0  0  0  0  0  0
    8.1953   12.4657   24.2514 C   0  0  0  0  0  0  0  0  0  0  0  0
   11.8788   14.0690   21.2179 C   0  0  0  0  0  0  0  0  0  0  0  0
   11.5419   14.5667   22.4237 C   0  0  0  0  0  0  0  0  0  0  0  0
   10.7310   13.6707   23.3241 C   0  0  0  0  0  0  0  0  0  0  0  0
   13.5131   17.4443   17.7676 C   0  0  0  0  0  0  0  0  0  0  0  0
   14.6479   13.1241   19.9390 C   0  0  0  0  0  0  0  0  0  0  0  0
   16.2440   14.2194   14.4706 C   0  0  0  0  0  0  0  0  0  0  0  0
   15.4762   15.1893   17.9485 C   0  0  0  0  0  0  0  0  0  0  0  0
   15.2131   14.7421   16.5168 C   0  0  0  0  0  0  0  0  0  0  0  0
   12.2150   16.9565   23.1556 N   0  0  0  0  0  0  0  0  0  0  0  0
    8.6799    9.6195   23.8212 N   0  0  0  0  0  0  0  0  0  0  0  0
   14.2639   15.2704   18.7358 N   0  0  0  0  0  0  0  0  0  0  0  0
    9.1428   11.9175   23.3768 N   0  0  0  0  0  0  0  0  0  0  0  0
    9.9234   12.7800   22.6476 N   0  0  0  0  0  0  0  0  0  0  0  0
    7.9997   13.6646   24.4246 O   0  0  0  0  0  0  0  0  0  0  0  0
   10.8011   13.7488   24.5499 O   0  0  0  0  0  0  0  0  0  0  0  0
   16.4437   14.6457   15.8114 O   0  0  0  0  0  0  0  0  0  0  0  0
    4.2333   13.0207   26.9488 S   0  0  0  0  0  0  0  0  0  0  0  0
    6.7581    9.0455   25.6073 S   0  0  0  0  0  0  0  0  0  0  0  0
    6.1249   16.0856   27.2208 H   0  0  0  0  0  0  0  0  0  0  0  0
    7.6053   14.1191   26.2488 H   0  0  0  0  0  0  0  0  0  0  0  0
   11.4714   16.6235   19.7503 H   0  0  0  0  0  0  0  0  0  0  0  0
    3.6727   15.2687   27.7246 H   0  0  0  0  0  0  0  0  0  0  0  0
    5.1648   10.1603   27.0761 H   0  0  0  0  0  0  0  0  0  0  0  0
   10.1262   10.2967   22.4755 H   0  0  0  0  0  0  0  0  0  0  0  0
   11.5614   13.0749   20.9105 H   0  0  0  0  0  0  0  0  0  0  0  0
   14.0688   18.2581   18.2604 H   0  0  0  0  0  0  0  0  0  0  0  0
   14.0587   17.1733   16.8482 H   0  0  0  0  0  0  0  0  0  0  0  0
   12.5422   17.8512   17.4382 H   0  0  0  0  0  0  0  0  0  0  0  0
   14.3470   12.2966   19.2783 H   0  0  0  0  0  0  0  0  0  0  0  0
   15.7270   13.2958   19.7966 H   0  0  0  0  0  0  0  0  0  0  0  0
   14.5245   12.7874   20.9811 H   0  0  0  0  0  0  0  0  0  0  0  0
   17.2080   14.1566   13.9600 H   0  0  0  0  0  0  0  0  0  0  0  0
   15.5921   14.9291   13.9550 H   0  0  0  0  0  0  0  0  0  0  0  0
   15.7730   13.2336   14.4775 H   0  0  0  0  0  0  0  0  0  0  0  0
   15.9530   16.1760   17.9735 H   0  0  0  0  0  0  0  0  0  0  0  0
   16.1420   14.4812   18.4553 H   0  0  0  0  0  0  0  0  0  0  0  0
   14.7487   13.7510   16.5178 H   0  0  0  0  0  0  0  0  0  0  0  0
   14.5571   15.4396   15.9860 H   0  0  0  0  0  0  0  0  0  0  0  0
    9.9068   12.7627   21.6356 H   0  0  0  0  0  0  0  0  0  0  0  0
  1 17  1  0  0  0  0
  1 24  3  0  0  0  0
  2  3  1  0  0  0  0
  2  5  2  0  0  0  0
  3 10  2  0  0  0  0
  4  9  1  0  0  0  0
  4 11  2  0  0  0  0
  5 32  1  0  0  0  0
  6  7  2  0  0  0  0
  6 33  1  0  0  0  0
  7  8  1  0  0  0  0
  7 10  1  0  0  0  0
  8 13  2  0  0  0  0
  8 15  1  0  0  0  0
  9 12  2  0  0  0  0
  9 16  1  4  0  0  0
 10 32  1  0  0  0  0
 11 19  1  0  0  0  0
 11 26  1  0  0  0  0
 12 20  1  0  0  0  0
 12 26  1  0  0  0  0
 13 25  1  0  0  0  0
 13 33  1  0  0  0  0
 14 25  2  0  0  0  0
 14 27  1  0  0  0  0
 15 27  1  0  0  0  0
 15 29  2  0  0  0  0
 16 17  2  0  0  0  0
 17 18  1  0  0  0  0
 18 28  1  0  0  0  0
 18 30  2  0  0  0  0
 21 31  1  0  0  0  0
 22 23  1  0  0  0  0
 22 26  1  0  0  0  0
 23 31  1  0  0  0  0
 27 28  1  0  0  0  0
  2 34  1  0  0  0  0
  3 35  1  0  0  0  0
  4 36  1  0  0  0  0
  5 37  1  0  0  0  0
  6 38  1  0  0  0  0
 14 39  1  0  0  0  0
 16 40  1  0  0  0  0
 19 41  1  0  0  0  0
 19 42  1  0  0  0  0
 19 43  1  0  0  0  0
 20 44  1  0  0  0  0
 20 45  1  0  0  0  0
 20 46  1  0  0  0  0
 21 47  1  0  0  0  0
 21 48  1  0  0  0  0
 21 49  1  0  0  0  0
 22 50  1  0  0  0  0
 22 51  1  0  0  0  0
 23 52  1  0  0  0  0
 23 53  1  0  0  0  0
 28 54  1  0  0  0  0
M  END
> <Catalog ID>
Z243946524

> <MW>
479.575

> <MW (desalted)>
479.575

> <ClogP>
2.481

> <logS>
-5.51

> <HBD>
1

> <HBA>
5

> <TPSA>
99.72

> <RotBonds>
7

> <ROCS_ShapeQuery>
A71EV2A-x0451_0A_A71EV2A-x0310_0A_A71EV2A-x0416_0A_peptide

> <ROCS_TanimotoCombo>
0.530 

> <ROCS_ShapeTanimoto>
0.359 

> <ROCS_ColorTanimoto>
0.170 

> <ROCS_RefTversky>
0.332 

> <ROCS_RefColorTversky>
0.198 

> <ROCS_RefTverskyCombo>
0.530 

> <ROCS_FitTversky>
1.304 

> <ROCS_FitColorTversky>
0.547 

> <ROCS_FitTverskyCombo>
1.851 

> <ROCS_ColorScore>
-6.069

> <ROCS_Overlap>
2311.056

> <ROCS_Rank>
223                 

$$$$
untitled-dbase-6519_15534
  -OEChem-11132309573D

 53 56  0     0  0  0  0  0  0999 V2000
   13.2726   13.9500   22.9402 C   0  0  0  0  0  0  0  0  0  0  0  0
   12.5270   14.3739   16.8509 C   0  0  0  0  0  0  0  0  0  0  0  0
   13.5606   15.2133   16.4399 C   0  0  0  0  0  0  0  0  0  0  0  0
    8.4557    9.3163   24.0621 C   0  0  0  0  0  0  0  0  0  0  0  0
   12.1007   14.3624   18.1840 C   0  0  0  0  0  0  0  0  0  0  0  0
   14.1998   16.0658   17.3446 C   0  0  0  0  0  0  0  0  0  0  0  0
    9.4737   10.0998   23.5187 C   0  0  0  0  0  0  0  0  0  0  0  0
    7.3215    9.9228   24.6020 C   0  0  0  0  0  0  0  0  0  0  0  0
    8.2235   12.0964   24.0553 C   0  0  0  0  0  0  0  0  0  0  0  0
   13.4795   16.4137   20.8769 C   0  0  0  0  0  0  0  0  0  0  0  0
   12.7302   15.2131   19.1142 C   0  0  0  0  0  0  0  0  0  0  0  0
   12.5622   15.4577   20.5060 C   0  0  0  0  0  0  0  0  0  0  0  0
   13.7632   16.0435   18.6740 C   0  0  0  0  0  0  0  0  0  0  0  0
    9.3577   11.4899   23.5153 C   0  0  0  0  0  0  0  0  0  0  0  0
    7.2055   11.3128   24.5986 C   0  0  0  0  0  0  0  0  0  0  0  0
   11.5998   14.8299   21.4248 C   0  0  0  0  0  0  0  0  0  0  0  0
   11.9157   14.1328   22.5342 C   0  0  0  0  0  0  0  0  0  0  0  0
   10.7617   13.5734   23.3387 C   0  0  0  0  0  0  0  0  0  0  0  0
    4.3091   12.6338   29.0089 C   0  0  0  0  0  0  0  0  0  0  0  0
    4.5665   11.2674   28.3764 C   0  0  0  0  0  0  0  0  0  0  0  0
    4.6650   13.7633   28.0442 C   0  0  0  0  0  0  0  0  0  0  0  0
    5.9921   11.1623   27.8468 C   0  0  0  0  0  0  0  0  0  0  0  0
    6.0889   13.6155   27.5201 C   0  0  0  0  0  0  0  0  0  0  0  0
   14.3738   13.7996   23.2745 N   0  0  0  0  0  0  0  0  0  0  0  0
   14.1991   16.7610   19.7651 N   0  0  0  0  0  0  0  0  0  0  0  0
    6.2813   12.2751   26.9001 N   0  0  0  0  0  0  0  0  0  0  0  0
   10.3758   12.2737   22.9716 N   0  0  0  0  0  0  0  0  0  0  0  0
   10.2410   14.2439   24.2267 O   0  0  0  0  0  0  0  0  0  0  0  0
    5.6312   13.3840   24.6724 O   0  0  0  0  0  0  0  0  0  0  0  0
    4.6900   11.1185   25.2459 O   0  0  0  0  0  0  0  0  0  0  0  0
    5.7705   12.0798   25.2828 S   0  0  0  0  0  0  0  0  0  0  0  0
   12.0439   13.7214   16.1284 H   0  0  0  0  0  0  0  0  0  0  0  0
   13.8751   15.2061   15.3996 H   0  0  0  0  0  0  0  0  0  0  0  0
    8.5455    8.2340   24.0644 H   0  0  0  0  0  0  0  0  0  0  0  0
   11.2929   13.7021   18.4869 H   0  0  0  0  0  0  0  0  0  0  0  0
   15.0037   16.7198   17.0236 H   0  0  0  0  0  0  0  0  0  0  0  0
   10.3526    9.6160   23.1001 H   0  0  0  0  0  0  0  0  0  0  0  0
    6.5345    9.3031   25.0233 H   0  0  0  0  0  0  0  0  0  0  0  0
    8.1322   13.1804   24.0528 H   0  0  0  0  0  0  0  0  0  0  0  0
   13.6895   16.8810   21.8296 H   0  0  0  0  0  0  0  0  0  0  0  0
   10.5636   14.9938   21.1372 H   0  0  0  0  0  0  0  0  0  0  0  0
    3.2511   12.7133   29.2931 H   0  0  0  0  0  0  0  0  0  0  0  0
    4.8957   12.7333   29.9307 H   0  0  0  0  0  0  0  0  0  0  0  0
    4.3953   10.4857   29.1268 H   0  0  0  0  0  0  0  0  0  0  0  0
    3.8537   11.0963   27.5625 H   0  0  0  0  0  0  0  0  0  0  0  0
    3.9593   13.7701   27.2063 H   0  0  0  0  0  0  0  0  0  0  0  0
    4.5623   14.7248   28.5621 H   0  0  0  0  0  0  0  0  0  0  0  0
    6.6907   11.2126   28.6946 H   0  0  0  0  0  0  0  0  0  0  0  0
    6.1463   10.1971   27.3408 H   0  0  0  0  0  0  0  0  0  0  0  0
    6.3127   14.4003   26.7815 H   0  0  0  0  0  0  0  0  0  0  0  0
    6.7901   13.7343   28.3590 H   0  0  0  0  0  0  0  0  0  0  0  0
   14.9428   17.4451   19.7478 H   0  0  0  0  0  0  0  0  0  0  0  0
   10.9102   11.8466   22.2068 H   0  0  0  0  0  0  0  0  0  0  0  0
  1 17  1  0  0  0  0
  1 24  3  0  0  0  0
  2  3  1  0  0  0  0
  2  5  2  0  0  0  0
  3  6  2  0  0  0  0
  4  7  2  0  0  0  0
  4  8  1  0  0  0  0
  5 11  1  0  0  0  0
  6 13  1  0  0  0  0
  7 14  1  0  0  0  0
  8 15  2  0  0  0  0
  9 14  2  0  0  0  0
  9 15  1  0  0  0  0
 10 12  2  0  0  0  0
 10 25  1  0  0  0  0
 11 12  1  0  0  0  0
 11 13  2  0  0  0  0
 12 16  1  4  0  0  0
 13 25  1  0  0  0  0
 14 27  1  0  0  0  0
 15 31  1  0  0  0  0
 16 17  2  0  0  0  0
 17 18  1  0  0  0  0
 18 27  1  0  0  0  0
 18 28  2  0  0  0  0
 19 20  1  0  0  0  0
 19 21  1  0  0  0  0
 20 22  1  0  0  0  0
 21 23  1  0  0  0  0
 22 26  1  0  0  0  0
 23 26  1  0  0  0  0
 26 31  1  0  0  0  0
 29 31  2  0  0  0  0
 30 31  2  0  0  0  0
  2 32  1  0  0  0  0
  3 33  1  0  0  0  0
  4 34  1  0  0  0  0
  5 35  1  0  0  0  0
  6 36  1  0  0  0  0
  7 37  1  0  0  0  0
  8 38  1  0  0  0  0
  9 39  1  0  0  0  0
 10 40  1  0  0  0  0
 16 41  1  0  0  0  0
 19 42  1  0  0  0  0
 19 43  1  0  0  0  0
 20 44  1  0  0  0  0
 20 45  1  0  0  0  0
 21 46  1  0  0  0  0
 21 47  1  0  0  0  0
 22 48  1  0  0  0  0
 22 49  1  0  0  0  0
 23 50  1  0  0  0  0
 23 51  1  0  0  0  0
 25 52  1  0  0  0  0
 27 53  1  0  0  0  0
M  END
> <Catalog ID>
Z44371588

> <MW>
434.511

> <MW (desalted)>
434.511

> <ClogP>
3.825

> <logS>
-5.8

> <HBD>
2

> <HBA>
4

> <TPSA>
106.06

> <RotBonds>
4

> <ROCS_ShapeQuery>
A71EV2A-x0451_0A_A71EV2A-x0310_0A_A71EV2A-x0416_0A_peptide

> <ROCS_TanimotoCombo>
0.529 

> <ROCS_ShapeTanimoto>
0.362 

> <ROCS_ColorTanimoto>
0.168 

> <ROCS_RefTversky>
0.330 

> <ROCS_RefColorTversky>
0.196 

> <ROCS_RefTverskyCombo>
0.526 

> <ROCS_FitTversky>
1.366 

> <ROCS_FitColorTversky>
0.540 

> <ROCS_FitTverskyCombo>
1.906 

> <ROCS_ColorScore>
-5.997

> <ROCS_Overlap>
2296.418

> <ROCS_Rank>
224                 

$$$$
untitled-dbase-196_15763
  -OEChem-11132309573D

 63 66  0     0  0  0  0  0  0999 V2000
   13.4378   13.0056   24.0845 C   0  0  0  0  0  0  0  0  0  0  0  0
    5.4916   12.1253   25.6775 C   0  0  0  0  0  0  0  0  0  0  0  0
    5.1049   10.9856   24.9834 C   0  0  0  0  0  0  0  0  0  0  0  0
    6.8365   12.4814   25.7187 C   0  0  0  0  0  0  0  0  0  0  0  0
   12.6018   15.5236   20.8436 C   0  0  0  0  0  0  0  0  0  0  0  0
    6.0633   10.2050   24.3323 C   0  0  0  0  0  0  0  0  0  0  0  0
   13.8884   16.0521   20.7395 C   0  0  0  0  0  0  0  0  0  0  0  0
    9.1608   12.0314   25.0889 C   0  0  0  0  0  0  0  0  0  0  0  0
   12.4485   15.4220   18.4346 C   0  0  0  0  0  0  0  0  0  0  0  0
    7.8003   11.6961   25.0637 C   0  0  0  0  0  0  0  0  0  0  0  0
   10.0881   11.2354   24.4320 C   0  0  0  0  0  0  0  0  0  0  0  0
   11.8818   15.2085   19.6911 C   0  0  0  0  0  0  0  0  0  0  0  0
    7.4149   10.5378   24.3569 C   0  0  0  0  0  0  0  0  0  0  0  0
   14.4551   16.2656   19.4829 C   0  0  0  0  0  0  0  0  0  0  0  0
   13.7352   15.9505   18.3305 C   0  0  0  0  0  0  0  0  0  0  0  0
    9.6159   10.1219   23.7672 C   0  0  0  0  0  0  0  0  0  0  0  0
   11.4961   11.6024   24.4709 C   0  0  0  0  0  0  0  0  0  0  0  0
   12.0361   12.7508   23.9915 C   0  0  0  0  0  0  0  0  0  0  0  0
   11.0911   13.7537   23.3797 C   0  0  0  0  0  0  0  0  0  0  0  0
   10.8310    9.6054   21.6906 C   0  0  0  0  0  0  0  0  0  0  0  0
   10.6657    7.8931   23.4758 C   0  0  0  0  0  0  0  0  0  0  0  0
   12.1642    8.9764   21.3018 C   0  0  0  0  0  0  0  0  0  0  0  0
   12.0075    7.3551   22.9913 C   0  0  0  0  0  0  0  0  0  0  0  0
   15.8266   18.2028   19.3343 C   0  0  0  0  0  0  0  0  0  0  0  0
   13.4762   15.8070   15.9708 C   0  0  0  0  0  0  0  0  0  0  0  0
   10.4909   14.6343   19.8037 C   0  0  0  0  0  0  0  0  0  0  0  0
   10.0305   14.4680   21.2498 C   0  0  0  0  0  0  0  0  0  0  0  0
   14.5765   13.2167   24.1586 N   0  0  0  0  0  0  0  0  0  0  0  0
    8.3125    9.7633   23.7185 N   0  0  0  0  0  0  0  0  0  0  0  0
   10.5316    9.3040   23.0972 N   0  0  0  0  0  0  0  0  0  0  0  0
   10.9035   13.6052   22.0144 N   0  0  0  0  0  0  0  0  0  0  0  0
   10.5407   14.6201   24.0576 O   0  0  0  0  0  0  0  0  0  0  0  0
   12.1592    7.5784   21.5899 O   0  0  0  0  0  0  0  0  0  0  0  0
   15.7126   16.7824   19.3949 O   0  0  0  0  0  0  0  0  0  0  0  0
   14.2778   16.1554   17.0978 O   0  0  0  0  0  0  0  0  0  0  0  0
    4.7498   12.7343   26.1853 H   0  0  0  0  0  0  0  0  0  0  0  0
    4.0573   10.7011   24.9449 H   0  0  0  0  0  0  0  0  0  0  0  0
    7.1290   13.3750   26.2656 H   0  0  0  0  0  0  0  0  0  0  0  0
   12.1689   15.3591   21.8267 H   0  0  0  0  0  0  0  0  0  0  0  0
    5.7346    9.3168   23.7955 H   0  0  0  0  0  0  0  0  0  0  0  0
   14.4434   16.2957   21.6412 H   0  0  0  0  0  0  0  0  0  0  0  0
    9.4883   12.9202   25.6265 H   0  0  0  0  0  0  0  0  0  0  0  0
   11.8897   15.1767   17.5346 H   0  0  0  0  0  0  0  0  0  0  0  0
   12.1419   10.8431   24.9220 H   0  0  0  0  0  0  0  0  0  0  0  0
   10.8717   10.6913   21.5201 H   0  0  0  0  0  0  0  0  0  0  0  0
   10.0293    9.1954   21.0571 H   0  0  0  0  0  0  0  0  0  0  0  0
    9.8477    7.3175   23.0149 H   0  0  0  0  0  0  0  0  0  0  0  0
   10.5898    7.7673   24.5659 H   0  0  0  0  0  0  0  0  0  0  0  0
   12.3289    9.0938   20.2260 H   0  0  0  0  0  0  0  0  0  0  0  0
   13.0029    9.4593   21.8176 H   0  0  0  0  0  0  0  0  0  0  0  0
   12.8440    7.8125   23.5336 H   0  0  0  0  0  0  0  0  0  0  0  0
   12.0561    6.2750   23.1632 H   0  0  0  0  0  0  0  0  0  0  0  0
   16.8809   18.4818   19.2663 H   0  0  0  0  0  0  0  0  0  0  0  0
   15.3789   18.6436   20.2285 H   0  0  0  0  0  0  0  0  0  0  0  0
   15.2986   18.5643   18.4488 H   0  0  0  0  0  0  0  0  0  0  0  0
   14.0268   16.0200   15.0513 H   0  0  0  0  0  0  0  0  0  0  0  0
   12.5463   16.3809   15.9925 H   0  0  0  0  0  0  0  0  0  0  0  0
   13.2447   14.7401   16.0153 H   0  0  0  0  0  0  0  0  0  0  0  0
   10.4762   13.6575   19.3039 H   0  0  0  0  0  0  0  0  0  0  0  0
    9.7829   15.2662   19.2522 H   0  0  0  0  0  0  0  0  0  0  0  0
   10.0264   15.4396   21.7539 H   0  0  0  0  0  0  0  0  0  0  0  0
    9.0202   14.0497   21.3065 H   0  0  0  0  0  0  0  0  0  0  0  0
   11.3981   12.8619   21.5325 H   0  0  0  0  0  0  0  0  0  0  0  0
  1 18  1  0  0  0  0
  1 28  3  0  0  0  0
  2  3  1  0  0  0  0
  2  4  2  0  0  0  0
  3  6  2  0  0  0  0
  4 10  1  0  0  0  0
  5  7  2  0  0  0  0
  5 12  1  0  0  0  0
  6 13  1  0  0  0  0
  7 14  1  0  0  0  0
  8 10  2  0  0  0  0
  8 11  1  0  0  0  0
  9 12  2  0  0  0  0
  9 15  1  0  0  0  0
 10 13  1  0  0  0  0
 11 16  2  0  0  0  0
 11 17  1  4  0  0  0
 12 26  1  0  0  0  0
 13 29  2  0  0  0  0
 14 15  2  0  0  0  0
 14 34  1  0  0  0  0
 15 35  1  0  0  0  0
 16 29  1  0  0  0  0
 16 30  1  0  0  0  0
 17 18  2  0  0  0  0
 18 19  1  0  0  0  0
 19 31  1  0  0  0  0
 19 32  2  0  0  0  0
 20 22  1  0  0  0  0
 20 30  1  0  0  0  0
 21 23  1  0  0  0  0
 21 30  1  0  0  0  0
 22 33  1  0  0  0  0
 23 33  1  0  0  0  0
 24 34  1  0  0  0  0
 25 35  1  0  0  0  0
 26 27  1  0  0  0  0
 27 31  1  0  0  0  0
  2 36  1  0  0  0  0
  3 37  1  0  0  0  0
  4 38  1  0  0  0  0
  5 39  1  0  0  0  0
  6 40  1  0  0  0  0
  7 41  1  0  0  0  0
  8 42  1  0  0  0  0
  9 43  1  0  0  0  0
 17 44  1  0  0  0  0
 20 45  1  0  0  0  0
 20 46  1  0  0  0  0
 21 47  1  0  0  0  0
 21 48  1  0  0  0  0
 22 49  1  0  0  0  0
 22 50  1  0  0  0  0
 23 51  1  0  0  0  0
 23 52  1  0  0  0  0
 24 53  1  0  0  0  0
 24 54  1  0  0  0  0
 24 55  1  0  0  0  0
 25 56  1  0  0  0  0
 25 57  1  0  0  0  0
 25 58  1  0  0  0  0
 26 59  1  0  0  0  0
 26 60  1  0  0  0  0
 27 61  1  0  0  0  0
 27 62  1  0  0  0  0
 31 63  1  0  0  0  0
M  END
> <Catalog ID>
Z46107650

> <MW>
472.536

> <MW (desalted)>
472.536

> <ClogP>
2.873

> <logS>
-5.48

> <HBD>
1

> <HBA>
7

> <TPSA>
96.71

> <RotBonds>
8

> <ROCS_ShapeQuery>
A71EV2A-x0451_0A_A71EV2A-x0310_0A_A71EV2A-x0416_0A_peptide

> <ROCS_TanimotoCombo>
0.529 

> <ROCS_ShapeTanimoto>
0.361 

> <ROCS_ColorTanimoto>
0.168 

> <ROCS_RefTversky>
0.336 

> <ROCS_RefColorTversky>
0.201 

> <ROCS_RefTverskyCombo>
0.537 

> <ROCS_FitTversky>
1.254 

> <ROCS_FitColorTversky>
0.511 

> <ROCS_FitTverskyCombo>
1.765 

> <ROCS_ColorScore>
-6.156

> <ROCS_Overlap>
2346.425

> <ROCS_Rank>
225                 

$$$$
untitled-dbase-7020_5118
  -OEChem-11132309573D

 48 50  0     0  0  0  0  0  0999 V2000
    8.5166    9.7055   23.4318 C   0  0  0  0  0  0  0  0  0  0  0  0
    7.6109   10.2951   24.3137 C   0  0  0  0  0  0  0  0  0  0  0  0
    9.6216   10.4275   22.9807 C   0  0  0  0  0  0  0  0  0  0  0  0
   14.0235   16.3637   20.2996 C   0  0  0  0  0  0  0  0  0  0  0  0
   11.8427   15.4150   19.9410 C   0  0  0  0  0  0  0  0  0  0  0  0
    8.9152   12.3288   24.2934 C   0  0  0  0  0  0  0  0  0  0  0  0
   14.1279   16.5069   18.9254 C   0  0  0  0  0  0  0  0  0  0  0  0
   12.0447   15.6008   18.5829 C   0  0  0  0  0  0  0  0  0  0  0  0
   12.8559   15.8065   20.8091 C   0  0  0  0  0  0  0  0  0  0  0  0
    7.8102   11.6068   24.7445 C   0  0  0  0  0  0  0  0  0  0  0  0
    9.8208   11.7391   23.4115 C   0  0  0  0  0  0  0  0  0  0  0  0
    5.7821   11.7292   26.2014 C   0  0  0  0  0  0  0  0  0  0  0  0
   11.2960   13.7843   23.2781 C   0  0  0  0  0  0  0  0  0  0  0  0
    5.5830   13.0803   26.9140 C   0  0  0  0  0  0  0  0  0  0  0  0
    6.8807   13.5183   26.2056 C   0  0  0  0  0  0  0  0  0  0  0  0
   12.6900   15.6275   22.2905 C   0  0  0  0  0  0  0  0  0  0  0  0
   14.5916   13.1979   23.4547 C   0  0  0  0  0  0  0  0  0  0  0  0
   13.5785   13.3209   22.3243 C   0  0  0  0  0  0  0  0  0  0  0  0
   13.9800   12.6524   24.7395 C   0  0  0  0  0  0  0  0  0  0  0  0
   13.1651   16.1385   18.0508 N   0  0  0  0  0  0  0  0  0  0  0  0
    6.9042   12.1957   25.6270 N   0  0  0  0  0  0  0  0  0  0  0  0
   10.9436   12.4720   22.9529 N   0  0  0  0  0  0  0  0  0  0  0  0
   12.4826   14.2308   22.6513 N   0  0  0  0  0  0  0  0  0  0  0  0
    5.1940   10.6732   26.1557 O   0  0  0  0  0  0  0  0  0  0  0  0
   10.6396   14.5154   24.0229 O   0  0  0  0  0  0  0  0  0  0  0  0
   13.4621   11.3535   24.4839 O   0  0  0  0  0  0  0  0  0  0  0  0
    8.3620    8.6839   23.0972 H   0  0  0  0  0  0  0  0  0  0  0  0
    6.7531    9.7229   24.6578 H   0  0  0  0  0  0  0  0  0  0  0  0
   10.3199    9.9574   22.2928 H   0  0  0  0  0  0  0  0  0  0  0  0
   14.8327   16.6783   20.9500 H   0  0  0  0  0  0  0  0  0  0  0  0
   10.9205   14.9777   20.3079 H   0  0  0  0  0  0  0  0  0  0  0  0
    9.0704   13.3521   24.6292 H   0  0  0  0  0  0  0  0  0  0  0  0
   15.0190   16.9349   18.4778 H   0  0  0  0  0  0  0  0  0  0  0  0
   11.2848   15.3120   17.8643 H   0  0  0  0  0  0  0  0  0  0  0  0
    4.6797   13.6134   26.6077 H   0  0  0  0  0  0  0  0  0  0  0  0
    5.6414   13.0195   28.0034 H   0  0  0  0  0  0  0  0  0  0  0  0
    6.7637   14.3178   25.4687 H   0  0  0  0  0  0  0  0  0  0  0  0
    7.7275   13.7230   26.8665 H   0  0  0  0  0  0  0  0  0  0  0  0
   13.5771   15.9856   22.8243 H   0  0  0  0  0  0  0  0  0  0  0  0
   11.8337   16.2000   22.6620 H   0  0  0  0  0  0  0  0  0  0  0  0
   15.4069   12.5346   23.1398 H   0  0  0  0  0  0  0  0  0  0  0  0
   15.0581   14.1701   23.6586 H   0  0  0  0  0  0  0  0  0  0  0  0
   14.0634   13.7155   21.4260 H   0  0  0  0  0  0  0  0  0  0  0  0
   13.1430   12.3472   22.0784 H   0  0  0  0  0  0  0  0  0  0  0  0
   14.7288   12.5745   25.5338 H   0  0  0  0  0  0  0  0  0  0  0  0
   13.1604   13.2916   25.0831 H   0  0  0  0  0  0  0  0  0  0  0  0
   11.5646   11.9867   22.3133 H   0  0  0  0  0  0  0  0  0  0  0  0
   13.0811   11.0350   25.3181 H   0  0  0  0  0  0  0  0  0  0  0  0
  1  2  1  0  0  0  0
  1  3  2  0  0  0  0
  2 10  2  0  0  0  0
  3 11  1  0  0  0  0
  4  7  2  0  0  0  0
  4  9  1  0  0  0  0
  5  8  1  0  0  0  0
  5  9  2  0  0  0  0
  6 10  1  0  0  0  0
  6 11  2  0  0  0  0
  7 20  1  0  0  0  0
  8 20  2  0  0  0  0
  9 16  1  0  0  0  0
 10 21  1  0  0  0  0
 11 22  1  0  0  0  0
 12 14  1  0  0  0  0
 12 21  1  0  0  0  0
 12 24  2  0  0  0  0
 13 22  1  0  0  0  0
 13 23  1  0  0  0  0
 13 25  2  0  0  0  0
 14 15  1  0  0  0  0
 15 21  1  0  0  0  0
 16 23  1  0  0  0  0
 17 18  1  0  0  0  0
 17 19  1  0  0  0  0
 18 23  1  0  0  0  0
 19 26  1  0  0  0  0
  1 27  1  0  0  0  0
  2 28  1  0  0  0  0
  3 29  1  0  0  0  0
  4 30  1  0  0  0  0
  5 31  1  0  0  0  0
  6 32  1  0  0  0  0
  7 33  1  0  0  0  0
  8 34  1  0  0  0  0
 14 35  1  0  0  0  0
 14 36  1  0  0  0  0
 15 37  1  0  0  0  0
 15 38  1  0  0  0  0
 16 39  1  0  0  0  0
 16 40  1  0  0  0  0
 17 41  1  0  0  0  0
 17 42  1  0  0  0  0
 18 43  1  0  0  0  0
 18 44  1  0  0  0  0
 19 45  1  0  0  0  0
 19 46  1  0  0  0  0
 22 47  1  0  0  0  0
 26 48  1  0  0  0  0
M  END
> <Catalog ID>
Z1931408656

> <MW>
354.403

> <MW (desalted)>
354.403

> <ClogP>
0.226

> <logS>
-2.86

> <HBD>
2

> <HBA>
4

> <TPSA>
85.77

> <RotBonds>
7

> <ROCS_ShapeQuery>
A71EV2A-x0451_0A_A71EV2A-x0310_0A_A71EV2A-x0416_0A_peptide

> <ROCS_TanimotoCombo>
0.529 

> <ROCS_ShapeTanimoto>
0.368 

> <ROCS_ColorTanimoto>
0.162 

> <ROCS_RefTversky>
0.326 

> <ROCS_RefColorTversky>
0.185 

> <ROCS_RefTverskyCombo>
0.511 

> <ROCS_FitTversky>
1.541 

> <ROCS_FitColorTversky>
0.559 

> <ROCS_FitTverskyCombo>
2.100 

> <ROCS_ColorScore>
-5.665

> <ROCS_Overlap>
2264.357

> <ROCS_Rank>
226                 

$$$$
untitled-dbase-2470_93
  -OEChem-11132309573D

 37 39  0     0  0  0  0  0  0999 V2000
   11.5789   15.0087   21.0484 C   0  0  0  0  0  0  0  0  0  0  0  0
   13.3098   11.7075   23.6000 C   0  0  0  0  0  0  0  0  0  0  0  0
    7.5014   10.1624   24.8070 C   0  0  0  0  0  0  0  0  0  0  0  0
   13.7750   10.9017   24.6420 C   0  0  0  0  0  0  0  0  0  0  0  0
    8.4763    9.5018   24.0595 C   0  0  0  0  0  0  0  0  0  0  0  0
   14.6468   13.5808   24.3945 C   0  0  0  0  0  0  0  0  0  0  0  0
    8.4654   12.2887   24.1850 C   0  0  0  0  0  0  0  0  0  0  0  0
   13.7432   13.0393   23.4769 C   0  0  0  0  0  0  0  0  0  0  0  0
    7.4959   11.5559   24.8697 C   0  0  0  0  0  0  0  0  0  0  0  0
    9.4403   11.6281   23.4375 C   0  0  0  0  0  0  0  0  0  0  0  0
   14.6666   11.4605   25.5345 C   0  0  0  0  0  0  0  0  0  0  0  0
   15.0909   12.7641   25.4140 C   0  0  0  0  0  0  0  0  0  0  0  0
    9.4458   10.2346   23.3748 C   0  0  0  0  0  0  0  0  0  0  0  0
   13.2442   13.8600   22.3841 C   0  0  0  0  0  0  0  0  0  0  0  0
   11.9472   14.1925   22.1610 C   0  0  0  0  0  0  0  0  0  0  0  0
   10.9149   13.6457   23.1237 C   0  0  0  0  0  0  0  0  0  0  0  0
   16.0468   11.8867   27.1455 C   0  0  0  0  0  0  0  0  0  0  0  0
    6.4532   12.2619   25.6687 C   0  0  0  0  0  0  0  0  0  0  0  0
   11.2746   15.6709   20.1452 N   0  0  0  0  0  0  0  0  0  0  0  0
   10.4121   12.4029   22.7545 N   0  0  0  0  0  0  0  0  0  0  0  0
   10.5924   14.2887   24.1197 O   0  0  0  0  0  0  0  0  0  0  0  0
   15.2244   10.8323   26.6050 O   0  0  0  0  0  0  0  0  0  0  0  0
   15.9673   13.1153   26.3941 O   0  0  0  0  0  0  0  0  0  0  0  0
    5.5712   11.4196   26.2839 F   0  0  0  0  0  0  0  0  0  0  0  0
    6.9638   13.0366   26.6712 F   0  0  0  0  0  0  0  0  0  0  0  0
    5.6893   13.1013   24.9104 F   0  0  0  0  0  0  0  0  0  0  0  0
   10.6346    9.3759   22.4615 Cl  0  0  0  0  0  0  0  0  0  0  0  0
   12.6062   11.2877   22.8841 H   0  0  0  0  0  0  0  0  0  0  0  0
    6.7502    9.5831   25.3372 H   0  0  0  0  0  0  0  0  0  0  0  0
   13.4429    9.8746   24.7409 H   0  0  0  0  0  0  0  0  0  0  0  0
    8.4655    8.4155   24.0202 H   0  0  0  0  0  0  0  0  0  0  0  0
   14.9929   14.6063   24.3158 H   0  0  0  0  0  0  0  0  0  0  0  0
    8.4584   13.3755   24.2368 H   0  0  0  0  0  0  0  0  0  0  0  0
   14.0261   14.2346   21.7164 H   0  0  0  0  0  0  0  0  0  0  0  0
   15.7315   12.0846   28.1764 H   0  0  0  0  0  0  0  0  0  0  0  0
   17.0893   11.5484   27.1549 H   0  0  0  0  0  0  0  0  0  0  0  0
   10.7838   12.0040   21.8966 H   0  0  0  0  0  0  0  0  0  0  0  0
  1 15  1  0  0  0  0
  1 19  3  0  0  0  0
  2  4  2  0  0  0  0
  2  8  1  0  0  0  0
  3  5  2  0  0  0  0
  3  9  1  0  0  0  0
  4 11  1  0  0  0  0
  5 13  1  0  0  0  0
  6  8  2  0  0  0  0
  6 12  1  0  0  0  0
  7  9  2  0  0  0  0
  7 10  1  0  0  0  0
  8 14  1  4  0  0  0
  9 18  1  0  0  0  0
 10 13  2  0  0  0  0
 10 20  1  0  0  0  0
 11 12  2  0  0  0  0
 11 22  1  0  0  0  0
 12 23  1  0  0  0  0
 13 27  1  0  0  0  0
 14 15  2  0  0  0  0
 15 16  1  0  0  0  0
 16 20  1  0  0  0  0
 16 21  2  0  0  0  0
 17 22  1  0  0  0  0
 17 23  1  0  0  0  0
 18 24  1  0  0  0  0
 18 25  1  0  0  0  0
 18 26  1  0  0  0  0
  2 28  1  0  0  0  0
  3 29  1  0  0  0  0
  4 30  1  0  0  0  0
  5 31  1  0  0  0  0
  6 32  1  0  0  0  0
  7 33  1  0  0  0  0
 14 34  1  0  0  0  0
 17 35  1  0  0  0  0
 17 36  1  0  0  0  0
 20 37  1  0  0  0  0
M  END
> <Catalog ID>
Z44308200

> <MW>
394.732

> <MW (desalted)>
394.732

> <ClogP>
4.239

> <logS>
-6.51

> <HBD>
1

> <HBA>
4

> <TPSA>
71.35

> <RotBonds>
4

> <ROCS_ShapeQuery>
A71EV2A-x0451_0A_A71EV2A-x0310_0A_A71EV2A-x0416_0A_peptide

> <ROCS_TanimotoCombo>
0.529 

> <ROCS_ShapeTanimoto>
0.378 

> <ROCS_ColorTanimoto>
0.151 

> <ROCS_RefTversky>
0.335 

> <ROCS_RefColorTversky>
0.171 

> <ROCS_RefTverskyCombo>
0.506 

> <ROCS_FitTversky>
1.514 

> <ROCS_FitColorTversky>
0.567 

> <ROCS_FitTverskyCombo>
2.081 

> <ROCS_ColorScore>
-5.223

> <ROCS_Overlap>
2330.228

> <ROCS_Rank>
227                 

$$$$
untitled-dbase-9211_7651
  -OEChem-11132309573D

 51 53  0     1  0  0  0  0  0999 V2000
   13.9615   16.9939   18.1163 C   0  0  0  0  0  0  0  0  0  0  0  0
   14.9769   16.8756   19.0775 C   0  0  0  0  0  0  0  0  0  0  0  0
   12.7187   16.3912   18.3174 C   0  0  0  0  0  0  0  0  0  0  0  0
   14.7638   16.1545   20.2549 C   0  0  0  0  0  0  0  0  0  0  0  0
   12.5115   15.6891   19.4934 C   0  0  0  0  0  0  0  0  0  0  0  0
   13.5219   15.5730   20.4589 C   0  0  0  0  0  0  0  0  0  0  0  0
   10.4969   11.1517   23.5208 C   0  0  0  0  0  0  0  0  0  0  0  0
    9.8725   10.0186   23.8326 C   0  0  0  0  0  0  0  0  0  0  0  0
    9.6853   12.3663   23.6149 C   0  0  0  0  0  0  0  0  0  0  0  0
    8.4486   10.0281   24.2428 C   0  0  0  0  0  0  0  0  0  0  0  0
   10.3572   13.6338   23.2742 C   0  0  0  0  0  0  0  0  0  0  0  0
   13.6109   14.3462   23.9925 C   0  0  0  0  0  0  0  0  0  0  0  0
   11.2856   14.9307   19.9019 C   0  0  0  0  0  0  0  0  0  0  0  0
   13.0588   14.7171   21.6040 C   0  0  2  0  0  0  0  0  0  0  0  0
   11.5271   14.7867   21.4150 C   0  0  2  0  0  0  0  0  0  0  0  0
    6.1238   14.2029   25.4339 C   0  0  0  0  0  0  0  0  0  0  0  0
   14.0676   15.0595   25.2395 C   0  0  0  0  0  0  0  0  0  0  0  0
    6.7875   13.1921   26.3562 C   0  0  0  0  0  0  0  0  0  0  0  0
    6.2459   11.7804   26.1200 C   0  0  0  0  0  0  0  0  0  0  0  0
    6.4241   11.3181   24.6777 C   0  0  0  0  0  0  0  0  0  0  0  0
    8.4473   12.4414   23.9638 N   0  0  0  0  0  0  0  0  0  0  0  0
    7.8208   11.2670   24.2806 N   0  0  0  0  0  0  0  0  0  0  0  0
   10.8382   13.6575   21.9754 N   0  0  0  0  0  0  0  0  0  0  0  0
   13.4666   15.1897   22.8981 N   0  0  0  0  0  0  0  0  0  0  0  0
    7.9117    8.9563   24.5221 O   0  0  0  0  0  0  0  0  0  0  0  0
   10.4457   14.5356   24.1002 O   0  0  0  0  0  0  0  0  0  0  0  0
   13.4107   13.1330   23.9756 O   0  0  0  0  0  0  0  0  0  0  0  0
   15.0107   13.9151   26.2068 Cl  0  0  0  0  0  0  0  0  0  0  0  0
   14.1488   17.5530   17.2035 H   0  0  0  0  0  0  0  0  0  0  0  0
   15.9414   17.3436   18.8996 H   0  0  0  0  0  0  0  0  0  0  0  0
   11.9397   16.4712   17.5667 H   0  0  0  0  0  0  0  0  0  0  0  0
   15.5590   16.0540   20.9860 H   0  0  0  0  0  0  0  0  0  0  0  0
   11.5339   11.1874   23.2170 H   0  0  0  0  0  0  0  0  0  0  0  0
   10.3860    9.0648   23.7947 H   0  0  0  0  0  0  0  0  0  0  0  0
   10.3658   15.4850   19.6936 H   0  0  0  0  0  0  0  0  0  0  0  0
   11.2658   13.9613   19.3920 H   0  0  0  0  0  0  0  0  0  0  0  0
   13.4356   13.6963   21.4717 H   0  0  0  0  0  0  0  0  0  0  0  0
   11.1239   15.6784   21.9165 H   0  0  0  0  0  0  0  0  0  0  0  0
    5.0386   14.2122   25.5784 H   0  0  0  0  0  0  0  0  0  0  0  0
    6.5026   15.2090   25.6393 H   0  0  0  0  0  0  0  0  0  0  0  0
    6.3291   13.9705   24.3841 H   0  0  0  0  0  0  0  0  0  0  0  0
   14.6908   15.9301   25.0208 H   0  0  0  0  0  0  0  0  0  0  0  0
   13.1948   15.3805   25.8147 H   0  0  0  0  0  0  0  0  0  0  0  0
    7.8703   13.2083   26.1865 H   0  0  0  0  0  0  0  0  0  0  0  0
    6.6168   13.4948   27.3955 H   0  0  0  0  0  0  0  0  0  0  0  0
    6.7438   11.0774   26.7992 H   0  0  0  0  0  0  0  0  0  0  0  0
    5.1764   11.7612   26.3625 H   0  0  0  0  0  0  0  0  0  0  0  0
    5.9010   11.9802   23.9806 H   0  0  0  0  0  0  0  0  0  0  0  0
    6.0202   10.3080   24.5561 H   0  0  0  0  0  0  0  0  0  0  0  0
   10.6967   12.8347   21.3896 H   0  0  0  0  0  0  0  0  0  0  0  0
   13.6578   16.1839   23.0180 H   0  0  0  0  0  0  0  0  0  0  0  0
  1  2  1  0  0  0  0
  1  3  2  0  0  0  0
  2  4  2  0  0  0  0
  3  5  1  0  0  0  0
  4  6  1  0  0  0  0
  5  6  2  0  0  0  0
  5 13  1  0  0  0  0
  6 14  1  0  0  0  0
  7  8  2  0  0  0  0
  7  9  1  0  0  0  0
  8 10  1  0  0  0  0
  9 11  1  0  0  0  0
  9 21  2  0  0  0  0
 10 22  1  0  0  0  0
 10 25  2  0  0  0  0
 11 23  1  0  0  0  0
 11 26  2  0  0  0  0
 12 17  1  0  0  0  0
 12 24  1  0  0  0  0
 12 27  2  0  0  0  0
 13 15  1  0  0  0  0
 14 15  1  0  0  0  0
 14 24  1  1  0  0  0
 15 23  1  6  0  0  0
 16 18  1  0  0  0  0
 17 28  1  0  0  0  0
 18 19  1  0  0  0  0
 19 20  1  0  0  0  0
 20 22  1  0  0  0  0
 21 22  1  0  0  0  0
  1 29  1  0  0  0  0
  2 30  1  0  0  0  0
  3 31  1  0  0  0  0
  4 32  1  0  0  0  0
  7 33  1  0  0  0  0
  8 34  1  0  0  0  0
 13 35  1  0  0  0  0
 13 36  1  0  0  0  0
 14 37  1  0  0  0  0
 15 38  1  0  0  0  0
 16 39  1  0  0  0  0
 16 40  1  0  0  0  0
 16 41  1  0  0  0  0
 17 42  1  0  0  0  0
 17 43  1  0  0  0  0
 18 44  1  0  0  0  0
 18 45  1  0  0  0  0
 19 46  1  0  0  0  0
 19 47  1  0  0  0  0
 20 48  1  0  0  0  0
 20 49  1  0  0  0  0
 23 50  1  0  0  0  0
 24 51  1  0  0  0  0
M  END
> <Catalog ID>
Z4439378128

> <MW>
402.875

> <MW (desalted)>
402.875

> <ClogP>
2.078

> <logS>
-4.527

> <HBD>
2

> <HBA>
4

> <TPSA>
90.87

> <RotBonds>
7

> <ROCS_ShapeQuery>
A71EV2A-x0451_0A_A71EV2A-x0310_0A_A71EV2A-x0416_0A_peptide

> <ROCS_TanimotoCombo>
0.529 

> <ROCS_ShapeTanimoto>
0.367 

> <ROCS_ColorTanimoto>
0.162 

> <ROCS_RefTversky>
0.328 

> <ROCS_RefColorTversky>
0.190 

> <ROCS_RefTverskyCombo>
0.518 

> <ROCS_FitTversky>
1.475 

> <ROCS_FitColorTversky>
0.525 

> <ROCS_FitTverskyCombo>
2.000 

> <ROCS_ColorScore>
-5.830

> <ROCS_Overlap>
2282.197

> <ROCS_Rank>
228                 

$$$$
untitled-dbase-11552_1778
  -OEChem-11132309573D

 42 45  0     1  0  0  0  0  0999 V2000
    6.2287   12.1062   25.7832 C   0  0  0  0  0  0  0  0  0  0  0  0
    5.9163   10.7484   25.8026 C   0  0  0  0  0  0  0  0  0  0  0  0
    7.4072   12.5615   25.1809 C   0  0  0  0  0  0  0  0  0  0  0  0
    6.7684    9.8043   25.2226 C   0  0  0  0  0  0  0  0  0  0  0  0
    9.9143   10.4588   23.5518 C   0  0  0  0  0  0  0  0  0  0  0  0
    8.2819   11.6283   24.5898 C   0  0  0  0  0  0  0  0  0  0  0  0
    9.5279   11.7298   23.9100 C   0  0  0  0  0  0  0  0  0  0  0  0
    7.9430   10.2739   24.6242 C   0  0  0  0  0  0  0  0  0  0  0  0
   10.3078   12.9480   23.6145 C   0  0  0  0  0  0  0  0  0  0  0  0
   11.5959   14.3327   22.6984 C   0  0  0  0  0  0  0  0  0  0  0  0
   14.0319   15.2622   18.8774 C   0  0  0  0  0  0  0  0  0  0  0  0
   13.0416   17.1014   19.1525 C   0  0  0  0  0  0  0  0  0  0  0  0
   12.5227   15.6516   18.8959 C   0  0  1  0  0  0  0  0  0  0  0  0
   11.8185   15.4556   17.5579 C   0  0  0  0  0  0  0  0  0  0  0  0
   16.0831   17.2188   20.6747 C   0  0  0  0  0  0  0  0  0  0  0  0
   11.7421   15.0411   20.0546 C   0  0  0  0  0  0  0  0  0  0  0  0
   15.6496   17.2007   19.2483 C   0  0  0  0  0  0  0  0  0  0  0  0
   10.2885   14.0160   24.3771 N   0  0  0  0  0  0  0  0  0  0  0  0
   11.1358   14.9270   23.7744 N   0  0  0  0  0  0  0  0  0  0  0  0
    8.9518    9.5876   23.9867 N   0  0  0  0  0  0  0  0  0  0  0  0
   14.3854   16.5476   19.1014 N   0  0  0  0  0  0  0  0  0  0  0  0
   14.6726   14.2471   18.7287 O   0  0  0  0  0  0  0  0  0  0  0  0
   11.1160   13.0706   22.5262 O   0  0  0  0  0  0  0  0  0  0  0  0
   12.7307   15.0838   21.5711 S   0  0  0  0  0  0  0  0  0  0  0  0
    5.5502   12.8219   26.2401 H   0  0  0  0  0  0  0  0  0  0  0  0
    4.9957   10.4169   26.2761 H   0  0  0  0  0  0  0  0  0  0  0  0
    7.6350   13.6237   25.1742 H   0  0  0  0  0  0  0  0  0  0  0  0
    6.5245    8.7474   25.2385 H   0  0  0  0  0  0  0  0  0  0  0  0
   10.7861   10.0918   23.0273 H   0  0  0  0  0  0  0  0  0  0  0  0
   12.8513   17.8297   18.3589 H   0  0  0  0  0  0  0  0  0  0  0  0
   12.7974   17.5362   20.1260 H   0  0  0  0  0  0  0  0  0  0  0  0
   10.7717   15.7458   17.6427 H   0  0  0  0  0  0  0  0  0  0  0  0
   11.8732   14.4092   17.2589 H   0  0  0  0  0  0  0  0  0  0  0  0
   12.2957   16.0684   16.7935 H   0  0  0  0  0  0  0  0  0  0  0  0
   16.1719   16.1867   21.0446 H   0  0  0  0  0  0  0  0  0  0  0  0
   17.0579   17.7221   20.7551 H   0  0  0  0  0  0  0  0  0  0  0  0
   15.3396   17.7614   21.2769 H   0  0  0  0  0  0  0  0  0  0  0  0
   11.4852   14.0054   19.8245 H   0  0  0  0  0  0  0  0  0  0  0  0
   10.8181   15.5995   20.2148 H   0  0  0  0  0  0  0  0  0  0  0  0
   15.5633   18.2357   18.8861 H   0  0  0  0  0  0  0  0  0  0  0  0
   16.4021   16.6648   18.6512 H   0  0  0  0  0  0  0  0  0  0  0  0
    8.9782    8.5855   23.8582 H   0  0  0  0  0  0  0  0  0  0  0  0
  1  2  1  0  0  0  0
  1  3  2  0  0  0  0
  2  4  2  0  0  0  0
  3  6  1  0  0  0  0
  4  8  1  0  0  0  0
  5  7  2  0  0  0  0
  5 20  1  0  0  0  0
  6  7  1  0  0  0  0
  6  8  2  0  0  0  0
  7  9  1  0  0  0  0
  8 20  1  0  0  0  0
  9 18  2  0  0  0  0
  9 23  1  0  0  0  0
 10 19  2  0  0  0  0
 10 23  1  0  0  0  0
 10 24  1  0  0  0  0
 11 13  1  0  0  0  0
 11 21  1  0  0  0  0
 11 22  2  0  0  0  0
 12 13  1  0  0  0  0
 12 21  1  0  0  0  0
 13 14  1  0  0  0  0
 13 16  1  0  0  0  0
 15 17  1  0  0  0  0
 16 24  1  0  0  0  0
 17 21  1  0  0  0  0
 18 19  1  0  0  0  0
  1 25  1  0  0  0  0
  2 26  1  0  0  0  0
  3 27  1  0  0  0  0
  4 28  1  0  0  0  0
  5 29  1  0  0  0  0
 12 30  1  0  0  0  0
 12 31  1  0  0  0  0
 14 32  1  0  0  0  0
 14 33  1  0  0  0  0
 14 34  1  0  0  0  0
 15 35  1  0  0  0  0
 15 36  1  0  0  0  0
 15 37  1  0  0  0  0
 16 38  1  0  0  0  0
 16 39  1  0  0  0  0
 17 40  1  0  0  0  0
 17 41  1  0  0  0  0
 20 42  1  0  0  0  0
M  END
> <Catalog ID>
Z3290702465

> <MW>
342.415

> <MW (desalted)>
342.415

> <ClogP>
1.766

> <logS>
-5.731

> <HBD>
1

> <HBA>
3

> <TPSA>
75.02

> <RotBonds>
5

> <ROCS_ShapeQuery>
A71EV2A-x0451_0A_A71EV2A-x0310_0A_A71EV2A-x0416_0A_peptide

> <ROCS_TanimotoCombo>
0.529 

> <ROCS_ShapeTanimoto>
0.345 

> <ROCS_ColorTanimoto>
0.183 

> <ROCS_RefTversky>
0.309 

> <ROCS_RefColorTversky>
0.203 

> <ROCS_RefTverskyCombo>
0.512 

> <ROCS_FitTversky>
1.530 

> <ROCS_FitColorTversky>
0.654 

> <ROCS_FitTverskyCombo>
2.184 

> <ROCS_ColorScore>
-6.203

> <ROCS_Overlap>
2144.366

> <ROCS_Rank>
229                 

$$$$
untitled-dbase-10525_1635
  -OEChem-11132309573D

 56 57  0     1  0  0  0  0  0999 V2000
   13.6440   15.5767   20.9525 C   0  0  0  0  0  0  0  0  0  0  0  0
   11.8008   15.5616   19.3906 C   0  0  0  0  0  0  0  0  0  0  0  0
   14.5336   15.7953   19.9007 C   0  0  0  0  0  0  0  0  0  0  0  0
   12.6904   15.7802   18.3387 C   0  0  0  0  0  0  0  0  0  0  0  0
   12.2776   15.4598   20.6975 C   0  0  0  0  0  0  0  0  0  0  0  0
   14.0568   15.8971   18.5938 C   0  0  0  0  0  0  0  0  0  0  0  0
    5.4144    6.3994   25.1547 C   0  0  0  0  0  0  0  0  0  0  0  0
    6.7256    6.4159   24.8962 C   0  0  0  0  0  0  0  0  0  0  0  0
   10.6535   11.8528   23.3373 C   0  0  0  0  0  0  0  0  0  0  0  0
    7.3126    7.4888   24.0500 C   0  0  0  0  0  0  0  0  0  0  0  0
   10.8191   13.3271   23.3347 C   0  0  0  0  0  0  0  0  0  0  0  0
    8.2861   12.2224   24.1572 C   0  0  0  0  0  0  0  0  0  0  0  0
    9.0947    9.9810   23.8020 C   0  0  0  0  0  0  0  0  0  0  0  0
    7.2909   11.2272   24.7578 C   0  0  2  0  0  0  0  0  0  0  0  0
    7.5789    9.9516   23.9540 C   0  0  2  0  0  0  0  0  0  0  0  0
    4.8217   12.0685   26.9191 C   0  0  0  0  0  0  0  0  0  0  0  0
    4.3455   13.7085   25.0946 C   0  0  0  0  0  0  0  0  0  0  0  0
    6.6204   13.6207   26.1449 C   0  0  0  0  0  0  0  0  0  0  0  0
   11.3194   15.2253   21.8293 C   0  0  0  0  0  0  0  0  0  0  0  0
    5.8492   11.6976   24.6614 C   0  0  0  0  0  0  0  0  0  0  0  0
    5.4173   12.7791   25.6880 C   0  0  0  0  0  0  0  0  0  0  0  0
    9.4176   11.3990   23.7385 N   0  0  0  0  0  0  0  0  0  0  0  0
    7.1086    8.7541   24.5882 N   0  0  0  0  0  0  0  0  0  0  0  0
   11.1155   13.8169   22.0824 N   0  0  0  0  0  0  0  0  0  0  0  0
   11.6195   11.1926   22.9816 O   0  0  0  0  0  0  0  0  0  0  0  0
    7.9016    7.2534   22.9998 O   0  0  0  0  0  0  0  0  0  0  0  0
   10.6886   13.9629   24.3695 O   0  0  0  0  0  0  0  0  0  0  0  0
   14.9107   16.1097   17.5839 F   0  0  0  0  0  0  0  0  0  0  0  0
   14.0249   15.4981   21.9674 H   0  0  0  0  0  0  0  0  0  0  0  0
   10.7378   15.4721   19.1823 H   0  0  0  0  0  0  0  0  0  0  0  0
   15.5972   15.8870   20.0991 H   0  0  0  0  0  0  0  0  0  0  0  0
   12.3197   15.8591   17.3211 H   0  0  0  0  0  0  0  0  0  0  0  0
    4.9933    5.6128   25.7720 H   0  0  0  0  0  0  0  0  0  0  0  0
    4.7335    7.1508   24.7702 H   0  0  0  0  0  0  0  0  0  0  0  0
    7.3724    5.6451   25.3010 H   0  0  0  0  0  0  0  0  0  0  0  0
    7.8905   12.7224   23.2659 H   0  0  0  0  0  0  0  0  0  0  0  0
    8.6074   12.9816   24.8769 H   0  0  0  0  0  0  0  0  0  0  0  0
    9.6116    9.5687   24.6766 H   0  0  0  0  0  0  0  0  0  0  0  0
    9.4504    9.4638   22.9055 H   0  0  0  0  0  0  0  0  0  0  0  0
    7.5491   11.0685   25.8140 H   0  0  0  0  0  0  0  0  0  0  0  0
    7.1046   10.0046   22.9660 H   0  0  0  0  0  0  0  0  0  0  0  0
    5.5523   11.3925   27.3776 H   0  0  0  0  0  0  0  0  0  0  0  0
    3.9417   11.4749   26.6464 H   0  0  0  0  0  0  0  0  0  0  0  0
    4.5116   12.7900   27.6836 H   0  0  0  0  0  0  0  0  0  0  0  0
    4.7142   14.2424   24.2128 H   0  0  0  0  0  0  0  0  0  0  0  0
    3.4535   13.1448   24.7993 H   0  0  0  0  0  0  0  0  0  0  0  0
    4.0335   14.4654   25.8234 H   0  0  0  0  0  0  0  0  0  0  0  0
    7.0782   14.1465   25.2996 H   0  0  0  0  0  0  0  0  0  0  0  0
    7.3921   12.9896   26.6005 H   0  0  0  0  0  0  0  0  0  0  0  0
    6.3329   14.3681   26.8915 H   0  0  0  0  0  0  0  0  0  0  0  0
   11.6922   15.6832   22.7520 H   0  0  0  0  0  0  0  0  0  0  0  0
   10.3425   15.6719   21.6161 H   0  0  0  0  0  0  0  0  0  0  0  0
    5.1940   10.8211   24.7669 H   0  0  0  0  0  0  0  0  0  0  0  0
    5.6799   12.0806   23.6450 H   0  0  0  0  0  0  0  0  0  0  0  0
    6.5770    8.8469   25.4547 H   0  0  0  0  0  0  0  0  0  0  0  0
   11.1938   13.1643   21.3077 H   0  0  0  0  0  0  0  0  0  0  0  0
  1  3  2  0  0  0  0
  1  5  1  0  0  0  0
  2  4  1  0  0  0  0
  2  5  2  0  0  0  0
  3  6  1  0  0  0  0
  4  6  2  0  0  0  0
  5 19  1  0  0  0  0
  6 28  1  0  0  0  0
  7  8  2  0  0  0  0
  8 10  1  0  0  0  0
  9 11  1  0  0  0  0
  9 22  1  0  0  0  0
  9 25  2  0  0  0  0
 10 23  1  0  0  0  0
 10 26  2  0  0  0  0
 11 24  1  0  0  0  0
 11 27  2  0  0  0  0
 12 14  1  0  0  0  0
 12 22  1  0  0  0  0
 13 15  1  0  0  0  0
 13 22  1  0  0  0  0
 14 15  1  0  0  0  0
 14 20  1  6  0  0  0
 15 23  1  1  0  0  0
 16 21  1  0  0  0  0
 17 21  1  0  0  0  0
 18 21  1  0  0  0  0
 19 24  1  0  0  0  0
 20 21  1  0  0  0  0
  1 29  1  0  0  0  0
  2 30  1  0  0  0  0
  3 31  1  0  0  0  0
  4 32  1  0  0  0  0
  7 33  1  0  0  0  0
  7 34  1  0  0  0  0
  8 35  1  0  0  0  0
 12 36  1  0  0  0  0
 12 37  1  0  0  0  0
 13 38  1  0  0  0  0
 13 39  1  0  0  0  0
 14 40  1  0  0  0  0
 15 41  1  0  0  0  0
 16 42  1  0  0  0  0
 16 43  1  0  0  0  0
 16 44  1  0  0  0  0
 17 45  1  0  0  0  0
 17 46  1  0  0  0  0
 17 47  1  0  0  0  0
 18 48  1  0  0  0  0
 18 49  1  0  0  0  0
 18 50  1  0  0  0  0
 19 51  1  0  0  0  0
 19 52  1  0  0  0  0
 20 53  1  0  0  0  0
 20 54  1  0  0  0  0
 23 55  1  0  0  0  0
 24 56  1  0  0  0  0
M  END
> <Catalog ID>
Z3706164004

> <MW>
389.464

> <MW (desalted)>
389.464

> <ClogP>
3.399

> <logS>
-5.871

> <HBD>
2

> <HBA>
3

> <TPSA>
78.51

> <RotBonds>
7

> <ROCS_ShapeQuery>
A71EV2A-x0451_0A_A71EV2A-x0310_0A_A71EV2A-x0416_0A_peptide

> <ROCS_TanimotoCombo>
0.529 

> <ROCS_ShapeTanimoto>
0.353 

> <ROCS_ColorTanimoto>
0.176 

> <ROCS_RefTversky>
0.318 

> <ROCS_RefColorTversky>
0.199 

> <ROCS_RefTverskyCombo>
0.517 

> <ROCS_FitTversky>
1.451 

> <ROCS_FitColorTversky>
0.602 

> <ROCS_FitTverskyCombo>
2.052 

> <ROCS_ColorScore>
-6.099

> <ROCS_Overlap>
2210.693

> <ROCS_Rank>
230                 

$$$$
untitled-dbase-9507_1725
  -OEChem-11132309573D

 36 37  0     0  0  0  0  0  0999 V2000
   12.3271   15.4700   16.9684 C   0  0  0  0  0  0  0  0  0  0  0  0
   13.0632   14.2893   22.9363 C   0  0  0  0  0  0  0  0  0  0  0  0
   13.8812   16.1685   20.8280 C   0  0  0  0  0  0  0  0  0  0  0  0
   14.4312   16.8248   19.7269 C   0  0  0  0  0  0  0  0  0  0  0  0
   12.3059   15.0521   19.3757 C   0  0  0  0  0  0  0  0  0  0  0  0
    8.5258   11.7818   24.7879 C   0  0  0  0  0  0  0  0  0  0  0  0
   12.8558   15.7085   18.2746 C   0  0  0  0  0  0  0  0  0  0  0  0
   12.8186   15.2821   20.6524 C   0  0  0  0  0  0  0  0  0  0  0  0
   13.9185   16.5949   18.4502 C   0  0  0  0  0  0  0  0  0  0  0  0
    7.7710   10.6297   25.0791 C   0  0  0  0  0  0  0  0  0  0  0  0
    9.1906   11.4723   23.6266 C   0  0  0  0  0  0  0  0  0  0  0  0
   10.5451   13.5285   23.0954 C   0  0  0  0  0  0  0  0  0  0  0  0
    6.8691   10.4140   26.2231 C   0  0  0  0  0  0  0  0  0  0  0  0
    9.2373    9.4274   22.1639 C   0  0  0  0  0  0  0  0  0  0  0  0
   10.8636   14.2351   21.7920 C   0  0  0  0  0  0  0  0  0  0  0  0
   11.8979   15.2763   15.9077 N   0  0  0  0  0  0  0  0  0  0  0  0
   13.6906   14.0215   23.8752 N   0  0  0  0  0  0  0  0  0  0  0  0
    7.9398    9.6607   24.1754 N   0  0  0  0  0  0  0  0  0  0  0  0
    8.8083   10.2033   23.3051 N   0  0  0  0  0  0  0  0  0  0  0  0
   10.0972   12.2331   22.8505 N   0  0  0  0  0  0  0  0  0  0  0  0
   12.2639   14.6185   21.7667 N   0  0  0  0  0  0  0  0  0  0  0  0
   10.6921   14.0708   24.1861 O   0  0  0  0  0  0  0  0  0  0  0  0
   14.4573   17.2340   17.4015 F   0  0  0  0  0  0  0  0  0  0  0  0
   14.2877   16.3561   21.8185 H   0  0  0  0  0  0  0  0  0  0  0  0
   15.2584   17.5151   19.8628 H   0  0  0  0  0  0  0  0  0  0  0  0
   11.4766   14.3596   19.2440 H   0  0  0  0  0  0  0  0  0  0  0  0
    8.5796   12.7073   25.3434 H   0  0  0  0  0  0  0  0  0  0  0  0
    5.8389   10.7311   25.9865 H   0  0  0  0  0  0  0  0  0  0  0  0
    6.8285    9.3531   26.5281 H   0  0  0  0  0  0  0  0  0  0  0  0
    7.1914   10.9735   27.1196 H   0  0  0  0  0  0  0  0  0  0  0  0
   10.1299    8.8667   22.4536 H   0  0  0  0  0  0  0  0  0  0  0  0
    8.4367    8.7446   21.8661 H   0  0  0  0  0  0  0  0  0  0  0  0
    9.4610   10.1013   21.3322 H   0  0  0  0  0  0  0  0  0  0  0  0
   10.2381   15.1278   21.6929 H   0  0  0  0  0  0  0  0  0  0  0  0
   10.6485   13.5588   20.9587 H   0  0  0  0  0  0  0  0  0  0  0  0
   10.4556   11.7666   22.0199 H   0  0  0  0  0  0  0  0  0  0  0  0
  1  7  1  0  0  0  0
  1 16  3  0  0  0  0
  2 17  3  0  0  0  0
  2 21  1  0  0  0  0
  3  4  2  0  0  0  0
  3  8  1  0  0  0  0
  4  9  1  0  0  0  0
  5  7  1  0  0  0  0
  5  8  2  0  0  0  0
  6 10  1  0  0  0  0
  6 11  2  0  0  0  0
  7  9  2  0  0  0  0
  8 21  1  0  0  0  0
  9 23  1  0  0  0  0
 10 13  1  0  0  0  0
 10 18  2  0  0  0  0
 11 19  1  0  0  0  0
 11 20  1  0  0  0  0
 12 15  1  0  0  0  0
 12 20  1  0  0  0  0
 12 22  2  0  0  0  0
 14 19  1  0  0  0  0
 15 21  1  0  0  0  0
 18 19  1  0  0  0  0
  3 24  1  0  0  0  0
  4 25  1  0  0  0  0
  5 26  1  0  0  0  0
  6 27  1  0  0  0  0
 13 28  1  0  0  0  0
 13 29  1  0  0  0  0
 13 30  1  0  0  0  0
 14 31  1  0  0  0  0
 14 32  1  0  0  0  0
 14 33  1  0  0  0  0
 15 34  1  0  0  0  0
 15 35  1  0  0  0  0
 20 36  1  0  0  0  0
M  END
> <Catalog ID>
Z1281685103

> <MW>
312.302

> <MW (desalted)>
312.302

> <ClogP>
0.84

> <logS>
-3.215

> <HBD>
1

> <HBA>
5

> <TPSA>
97.74

> <RotBonds>
4

> <ROCS_ShapeQuery>
A71EV2A-x0451_0A_A71EV2A-x0310_0A_A71EV2A-x0416_0A_peptide

> <ROCS_TanimotoCombo>
0.529 

> <ROCS_ShapeTanimoto>
0.311 

> <ROCS_ColorTanimoto>
0.217 

> <ROCS_RefTversky>
0.284 

> <ROCS_RefColorTversky>
0.232 

> <ROCS_RefTverskyCombo>
0.516 

> <ROCS_FitTversky>
1.463 

> <ROCS_FitColorTversky>
0.772 

> <ROCS_FitTverskyCombo>
2.235 

> <ROCS_ColorScore>
-7.088

> <ROCS_Overlap>
1969.782

> <ROCS_Rank>
231                 

$$$$
untitled-dbase-9057_122
  -OEChem-11132309573D

 46 49  0     0  0  0  0  0  0999 V2000
   12.7866   15.3178   22.9893 C   0  0  0  0  0  0  0  0  0  0  0  0
   13.6508   16.0504   22.1685 C   0  0  0  0  0  0  0  0  0  0  0  0
   11.6946   14.4314   21.0469 C   0  0  0  0  0  0  0  0  0  0  0  0
    8.5368   12.0260   24.1801 C   0  0  0  0  0  0  0  0  0  0  0  0
    9.5523   10.2890   22.9181 C   0  0  0  0  0  0  0  0  0  0  0  0
   11.8065   14.5109   22.4299 C   0  0  0  0  0  0  0  0  0  0  0  0
   12.5494   15.1728   20.2102 C   0  0  0  0  0  0  0  0  0  0  0  0
   13.5470   16.0071   20.7663 C   0  0  0  0  0  0  0  0  0  0  0  0
    9.5061   11.6273   23.2683 C   0  0  0  0  0  0  0  0  0  0  0  0
    7.6666   11.0809   24.7160 C   0  0  0  0  0  0  0  0  0  0  0  0
    7.7846    9.7611   24.3030 C   0  0  0  0  0  0  0  0  0  0  0  0
    5.9509    9.1260   25.7648 C   0  0  0  0  0  0  0  0  0  0  0  0
   17.4268   16.9165   19.5351 C   0  0  0  0  0  0  0  0  0  0  0  0
   16.5765   17.9388   19.6505 C   0  0  0  0  0  0  0  0  0  0  0  0
   10.9153   13.7411   23.2831 C   0  0  0  0  0  0  0  0  0  0  0  0
   15.3132   17.7378   20.3975 C   0  0  0  0  0  0  0  0  0  0  0  0
   12.3838   15.0025   18.7230 C   0  0  0  0  0  0  0  0  0  0  0  0
    6.1312   10.5045   26.3732 C   0  0  0  0  0  0  0  0  0  0  0  0
   12.9892   16.1696   17.9705 C   0  0  0  0  0  0  0  0  0  0  0  0
   14.4036   16.4138   18.4664 C   0  0  0  0  0  0  0  0  0  0  0  0
    8.7122    9.3491   23.4073 N   0  0  0  0  0  0  0  0  0  0  0  0
    6.8747    8.8168   24.7948 N   0  0  0  0  0  0  0  0  0  0  0  0
   14.4476   16.7474   19.9041 N   0  0  0  0  0  0  0  0  0  0  0  0
   10.4142   12.5619   22.7099 N   0  0  0  0  0  0  0  0  0  0  0  0
    5.0956    8.3425   26.1715 O   0  0  0  0  0  0  0  0  0  0  0  0
   10.6031   14.1292   24.4175 O   0  0  0  0  0  0  0  0  0  0  0  0
   15.1265   18.4567   21.3785 O   0  0  0  0  0  0  0  0  0  0  0  0
    6.7005   11.5205   25.5709 O   0  0  0  0  0  0  0  0  0  0  0  0
   12.9034   15.3775   24.0688 H   0  0  0  0  0  0  0  0  0  0  0  0
   14.4229   16.6178   22.6765 H   0  0  0  0  0  0  0  0  0  0  0  0
   10.9373   13.7865   20.6048 H   0  0  0  0  0  0  0  0  0  0  0  0
    8.4555   13.0693   24.4758 H   0  0  0  0  0  0  0  0  0  0  0  0
   10.2844    9.9155   22.2081 H   0  0  0  0  0  0  0  0  0  0  0  0
   18.3670   17.0023   19.0005 H   0  0  0  0  0  0  0  0  0  0  0  0
   17.1893   15.9578   19.9839 H   0  0  0  0  0  0  0  0  0  0  0  0
   16.7782   18.9097   19.2173 H   0  0  0  0  0  0  0  0  0  0  0  0
   12.8712   14.0668   18.4227 H   0  0  0  0  0  0  0  0  0  0  0  0
   11.3214   14.9253   18.4628 H   0  0  0  0  0  0  0  0  0  0  0  0
    5.1420   10.8584   26.6846 H   0  0  0  0  0  0  0  0  0  0  0  0
    6.7397   10.3941   27.2792 H   0  0  0  0  0  0  0  0  0  0  0  0
   12.9974   15.9541   16.8962 H   0  0  0  0  0  0  0  0  0  0  0  0
   12.3846   17.0748   18.1116 H   0  0  0  0  0  0  0  0  0  0  0  0
   15.0389   15.5331   18.3115 H   0  0  0  0  0  0  0  0  0  0  0  0
   14.8201   17.2353   17.8750 H   0  0  0  0  0  0  0  0  0  0  0  0
    6.9006    7.8827   24.3984 H   0  0  0  0  0  0  0  0  0  0  0  0
   10.7456   12.3505   21.7720 H   0  0  0  0  0  0  0  0  0  0  0  0
  1  2  2  0  0  0  0
  1  6  1  0  0  0  0
  2  8  1  0  0  0  0
  3  6  2  0  0  0  0
  3  7  1  0  0  0  0
  4  9  2  0  0  0  0
  4 10  1  0  0  0  0
  5  9  1  0  0  0  0
  5 21  2  0  0  0  0
  6 15  1  0  0  0  0
  7  8  2  0  0  0  0
  7 17  1  0  0  0  0
  8 23  1  0  0  0  0
  9 24  1  0  0  0  0
 10 11  2  0  0  0  0
 10 28  1  0  0  0  0
 11 21  1  0  0  0  0
 11 22  1  0  0  0  0
 12 18  1  0  0  0  0
 12 22  1  0  0  0  0
 12 25  2  0  0  0  0
 13 14  2  0  0  0  0
 14 16  1  0  0  0  0
 15 24  1  0  0  0  0
 15 26  2  0  0  0  0
 16 23  1  0  0  0  0
 16 27  2  0  0  0  0
 17 19  1  0  0  0  0
 18 28  1  0  0  0  0
 19 20  1  0  0  0  0
 20 23  1  0  0  0  0
  1 29  1  0  0  0  0
  2 30  1  0  0  0  0
  3 31  1  0  0  0  0
  4 32  1  0  0  0  0
  5 33  1  0  0  0  0
 13 34  1  0  0  0  0
 13 35  1  0  0  0  0
 14 36  1  0  0  0  0
 17 37  1  0  0  0  0
 17 38  1  0  0  0  0
 18 39  1  0  0  0  0
 18 40  1  0  0  0  0
 19 41  1  0  0  0  0
 19 42  1  0  0  0  0
 20 43  1  0  0  0  0
 20 44  1  0  0  0  0
 22 45  1  0  0  0  0
 24 46  1  0  0  0  0
M  END
> <Catalog ID>
Z3756538768

> <MW>
378.381

> <MW (desalted)>
378.381

> <ClogP>
2.702

> <logS>
-4.508

> <HBD>
2

> <HBA>
5

> <TPSA>
100.63

> <RotBonds>
3

> <ROCS_ShapeQuery>
A71EV2A-x0451_0A_A71EV2A-x0310_0A_A71EV2A-x0416_0A_peptide

> <ROCS_TanimotoCombo>
0.529 

> <ROCS_ShapeTanimoto>
0.342 

> <ROCS_ColorTanimoto>
0.187 

> <ROCS_RefTversky>
0.313 

> <ROCS_RefColorTversky>
0.224 

> <ROCS_RefTverskyCombo>
0.537 

> <ROCS_FitTversky>
1.366 

> <ROCS_FitColorTversky>
0.530 

> <ROCS_FitTverskyCombo>
1.895 

> <ROCS_ColorScore>
-6.885

> <ROCS_Overlap>
2179.492

> <ROCS_Rank>
232                 

$$$$
untitled-dbase-3058_2176
  -OEChem-11132309573D

 39 41  0     0  0  0  0  0  0999 V2000
   12.8335   15.6659   18.0744 C   0  0  0  0  0  0  0  0  0  0  0  0
    8.9820    9.1758   23.1212 C   0  0  0  0  0  0  0  0  0  0  0  0
   13.8609   16.4944   18.5256 C   0  0  0  0  0  0  0  0  0  0  0  0
    7.9509    9.4150   24.0342 C   0  0  0  0  0  0  0  0  0  0  0  0
    9.8235   10.2044   22.7020 C   0  0  0  0  0  0  0  0  0  0  0  0
   12.0599   14.9524   18.9900 C   0  0  0  0  0  0  0  0  0  0  0  0
    8.1781   12.9405   24.7856 C   0  0  0  0  0  0  0  0  0  0  0  0
   13.3412   15.8959   20.8079 C   0  0  0  0  0  0  0  0  0  0  0  0
    7.1072   12.5835   25.5721 C   0  0  0  0  0  0  0  0  0  0  0  0
    8.6251   11.7726   24.1065 C   0  0  0  0  0  0  0  0  0  0  0  0
   14.1148   16.6094   19.8923 C   0  0  0  0  0  0  0  0  0  0  0  0
    7.7971   10.7224   24.5089 C   0  0  0  0  0  0  0  0  0  0  0  0
    9.6579   11.5074   23.1854 C   0  0  0  0  0  0  0  0  0  0  0  0
   12.3138   15.0674   20.3567 C   0  0  0  0  0  0  0  0  0  0  0  0
   15.1859   17.4734   20.3633 C   0  0  0  0  0  0  0  0  0  0  0  0
   10.9236   13.6649   23.4458 C   0  0  0  0  0  0  0  0  0  0  0  0
    5.8377   10.4982   26.0629 C   0  0  0  0  0  0  0  0  0  0  0  0
   11.8614   14.5261   22.6279 C   0  0  0  0  0  0  0  0  0  0  0  0
    6.8851   11.2437   25.3987 N   0  0  0  0  0  0  0  0  0  0  0  0
   10.5139   12.5205   22.7499 N   0  0  0  0  0  0  0  0  0  0  0  0
   15.9048   18.1297   19.6049 O   0  0  0  0  0  0  0  0  0  0  0  0
   10.6000   14.0012   24.5809 O   0  0  0  0  0  0  0  0  0  0  0  0
   11.5516   14.3645   21.2591 O   0  0  0  0  0  0  0  0  0  0  0  0
   12.6359   15.5765   17.0103 H   0  0  0  0  0  0  0  0  0  0  0  0
    9.1285    8.1708   22.7340 H   0  0  0  0  0  0  0  0  0  0  0  0
   14.4569   17.0467   17.8038 H   0  0  0  0  0  0  0  0  0  0  0  0
    7.2996    8.6101   24.3581 H   0  0  0  0  0  0  0  0  0  0  0  0
   10.6156    9.9808   21.9906 H   0  0  0  0  0  0  0  0  0  0  0  0
   11.2610   14.3087   18.6324 H   0  0  0  0  0  0  0  0  0  0  0  0
    8.5924   13.9368   24.7101 H   0  0  0  0  0  0  0  0  0  0  0  0
   13.5346   15.9825   21.8748 H   0  0  0  0  0  0  0  0  0  0  0  0
    6.4888   13.1711   26.2371 H   0  0  0  0  0  0  0  0  0  0  0  0
   15.3499   17.5323   21.4613 H   0  0  0  0  0  0  0  0  0  0  0  0
    4.9461   10.5336   25.4313 H   0  0  0  0  0  0  0  0  0  0  0  0
    6.1626    9.4642   26.2080 H   0  0  0  0  0  0  0  0  0  0  0  0
    5.6351   10.9501   27.0379 H   0  0  0  0  0  0  0  0  0  0  0  0
   11.7489   15.5775   22.9095 H   0  0  0  0  0  0  0  0  0  0  0  0
   12.9015   14.2325   22.7982 H   0  0  0  0  0  0  0  0  0  0  0  0
   10.8900   12.4133   21.8012 H   0  0  0  0  0  0  0  0  0  0  0  0
  1  3  1  0  0  0  0
  1  6  2  0  0  0  0
  2  4  2  0  0  0  0
  2  5  1  0  0  0  0
  3 11  2  0  0  0  0
  4 12  1  0  0  0  0
  5 13  2  0  0  0  0
  6 14  1  0  0  0  0
  7  9  2  0  0  0  0
  7 10  1  0  0  0  0
  8 11  1  0  0  0  0
  8 14  2  0  0  0  0
  9 19  1  0  0  0  0
 10 12  2  0  0  0  0
 10 13  1  0  0  0  0
 11 15  1  0  0  0  0
 12 19  1  0  0  0  0
 13 20  1  0  0  0  0
 14 23  1  0  0  0  0
 15 21  2  0  0  0  0
 16 18  1  0  0  0  0
 16 20  1  0  0  0  0
 16 22  2  0  0  0  0
 17 19  1  0  0  0  0
 18 23  1  0  0  0  0
  1 24  1  0  0  0  0
  2 25  1  0  0  0  0
  3 26  1  0  0  0  0
  4 27  1  0  0  0  0
  5 28  1  0  0  0  0
  6 29  1  0  0  0  0
  7 30  1  0  0  0  0
  8 31  1  0  0  0  0
  9 32  1  0  0  0  0
 15 33  1  0  0  0  0
 17 34  1  0  0  0  0
 17 35  1  0  0  0  0
 17 36  1  0  0  0  0
 18 37  1  0  0  0  0
 18 38  1  0  0  0  0
 20 39  1  0  0  0  0
M  END
> <Catalog ID>
Z1192853423

> <MW>
308.331

> <MW (desalted)>
308.331

> <ClogP>
3.058

> <logS>
-3.494

> <HBD>
1

> <HBA>
3

> <TPSA>
60.33

> <RotBonds>
5

> <ROCS_ShapeQuery>
A71EV2A-x0451_0A_A71EV2A-x0310_0A_A71EV2A-x0416_0A_peptide

> <ROCS_TanimotoCombo>
0.528 

> <ROCS_ShapeTanimoto>
0.364 

> <ROCS_ColorTanimoto>
0.164 

> <ROCS_RefTversky>
0.319 

> <ROCS_RefColorTversky>
0.179 

> <ROCS_RefTverskyCombo>
0.499 

> <ROCS_FitTversky>
1.626 

> <ROCS_FitColorTversky>
0.662 

> <ROCS_FitTverskyCombo>
2.288 

> <ROCS_ColorScore>
-5.462

> <ROCS_Overlap>
2219.291

> <ROCS_Rank>
233                 

$$$$
untitled-dbase-8389_3208
  -OEChem-11132309573D

 43 45  0     0  0  0  0  0  0999 V2000
    7.0502   12.8945   25.8675 C   0  0  0  0  0  0  0  0  0  0  0  0
    6.4718   11.6656   26.1911 C   0  0  0  0  0  0  0  0  0  0  0  0
   13.4599   15.9150   21.8352 C   0  0  0  0  0  0  0  0  0  0  0  0
    8.0748   12.9803   24.9165 C   0  0  0  0  0  0  0  0  0  0  0  0
   12.6629   15.1968   22.7265 C   0  0  0  0  0  0  0  0  0  0  0  0
    6.8953   10.4819   25.5779 C   0  0  0  0  0  0  0  0  0  0  0  0
   13.2696   15.7745   20.4605 C   0  0  0  0  0  0  0  0  0  0  0  0
   11.4853   14.1976   20.8686 C   0  0  0  0  0  0  0  0  0  0  0  0
    8.5109   11.8000   24.2917 C   0  0  0  0  0  0  0  0  0  0  0  0
   11.6756   14.3381   22.2433 C   0  0  0  0  0  0  0  0  0  0  0  0
    7.9177   10.5896   24.6326 C   0  0  0  0  0  0  0  0  0  0  0  0
   12.2823   14.9158   19.9772 C   0  0  0  0  0  0  0  0  0  0  0  0
    9.4751   11.4557   23.3201 C   0  0  0  0  0  0  0  0  0  0  0  0
   12.8236   15.4886   15.1084 C   0  0  0  0  0  0  0  0  0  0  0  0
   12.2834   14.9912   16.2254 C   0  0  0  0  0  0  0  0  0  0  0  0
   10.8347   13.5803   23.1858 C   0  0  0  0  0  0  0  0  0  0  0  0
   12.7895   15.4098   17.5648 C   0  0  0  0  0  0  0  0  0  0  0  0
    8.2928    8.2279   23.8530 C   0  0  0  0  0  0  0  0  0  0  0  0
    8.5323    7.6079   22.4873 C   0  0  0  0  0  0  0  0  0  0  0  0
    9.5022   10.1471   23.0577 N   0  0  0  0  0  0  0  0  0  0  0  0
    8.5508    9.6494   23.8652 N   0  0  0  0  0  0  0  0  0  0  0  0
   12.0919   14.7757   18.6021 N   0  0  0  0  0  0  0  0  0  0  0  0
   10.3130   12.3578   22.6923 N   0  0  0  0  0  0  0  0  0  0  0  0
   10.5897   14.0182   24.3079 O   0  0  0  0  0  0  0  0  0  0  0  0
   13.7067   16.2149   17.6742 O   0  0  0  0  0  0  0  0  0  0  0  0
    7.7358    8.1869   21.5563 F   0  0  0  0  0  0  0  0  0  0  0  0
    9.8144    7.8049   22.0947 F   0  0  0  0  0  0  0  0  0  0  0  0
    6.7012   13.7983   26.3602 H   0  0  0  0  0  0  0  0  0  0  0  0
    5.6780   11.6270   26.9329 H   0  0  0  0  0  0  0  0  0  0  0  0
   14.2284   16.5839   22.2113 H   0  0  0  0  0  0  0  0  0  0  0  0
    8.5159   13.9423   24.6742 H   0  0  0  0  0  0  0  0  0  0  0  0
   12.8211   15.3136   23.7955 H   0  0  0  0  0  0  0  0  0  0  0  0
    6.4447    9.5284   25.8298 H   0  0  0  0  0  0  0  0  0  0  0  0
   13.8969   16.3388   19.7747 H   0  0  0  0  0  0  0  0  0  0  0  0
   10.7159   13.5269   20.4915 H   0  0  0  0  0  0  0  0  0  0  0  0
   12.4823   15.2080   14.1183 H   0  0  0  0  0  0  0  0  0  0  0  0
   13.6379   16.2030   15.1714 H   0  0  0  0  0  0  0  0  0  0  0  0
   11.4692   14.2773   16.1633 H   0  0  0  0  0  0  0  0  0  0  0  0
    8.9345    7.7411   24.5970 H   0  0  0  0  0  0  0  0  0  0  0  0
    7.2562    8.0498   24.1630 H   0  0  0  0  0  0  0  0  0  0  0  0
    8.3329    6.5328   22.4944 H   0  0  0  0  0  0  0  0  0  0  0  0
   11.3487   14.1276   18.3144 H   0  0  0  0  0  0  0  0  0  0  0  0
   10.5983   12.1071   21.7324 H   0  0  0  0  0  0  0  0  0  0  0  0
  1  2  1  0  0  0  0
  1  4  2  0  0  0  0
  2  6  2  0  0  0  0
  3  5  2  0  0  0  0
  3  7  1  0  0  0  0
  4  9  1  0  0  0  0
  5 10  1  0  0  0  0
  6 11  1  0  0  0  0
  7 12  2  0  0  0  0
  8 10  2  0  0  0  0
  8 12  1  0  0  0  0
  9 11  2  0  0  0  0
  9 13  1  0  0  0  0
 10 16  1  0  0  0  0
 11 21  1  0  0  0  0
 12 22  1  0  0  0  0
 13 20  2  0  0  0  0
 13 23  1  0  0  0  0
 14 15  2  0  0  0  0
 15 17  1  0  0  0  0
 16 23  1  0  0  0  0
 16 24  2  0  0  0  0
 17 22  1  0  0  0  0
 17 25  2  0  0  0  0
 18 19  1  0  0  0  0
 18 21  1  0  0  0  0
 19 26  1  0  0  0  0
 19 27  1  0  0  0  0
 20 21  1  0  0  0  0
  1 28  1  0  0  0  0
  2 29  1  0  0  0  0
  3 30  1  0  0  0  0
  4 31  1  0  0  0  0
  5 32  1  0  0  0  0
  6 33  1  0  0  0  0
  7 34  1  0  0  0  0
  8 35  1  0  0  0  0
 14 36  1  0  0  0  0
 14 37  1  0  0  0  0
 15 38  1  0  0  0  0
 18 39  1  0  0  0  0
 18 40  1  0  0  0  0
 19 41  1  0  0  0  0
 22 42  1  0  0  0  0
 23 43  1  0  0  0  0
M  END
> <Catalog ID>
Z3755763680

> <MW>
370.353

> <MW (desalted)>
370.353

> <ClogP>
2.699

> <logS>
-5.62

> <HBD>
2

> <HBA>
3

> <TPSA>
76.02

> <RotBonds>
6

> <ROCS_ShapeQuery>
A71EV2A-x0451_0A_A71EV2A-x0310_0A_A71EV2A-x0416_0A_peptide

> <ROCS_TanimotoCombo>
0.528 

> <ROCS_ShapeTanimoto>
0.382 

> <ROCS_ColorTanimoto>
0.147 

> <ROCS_RefTversky>
0.337 

> <ROCS_RefColorTversky>
0.170 

> <ROCS_RefTverskyCombo>
0.508 

> <ROCS_FitTversky>
1.525 

> <ROCS_FitColorTversky>
0.513 

> <ROCS_FitTverskyCombo>
2.038 

> <ROCS_ColorScore>
-5.212

> <ROCS_Overlap>
2346.645

> <ROCS_Rank>
234                 

$$$$
untitled-dbase-3356_7099
  -OEChem-11132309573D

 49 52  0     1  0  0  0  0  0999 V2000
   15.2740   10.0112   27.6655 C   0  0  0  0  0  0  0  0  0  0  0  0
   14.9445    9.6663   26.3547 C   0  0  0  0  0  0  0  0  0  0  0  0
   15.1048   11.3242   28.1048 C   0  0  0  0  0  0  0  0  0  0  0  0
   14.4459   10.6345   25.4832 C   0  0  0  0  0  0  0  0  0  0  0  0
   14.6061   12.2924   27.2332 C   0  0  0  0  0  0  0  0  0  0  0  0
    8.9694   10.2334   23.0077 C   0  0  0  0  0  0  0  0  0  0  0  0
   14.2767   11.9476   25.9224 C   0  0  0  0  0  0  0  0  0  0  0  0
    8.7791   11.6240   23.1422 C   0  0  0  0  0  0  0  0  0  0  0  0
    8.0621   11.7675   24.3092 C   0  0  0  0  0  0  0  0  0  0  0  0
   13.7479   12.9744   24.9981 C   0  0  0  0  0  0  0  0  0  0  0  0
    5.4029   13.1438   29.1116 C   0  0  0  0  0  0  0  0  0  0  0  0
    4.9551   12.8569   27.8874 C   0  0  0  0  0  0  0  0  0  0  0  0
    5.6876   13.3846   26.7176 C   0  0  0  0  0  0  0  0  0  0  0  0
   11.1940   13.8248   23.2815 C   0  0  0  0  0  0  0  0  0  0  0  0
    7.5342   12.9638   25.0191 C   0  0  0  0  0  0  0  0  0  0  0  0
   13.3822   12.6535   23.5889 C   0  0  0  0  0  0  0  0  0  0  0  0
    7.1673   10.1716   25.9913 C   0  0  0  0  0  0  0  0  0  0  0  0
    7.1071   11.3797   26.9174 C   0  0  0  0  0  0  0  0  0  0  0  0
   12.6848   13.9393   23.2293 C   0  0  2  0  0  0  0  0  0  0  0  0
    9.2482   12.6843   22.2347 C   0  0  0  0  0  0  0  0  0  0  0  0
    8.4201    9.5373   24.0075 N   0  0  0  0  0  0  0  0  0  0  0  0
   13.5815   14.2136   25.3331 N   0  0  0  0  0  0  0  0  0  0  0  0
    7.8862   10.4966   24.7800 N   0  0  0  0  0  0  0  0  0  0  0  0
    6.7107   12.5950   26.1897 N   0  0  0  0  0  0  0  0  0  0  0  0
   10.6673   12.9470   22.3556 N   0  0  0  0  0  0  0  0  0  0  0  0
    5.3457   14.4822   26.2750 O   0  0  0  0  0  0  0  0  0  0  0  0
   10.5658   14.4829   24.1024 O   0  0  0  0  0  0  0  0  0  0  0  0
   13.0735   14.8991   24.2052 O   0  0  0  0  0  0  0  0  0  0  0  0
   15.6623    9.2573   28.3440 H   0  0  0  0  0  0  0  0  0  0  0  0
   15.0766    8.6440   26.0128 H   0  0  0  0  0  0  0  0  0  0  0  0
   15.3610   11.5927   29.1254 H   0  0  0  0  0  0  0  0  0  0  0  0
   14.1923   10.3549   24.4638 H   0  0  0  0  0  0  0  0  0  0  0  0
   14.4785   13.3125   27.5864 H   0  0  0  0  0  0  0  0  0  0  0  0
    9.4859    9.6969   22.2244 H   0  0  0  0  0  0  0  0  0  0  0  0
    4.9084   12.7855   30.0082 H   0  0  0  0  0  0  0  0  0  0  0  0
    6.2907   13.7546   29.2370 H   0  0  0  0  0  0  0  0  0  0  0  0
    4.0740   12.2508   27.7219 H   0  0  0  0  0  0  0  0  0  0  0  0
    8.3764   13.5847   25.3367 H   0  0  0  0  0  0  0  0  0  0  0  0
    6.8987   13.5529   24.3490 H   0  0  0  0  0  0  0  0  0  0  0  0
   14.3024   12.5177   23.0117 H   0  0  0  0  0  0  0  0  0  0  0  0
   12.7577   11.7601   23.5126 H   0  0  0  0  0  0  0  0  0  0  0  0
    7.6963    9.3367   26.4632 H   0  0  0  0  0  0  0  0  0  0  0  0
    6.1588    9.8479   25.7149 H   0  0  0  0  0  0  0  0  0  0  0  0
    6.3525   11.2246   27.6987 H   0  0  0  0  0  0  0  0  0  0  0  0
    8.0702   11.5128   27.4197 H   0  0  0  0  0  0  0  0  0  0  0  0
   12.9687   14.2944   22.2334 H   0  0  0  0  0  0  0  0  0  0  0  0
    9.0628   12.4344   21.1733 H   0  0  0  0  0  0  0  0  0  0  0  0
    8.7353   13.6480   22.4110 H   0  0  0  0  0  0  0  0  0  0  0  0
   11.3035   12.4636   21.7310 H   0  0  0  0  0  0  0  0  0  0  0  0
  1  2  1  0  0  0  0
  1  3  2  0  0  0  0
  2  4  2  0  0  0  0
  3  5  1  0  0  0  0
  4  7  1  0  0  0  0
  5  7  2  0  0  0  0
  6  8  1  0  0  0  0
  6 21  2  0  0  0  0
  7 10  1  0  0  0  0
  8  9  2  0  0  0  0
  8 20  1  0  0  0  0
  9 15  1  0  0  0  0
  9 23  1  0  0  0  0
 10 16  1  0  0  0  0
 10 22  2  0  0  0  0
 11 12  2  0  0  0  0
 12 13  1  0  0  0  0
 13 24  1  0  0  0  0
 13 26  2  0  0  0  0
 14 19  1  0  0  0  0
 14 25  1  0  0  0  0
 14 27  2  0  0  0  0
 15 24  1  0  0  0  0
 16 19  1  0  0  0  0
 17 18  1  0  0  0  0
 17 23  1  0  0  0  0
 18 24  1  0  0  0  0
 19 28  1  0  0  0  0
 20 25  1  0  0  0  0
 21 23  1  0  0  0  0
 22 28  1  0  0  0  0
  1 29  1  0  0  0  0
  2 30  1  0  0  0  0
  3 31  1  0  0  0  0
  4 32  1  0  0  0  0
  5 33  1  0  0  0  0
  6 34  1  0  0  0  0
 11 35  1  0  0  0  0
 11 36  1  0  0  0  0
 12 37  1  0  0  0  0
 15 38  1  0  0  0  0
 15 39  1  0  0  0  0
 16 40  1  0  0  0  0
 16 41  1  0  0  0  0
 17 42  1  0  0  0  0
 17 43  1  0  0  0  0
 18 44  1  0  0  0  0
 18 45  1  0  0  0  0
 19 46  1  0  0  0  0
 20 47  1  0  0  0  0
 20 48  1  0  0  0  0
 25 49  1  0  0  0  0
M  END
> <Catalog ID>
Z4942813253

> <MW>
379.412

> <MW (desalted)>
379.412

> <ClogP>
0.666

> <logS>
-3.528

> <HBD>
1

> <HBA>
5

> <TPSA>
88.82

> <RotBonds>
5

> <ROCS_ShapeQuery>
A71EV2A-x0451_0A_A71EV2A-x0310_0A_A71EV2A-x0416_0A_peptide

> <ROCS_TanimotoCombo>
0.528 

> <ROCS_ShapeTanimoto>
0.338 

> <ROCS_ColorTanimoto>
0.190 

> <ROCS_RefTversky>
0.311 

> <ROCS_RefColorTversky>
0.217 

> <ROCS_RefTverskyCombo>
0.528 

> <ROCS_FitTversky>
1.361 

> <ROCS_FitColorTversky>
0.600 

> <ROCS_FitTverskyCombo>
1.961 

> <ROCS_ColorScore>
-6.658

> <ROCS_Overlap>
2161.513

> <ROCS_Rank>
235                 

$$$$
untitled-dbase-11303_2809
  -OEChem-11132309573D

 47 50  0     0  0  0  0  0  0999 V2000
    8.1684   16.3800   24.2548 C   0  0  0  0  0  0  0  0  0  0  0  0
   10.0292    7.2962   22.3446 C   0  0  0  0  0  0  0  0  0  0  0  0
   10.6856    8.5269   22.3399 C   0  0  0  0  0  0  0  0  0  0  0  0
    8.7812    7.1738   22.9555 C   0  0  0  0  0  0  0  0  0  0  0  0
   12.8121   15.1519   19.8701 C   0  0  0  0  0  0  0  0  0  0  0  0
   13.5188   13.9731   20.1080 C   0  0  0  0  0  0  0  0  0  0  0  0
    5.7761   12.4220   28.9282 C   0  0  0  0  0  0  0  0  0  0  0  0
    6.6670   12.1800   27.8885 C   0  0  0  0  0  0  0  0  0  0  0  0
   10.0942    9.6352   22.9462 C   0  0  0  0  0  0  0  0  0  0  0  0
    8.1897    8.2820   23.5618 C   0  0  0  0  0  0  0  0  0  0  0  0
   11.6744   15.4467   20.6214 C   0  0  0  0  0  0  0  0  0  0  0  0
   13.0878   13.0891   21.0971 C   0  0  0  0  0  0  0  0  0  0  0  0
    4.4225   12.4361   28.6324 C   0  0  0  0  0  0  0  0  0  0  0  0
    4.8121   11.9970   26.4112 C   0  0  0  0  0  0  0  0  0  0  0  0
    8.4327   11.9112   23.7804 C   0  0  0  0  0  0  0  0  0  0  0  0
    6.1839   11.9626   26.6029 C   0  0  0  0  0  0  0  0  0  0  0  0
    7.6710   12.6577   24.6459 C   0  0  0  0  0  0  0  0  0  0  0  0
    8.8462    9.5128   23.5572 C   0  0  0  0  0  0  0  0  0  0  0  0
   11.2434   14.5627   21.6105 C   0  0  0  0  0  0  0  0  0  0  0  0
   11.9501   13.3838   21.8484 C   0  0  0  0  0  0  0  0  0  0  0  0
    7.0823   11.7096   25.5041 C   0  0  0  0  0  0  0  0  0  0  0  0
    7.5467   14.0616   24.6282 C   0  0  0  0  0  0  0  0  0  0  0  0
    8.4800   14.9876   24.1939 C   0  0  0  0  0  0  0  0  0  0  0  0
    9.8170   14.4924   23.6852 C   0  0  0  0  0  0  0  0  0  0  0  0
    7.9201   17.5126   24.3031 N   0  0  0  0  0  0  0  0  0  0  0  0
    3.9158   12.2291   27.3963 N   0  0  0  0  0  0  0  0  0  0  0  0
    7.4393   10.4565   25.2104 N   0  0  0  0  0  0  0  0  0  0  0  0
    8.2604   10.6120   24.1579 N   0  0  0  0  0  0  0  0  0  0  0  0
   10.0865   14.8653   22.3729 N   0  0  0  0  0  0  0  0  0  0  0  0
   10.5499   13.8259   24.4119 O   0  0  0  0  0  0  0  0  0  0  0  0
   11.5453   12.5266   22.7966 F   0  0  0  0  0  0  0  0  0  0  0  0
   10.4884    6.4335   21.8712 H   0  0  0  0  0  0  0  0  0  0  0  0
   11.6567    8.6228   21.8631 H   0  0  0  0  0  0  0  0  0  0  0  0
    8.2700    6.2154   22.9575 H   0  0  0  0  0  0  0  0  0  0  0  0
   13.1476   15.8394   19.0993 H   0  0  0  0  0  0  0  0  0  0  0  0
   14.4044   13.7432   19.5228 H   0  0  0  0  0  0  0  0  0  0  0  0
    6.1302   12.5948   29.9381 H   0  0  0  0  0  0  0  0  0  0  0  0
    7.7341   12.1638   28.0956 H   0  0  0  0  0  0  0  0  0  0  0  0
   10.6162   10.5889   22.9347 H   0  0  0  0  0  0  0  0  0  0  0  0
    7.2162    8.1728   24.0338 H   0  0  0  0  0  0  0  0  0  0  0  0
   11.1317   16.3683   20.4268 H   0  0  0  0  0  0  0  0  0  0  0  0
   13.6379   12.1714   21.2821 H   0  0  0  0  0  0  0  0  0  0  0  0
    3.6873   12.6208   29.4086 H   0  0  0  0  0  0  0  0  0  0  0  0
    4.3710   11.8355   25.4317 H   0  0  0  0  0  0  0  0  0  0  0  0
    9.0670   12.1896   22.9482 H   0  0  0  0  0  0  0  0  0  0  0  0
    6.5773   14.4723   24.9909 H   0  0  0  0  0  0  0  0  0  0  0  0
    9.3723   15.4183   21.9066 H   0  0  0  0  0  0  0  0  0  0  0  0
  1 23  1  0  0  0  0
  1 25  3  0  0  0  0
  2  3  1  0  0  0  0
  2  4  2  0  0  0  0
  3  9  2  0  0  0  0
  4 10  1  0  0  0  0
  5  6  1  0  0  0  0
  5 11  2  0  0  0  0
  6 12  2  0  0  0  0
  7  8  2  0  0  0  0
  7 13  1  0  0  0  0
  8 16  1  0  0  0  0
  9 18  1  0  0  0  0
 10 18  2  0  0  0  0
 11 19  1  0  0  0  0
 12 20  1  0  0  0  0
 13 26  2  0  0  0  0
 14 16  2  0  0  0  0
 14 26  1  0  0  0  0
 15 17  2  0  0  0  0
 15 28  1  0  0  0  0
 16 21  1  0  0  0  0
 17 21  1  0  0  0  0
 17 22  1  4  0  0  0
 18 28  1  0  0  0  0
 19 20  2  0  0  0  0
 19 29  1  0  0  0  0
 20 31  1  0  0  0  0
 21 27  2  0  0  0  0
 22 23  2  0  0  0  0
 23 24  1  0  0  0  0
 24 29  1  0  0  0  0
 24 30  2  0  0  0  0
 27 28  1  0  0  0  0
  2 32  1  0  0  0  0
  3 33  1  0  0  0  0
  4 34  1  0  0  0  0
  5 35  1  0  0  0  0
  6 36  1  0  0  0  0
  7 37  1  0  0  0  0
  8 38  1  0  0  0  0
  9 39  1  0  0  0  0
 10 40  1  0  0  0  0
 11 41  1  0  0  0  0
 12 42  1  0  0  0  0
 13 43  1  0  0  0  0
 14 44  1  0  0  0  0
 15 45  1  0  0  0  0
 22 46  1  0  0  0  0
 29 47  1  0  0  0  0
M  END
> <Catalog ID>
Z44311735

> <MW>
409.415

> <MW (desalted)>
409.415

> <ClogP>
3.542

> <logS>
-5.543

> <HBD>
1

> <HBA>
4

> <TPSA>
83.6

> <RotBonds>
5

> <ROCS_ShapeQuery>
A71EV2A-x0451_0A_A71EV2A-x0310_0A_A71EV2A-x0416_0A_peptide

> <ROCS_TanimotoCombo>
0.528 

> <ROCS_ShapeTanimoto>
0.372 

> <ROCS_ColorTanimoto>
0.156 

> <ROCS_RefTversky>
0.339 

> <ROCS_RefColorTversky>
0.180 

> <ROCS_RefTverskyCombo>
0.518 

> <ROCS_FitTversky>
1.362 

> <ROCS_FitColorTversky>
0.542 

> <ROCS_FitTverskyCombo>
1.904 

> <ROCS_ColorScore>
-5.498

> <ROCS_Overlap>
2359.315

> <ROCS_Rank>
236                 

$$$$
untitled-dbase-2276_4062
  -OEChem-11132309573D

 48 49  0     1  0  0  0  0  0999 V2000
    6.5356   11.1384   25.6158 C   0  0  0  0  0  0  0  0  0  0  0  0
    7.1657    9.9677   25.1938 C   0  0  0  0  0  0  0  0  0  0  0  0
   10.8837   16.2637   21.3500 C   0  0  0  0  0  0  0  0  0  0  0  0
   11.4471   16.3303   20.0757 C   0  0  0  0  0  0  0  0  0  0  0  0
    8.1462   12.4501   24.3819 C   0  0  0  0  0  0  0  0  0  0  0  0
   12.3125   14.0903   20.3414 C   0  0  0  0  0  0  0  0  0  0  0  0
    8.7763   11.2794   23.9599 C   0  0  0  0  0  0  0  0  0  0  0  0
   11.7492   14.0238   21.6157 C   0  0  0  0  0  0  0  0  0  0  0  0
    7.0258   12.3796   25.2098 C   0  0  0  0  0  0  0  0  0  0  0  0
    8.2860   10.0382   24.3658 C   0  0  0  0  0  0  0  0  0  0  0  0
   11.0348   15.1105   22.1200 C   0  0  0  0  0  0  0  0  0  0  0  0
   12.1614   15.2435   19.5714 C   0  0  0  0  0  0  0  0  0  0  0  0
    3.8526   15.4286   27.4370 C   0  0  0  0  0  0  0  0  0  0  0  0
    4.9023   15.1043   26.6755 C   0  0  0  0  0  0  0  0  0  0  0  0
    9.9680   11.3768   23.0781 C   0  0  0  0  0  0  0  0  0  0  0  0
    5.2688   13.6749   26.4573 C   0  0  0  0  0  0  0  0  0  0  0  0
   13.3891   11.5615   24.1394 C   0  0  0  0  0  0  0  0  0  0  0  0
   11.2852   15.5137   24.4504 C   0  0  0  0  0  0  0  0  0  0  0  0
   13.1953   12.8195   23.3016 C   0  0  0  0  0  0  0  0  0  0  0  0
   11.9237   12.7629   22.4378 C   0  0  1  0  0  0  0  0  0  0  0  0
    6.3951   13.5501   25.6321 N   0  0  0  0  0  0  0  0  0  0  0  0
   10.7462   12.5118   23.2385 N   0  0  0  0  0  0  0  0  0  0  0  0
   10.1854   10.4847   22.2625 O   0  0  0  0  0  0  0  0  0  0  0  0
    4.6211   12.7680   26.9666 O   0  0  0  0  0  0  0  0  0  0  0  0
    8.8880    8.8831   23.9648 O   0  0  0  0  0  0  0  0  0  0  0  0
   10.4795   15.0631   23.3634 O   0  0  0  0  0  0  0  0  0  0  0  0
   12.7027   15.3070   18.3477 F   0  0  0  0  0  0  0  0  0  0  0  0
    5.6631   11.0716   26.2607 H   0  0  0  0  0  0  0  0  0  0  0  0
    6.7786    9.0040   25.5136 H   0  0  0  0  0  0  0  0  0  0  0  0
   10.3294   17.1144   21.7373 H   0  0  0  0  0  0  0  0  0  0  0  0
   11.3295   17.2283   19.4768 H   0  0  0  0  0  0  0  0  0  0  0  0
    8.5292   13.4183   24.0657 H   0  0  0  0  0  0  0  0  0  0  0  0
   12.8720   13.2500   19.9393 H   0  0  0  0  0  0  0  0  0  0  0  0
    3.5563   16.4557   27.6181 H   0  0  0  0  0  0  0  0  0  0  0  0
    3.2591   14.6488   27.9029 H   0  0  0  0  0  0  0  0  0  0  0  0
    5.4959   15.8832   26.2092 H   0  0  0  0  0  0  0  0  0  0  0  0
   13.4196   10.6693   23.5059 H   0  0  0  0  0  0  0  0  0  0  0  0
   14.3337   11.6180   24.6896 H   0  0  0  0  0  0  0  0  0  0  0  0
   12.5828   11.4394   24.8692 H   0  0  0  0  0  0  0  0  0  0  0  0
   10.7235   15.4229   25.3833 H   0  0  0  0  0  0  0  0  0  0  0  0
   11.5721   16.5553   24.2852 H   0  0  0  0  0  0  0  0  0  0  0  0
   12.1839   14.8949   24.5071 H   0  0  0  0  0  0  0  0  0  0  0  0
   13.1705   13.6869   23.9731 H   0  0  0  0  0  0  0  0  0  0  0  0
   14.0747   12.9430   22.6566 H   0  0  0  0  0  0  0  0  0  0  0  0
   12.0021   11.9031   21.7608 H   0  0  0  0  0  0  0  0  0  0  0  0
    6.8071   14.4294   25.2968 H   0  0  0  0  0  0  0  0  0  0  0  0
   10.4688   13.2378   23.8906 H   0  0  0  0  0  0  0  0  0  0  0  0
    9.6487    9.0819   23.3971 H   0  0  0  0  0  0  0  0  0  0  0  0
  1  2  2  0  0  0  0
  1  9  1  0  0  0  0
  2 10  1  0  0  0  0
  3  4  2  0  0  0  0
  3 11  1  0  0  0  0
  4 12  1  0  0  0  0
  5  7  1  0  0  0  0
  5  9  2  0  0  0  0
  6  8  1  0  0  0  0
  6 12  2  0  0  0  0
  7 10  2  0  0  0  0
  7 15  1  0  0  0  0
  8 11  2  0  0  0  0
  8 20  1  0  0  0  0
  9 21  1  0  0  0  0
 10 25  1  0  0  0  0
 11 26  1  0  0  0  0
 12 27  1  0  0  0  0
 13 14  2  0  0  0  0
 14 16  1  0  0  0  0
 15 22  1  0  0  0  0
 15 23  2  0  0  0  0
 16 21  1  0  0  0  0
 16 24  2  0  0  0  0
 17 19  1  0  0  0  0
 18 26  1  0  0  0  0
 19 20  1  0  0  0  0
 20 22  1  0  0  0  0
  1 28  1  0  0  0  0
  2 29  1  0  0  0  0
  3 30  1  0  0  0  0
  4 31  1  0  0  0  0
  5 32  1  0  0  0  0
  6 33  1  0  0  0  0
 13 34  1  0  0  0  0
 13 35  1  0  0  0  0
 14 36  1  0  0  0  0
 17 37  1  0  0  0  0
 17 38  1  0  0  0  0
 17 39  1  0  0  0  0
 18 40  1  0  0  0  0
 18 41  1  0  0  0  0
 18 42  1  0  0  0  0
 19 43  1  0  0  0  0
 19 44  1  0  0  0  0
 20 45  1  0  0  0  0
 21 46  1  0  0  0  0
 22 47  1  0  0  0  0
 25 48  1  0  0  0  0
M  END
> <Catalog ID>
Z3756069127

> <MW>
372.39

> <MW (desalted)>
372.39

> <ClogP>
3.854

> <logS>
-4.746

> <HBD>
3

> <HBA>
4

> <TPSA>
87.66

> <RotBonds>
7

> <ROCS_ShapeQuery>
A71EV2A-x0451_0A_A71EV2A-x0310_0A_A71EV2A-x0416_0A_peptide

> <ROCS_TanimotoCombo>
0.528 

> <ROCS_ShapeTanimoto>
0.382 

> <ROCS_ColorTanimoto>
0.147 

> <ROCS_RefTversky>
0.336 

> <ROCS_RefColorTversky>
0.178 

> <ROCS_RefTverskyCombo>
0.514 

> <ROCS_FitTversky>
1.554 

> <ROCS_FitColorTversky>
0.454 

> <ROCS_FitTverskyCombo>
2.008 

> <ROCS_ColorScore>
-5.464

> <ROCS_Overlap>
2336.047

> <ROCS_Rank>
237                 

$$$$
untitled-dbase-9888_6136
  -OEChem-11132309573D

 39 41  0     0  0  0  0  0  0999 V2000
   14.3161   15.6970   19.1882 C   0  0  0  0  0  0  0  0  0  0  0  0
   13.2358   15.9045   18.3306 C   0  0  0  0  0  0  0  0  0  0  0  0
   14.1115   15.6423   20.5670 C   0  0  0  0  0  0  0  0  0  0  0  0
   11.9510   16.0575   18.8516 C   0  0  0  0  0  0  0  0  0  0  0  0
   12.8267   15.7952   21.0880 C   0  0  0  0  0  0  0  0  0  0  0  0
   11.7464   16.0028   20.2303 C   0  0  0  0  0  0  0  0  0  0  0  0
   11.6961   14.6608   23.0347 C   0  0  0  0  0  0  0  0  0  0  0  0
   10.4588   12.6710   23.3118 C   0  0  0  0  0  0  0  0  0  0  0  0
    4.0808   12.8895   28.1461 C   0  0  0  0  0  0  0  0  0  0  0  0
    5.0978   12.3541   27.4677 C   0  0  0  0  0  0  0  0  0  0  0  0
    5.7426   13.1485   26.4064 C   0  0  0  0  0  0  0  0  0  0  0  0
    8.9650   10.7414   23.9197 C   0  0  0  0  0  0  0  0  0  0  0  0
    7.6756   12.9012   24.6906 C   0  0  0  0  0  0  0  0  0  0  0  0
    7.2962   11.1844   25.9045 C   0  0  0  0  0  0  0  0  0  0  0  0
    8.4976   11.6503   25.0599 C   0  0  0  0  0  0  0  0  0  0  0  0
   12.6076   15.7348   22.5926 C   0  0  0  0  0  0  0  0  0  0  0  0
   10.8840   14.7314   24.0678 N   0  0  0  0  0  0  0  0  0  0  0  0
   10.1590   13.5639   24.2310 N   0  0  0  0  0  0  0  0  0  0  0  0
    6.7735   12.5291   25.7614 N   0  0  0  0  0  0  0  0  0  0  0  0
    9.9297   11.3696   23.1423 N   0  0  0  0  0  0  0  0  0  0  0  0
    5.3419   14.2837   26.1615 O   0  0  0  0  0  0  0  0  0  0  0  0
    8.4988    9.6149   23.7831 O   0  0  0  0  0  0  0  0  0  0  0  0
   10.5082   16.1507   20.7216 F   0  0  0  0  0  0  0  0  0  0  0  0
   11.6430   13.1755   22.1785 S   0  0  0  0  0  0  0  0  0  0  0  0
   15.3168   15.5784   18.7826 H   0  0  0  0  0  0  0  0  0  0  0  0
   13.3952   15.9477   17.2572 H   0  0  0  0  0  0  0  0  0  0  0  0
   14.9593   15.4808   21.2275 H   0  0  0  0  0  0  0  0  0  0  0  0
   11.1096   16.2188   18.1841 H   0  0  0  0  0  0  0  0  0  0  0  0
    3.5666   12.3545   28.9375 H   0  0  0  0  0  0  0  0  0  0  0  0
    3.7405   13.8932   27.9143 H   0  0  0  0  0  0  0  0  0  0  0  0
    5.4658   11.3567   27.6699 H   0  0  0  0  0  0  0  0  0  0  0  0
    8.1955   13.8499   24.8463 H   0  0  0  0  0  0  0  0  0  0  0  0
    7.1950   12.8854   23.7082 H   0  0  0  0  0  0  0  0  0  0  0  0
    6.6476   10.4315   25.4473 H   0  0  0  0  0  0  0  0  0  0  0  0
    7.5332   10.9071   26.9346 H   0  0  0  0  0  0  0  0  0  0  0  0
    9.3540   11.9091   25.7010 H   0  0  0  0  0  0  0  0  0  0  0  0
   13.5992   15.6473   23.0826 H   0  0  0  0  0  0  0  0  0  0  0  0
   12.2498   16.7295   22.9299 H   0  0  0  0  0  0  0  0  0  0  0  0
   10.3074   10.8444   22.3564 H   0  0  0  0  0  0  0  0  0  0  0  0
  1  2  1  0  0  0  0
  1  3  2  0  0  0  0
  2  4  2  0  0  0  0
  3  5  1  0  0  0  0
  4  6  1  0  0  0  0
  5  6  2  0  0  0  0
  5 16  1  0  0  0  0
  6 23  1  0  0  0  0
  7 16  1  0  0  0  0
  7 17  2  0  0  0  0
  7 24  1  0  0  0  0
  8 18  2  0  0  0  0
  8 20  1  0  0  0  0
  8 24  1  0  0  0  0
  9 10  2  0  0  0  0
 10 11  1  0  0  0  0
 11 19  1  0  0  0  0
 11 21  2  0  0  0  0
 12 15  1  0  0  0  0
 12 20  1  0  0  0  0
 12 22  2  0  0  0  0
 13 15  1  0  0  0  0
 13 19  1  0  0  0  0
 14 15  1  0  0  0  0
 14 19  1  0  0  0  0
 17 18  1  0  0  0  0
  1 25  1  0  0  0  0
  2 26  1  0  0  0  0
  3 27  1  0  0  0  0
  4 28  1  0  0  0  0
  9 29  1  0  0  0  0
  9 30  1  0  0  0  0
 10 31  1  0  0  0  0
 13 32  1  0  0  0  0
 13 33  1  0  0  0  0
 14 34  1  0  0  0  0
 14 35  1  0  0  0  0
 15 36  1  0  0  0  0
 16 37  1  0  0  0  0
 16 38  1  0  0  0  0
 20 39  1  0  0  0  0
M  END
> <Catalog ID>
Z4540325808

> <MW>
346.379

> <MW (desalted)>
346.379

> <ClogP>
2.365

> <logS>
-4.342

> <HBD>
1

> <HBA>
4

> <TPSA>
75.19

> <RotBonds>
5

> <ROCS_ShapeQuery>
A71EV2A-x0451_0A_A71EV2A-x0310_0A_A71EV2A-x0416_0A_peptide

> <ROCS_TanimotoCombo>
0.528 

> <ROCS_ShapeTanimoto>
0.347 

> <ROCS_ColorTanimoto>
0.181 

> <ROCS_RefTversky>
0.309 

> <ROCS_RefColorTversky>
0.205 

> <ROCS_RefTverskyCombo>
0.514 

> <ROCS_FitTversky>
1.561 

> <ROCS_FitColorTversky>
0.603 

> <ROCS_FitTverskyCombo>
2.164 

> <ROCS_ColorScore>
-6.281

> <ROCS_Overlap>
2145.572

> <ROCS_Rank>
238                 

$$$$
untitled-dbase-9860_7891
  -OEChem-11132309573D

 54 56  0     0  0  0  0  0  0999 V2000
   12.4678   15.8876   22.9541 C   0  0  0  0  0  0  0  0  0  0  0  0
   13.2452   17.2157   18.9464 C   0  0  0  0  0  0  0  0  0  0  0  0
   14.1676   16.4813   18.2012 C   0  0  0  0  0  0  0  0  0  0  0  0
    9.1852    9.4268   23.8084 C   0  0  0  0  0  0  0  0  0  0  0  0
   12.4418   16.5745   19.8894 C   0  0  0  0  0  0  0  0  0  0  0  0
   15.9454   13.2609   23.5026 C   0  0  0  0  0  0  0  0  0  0  0  0
   14.1055   11.6951   23.4946 C   0  0  0  0  0  0  0  0  0  0  0  0
    8.0297    9.7955   24.4972 C   0  0  0  0  0  0  0  0  0  0  0  0
   15.8968   13.3252   22.1101 C   0  0  0  0  0  0  0  0  0  0  0  0
   14.0569   11.7594   22.1021 C   0  0  0  0  0  0  0  0  0  0  0  0
   10.0043   10.4059   23.2460 C   0  0  0  0  0  0  0  0  0  0  0  0
   14.2865   15.1056   18.3988 C   0  0  0  0  0  0  0  0  0  0  0  0
    8.5122   12.1223   24.0613 C   0  0  0  0  0  0  0  0  0  0  0  0
   15.0498   12.4458   24.1949 C   0  0  0  0  0  0  0  0  0  0  0  0
   12.5607   15.1989   20.0870 C   0  0  0  0  0  0  0  0  0  0  0  0
   14.9526   12.5745   21.4098 C   0  0  0  0  0  0  0  0  0  0  0  0
    7.6932   11.1432   24.6236 C   0  0  0  0  0  0  0  0  0  0  0  0
    9.6677   11.7537   23.3725 C   0  0  0  0  0  0  0  0  0  0  0  0
   13.4831   14.4644   19.3418 C   0  0  0  0  0  0  0  0  0  0  0  0
   11.7104   14.5527   21.0778 C   0  0  0  0  0  0  0  0  0  0  0  0
   11.6589   14.8490   22.4004 C   0  0  0  0  0  0  0  0  0  0  0  0
   15.0993   12.3784   25.6469 C   0  0  0  0  0  0  0  0  0  0  0  0
   10.6962   14.0497   23.2524 C   0  0  0  0  0  0  0  0  0  0  0  0
   14.0939   11.3806   27.5666 C   0  0  0  0  0  0  0  0  0  0  0  0
   14.9003   12.6445   19.9209 C   0  0  0  0  0  0  0  0  0  0  0  0
    6.4577   11.5368   25.3602 C   0  0  0  0  0  0  0  0  0  0  0  0
   13.1225   16.7313   23.4085 N   0  0  0  0  0  0  0  0  0  0  0  0
   10.5011   12.7489   22.8012 N   0  0  0  0  0  0  0  0  0  0  0  0
   15.9006   13.0079   26.3502 O   0  0  0  0  0  0  0  0  0  0  0  0
   10.1675   14.5597   24.2371 O   0  0  0  0  0  0  0  0  0  0  0  0
   13.6199   13.1121   19.5148 O   0  0  0  0  0  0  0  0  0  0  0  0
   14.1468   11.5312   26.1439 O   0  0  0  0  0  0  0  0  0  0  0  0
    5.7544   10.4759   25.8563 F   0  0  0  0  0  0  0  0  0  0  0  0
    6.6965   12.3408   26.4383 F   0  0  0  0  0  0  0  0  0  0  0  0
    5.5767   12.2259   24.5777 F   0  0  0  0  0  0  0  0  0  0  0  0
   13.1519   18.2866   18.7912 H   0  0  0  0  0  0  0  0  0  0  0  0
   14.7923   16.9814   17.4672 H   0  0  0  0  0  0  0  0  0  0  0  0
    9.4475    8.3774   23.7102 H   0  0  0  0  0  0  0  0  0  0  0  0
   11.7270   17.1620   20.4609 H   0  0  0  0  0  0  0  0  0  0  0  0
   16.6850   13.8499   24.0389 H   0  0  0  0  0  0  0  0  0  0  0  0
   13.4028   11.0565   24.0234 H   0  0  0  0  0  0  0  0  0  0  0  0
    7.3977    9.0256   24.9312 H   0  0  0  0  0  0  0  0  0  0  0  0
   16.5982   13.9631   21.5790 H   0  0  0  0  0  0  0  0  0  0  0  0
   13.3175   11.1715   21.5645 H   0  0  0  0  0  0  0  0  0  0  0  0
   10.9023   10.1071   22.7112 H   0  0  0  0  0  0  0  0  0  0  0  0
   15.0078   14.5399   17.8152 H   0  0  0  0  0  0  0  0  0  0  0  0
    8.2472   13.1727   24.1605 H   0  0  0  0  0  0  0  0  0  0  0  0
   11.0605   13.7763   20.6648 H   0  0  0  0  0  0  0  0  0  0  0  0
   13.2959   10.6822   27.8304 H   0  0  0  0  0  0  0  0  0  0  0  0
   13.9096   12.3530   28.0303 H   0  0  0  0  0  0  0  0  0  0  0  0
   15.0505   10.9869   27.9183 H   0  0  0  0  0  0  0  0  0  0  0  0
   15.6649   13.3265   19.5246 H   0  0  0  0  0  0  0  0  0  0  0  0
   15.0747   11.6576   19.4710 H   0  0  0  0  0  0  0  0  0  0  0  0
   11.0147   12.4805   21.9660 H   0  0  0  0  0  0  0  0  0  0  0  0
  1 21  1  0  0  0  0
  1 27  3  0  0  0  0
  2  3  1  0  0  0  0
  2  5  2  0  0  0  0
  3 12  2  0  0  0  0
  4  8  1  0  0  0  0
  4 11  2  0  0  0  0
  5 15  1  0  0  0  0
  6  9  2  0  0  0  0
  6 14  1  0  0  0  0
  7 10  1  0  0  0  0
  7 14  2  0  0  0  0
  8 17  2  0  0  0  0
  9 16  1  0  0  0  0
 10 16  2  0  0  0  0
 11 18  1  0  0  0  0
 12 19  1  0  0  0  0
 13 17  1  0  0  0  0
 13 18  2  0  0  0  0
 14 22  1  0  0  0  0
 15 19  2  0  0  0  0
 15 20  1  4  0  0  0
 16 25  1  0  0  0  0
 17 26  1  0  0  0  0
 18 28  1  0  0  0  0
 19 31  1  0  0  0  0
 20 21  2  0  0  0  0
 21 23  1  0  0  0  0
 22 29  2  0  0  0  0
 22 32  1  0  0  0  0
 23 28  1  0  0  0  0
 23 30  2  0  0  0  0
 24 32  1  0  0  0  0
 25 31  1  0  0  0  0
 26 33  1  0  0  0  0
 26 34  1  0  0  0  0
 26 35  1  0  0  0  0
  2 36  1  0  0  0  0
  3 37  1  0  0  0  0
  4 38  1  0  0  0  0
  5 39  1  0  0  0  0
  6 40  1  0  0  0  0
  7 41  1  0  0  0  0
  8 42  1  0  0  0  0
  9 43  1  0  0  0  0
 10 44  1  0  0  0  0
 11 45  1  0  0  0  0
 12 46  1  0  0  0  0
 13 47  1  0  0  0  0
 20 48  1  0  0  0  0
 24 49  1  0  0  0  0
 24 50  1  0  0  0  0
 24 51  1  0  0  0  0
 25 52  1  0  0  0  0
 25 53  1  0  0  0  0
 28 54  1  0  0  0  0
M  END
> <Catalog ID>
Z46073522

> <MW>
480.435

> <MW (desalted)>
480.435

> <ClogP>
5.977

> <logS>
-7.18

> <HBD>
1

> <HBA>
4

> <TPSA>
88.42

> <RotBonds>
9

> <ROCS_ShapeQuery>
A71EV2A-x0451_0A_A71EV2A-x0310_0A_A71EV2A-x0416_0A_peptide

> <ROCS_TanimotoCombo>
0.528 

> <ROCS_ShapeTanimoto>
0.361 

> <ROCS_ColorTanimoto>
0.168 

> <ROCS_RefTversky>
0.336 

> <ROCS_RefColorTversky>
0.187 

> <ROCS_RefTverskyCombo>
0.523 

> <ROCS_FitTversky>
1.250 

> <ROCS_FitColorTversky>
0.620 

> <ROCS_FitTverskyCombo>
1.870 

> <ROCS_ColorScore>
-5.699

> <ROCS_Overlap>
2346.089

> <ROCS_Rank>
239                 

$$$$
untitled-dbase-8485_3588
  -OEChem-11132309573D

 42 45  0     1  0  0  0  0  0999 V2000
   13.3923   16.2772   18.4229 C   0  0  0  0  0  0  0  0  0  0  0  0
   14.2716   16.4403   19.4902 C   0  0  0  0  0  0  0  0  0  0  0  0
    9.4053    9.8973   23.0987 C   0  0  0  0  0  0  0  0  0  0  0  0
   10.1845   11.0471   22.9706 C   0  0  0  0  0  0  0  0  0  0  0  0
   12.2591   15.4779   18.5688 C   0  0  0  0  0  0  0  0  0  0  0  0
   14.0162   15.8087   20.7072 C   0  0  0  0  0  0  0  0  0  0  0  0
    8.2227    9.9349   23.8375 C   0  0  0  0  0  0  0  0  0  0  0  0
    8.5986   12.2722   24.3201 C   0  0  0  0  0  0  0  0  0  0  0  0
    9.7811   12.2345   23.5813 C   0  0  0  0  0  0  0  0  0  0  0  0
   12.0008   14.8277   19.7833 C   0  0  0  0  0  0  0  0  0  0  0  0
   12.8777   15.0059   20.8684 C   0  0  0  0  0  0  0  0  0  0  0  0
    7.8194   11.1223   24.4482 C   0  0  0  0  0  0  0  0  0  0  0  0
   10.6025   13.4476   23.4462 C   0  0  0  0  0  0  0  0  0  0  0  0
   10.7594   13.9883   19.9358 C   0  0  0  0  0  0  0  0  0  0  0  0
   12.6332   14.3382   22.2009 C   0  0  0  0  0  0  0  0  0  0  0  0
   10.9223   12.9578   21.0463 C   0  0  0  0  0  0  0  0  0  0  0  0
    5.0762   12.4303   28.3632 C   0  0  0  0  0  0  0  0  0  0  0  0
    5.6806   11.5333   27.3195 C   0  0  2  0  0  0  0  0  0  0  0  0
    6.6084   12.0815   26.2564 C   0  0  0  0  0  0  0  0  0  0  0  0
   11.3597   13.6062   22.2806 N   0  0  0  0  0  0  0  0  0  0  0  0
   10.5550   14.2455   24.3814 O   0  0  0  0  0  0  0  0  0  0  0  0
    4.3271   11.9881   27.2202 O   0  0  0  0  0  0  0  0  0  0  0  0
    6.6656   11.1594   25.1690 O   0  0  0  0  0  0  0  0  0  0  0  0
   13.5896   16.7717   17.4763 H   0  0  0  0  0  0  0  0  0  0  0  0
   15.1586   17.0562   19.3743 H   0  0  0  0  0  0  0  0  0  0  0  0
    9.7195    8.9729   22.6232 H   0  0  0  0  0  0  0  0  0  0  0  0
   11.1036   11.0071   22.3919 H   0  0  0  0  0  0  0  0  0  0  0  0
   11.5763   15.3657   17.7303 H   0  0  0  0  0  0  0  0  0  0  0  0
   14.7125   15.9427   21.5315 H   0  0  0  0  0  0  0  0  0  0  0  0
    7.6201    9.0359   23.9337 H   0  0  0  0  0  0  0  0  0  0  0  0
    8.2791   13.1957   24.7977 H   0  0  0  0  0  0  0  0  0  0  0  0
    9.9016   14.6284   20.1727 H   0  0  0  0  0  0  0  0  0  0  0  0
   10.5522   13.4873   18.9825 H   0  0  0  0  0  0  0  0  0  0  0  0
   13.4633   13.6571   22.4146 H   0  0  0  0  0  0  0  0  0  0  0  0
   12.6034   15.1031   22.9864 H   0  0  0  0  0  0  0  0  0  0  0  0
    9.9702   12.4565   21.2614 H   0  0  0  0  0  0  0  0  0  0  0  0
   11.6356   12.1864   20.7373 H   0  0  0  0  0  0  0  0  0  0  0  0
    4.8223   11.9981   29.3223 H   0  0  0  0  0  0  0  0  0  0  0  0
    5.3738   13.4702   28.3944 H   0  0  0  0  0  0  0  0  0  0  0  0
    5.8555   10.4935   27.5571 H   0  0  0  0  0  0  0  0  0  0  0  0
    7.6170   12.2147   26.6588 H   0  0  0  0  0  0  0  0  0  0  0  0
    6.2410   13.0426   25.8845 H   0  0  0  0  0  0  0  0  0  0  0  0
  1  2  1  0  0  0  0
  1  5  2  0  0  0  0
  2  6  2  0  0  0  0
  3  4  2  0  0  0  0
  3  7  1  0  0  0  0
  4  9  1  0  0  0  0
  5 10  1  0  0  0  0
  6 11  1  0  0  0  0
  7 12  2  0  0  0  0
  8  9  2  0  0  0  0
  8 12  1  0  0  0  0
  9 13  1  0  0  0  0
 10 11  2  0  0  0  0
 10 14  1  0  0  0  0
 11 15  1  0  0  0  0
 12 23  1  0  0  0  0
 13 20  1  0  0  0  0
 13 21  2  0  0  0  0
 14 16  1  0  0  0  0
 15 20  1  0  0  0  0
 16 20  1  0  0  0  0
 17 18  1  0  0  0  0
 17 22  1  0  0  0  0
 18 19  1  0  0  0  0
 18 22  1  0  0  0  0
 19 23  1  0  0  0  0
  1 24  1  0  0  0  0
  2 25  1  0  0  0  0
  3 26  1  0  0  0  0
  4 27  1  0  0  0  0
  5 28  1  0  0  0  0
  6 29  1  0  0  0  0
  7 30  1  0  0  0  0
  8 31  1  0  0  0  0
 14 32  1  0  0  0  0
 14 33  1  0  0  0  0
 15 34  1  0  0  0  0
 15 35  1  0  0  0  0
 16 36  1  0  0  0  0
 16 37  1  0  0  0  0
 17 38  1  0  0  0  0
 17 39  1  0  0  0  0
 18 40  1  0  0  0  0
 19 41  1  0  0  0  0
 19 42  1  0  0  0  0
M  END
> <Catalog ID>
Z3991577729

> <MW>
309.359

> <MW (desalted)>
309.359

> <ClogP>
2.867

> <logS>
-4.318

> <HBD>
0

> <HBA>
3

> <TPSA>
42.07

> <RotBonds>
4

> <ROCS_ShapeQuery>
A71EV2A-x0451_0A_A71EV2A-x0310_0A_A71EV2A-x0416_0A_peptide

> <ROCS_TanimotoCombo>
0.528 

> <ROCS_ShapeTanimoto>
0.349 

> <ROCS_ColorTanimoto>
0.179 

> <ROCS_RefTversky>
0.309 

> <ROCS_RefColorTversky>
0.188 

> <ROCS_RefTverskyCombo>
0.497 

> <ROCS_FitTversky>
1.589 

> <ROCS_FitColorTversky>
0.785 

> <ROCS_FitTverskyCombo>
2.374 

> <ROCS_ColorScore>
-5.722

> <ROCS_Overlap>
2147.982

> <ROCS_Rank>
240                 

$$$$
untitled-dbase-8138_1942
  -OEChem-11132309573D

 51 54  0     0  0  0  0  0  0999 V2000
   13.3400   12.9875   24.1538 C   0  0  0  0  0  0  0  0  0  0  0  0
   14.4399   16.3183   19.6200 C   0  0  0  0  0  0  0  0  0  0  0  0
    3.9001   12.1300   25.6288 C   0  0  0  0  0  0  0  0  0  0  0  0
   14.0198   15.4479   18.6143 C   0  0  0  0  0  0  0  0  0  0  0  0
   13.5849   16.6257   20.6785 C   0  0  0  0  0  0  0  0  0  0  0  0
    4.9612   12.9289   26.0548 C   0  0  0  0  0  0  0  0  0  0  0  0
    4.1467   11.0025   24.8454 C   0  0  0  0  0  0  0  0  0  0  0  0
   10.5457    6.9550   21.9672 C   0  0  0  0  0  0  0  0  0  0  0  0
   12.7447   14.8849   18.6670 C   0  0  0  0  0  0  0  0  0  0  0  0
   12.3098   16.0627   20.7311 C   0  0  0  0  0  0  0  0  0  0  0  0
    6.2689   12.6003   25.6974 C   0  0  0  0  0  0  0  0  0  0  0  0
    5.4544   10.6740   24.4879 C   0  0  0  0  0  0  0  0  0  0  0  0
    9.6639    7.7381   22.7668 C   0  0  0  0  0  0  0  0  0  0  0  0
    8.9412   11.8412   24.9084 C   0  0  0  0  0  0  0  0  0  0  0  0
   11.6276    7.6837   21.5245 C   0  0  0  0  0  0  0  0  0  0  0  0
    9.9956   11.1651   24.3449 C   0  0  0  0  0  0  0  0  0  0  0  0
   11.8896   15.1923   19.7254 C   0  0  0  0  0  0  0  0  0  0  0  0
    6.5155   11.4729   24.9139 C   0  0  0  0  0  0  0  0  0  0  0  0
    9.4002   10.0785   23.6767 C   0  0  0  0  0  0  0  0  0  0  0  0
   10.1056    9.0357   22.9050 C   0  0  0  0  0  0  0  0  0  0  0  0
   11.4127   11.5460   24.4513 C   0  0  0  0  0  0  0  0  0  0  0  0
   11.9492   12.6998   24.0081 C   0  0  0  0  0  0  0  0  0  0  0  0
   11.0026   13.6852   23.3708 C   0  0  0  0  0  0  0  0  0  0  0  0
   10.5100   14.5838   19.7828 C   0  0  0  0  0  0  0  0  0  0  0  0
   10.0021   14.3932   21.2099 C   0  0  0  0  0  0  0  0  0  0  0  0
   14.4699   13.2252   24.2707 N   0  0  0  0  0  0  0  0  0  0  0  0
    8.0706   10.0612   23.8033 N   0  0  0  0  0  0  0  0  0  0  0  0
    7.8219   11.1453   24.5575 N   0  0  0  0  0  0  0  0  0  0  0  0
   10.8679   13.5447   21.9984 N   0  0  0  0  0  0  0  0  0  0  0  0
   10.4073   14.5319   24.0355 O   0  0  0  0  0  0  0  0  0  0  0  0
   11.5775    9.3053   22.0725 S   0  0  0  0  0  0  0  0  0  0  0  0
   15.4333   16.7555   19.5796 H   0  0  0  0  0  0  0  0  0  0  0  0
    2.8820   12.3843   25.9082 H   0  0  0  0  0  0  0  0  0  0  0  0
   14.6857   15.2076   17.7907 H   0  0  0  0  0  0  0  0  0  0  0  0
   13.9121   17.3024   21.4623 H   0  0  0  0  0  0  0  0  0  0  0  0
    4.7696   13.8060   26.6659 H   0  0  0  0  0  0  0  0  0  0  0  0
    3.3200   10.3801   24.5152 H   0  0  0  0  0  0  0  0  0  0  0  0
   10.3943    5.9100   21.7296 H   0  0  0  0  0  0  0  0  0  0  0  0
   12.4258   14.2079   17.8788 H   0  0  0  0  0  0  0  0  0  0  0  0
   11.6504   16.3080   21.5595 H   0  0  0  0  0  0  0  0  0  0  0  0
    7.0869   13.2311   26.0368 H   0  0  0  0  0  0  0  0  0  0  0  0
    5.6325    9.7919   23.8776 H   0  0  0  0  0  0  0  0  0  0  0  0
    8.7529    7.3603   23.2147 H   0  0  0  0  0  0  0  0  0  0  0  0
    8.8959   12.7379   25.5137 H   0  0  0  0  0  0  0  0  0  0  0  0
   12.4454    7.3417   20.9061 H   0  0  0  0  0  0  0  0  0  0  0  0
   12.0289   10.7822   24.9206 H   0  0  0  0  0  0  0  0  0  0  0  0
   10.5371   13.6115   19.2748 H   0  0  0  0  0  0  0  0  0  0  0  0
    9.8071   15.2034   19.2114 H   0  0  0  0  0  0  0  0  0  0  0  0
    9.9562   15.3598   21.7216 H   0  0  0  0  0  0  0  0  0  0  0  0
    9.0009   13.9502   21.2267 H   0  0  0  0  0  0  0  0  0  0  0  0
   11.3974   12.8180   21.5287 H   0  0  0  0  0  0  0  0  0  0  0  0
  1 22  1  0  0  0  0
  1 26  3  0  0  0  0
  2  4  1  0  0  0  0
  2  5  2  0  0  0  0
  3  6  1  0  0  0  0
  3  7  2  0  0  0  0
  4  9  2  0  0  0  0
  5 10  1  0  0  0  0
  6 11  2  0  0  0  0
  7 12  1  0  0  0  0
  8 13  1  0  0  0  0
  8 15  2  0  0  0  0
  9 17  1  0  0  0  0
 10 17  2  0  0  0  0
 11 18  1  0  0  0  0
 12 18  2  0  0  0  0
 13 20  2  0  0  0  0
 14 16  2  0  0  0  0
 14 28  1  0  0  0  0
 15 31  1  0  0  0  0
 16 19  1  0  0  0  0
 16 21  1  4  0  0  0
 17 24  1  0  0  0  0
 18 28  1  0  0  0  0
 19 20  1  0  0  0  0
 19 27  2  0  0  0  0
 20 31  1  0  0  0  0
 21 22  2  0  0  0  0
 22 23  1  0  0  0  0
 23 29  1  0  0  0  0
 23 30  2  0  0  0  0
 24 25  1  0  0  0  0
 25 29  1  0  0  0  0
 27 28  1  0  0  0  0
  2 32  1  0  0  0  0
  3 33  1  0  0  0  0
  4 34  1  0  0  0  0
  5 35  1  0  0  0  0
  6 36  1  0  0  0  0
  7 37  1  0  0  0  0
  8 38  1  0  0  0  0
  9 39  1  0  0  0  0
 10 40  1  0  0  0  0
 11 41  1  0  0  0  0
 12 42  1  0  0  0  0
 13 43  1  0  0  0  0
 14 44  1  0  0  0  0
 15 45  1  0  0  0  0
 21 46  1  0  0  0  0
 24 47  1  0  0  0  0
 24 48  1  0  0  0  0
 25 49  1  0  0  0  0
 25 50  1  0  0  0  0
 29 51  1  0  0  0  0
M  END
> <Catalog ID>
Z44322584

> <MW>
424.518

> <MW (desalted)>
424.518

> <ClogP>
5.36

> <logS>
-5.89

> <HBD>
1

> <HBA>
3

> <TPSA>
70.71

> <RotBonds>
7

> <ROCS_ShapeQuery>
A71EV2A-x0451_0A_A71EV2A-x0310_0A_A71EV2A-x0416_0A_peptide

> <ROCS_TanimotoCombo>
0.528 

> <ROCS_ShapeTanimoto>
0.355 

> <ROCS_ColorTanimoto>
0.173 

> <ROCS_RefTversky>
0.326 

> <ROCS_RefColorTversky>
0.192 

> <ROCS_RefTverskyCombo>
0.518 

> <ROCS_FitTversky>
1.340 

> <ROCS_FitColorTversky>
0.638 

> <ROCS_FitTverskyCombo>
1.978 

> <ROCS_ColorScore>
-5.861

> <ROCS_Overlap>
2267.570

> <ROCS_Rank>
241                 

$$$$
untitled-dbase-1645_17295
  -OEChem-11132309573D

 35 36  0     0  0  0  0  0  0999 V2000
   13.9450   16.1654   18.2507 C   0  0  0  0  0  0  0  0  0  0  0  0
    8.5585   12.4495   24.7141 C   0  0  0  0  0  0  0  0  0  0  0  0
   12.7034   16.4178   18.8642 C   0  0  0  0  0  0  0  0  0  0  0  0
    8.8045   10.3670   23.5919 C   0  0  0  0  0  0  0  0  0  0  0  0
    7.1537   10.5865   25.1745 C   0  0  0  0  0  0  0  0  0  0  0  0
   14.6903   15.5477   19.2251 C   0  0  0  0  0  0  0  0  0  0  0  0
    9.2284   11.6734   23.7748 C   0  0  0  0  0  0  0  0  0  0  0  0
    7.5003   11.9031   25.4317 C   0  0  0  0  0  0  0  0  0  0  0  0
   10.8419   13.4802   23.1092 C   0  0  0  0  0  0  0  0  0  0  0  0
   12.0004   13.6844   22.1477 C   0  0  0  0  0  0  0  0  0  0  0  0
   13.0573   14.6876   22.6210 C   0  0  0  0  0  0  0  0  0  0  0  0
   14.2396   14.8705   21.6574 C   0  0  0  0  0  0  0  0  0  0  0  0
    7.7808    9.8015   24.2700 N   0  0  0  0  0  0  0  0  0  0  0  0
   12.6585   15.9949   20.1304 N   0  0  0  0  0  0  0  0  0  0  0  0
   13.8812   15.4704   20.3203 N   0  0  0  0  0  0  0  0  0  0  0  0
   10.3079   12.2016   23.0283 N   0  0  0  0  0  0  0  0  0  0  0  0
   10.4680   14.4014   23.8305 O   0  0  0  0  0  0  0  0  0  0  0  0
    4.4794   11.7972   26.7320 O   0  0  0  0  0  0  0  0  0  0  0  0
    4.9630   14.2876   26.7535 O   0  0  0  0  0  0  0  0  0  0  0  0
    6.8283   12.6366   26.3531 O   0  0  0  0  0  0  0  0  0  0  0  0
    4.9007   13.0252   24.7046 F   0  0  0  0  0  0  0  0  0  0  0  0
    5.2205   12.9497   26.2591 S   0  0  0  0  0  0  0  0  0  0  0  0
   14.2558   16.3988   17.2432 H   0  0  0  0  0  0  0  0  0  0  0  0
    8.8575   13.4797   24.8898 H   0  0  0  0  0  0  0  0  0  0  0  0
   11.8302   16.8921   18.4397 H   0  0  0  0  0  0  0  0  0  0  0  0
    9.2890    9.7120   22.8736 H   0  0  0  0  0  0  0  0  0  0  0  0
    6.3365   10.1086   25.7059 H   0  0  0  0  0  0  0  0  0  0  0  0
   15.7025   15.1676   19.2304 H   0  0  0  0  0  0  0  0  0  0  0  0
   12.4745   12.7079   21.9892 H   0  0  0  0  0  0  0  0  0  0  0  0
   11.5946   14.0000   21.1792 H   0  0  0  0  0  0  0  0  0  0  0  0
   13.4621   14.3068   23.5678 H   0  0  0  0  0  0  0  0  0  0  0  0
   12.5973   15.6539   22.8556 H   0  0  0  0  0  0  0  0  0  0  0  0
   14.7505   13.9092   21.5204 H   0  0  0  0  0  0  0  0  0  0  0  0
   14.9771   15.5348   22.1269 H   0  0  0  0  0  0  0  0  0  0  0  0
   10.7343   11.5580   22.3658 H   0  0  0  0  0  0  0  0  0  0  0  0
  1  3  1  0  0  0  0
  1  6  2  0  0  0  0
  2  7  1  0  0  0  0
  2  8  2  0  0  0  0
  3 14  2  0  0  0  0
  4  7  2  0  0  0  0
  4 13  1  0  0  0  0
  5  8  1  0  0  0  0
  5 13  2  0  0  0  0
  6 15  1  0  0  0  0
  7 16  1  0  0  0  0
  8 20  1  0  0  0  0
  9 10  1  0  0  0  0
  9 16  1  0  0  0  0
  9 17  2  0  0  0  0
 10 11  1  0  0  0  0
 11 12  1  0  0  0  0
 12 15  1  0  0  0  0
 14 15  1  0  0  0  0
 18 22  2  0  0  0  0
 19 22  2  0  0  0  0
 20 22  1  0  0  0  0
 21 22  1  0  0  0  0
  1 23  1  0  0  0  0
  2 24  1  0  0  0  0
  3 25  1  0  0  0  0
  4 26  1  0  0  0  0
  5 27  1  0  0  0  0
  6 28  1  0  0  0  0
 10 29  1  0  0  0  0
 10 30  1  0  0  0  0
 11 31  1  0  0  0  0
 11 32  1  0  0  0  0
 12 33  1  0  0  0  0
 12 34  1  0  0  0  0
 16 35  1  0  0  0  0
M  END
> <Catalog ID>
Z4385628784

> <MW>
328.319

> <MW (desalted)>
328.319

> <ClogP>
-0.512

> <logS>
-1.195

> <HBD>
1

> <HBA>
5

> <TPSA>
103.18

> <RotBonds>
7

> <ROCS_ShapeQuery>
A71EV2A-x0451_0A_A71EV2A-x0310_0A_A71EV2A-x0416_0A_peptide

> <ROCS_TanimotoCombo>
0.528 

> <ROCS_ShapeTanimoto>
0.316 

> <ROCS_ColorTanimoto>
0.212 

> <ROCS_RefTversky>
0.284 

> <ROCS_RefColorTversky>
0.228 

> <ROCS_RefTverskyCombo>
0.512 

> <ROCS_FitTversky>
1.540 

> <ROCS_FitColorTversky>
0.756 

> <ROCS_FitTverskyCombo>
2.296 

> <ROCS_ColorScore>
-6.950

> <ROCS_Overlap>
1974.639

> <ROCS_Rank>
242                 

$$$$
untitled-dbase-1807_1748
  -OEChem-11132309573D

 39 40  0     1  0  0  0  0  0999 V2000
    7.8016   12.4554   24.5105 C   0  0  0  0  0  0  0  0  0  0  0  0
    9.2379   10.6754   23.8582 C   0  0  0  0  0  0  0  0  0  0  0  0
    7.0989   10.1834   24.5368 C   0  0  0  0  0  0  0  0  0  0  0  0
    9.0442   12.0339   24.0504 C   0  0  0  0  0  0  0  0  0  0  0  0
    6.8049   11.5188   24.7609 C   0  0  0  0  0  0  0  0  0  0  0  0
   10.1299   13.0094   23.7733 C   0  0  0  0  0  0  0  0  0  0  0  0
   12.3050   16.8979   21.1148 C   0  0  0  0  0  0  0  0  0  0  0  0
   12.6835   15.4454   20.9697 C   0  0  0  0  0  0  0  0  0  0  0  0
   11.9879   16.9925   22.5921 C   0  0  0  0  0  0  0  0  0  0  0  0
   11.7004   14.7805   21.9174 C   0  0  1  0  0  0  0  0  0  0  0  0
   13.0531   13.6709   23.7139 C   0  0  0  0  0  0  0  0  0  0  0  0
   13.0198   12.7161   21.3953 C   0  0  0  0  0  0  0  0  0  0  0  0
   12.1885   13.4518   22.4609 C   0  0  0  0  0  0  0  0  0  0  0  0
    8.2939    9.7360   24.0904 N   0  0  0  0  0  0  0  0  0  0  0  0
   11.0513   12.6164   22.8250 N   0  0  0  0  0  0  0  0  0  0  0  0
   10.1594   14.0673   24.3966 O   0  0  0  0  0  0  0  0  0  0  0  0
    5.6478   14.1108   26.4253 O   0  0  0  0  0  0  0  0  0  0  0  0
    4.1183   12.2549   27.2330 O   0  0  0  0  0  0  0  0  0  0  0  0
   11.4986   15.7058   22.9987 O   0  0  0  0  0  0  0  0  0  0  0  0
    5.5838   11.9007   25.2101 O   0  0  0  0  0  0  0  0  0  0  0  0
    6.4978   12.1835   27.5909 F   0  0  0  0  0  0  0  0  0  0  0  0
    5.3525   12.7052   26.6211 S   0  0  0  0  0  0  0  0  0  0  0  0
    7.6061   13.5121   24.6754 H   0  0  0  0  0  0  0  0  0  0  0  0
   10.1866   10.2861   23.5011 H   0  0  0  0  0  0  0  0  0  0  0  0
    6.3590    9.4095   24.7157 H   0  0  0  0  0  0  0  0  0  0  0  0
   13.0897   17.5913   20.8011 H   0  0  0  0  0  0  0  0  0  0  0  0
   11.4054   17.1088   20.5245 H   0  0  0  0  0  0  0  0  0  0  0  0
   12.6019   15.0755   19.9439 H   0  0  0  0  0  0  0  0  0  0  0  0
   13.7168   15.2993   21.3071 H   0  0  0  0  0  0  0  0  0  0  0  0
   12.8887   17.2058   23.1775 H   0  0  0  0  0  0  0  0  0  0  0  0
   11.2391   17.7584   22.8125 H   0  0  0  0  0  0  0  0  0  0  0  0
   10.7309   14.6438   21.4234 H   0  0  0  0  0  0  0  0  0  0  0  0
   13.4183   12.7229   24.1258 H   0  0  0  0  0  0  0  0  0  0  0  0
   12.4767   14.1663   24.5038 H   0  0  0  0  0  0  0  0  0  0  0  0
   13.9229   14.2975   23.4875 H   0  0  0  0  0  0  0  0  0  0  0  0
   13.3785   11.7532   21.7771 H   0  0  0  0  0  0  0  0  0  0  0  0
   12.4244   12.5223   20.4963 H   0  0  0  0  0  0  0  0  0  0  0  0
   13.9015   13.2949   21.0967 H   0  0  0  0  0  0  0  0  0  0  0  0
   11.0063   11.7052   22.3931 H   0  0  0  0  0  0  0  0  0  0  0  0
  1  4  2  0  0  0  0
  1  5  1  0  0  0  0
  2  4  1  0  0  0  0
  2 14  2  0  0  0  0
  3  5  2  0  0  0  0
  3 14  1  0  0  0  0
  4  6  1  0  0  0  0
  5 20  1  0  0  0  0
  6 15  1  0  0  0  0
  6 16  2  0  0  0  0
  7  8  1  0  0  0  0
  7  9  1  0  0  0  0
  8 10  1  0  0  0  0
  9 19  1  0  0  0  0
 10 13  1  0  0  0  0
 10 19  1  0  0  0  0
 11 13  1  0  0  0  0
 12 13  1  0  0  0  0
 13 15  1  0  0  0  0
 17 22  2  0  0  0  0
 18 22  2  0  0  0  0
 20 22  1  0  0  0  0
 21 22  1  0  0  0  0
  1 23  1  0  0  0  0
  2 24  1  0  0  0  0
  3 25  1  0  0  0  0
  7 26  1  0  0  0  0
  7 27  1  0  0  0  0
  8 28  1  0  0  0  0
  8 29  1  0  0  0  0
  9 30  1  0  0  0  0
  9 31  1  0  0  0  0
 10 32  1  0  0  0  0
 11 33  1  0  0  0  0
 11 34  1  0  0  0  0
 11 35  1  0  0  0  0
 12 36  1  0  0  0  0
 12 37  1  0  0  0  0
 12 38  1  0  0  0  0
 15 39  1  0  0  0  0
M  END
> <Catalog ID>
Z4262576388

> <MW>
332.348

> <MW (desalted)>
332.348

> <ClogP>
-0.119

> <logS>
-2.399

> <HBD>
1

> <HBA>
5

> <TPSA>
94.59

> <RotBonds>
5

> <ROCS_ShapeQuery>
A71EV2A-x0451_0A_A71EV2A-x0310_0A_A71EV2A-x0416_0A_peptide

> <ROCS_TanimotoCombo>
0.528 

> <ROCS_ShapeTanimoto>
0.327 

> <ROCS_ColorTanimoto>
0.201 

> <ROCS_RefTversky>
0.292 

> <ROCS_RefColorTversky>
0.223 

> <ROCS_RefTverskyCombo>
0.515 

> <ROCS_FitTversky>
1.582 

> <ROCS_FitColorTversky>
0.672 

> <ROCS_FitTverskyCombo>
2.254 

> <ROCS_ColorScore>
-6.816

> <ROCS_Overlap>
2026.019

> <ROCS_Rank>
243                 

$$$$
untitled-dbase-2977_45
  -OEChem-11132309573D

 36 39  0     1  0  0  0  0  0999 V2000
   13.8578   16.0236   20.5297 C   0  0  0  0  0  0  0  0  0  0  0  0
   12.1045   14.8508   19.3517 C   0  0  0  0  0  0  0  0  0  0  0  0
   14.2131   16.6775   19.3500 C   0  0  0  0  0  0  0  0  0  0  0  0
   12.4598   15.5047   18.1719 C   0  0  0  0  0  0  0  0  0  0  0  0
    7.5420   12.7449   25.1829 C   0  0  0  0  0  0  0  0  0  0  0  0
    9.5006    9.8213   23.2591 C   0  0  0  0  0  0  0  0  0  0  0  0
    8.4207   11.9489   24.4248 C   0  0  0  0  0  0  0  0  0  0  0  0
   12.8035   15.1102   20.5306 C   0  0  0  0  0  0  0  0  0  0  0  0
   13.5141   16.4181   18.1711 C   0  0  0  0  0  0  0  0  0  0  0  0
    7.8938   10.6729   24.5221 C   0  0  0  0  0  0  0  0  0  0  0  0
    9.5789   12.0987   23.6694 C   0  0  0  0  0  0  0  0  0  0  0  0
   12.0302   14.9455   22.8924 C   0  0  0  0  0  0  0  0  0  0  0  0
   12.0694   13.0785   21.9318 C   0  0  0  0  0  0  0  0  0  0  0  0
   11.5923   13.5328   23.3303 C   0  0  2  0  0  0  0  0  0  0  0  0
    5.8850    9.7201   25.6892 C   0  0  0  0  0  0  0  0  0  0  0  0
    6.5395   12.0404   25.7194 N   0  0  0  0  0  0  0  0  0  0  0  0
    8.3802    9.5532   23.9640 N   0  0  0  0  0  0  0  0  0  0  0  0
   10.1249   11.0094   23.0775 N   0  0  0  0  0  0  0  0  0  0  0  0
    6.7799   10.7842   25.3001 N   0  0  0  0  0  0  0  0  0  0  0  0
   12.4528   14.4645   21.6950 N   0  0  0  0  0  0  0  0  0  0  0  0
   10.1825   13.3593   23.5158 N   0  0  0  0  0  0  0  0  0  0  0  0
   11.9867   16.0576   23.3671 O   0  0  0  0  0  0  0  0  0  0  0  0
   13.8544   17.0467   17.0382 F   0  0  0  0  0  0  0  0  0  0  0  0
   14.4099   16.2335   21.4423 H   0  0  0  0  0  0  0  0  0  0  0  0
   11.2828   14.1392   19.3401 H   0  0  0  0  0  0  0  0  0  0  0  0
   15.0342   17.3880   19.3487 H   0  0  0  0  0  0  0  0  0  0  0  0
   11.9150   15.3039   17.2542 H   0  0  0  0  0  0  0  0  0  0  0  0
    7.5855   13.8086   25.3697 H   0  0  0  0  0  0  0  0  0  0  0  0
    9.9642    8.9703   22.7717 H   0  0  0  0  0  0  0  0  0  0  0  0
   12.9213   12.3923   21.9341 H   0  0  0  0  0  0  0  0  0  0  0  0
   11.2992   12.7203   21.2416 H   0  0  0  0  0  0  0  0  0  0  0  0
   12.1704   13.1352   24.1694 H   0  0  0  0  0  0  0  0  0  0  0  0
    6.2512    9.2979   26.6287 H   0  0  0  0  0  0  0  0  0  0  0  0
    4.8761   10.1218   25.8182 H   0  0  0  0  0  0  0  0  0  0  0  0
    5.8691    8.9568   24.9062 H   0  0  0  0  0  0  0  0  0  0  0  0
    9.5799   14.1626   23.5415 H   0  0  0  0  0  0  0  0  0  0  0  0
  1  3  2  0  0  0  0
  1  8  1  0  0  0  0
  2  4  1  0  0  0  0
  2  8  2  0  0  0  0
  3  9  1  0  0  0  0
  4  9  2  0  0  0  0
  5  7  1  0  0  0  0
  5 16  2  0  0  0  0
  6 17  2  0  0  0  0
  6 18  1  0  0  0  0
  7 10  2  0  0  0  0
  7 11  1  0  0  0  0
  8 20  1  0  0  0  0
  9 23  1  0  0  0  0
 10 17  1  0  0  0  0
 10 19  1  0  0  0  0
 11 18  2  0  0  0  0
 11 21  1  0  0  0  0
 12 14  1  0  0  0  0
 12 20  1  0  0  0  0
 12 22  2  0  0  0  0
 13 14  1  0  0  0  0
 13 20  1  0  0  0  0
 14 21  1  0  0  0  0
 15 19  1  0  0  0  0
 16 19  1  0  0  0  0
  1 24  1  0  0  0  0
  2 25  1  0  0  0  0
  3 26  1  0  0  0  0
  4 27  1  0  0  0  0
  5 28  1  0  0  0  0
  6 29  1  0  0  0  0
 13 30  1  0  0  0  0
 13 31  1  0  0  0  0
 14 32  1  0  0  0  0
 15 33  1  0  0  0  0
 15 34  1  0  0  0  0
 15 35  1  0  0  0  0
 21 36  1  0  0  0  0
M  END
> <Catalog ID>
Z1665908065

> <MW>
312.302

> <MW (desalted)>
312.302

> <ClogP>
2.052

> <logS>
-4.024

> <HBD>
1

> <HBA>
5

> <TPSA>
75.94

> <RotBonds>
3

> <ROCS_ShapeQuery>
A71EV2A-x0451_0A_A71EV2A-x0310_0A_A71EV2A-x0416_0A_peptide

> <ROCS_TanimotoCombo>
0.528 

> <ROCS_ShapeTanimoto>
0.366 

> <ROCS_ColorTanimoto>
0.162 

> <ROCS_RefTversky>
0.322 

> <ROCS_RefColorTversky>
0.185 

> <ROCS_RefTverskyCombo>
0.507 

> <ROCS_FitTversky>
1.601 

> <ROCS_FitColorTversky>
0.557 

> <ROCS_FitTverskyCombo>
2.158 

> <ROCS_ColorScore>
-5.665

> <ROCS_Overlap>
2238.724

> <ROCS_Rank>
244                 

$$$$
untitled-dbase-8123_892
  -OEChem-11132309573D

 49 51  0     0  0  0  0  0  0999 V2000
    7.8290    9.9893   24.4787 C   0  0  0  0  0  0  0  0  0  0  0  0
    8.4818   12.6832   24.1184 C   0  0  0  0  0  0  0  0  0  0  0  0
    7.0008   10.9805   25.0159 C   0  0  0  0  0  0  0  0  0  0  0  0
    7.3360   12.3282   24.8340 C   0  0  0  0  0  0  0  0  0  0  0  0
    9.3085   11.6876   23.5986 C   0  0  0  0  0  0  0  0  0  0  0  0
    8.9843   10.3432   23.7804 C   0  0  0  0  0  0  0  0  0  0  0  0
    5.4353   13.0956   26.1928 C   0  0  0  0  0  0  0  0  0  0  0  0
   13.0899   15.5368   16.9966 C   0  0  0  0  0  0  0  0  0  0  0  0
   12.2407   15.9339   17.9466 C   0  0  0  0  0  0  0  0  0  0  0  0
   12.7726   16.2766   19.2806 C   0  0  0  0  0  0  0  0  0  0  0  0
   11.2495   13.1942   23.0629 C   0  0  0  0  0  0  0  0  0  0  0  0
    5.7047   10.6290   25.6876 C   0  0  0  0  0  0  0  0  0  0  0  0
    5.3279   11.6789   26.7221 C   0  0  0  0  0  0  0  0  0  0  0  0
   11.8893   13.1423   20.6595 C   0  0  0  0  0  0  0  0  0  0  0  0
   13.2933   14.4438   22.3401 C   0  0  0  0  0  0  0  0  0  0  0  0
   11.3346   14.4765   20.1596 C   0  0  0  0  0  0  0  0  0  0  0  0
   12.6919   15.7308   21.7756 C   0  0  0  0  0  0  0  0  0  0  0  0
   12.4027   13.2185   22.1021 C   0  0  0  0  0  0  0  0  0  0  0  0
    9.3674    8.0121   23.5066 C   0  0  0  0  0  0  0  0  0  0  0  0
    6.5017   13.3370   25.3480 N   0  0  0  0  0  0  0  0  0  0  0  0
   12.3106   15.5455   20.3708 N   0  0  0  0  0  0  0  0  0  0  0  0
   10.4723   12.0570   22.8834 N   0  0  0  0  0  0  0  0  0  0  0  0
    4.6707   13.9808   26.5767 O   0  0  0  0  0  0  0  0  0  0  0  0
   13.5918   17.1946   19.3485 O   0  0  0  0  0  0  0  0  0  0  0  0
   11.0881   14.1008   23.8735 O   0  0  0  0  0  0  0  0  0  0  0  0
    9.7770    9.3573   23.2716 O   0  0  0  0  0  0  0  0  0  0  0  0
    7.5692    8.9398   24.5955 H   0  0  0  0  0  0  0  0  0  0  0  0
    8.7337   13.7316   23.9735 H   0  0  0  0  0  0  0  0  0  0  0  0
   12.7593   15.2717   15.9979 H   0  0  0  0  0  0  0  0  0  0  0  0
   14.1516   15.4698   17.2091 H   0  0  0  0  0  0  0  0  0  0  0  0
   11.1755   16.0136   17.7729 H   0  0  0  0  0  0  0  0  0  0  0  0
    4.9253   10.5640   24.9184 H   0  0  0  0  0  0  0  0  0  0  0  0
    5.7761    9.6510   26.1770 H   0  0  0  0  0  0  0  0  0  0  0  0
    5.9913   11.6089   27.5933 H   0  0  0  0  0  0  0  0  0  0  0  0
    4.3029   11.5051   27.0670 H   0  0  0  0  0  0  0  0  0  0  0  0
   11.1129   12.3730   20.5693 H   0  0  0  0  0  0  0  0  0  0  0  0
   12.7157   12.8373   20.0047 H   0  0  0  0  0  0  0  0  0  0  0  0
   14.2675   14.2731   21.8643 H   0  0  0  0  0  0  0  0  0  0  0  0
   13.4816   14.5744   23.4126 H   0  0  0  0  0  0  0  0  0  0  0  0
   11.0726   14.3887   19.1004 H   0  0  0  0  0  0  0  0  0  0  0  0
   10.4200   14.7477   20.6995 H   0  0  0  0  0  0  0  0  0  0  0  0
   11.7814   16.0023   22.3227 H   0  0  0  0  0  0  0  0  0  0  0  0
   13.3869   16.5595   21.9145 H   0  0  0  0  0  0  0  0  0  0  0  0
   12.9836   12.3124   22.3156 H   0  0  0  0  0  0  0  0  0  0  0  0
   10.0851    7.3267   23.0491 H   0  0  0  0  0  0  0  0  0  0  0  0
    8.3734    7.8533   23.0809 H   0  0  0  0  0  0  0  0  0  0  0  0
    9.3329    7.8341   24.5840 H   0  0  0  0  0  0  0  0  0  0  0  0
    6.6943   14.2988   25.0829 H   0  0  0  0  0  0  0  0  0  0  0  0
   10.7629   11.4054   22.1573 H   0  0  0  0  0  0  0  0  0  0  0  0
  1  3  2  0  0  0  0
  1  6  1  0  0  0  0
  2  4  2  0  0  0  0
  2  5  1  0  0  0  0
  3  4  1  0  0  0  0
  3 12  1  0  0  0  0
  4 20  1  0  0  0  0
  5  6  2  0  0  0  0
  5 22  1  0  0  0  0
  6 26  1  0  0  0  0
  7 13  1  0  0  0  0
  7 20  1  0  0  0  0
  7 23  2  0  0  0  0
  8  9  2  0  0  0  0
  9 10  1  0  0  0  0
 10 21  1  0  0  0  0
 10 24  2  0  0  0  0
 11 18  1  0  0  0  0
 11 22  1  0  0  0  0
 11 25  2  0  0  0  0
 12 13  1  0  0  0  0
 14 16  1  0  0  0  0
 14 18  1  0  0  0  0
 15 17  1  0  0  0  0
 15 18  1  0  0  0  0
 16 21  1  0  0  0  0
 17 21  1  0  0  0  0
 19 26  1  0  0  0  0
  1 27  1  0  0  0  0
  2 28  1  0  0  0  0
  8 29  1  0  0  0  0
  8 30  1  0  0  0  0
  9 31  1  0  0  0  0
 12 32  1  0  0  0  0
 12 33  1  0  0  0  0
 13 34  1  0  0  0  0
 13 35  1  0  0  0  0
 14 36  1  0  0  0  0
 14 37  1  0  0  0  0
 15 38  1  0  0  0  0
 15 39  1  0  0  0  0
 16 40  1  0  0  0  0
 16 41  1  0  0  0  0
 17 42  1  0  0  0  0
 17 43  1  0  0  0  0
 18 44  1  0  0  0  0
 19 45  1  0  0  0  0
 19 46  1  0  0  0  0
 19 47  1  0  0  0  0
 20 48  1  0  0  0  0
 22 49  1  0  0  0  0
M  END
> <Catalog ID>
Z1703889362

> <MW>
357.404

> <MW (desalted)>
357.404

> <ClogP>
-0.45

> <logS>
-2.907

> <HBD>
2

> <HBA>
4

> <TPSA>
87.74

> <RotBonds>
4

> <ROCS_ShapeQuery>
A71EV2A-x0451_0A_A71EV2A-x0310_0A_A71EV2A-x0416_0A_peptide

> <ROCS_TanimotoCombo>
0.528 

> <ROCS_ShapeTanimoto>
0.382 

> <ROCS_ColorTanimoto>
0.146 

> <ROCS_RefTversky>
0.335 

> <ROCS_RefColorTversky>
0.174 

> <ROCS_RefTverskyCombo>
0.508 

> <ROCS_FitTversky>
1.580 

> <ROCS_FitColorTversky>
0.479 

> <ROCS_FitTverskyCombo>
2.060 

> <ROCS_ColorScore>
-5.316

> <ROCS_Overlap>
2328.515

> <ROCS_Rank>
245                 

$$$$
untitled-dbase-6244_2403
  -OEChem-11132309573D

 48 50  0     0  0  0  0  0  0999 V2000
    8.9376    9.4851   23.5946 C   0  0  0  0  0  0  0  0  0  0  0  0
   12.6762   15.6375   22.6565 C   0  0  0  0  0  0  0  0  0  0  0  0
   11.6301   14.5210   20.7868 C   0  0  0  0  0  0  0  0  0  0  0  0
    9.7656   10.4312   22.9795 C   0  0  0  0  0  0  0  0  0  0  0  0
   13.4859   16.3543   21.7756 C   0  0  0  0  0  0  0  0  0  0  0  0
   12.4397   15.2378   19.9057 C   0  0  0  0  0  0  0  0  0  0  0  0
    6.9525    9.2625   25.2720 C   0  0  0  0  0  0  0  0  0  0  0  0
    8.6333   12.2481   24.1290 C   0  0  0  0  0  0  0  0  0  0  0  0
    6.2553   10.2253   25.9648 C   0  0  0  0  0  0  0  0  0  0  0  0
    7.9418    9.9223   24.4905 C   0  0  0  0  0  0  0  0  0  0  0  0
   11.7483   14.7208   22.1622 C   0  0  0  0  0  0  0  0  0  0  0  0
    7.8129   11.2909   24.7365 C   0  0  0  0  0  0  0  0  0  0  0  0
   13.3677   16.1545   20.4001 C   0  0  0  0  0  0  0  0  0  0  0  0
    9.6140   11.7909   23.2441 C   0  0  0  0  0  0  0  0  0  0  0  0
   16.5088   17.6122   17.8552 C   0  0  0  0  0  0  0  0  0  0  0  0
   15.2151   17.7369   17.5428 C   0  0  0  0  0  0  0  0  0  0  0  0
   10.8934   13.9637   23.0925 C   0  0  0  0  0  0  0  0  0  0  0  0
   14.2019   16.8064   18.1198 C   0  0  0  0  0  0  0  0  0  0  0  0
    5.3948   12.5363   27.3584 C   0  0  0  0  0  0  0  0  0  0  0  0
    5.4814   12.3966   29.8403 C   0  0  0  0  0  0  0  0  0  0  0  0
    6.3091   12.7068   26.1642 C   0  0  0  0  0  0  0  0  0  0  0  0
    6.7814   11.4455   25.6350 N   0  0  0  0  0  0  0  0  0  0  0  0
   10.4540   12.7125   22.6162 N   0  0  0  0  0  0  0  0  0  0  0  0
   14.1779   16.8720   19.5198 N   0  0  0  0  0  0  0  0  0  0  0  0
    6.1091   12.5444   28.5477 N   0  0  0  0  0  0  0  0  0  0  0  0
   10.5762   14.4320   24.1838 O   0  0  0  0  0  0  0  0  0  0  0  0
   13.5076   16.0977   17.4006 O   0  0  0  0  0  0  0  0  0  0  0  0
    4.1772   12.4061   27.2655 O   0  0  0  0  0  0  0  0  0  0  0  0
    9.0666    8.4282   23.3795 H   0  0  0  0  0  0  0  0  0  0  0  0
   12.7769   15.8005   23.7264 H   0  0  0  0  0  0  0  0  0  0  0  0
   10.9104   13.8091   20.3907 H   0  0  0  0  0  0  0  0  0  0  0  0
   10.5324   10.0875   22.2888 H   0  0  0  0  0  0  0  0  0  0  0  0
   14.2056   17.0667   22.1712 H   0  0  0  0  0  0  0  0  0  0  0  0
   12.3389   15.0738   18.8357 H   0  0  0  0  0  0  0  0  0  0  0  0
    6.7701    8.1977   25.3227 H   0  0  0  0  0  0  0  0  0  0  0  0
    8.5120   13.3066   24.3379 H   0  0  0  0  0  0  0  0  0  0  0  0
    5.4320   10.1415   26.6614 H   0  0  0  0  0  0  0  0  0  0  0  0
   17.2730   18.2694   17.4556 H   0  0  0  0  0  0  0  0  0  0  0  0
   16.8297   16.8287   18.5337 H   0  0  0  0  0  0  0  0  0  0  0  0
   14.8934   18.5200   16.8648 H   0  0  0  0  0  0  0  0  0  0  0  0
    5.2435   13.3899   30.2487 H   0  0  0  0  0  0  0  0  0  0  0  0
    4.5552   11.8129   29.7334 H   0  0  0  0  0  0  0  0  0  0  0  0
    6.1673   11.8742   30.5234 H   0  0  0  0  0  0  0  0  0  0  0  0
    7.1821   13.3052   26.4482 H   0  0  0  0  0  0  0  0  0  0  0  0
    5.7795   13.2340   25.3626 H   0  0  0  0  0  0  0  0  0  0  0  0
   10.7958   12.4437   21.6868 H   0  0  0  0  0  0  0  0  0  0  0  0
   14.8386   17.5299   19.9509 H   0  0  0  0  0  0  0  0  0  0  0  0
    7.1214   12.6234   28.5194 H   0  0  0  0  0  0  0  0  0  0  0  0
  1  4  2  0  0  0  0
  1 10  1  0  0  0  0
  2  5  2  0  0  0  0
  2 11  1  0  0  0  0
  3  6  1  0  0  0  0
  3 11  2  0  0  0  0
  4 14  1  0  0  0  0
  5 13  1  0  0  0  0
  6 13  2  0  0  0  0
  7  9  2  0  0  0  0
  7 10  1  0  0  0  0
  8 12  1  0  0  0  0
  8 14  2  0  0  0  0
  9 22  1  0  0  0  0
 10 12  2  0  0  0  0
 11 17  1  0  0  0  0
 12 22  1  0  0  0  0
 13 24  1  0  0  0  0
 14 23  1  0  0  0  0
 15 16  2  0  0  0  0
 16 18  1  0  0  0  0
 17 23  1  0  0  0  0
 17 26  2  0  0  0  0
 18 24  1  0  0  0  0
 18 27  2  0  0  0  0
 19 21  1  0  0  0  0
 19 25  1  0  0  0  0
 19 28  2  0  0  0  0
 20 25  1  0  0  0  0
 21 22  1  0  0  0  0
  1 29  1  0  0  0  0
  2 30  1  0  0  0  0
  3 31  1  0  0  0  0
  4 32  1  0  0  0  0
  5 33  1  0  0  0  0
  6 34  1  0  0  0  0
  7 35  1  0  0  0  0
  8 36  1  0  0  0  0
  9 37  1  0  0  0  0
 15 38  1  0  0  0  0
 15 39  1  0  0  0  0
 16 40  1  0  0  0  0
 20 41  1  0  0  0  0
 20 42  1  0  0  0  0
 20 43  1  0  0  0  0
 21 44  1  0  0  0  0
 21 45  1  0  0  0  0
 23 46  1  0  0  0  0
 24 47  1  0  0  0  0
 25 48  1  0  0  0  0
M  END
> <Catalog ID>
Z1316953369

> <MW>
376.409

> <MW (desalted)>
376.409

> <ClogP>
1.796

> <logS>
-4.563

> <HBD>
3

> <HBA>
3

> <TPSA>
92.23

> <RotBonds>
6

> <ROCS_ShapeQuery>
A71EV2A-x0451_0A_A71EV2A-x0310_0A_A71EV2A-x0416_0A_peptide

> <ROCS_TanimotoCombo>
0.528 

> <ROCS_ShapeTanimoto>
0.381 

> <ROCS_ColorTanimoto>
0.147 

> <ROCS_RefTversky>
0.338 

> <ROCS_RefColorTversky>
0.174 

> <ROCS_RefTverskyCombo>
0.513 

> <ROCS_FitTversky>
1.496 

> <ROCS_FitColorTversky>
0.480 

> <ROCS_FitTverskyCombo>
1.977 

> <ROCS_ColorScore>
-5.334

> <ROCS_Overlap>
2354.765

> <ROCS_Rank>
246                 

$$$$
untitled-dbase-4767_1801
  -OEChem-11132309573D

 46 48  0     1  0  0  0  0  0999 V2000
    7.0265    9.8077   24.9632 C   0  0  0  0  0  0  0  0  0  0  0  0
    7.5873   12.5524   25.2810 C   0  0  0  0  0  0  0  0  0  0  0  0
    8.0978   10.4063   24.3147 C   0  0  0  0  0  0  0  0  0  0  0  0
    8.3834   11.7703   24.4582 C   0  0  0  0  0  0  0  0  0  0  0  0
    6.5066   11.9571   25.9445 C   0  0  0  0  0  0  0  0  0  0  0  0
    6.2267   10.5948   25.7868 C   0  0  0  0  0  0  0  0  0  0  0  0
   15.3195   11.9026   25.3637 C   0  0  0  0  0  0  0  0  0  0  0  0
   14.5558   12.2271   24.3183 C   0  0  0  0  0  0  0  0  0  0  0  0
   14.0083   13.5957   24.2326 C   0  0  0  0  0  0  0  0  0  0  0  0
   10.1692   13.2955   23.4504 C   0  0  0  0  0  0  0  0  0  0  0  0
    9.0411    9.7393   23.3678 C   0  0  0  0  0  0  0  0  0  0  0  0
   11.7827   15.8351   22.5657 C   0  0  0  0  0  0  0  0  0  0  0  0
   10.8858   14.9286   21.7241 C   0  0  0  0  0  0  0  0  0  0  0  0
   10.0705   10.8421   23.1322 C   0  0  0  0  0  0  0  0  0  0  0  0
   13.2018   15.2871   22.6347 C   0  0  0  0  0  0  0  0  0  0  0  0
   12.3872   12.9674   22.3596 C   0  0  0  0  0  0  0  0  0  0  0  0
   10.9503   13.4694   22.1794 C   0  0  1  0  0  0  0  0  0  0  0  0
    9.5254   12.0938   23.6913 N   0  0  0  0  0  0  0  0  0  0  0  0
   13.2141   13.9098   23.1318 N   0  0  0  0  0  0  0  0  0  0  0  0
    6.3490   12.8262   28.4607 N   0  0  0  0  0  0  0  0  0  0  0  0
   14.2911   14.3796   25.1403 O   0  0  0  0  0  0  0  0  0  0  0  0
   10.1362   14.2363   24.2530 O   0  0  0  0  0  0  0  0  0  0  0  0
    5.6773   14.3607   26.5011 O   0  0  0  0  0  0  0  0  0  0  0  0
    4.2087   12.4005   27.0916 O   0  0  0  0  0  0  0  0  0  0  0  0
    5.5302   12.9936   26.9723 S   0  0  0  0  0  0  0  0  0  0  0  0
    4.7709    9.7536   26.6681 Br  0  0  0  0  0  0  0  0  0  0  0  0
    6.8313    8.7489   24.8206 H   0  0  0  0  0  0  0  0  0  0  0  0
    7.7797   13.6125   25.4236 H   0  0  0  0  0  0  0  0  0  0  0  0
   15.7499   10.9139   25.4821 H   0  0  0  0  0  0  0  0  0  0  0  0
   15.5298   12.6380   26.1331 H   0  0  0  0  0  0  0  0  0  0  0  0
   14.3240   11.5217   23.5310 H   0  0  0  0  0  0  0  0  0  0  0  0
    9.4976    8.8598   23.8279 H   0  0  0  0  0  0  0  0  0  0  0  0
    8.5333    9.4645   22.4404 H   0  0  0  0  0  0  0  0  0  0  0  0
   11.7970   16.8403   22.1292 H   0  0  0  0  0  0  0  0  0  0  0  0
   11.3743   15.9349   23.5786 H   0  0  0  0  0  0  0  0  0  0  0  0
    9.8562   15.3026   21.7583 H   0  0  0  0  0  0  0  0  0  0  0  0
   11.2108   14.9812   20.6779 H   0  0  0  0  0  0  0  0  0  0  0  0
   11.0232   10.6144   23.6254 H   0  0  0  0  0  0  0  0  0  0  0  0
   10.2692   10.9848   22.0632 H   0  0  0  0  0  0  0  0  0  0  0  0
   13.6581   15.2770   21.6375 H   0  0  0  0  0  0  0  0  0  0  0  0
   13.8176   15.9368   23.2648 H   0  0  0  0  0  0  0  0  0  0  0  0
   12.3641   11.9796   22.8213 H   0  0  0  0  0  0  0  0  0  0  0  0
   12.8645   12.8635   21.3784 H   0  0  0  0  0  0  0  0  0  0  0  0
   10.4443   12.8454   21.4339 H   0  0  0  0  0  0  0  0  0  0  0  0
    6.8909   13.6288   28.8038 H   0  0  0  0  0  0  0  0  0  0  0  0
    5.8887   12.2876   29.2045 H   0  0  0  0  0  0  0  0  0  0  0  0
  1  3  2  0  0  0  0
  1  6  1  0  0  0  0
  2  4  2  0  0  0  0
  2  5  1  0  0  0  0
  3  4  1  0  0  0  0
  3 11  1  0  0  0  0
  4 18  1  0  0  0  0
  5  6  2  0  0  0  0
  5 25  1  0  0  0  0
  6 26  1  0  0  0  0
  7  8  2  0  0  0  0
  8  9  1  0  0  0  0
  9 19  1  0  0  0  0
  9 21  2  0  0  0  0
 10 17  1  0  0  0  0
 10 18  1  0  0  0  0
 10 22  2  0  0  0  0
 11 14  1  0  0  0  0
 12 13  1  0  0  0  0
 12 15  1  0  0  0  0
 13 17  1  0  0  0  0
 14 18  1  0  0  0  0
 15 19  1  0  0  0  0
 16 17  1  0  0  0  0
 16 19  1  0  0  0  0
 20 25  1  0  0  0  0
 23 25  2  0  0  0  0
 24 25  2  0  0  0  0
  1 27  1  0  0  0  0
  2 28  1  0  0  0  0
  7 29  1  0  0  0  0
  7 30  1  0  0  0  0
  8 31  1  0  0  0  0
 11 32  1  0  0  0  0
 11 33  1  0  0  0  0
 12 34  1  0  0  0  0
 12 35  1  0  0  0  0
 13 36  1  0  0  0  0
 13 37  1  0  0  0  0
 14 38  1  0  0  0  0
 14 39  1  0  0  0  0
 15 40  1  0  0  0  0
 15 41  1  0  0  0  0
 16 42  1  0  0  0  0
 16 43  1  0  0  0  0
 17 44  1  0  0  0  0
 20 45  1  0  0  0  0
 20 46  1  0  0  0  0
M  END
> <Catalog ID>
Z3756437706

> <MW>
442.327

> <MW (desalted)>
442.327

> <ClogP>
0.969

> <logS>
-4.313

> <HBD>
1

> <HBA>
4

> <TPSA>
100.78

> <RotBonds>
3

> <ROCS_ShapeQuery>
A71EV2A-x0451_0A_A71EV2A-x0310_0A_A71EV2A-x0416_0A_peptide

> <ROCS_TanimotoCombo>
0.528 

> <ROCS_ShapeTanimoto>
0.376 

> <ROCS_ColorTanimoto>
0.152 

> <ROCS_RefTversky>
0.330 

> <ROCS_RefColorTversky>
0.180 

> <ROCS_RefTverskyCombo>
0.510 

> <ROCS_FitTversky>
1.589 

> <ROCS_FitColorTversky>
0.496 

> <ROCS_FitTverskyCombo>
2.085 

> <ROCS_ColorScore>
-5.506

> <ROCS_Overlap>
2292.363

> <ROCS_Rank>
247                 

$$$$
untitled-dbase-8768_2601
  -OEChem-11132309573D

 55 57  0     0  0  0  0  0  0999 V2000
    9.5231   12.0021   23.6999 C   0  0  0  0  0  0  0  0  0  0  0  0
    8.2497   11.8550   24.2766 C   0  0  0  0  0  0  0  0  0  0  0  0
    9.8659   10.7263   23.3379 C   0  0  0  0  0  0  0  0  0  0  0  0
   14.4915   11.5000   24.8308 C   0  0  0  0  0  0  0  0  0  0  0  0
   14.0829   11.6819   23.5714 C   0  0  0  0  0  0  0  0  0  0  0  0
   10.3466   13.2230   23.5047 C   0  0  0  0  0  0  0  0  0  0  0  0
   13.6186   13.0196   23.1164 C   0  0  0  0  0  0  0  0  0  0  0  0
   13.2392   16.0804   18.8411 C   0  0  0  0  0  0  0  0  0  0  0  0
    5.6176   13.2059   26.5183 C   0  0  0  0  0  0  0  0  0  0  0  0
    4.9507   12.7776   25.2233 C   0  0  0  0  0  0  0  0  0  0  0  0
   13.5496   16.4846   20.2783 C   0  0  0  0  0  0  0  0  0  0  0  0
   12.1222   15.0448   18.7706 C   0  0  0  0  0  0  0  0  0  0  0  0
    7.0445   12.7060   26.3517 C   0  0  0  0  0  0  0  0  0  0  0  0
    6.0005   13.0754   24.1588 C   0  0  0  0  0  0  0  0  0  0  0  0
   13.8534   15.2693   21.1536 C   0  0  0  0  0  0  0  0  0  0  0  0
   12.4249   13.8283   19.6446 C   0  0  0  0  0  0  0  0  0  0  0  0
    7.3648   12.9253   24.8622 C   0  0  0  0  0  0  0  0  0  0  0  0
   12.7516   14.1906   21.1091 C   0  0  0  0  0  0  0  0  0  0  0  0
   11.0428   10.1299   22.6917 C   0  0  0  0  0  0  0  0  0  0  0  0
   11.4876   14.6696   21.8430 C   0  0  0  0  0  0  0  0  0  0  0  0
    7.8345   10.5852   24.2725 N   0  0  0  0  0  0  0  0  0  0  0  0
   10.6864   13.5474   22.1871 N   0  0  0  0  0  0  0  0  0  0  0  0
   13.2410   12.9997   21.7904 N   0  0  0  0  0  0  0  0  0  0  0  0
   10.7033   13.8694   24.4863 O   0  0  0  0  0  0  0  0  0  0  0  0
   13.5921   13.9966   23.8580 O   0  0  0  0  0  0  0  0  0  0  0  0
    8.8662    9.8717   23.6744 O   0  0  0  0  0  0  0  0  0  0  0  0
   14.8277   10.5209   25.1557 H   0  0  0  0  0  0  0  0  0  0  0  0
   14.5051   12.3005   25.5622 H   0  0  0  0  0  0  0  0  0  0  0  0
   14.0853   10.8540   22.8708 H   0  0  0  0  0  0  0  0  0  0  0  0
   12.9472   16.9700   18.2678 H   0  0  0  0  0  0  0  0  0  0  0  0
   14.1438   15.6810   18.3667 H   0  0  0  0  0  0  0  0  0  0  0  0
    5.6061   14.2983   26.6104 H   0  0  0  0  0  0  0  0  0  0  0  0
    5.1286   12.7811   27.3994 H   0  0  0  0  0  0  0  0  0  0  0  0
    4.7357   11.7027   25.2464 H   0  0  0  0  0  0  0  0  0  0  0  0
    4.0124   13.3091   25.0399 H   0  0  0  0  0  0  0  0  0  0  0  0
   14.4018   17.1750   20.2898 H   0  0  0  0  0  0  0  0  0  0  0  0
   12.6965   17.0316   20.6961 H   0  0  0  0  0  0  0  0  0  0  0  0
   11.1819   15.5025   19.0994 H   0  0  0  0  0  0  0  0  0  0  0  0
   11.9693   14.7366   17.7298 H   0  0  0  0  0  0  0  0  0  0  0  0
    7.7406   13.2428   27.0039 H   0  0  0  0  0  0  0  0  0  0  0  0
    7.0961   11.6429   26.6178 H   0  0  0  0  0  0  0  0  0  0  0  0
    5.8801   12.4264   23.2849 H   0  0  0  0  0  0  0  0  0  0  0  0
    5.8819   14.1110   23.8160 H   0  0  0  0  0  0  0  0  0  0  0  0
   14.8220   14.8389   20.8564 H   0  0  0  0  0  0  0  0  0  0  0  0
   13.9850   15.6136   22.1914 H   0  0  0  0  0  0  0  0  0  0  0  0
   11.5515   13.1579   19.6208 H   0  0  0  0  0  0  0  0  0  0  0  0
   13.2534   13.2566   19.1999 H   0  0  0  0  0  0  0  0  0  0  0  0
    7.9149   13.8899   24.7551 H   0  0  0  0  0  0  0  0  0  0  0  0
   11.7988    9.8204   23.4355 H   0  0  0  0  0  0  0  0  0  0  0  0
   10.7861    9.2368   22.0920 H   0  0  0  0  0  0  0  0  0  0  0  0
   11.5371   10.8284   21.9908 H   0  0  0  0  0  0  0  0  0  0  0  0
   11.8217   15.1969   22.7317 H   0  0  0  0  0  0  0  0  0  0  0  0
   10.9603   15.3303   21.1611 H   0  0  0  0  0  0  0  0  0  0  0  0
   10.3941   12.9112   21.4373 H   0  0  0  0  0  0  0  0  0  0  0  0
   13.3235   12.1563   21.2386 H   0  0  0  0  0  0  0  0  0  0  0  0
  1  2  1  0  0  0  0
  1  3  2  0  0  0  0
  1  6  1  0  0  0  0
  2 17  1  0  0  0  0
  2 21  2  0  0  0  0
  3 19  1  0  0  0  0
  3 26  1  0  0  0  0
  4  5  2  0  0  0  0
  5  7  1  0  0  0  0
  6 22  1  0  0  0  0
  6 24  2  0  0  0  0
  7 23  1  0  0  0  0
  7 25  2  0  0  0  0
  8 11  1  0  0  0  0
  8 12  1  0  0  0  0
  9 10  1  0  0  0  0
  9 13  1  0  0  0  0
 10 14  1  0  0  0  0
 11 15  1  0  0  0  0
 12 16  1  0  0  0  0
 13 17  1  0  0  0  0
 14 17  1  0  0  0  0
 15 18  1  0  0  0  0
 16 18  1  0  0  0  0
 18 20  1  0  0  0  0
 18 23  1  0  0  0  0
 20 22  1  0  0  0  0
 21 26  1  0  0  0  0
  4 27  1  0  0  0  0
  4 28  1  0  0  0  0
  5 29  1  0  0  0  0
  8 30  1  0  0  0  0
  8 31  1  0  0  0  0
  9 32  1  0  0  0  0
  9 33  1  0  0  0  0
 10 34  1  0  0  0  0
 10 35  1  0  0  0  0
 11 36  1  0  0  0  0
 11 37  1  0  0  0  0
 12 38  1  0  0  0  0
 12 39  1  0  0  0  0
 13 40  1  0  0  0  0
 13 41  1  0  0  0  0
 14 42  1  0  0  0  0
 14 43  1  0  0  0  0
 15 44  1  0  0  0  0
 15 45  1  0  0  0  0
 16 46  1  0  0  0  0
 16 47  1  0  0  0  0
 17 48  1  0  0  0  0
 19 49  1  0  0  0  0
 19 50  1  0  0  0  0
 19 51  1  0  0  0  0
 20 52  1  0  0  0  0
 20 53  1  0  0  0  0
 22 54  1  0  0  0  0
 23 55  1  0  0  0  0
M  END
> <Catalog ID>
Z4425283150

> <MW>
359.463

> <MW (desalted)>
359.463

> <ClogP>
2.569

> <logS>
-4.654

> <HBD>
2

> <HBA>
3

> <TPSA>
84.23

> <RotBonds>
6

> <ROCS_ShapeQuery>
A71EV2A-x0451_0A_A71EV2A-x0310_0A_A71EV2A-x0416_0A_peptide

> <ROCS_TanimotoCombo>
0.528 

> <ROCS_ShapeTanimoto>
0.346 

> <ROCS_ColorTanimoto>
0.181 

> <ROCS_RefTversky>
0.311 

> <ROCS_RefColorTversky>
0.204 

> <ROCS_RefTverskyCombo>
0.515 

> <ROCS_FitTversky>
1.488 

> <ROCS_FitColorTversky>
0.616 

> <ROCS_FitTverskyCombo>
2.104 

> <ROCS_ColorScore>
-6.245

> <ROCS_Overlap>
2162.815

> <ROCS_Rank>
248                 

$$$$
untitled-dbase-2447_4255
  -OEChem-11132309573D

 42 44  0     1  0  0  0  0  0999 V2000
   14.1346   16.1654   18.3792 C   0  0  0  0  0  0  0  0  0  0  0  0
   14.4992   16.7956   19.5690 C   0  0  0  0  0  0  0  0  0  0  0  0
   13.0594   15.2769   18.3617 C   0  0  0  0  0  0  0  0  0  0  0  0
   13.7887   16.5372   20.7412 C   0  0  0  0  0  0  0  0  0  0  0  0
   12.3489   15.0185   19.5339 C   0  0  0  0  0  0  0  0  0  0  0  0
   12.7136   15.6487   20.7237 C   0  0  0  0  0  0  0  0  0  0  0  0
    6.2238   12.2448   25.6740 C   0  0  0  0  0  0  0  0  0  0  0  0
   10.7083   13.6342   23.0197 C   0  0  0  0  0  0  0  0  0  0  0  0
    8.0367    9.5131   24.0011 C   0  0  0  0  0  0  0  0  0  0  0  0
    9.2139   10.1922   23.2959 C   0  0  0  0  0  0  0  0  0  0  0  0
    7.6061   10.2333   25.2719 C   0  0  0  0  0  0  0  0  0  0  0  0
    8.1776   12.3609   24.0794 C   0  0  0  0  0  0  0  0  0  0  0  0
    6.5855   14.7227   26.2687 C   0  0  0  0  0  0  0  0  0  0  0  0
    5.9745   13.6920   25.3879 C   0  0  2  0  0  0  0  0  0  0  0  0
    9.4799   11.6111   23.8052 C   0  0  2  0  0  0  0  0  0  0  0  0
   11.9490   15.3701   21.9844 C   0  0  0  0  0  0  0  0  0  0  0  0
    7.3028   11.6426   25.0167 N   0  0  0  0  0  0  0  0  0  0  0  0
   10.2752   12.3373   22.8372 N   0  0  0  0  0  0  0  0  0  0  0  0
    5.4837   11.6771   26.4729 O   0  0  0  0  0  0  0  0  0  0  0  0
   10.4841   14.3322   24.0031 O   0  0  0  0  0  0  0  0  0  0  0  0
    5.2185   14.3205   26.4148 O   0  0  0  0  0  0  0  0  0  0  0  0
   11.4329   14.0353   21.9327 O   0  0  0  0  0  0  0  0  0  0  0  0
   14.6870   16.3678   17.4663 H   0  0  0  0  0  0  0  0  0  0  0  0
   15.3356   17.4882   19.5826 H   0  0  0  0  0  0  0  0  0  0  0  0
   12.7745   14.7870   17.4353 H   0  0  0  0  0  0  0  0  0  0  0  0
   14.0801   17.0326   21.6637 H   0  0  0  0  0  0  0  0  0  0  0  0
   11.5127   14.3247   19.5107 H   0  0  0  0  0  0  0  0  0  0  0  0
    7.1834    9.4480   23.3053 H   0  0  0  0  0  0  0  0  0  0  0  0
    8.3102    8.4716   24.2451 H   0  0  0  0  0  0  0  0  0  0  0  0
   10.1178    9.5672   23.4213 H   0  0  0  0  0  0  0  0  0  0  0  0
    9.0111   10.2158   22.2077 H   0  0  0  0  0  0  0  0  0  0  0  0
    6.6946    9.7764   25.6800 H   0  0  0  0  0  0  0  0  0  0  0  0
    8.3857   10.1356   26.0368 H   0  0  0  0  0  0  0  0  0  0  0  0
    8.4033   13.3744   24.4446 H   0  0  0  0  0  0  0  0  0  0  0  0
    7.5978   12.4916   23.1478 H   0  0  0  0  0  0  0  0  0  0  0  0
    7.2805   14.4280   27.0443 H   0  0  0  0  0  0  0  0  0  0  0  0
    6.7762   15.6946   25.8323 H   0  0  0  0  0  0  0  0  0  0  0  0
    5.7592   13.9170   24.3660 H   0  0  0  0  0  0  0  0  0  0  0  0
   10.0770   11.5681   24.7153 H   0  0  0  0  0  0  0  0  0  0  0  0
   12.5942   15.4697   22.8639 H   0  0  0  0  0  0  0  0  0  0  0  0
   11.1165   16.0730   22.0963 H   0  0  0  0  0  0  0  0  0  0  0  0
   10.5287   11.8647   21.9747 H   0  0  0  0  0  0  0  0  0  0  0  0
  1  2  1  0  0  0  0
  1  3  2  0  0  0  0
  2  4  2  0  0  0  0
  3  5  1  0  0  0  0
  4  6  1  0  0  0  0
  5  6  2  0  0  0  0
  6 16  1  0  0  0  0
  7 14  1  0  0  0  0
  7 17  1  0  0  0  0
  7 19  2  0  0  0  0
  8 18  1  0  0  0  0
  8 20  2  0  0  0  0
  8 22  1  0  0  0  0
  9 10  1  0  0  0  0
  9 11  1  0  0  0  0
 10 15  1  0  0  0  0
 11 17  1  0  0  0  0
 12 15  1  0  0  0  0
 12 17  1  0  0  0  0
 13 14  1  0  0  0  0
 13 21  1  0  0  0  0
 14 21  1  0  0  0  0
 15 18  1  0  0  0  0
 16 22  1  0  0  0  0
  1 23  1  0  0  0  0
  2 24  1  0  0  0  0
  3 25  1  0  0  0  0
  4 26  1  0  0  0  0
  5 27  1  0  0  0  0
  9 28  1  0  0  0  0
  9 29  1  0  0  0  0
 10 30  1  0  0  0  0
 10 31  1  0  0  0  0
 11 32  1  0  0  0  0
 11 33  1  0  0  0  0
 12 34  1  0  0  0  0
 12 35  1  0  0  0  0
 13 36  1  0  0  0  0
 13 37  1  0  0  0  0
 14 38  1  0  0  0  0
 15 39  1  0  0  0  0
 16 40  1  0  0  0  0
 16 41  1  0  0  0  0
 18 42  1  0  0  0  0
M  END
> <Catalog ID>
Z3687632437

> <MW>
304.341

> <MW (desalted)>
304.341

> <ClogP>
2.809

> <logS>
-3.226

> <HBD>
1

> <HBA>
3

> <TPSA>
71.17

> <RotBonds>
5

> <ROCS_ShapeQuery>
A71EV2A-x0451_0A_A71EV2A-x0310_0A_A71EV2A-x0416_0A_peptide

> <ROCS_TanimotoCombo>
0.528 

> <ROCS_ShapeTanimoto>
0.335 

> <ROCS_ColorTanimoto>
0.192 

> <ROCS_RefTversky>
0.298 

> <ROCS_RefColorTversky>
0.200 

> <ROCS_RefTverskyCombo>
0.498 

> <ROCS_FitTversky>
1.604 

> <ROCS_FitColorTversky>
0.835 

> <ROCS_FitTverskyCombo>
2.439 

> <ROCS_ColorScore>
-6.086

> <ROCS_Overlap>
2066.579

> <ROCS_Rank>
249                 

$$$$
untitled-dbase-3581_2311
  -OEChem-11132309573D

 47 49  0     0  0  0  0  0  0999 V2000
   10.4347   15.6680   21.9058 C   0  0  0  0  0  0  0  0  0  0  0  0
   14.0431   15.1838   18.6602 C   0  0  0  0  0  0  0  0  0  0  0  0
   14.1392   16.5651   18.4924 C   0  0  0  0  0  0  0  0  0  0  0  0
    7.1816   10.3436   25.0416 C   0  0  0  0  0  0  0  0  0  0  0  0
    8.0852    9.5569   24.3274 C   0  0  0  0  0  0  0  0  0  0  0  0
   13.2137   14.6575   19.6507 C   0  0  0  0  0  0  0  0  0  0  0  0
   12.5767   16.8941   20.3056 C   0  0  0  0  0  0  0  0  0  0  0  0
    8.3337   12.3355   24.3055 C   0  0  0  0  0  0  0  0  0  0  0  0
   11.5722    8.7582   21.7088 C   0  0  0  0  0  0  0  0  0  0  0  0
    9.9866    7.9959   22.8320 C   0  0  0  0  0  0  0  0  0  0  0  0
   13.4061   17.4203   19.3151 C   0  0  0  0  0  0  0  0  0  0  0  0
    7.3058   11.7329   25.0306 C   0  0  0  0  0  0  0  0  0  0  0  0
    9.1131   10.1595   23.6022 C   0  0  0  0  0  0  0  0  0  0  0  0
   12.4806   15.5127   20.4734 C   0  0  0  0  0  0  0  0  0  0  0  0
    9.2374   11.5489   23.5912 C   0  0  0  0  0  0  0  0  0  0  0  0
   10.8944   13.3961   23.1597 C   0  0  0  0  0  0  0  0  0  0  0  0
   14.6226   19.5084   19.9833 C   0  0  0  0  0  0  0  0  0  0  0  0
   13.5097   18.8971   19.1359 C   0  0  0  0  0  0  0  0  0  0  0  0
   11.9502   13.7164   22.1193 C   0  0  0  0  0  0  0  0  0  0  0  0
    6.3391   12.5729   25.7952 C   0  0  0  0  0  0  0  0  0  0  0  0
    9.4692   16.2069   22.2581 N   0  0  0  0  0  0  0  0  0  0  0  0
   10.9793    7.5848   22.0777 N   0  0  0  0  0  0  0  0  0  0  0  0
   11.0088    9.8695   22.1873 N   0  0  0  0  0  0  0  0  0  0  0  0
    9.9972    9.3541   22.9023 N   0  0  0  0  0  0  0  0  0  0  0  0
   10.2701   12.1872   22.8640 N   0  0  0  0  0  0  0  0  0  0  0  0
   11.6417   14.9805   21.4745 N   0  0  0  0  0  0  0  0  0  0  0  0
   10.6729   14.1335   24.1149 O   0  0  0  0  0  0  0  0  0  0  0  0
    5.3884   11.8487   26.4567 F   0  0  0  0  0  0  0  0  0  0  0  0
    6.9273   13.3480   26.7538 F   0  0  0  0  0  0  0  0  0  0  0  0
    5.6497   13.4387   24.9964 F   0  0  0  0  0  0  0  0  0  0  0  0
   14.6140   14.5178   18.0194 H   0  0  0  0  0  0  0  0  0  0  0  0
   14.7880   16.9664   17.7180 H   0  0  0  0  0  0  0  0  0  0  0  0
    6.3842    9.8655   25.6046 H   0  0  0  0  0  0  0  0  0  0  0  0
    7.9754    8.4751   24.3462 H   0  0  0  0  0  0  0  0  0  0  0  0
   13.1460   13.5795   19.7725 H   0  0  0  0  0  0  0  0  0  0  0  0
   12.0056   17.5623   20.9461 H   0  0  0  0  0  0  0  0  0  0  0  0
    8.4277   13.4195   24.2990 H   0  0  0  0  0  0  0  0  0  0  0  0
   12.4412    8.8051   21.0695 H   0  0  0  0  0  0  0  0  0  0  0  0
    9.2573    7.3710   23.3295 H   0  0  0  0  0  0  0  0  0  0  0  0
   14.4774   19.2818   21.0451 H   0  0  0  0  0  0  0  0  0  0  0  0
   14.6438   20.5967   19.8687 H   0  0  0  0  0  0  0  0  0  0  0  0
   15.6017   19.1170   19.6871 H   0  0  0  0  0  0  0  0  0  0  0  0
   13.6871   19.1441   18.0768 H   0  0  0  0  0  0  0  0  0  0  0  0
   12.5543   19.3831   19.3919 H   0  0  0  0  0  0  0  0  0  0  0  0
   11.9825   12.9210   21.3681 H   0  0  0  0  0  0  0  0  0  0  0  0
   12.9264   13.7783   22.6103 H   0  0  0  0  0  0  0  0  0  0  0  0
   10.5833   11.6940   22.0305 H   0  0  0  0  0  0  0  0  0  0  0  0
  1 21  3  0  0  0  0
  1 26  1  0  0  0  0
  2  3  2  0  0  0  0
  2  6  1  0  0  0  0
  3 11  1  0  0  0  0
  4  5  2  0  0  0  0
  4 12  1  0  0  0  0
  5 13  1  0  0  0  0
  6 14  2  0  0  0  0
  7 11  2  0  0  0  0
  7 14  1  0  0  0  0
  8 12  2  0  0  0  0
  8 15  1  0  0  0  0
  9 22  1  0  0  0  0
  9 23  2  0  0  0  0
 10 22  2  0  0  0  0
 10 24  1  0  0  0  0
 11 18  1  0  0  0  0
 12 20  1  0  0  0  0
 13 15  2  0  0  0  0
 13 24  1  0  0  0  0
 14 26  1  0  0  0  0
 15 25  1  0  0  0  0
 16 19  1  0  0  0  0
 16 25  1  0  0  0  0
 16 27  2  0  0  0  0
 17 18  1  0  0  0  0
 19 26  1  0  0  0  0
 20 28  1  0  0  0  0
 20 29  1  0  0  0  0
 20 30  1  0  0  0  0
 23 24  1  0  0  0  0
  2 31  1  0  0  0  0
  3 32  1  0  0  0  0
  4 33  1  0  0  0  0
  5 34  1  0  0  0  0
  6 35  1  0  0  0  0
  7 36  1  0  0  0  0
  8 37  1  0  0  0  0
  9 38  1  0  0  0  0
 10 39  1  0  0  0  0
 17 40  1  0  0  0  0
 17 41  1  0  0  0  0
 17 42  1  0  0  0  0
 18 43  1  0  0  0  0
 18 44  1  0  0  0  0
 19 45  1  0  0  0  0
 19 46  1  0  0  0  0
 25 47  1  0  0  0  0
M  END
> <Catalog ID>
Z1362475580

> <MW>
414.384

> <MW (desalted)>
414.384

> <ClogP>
3.954

> <logS>
-6.276

> <HBD>
1

> <HBA>
5

> <TPSA>
86.84

> <RotBonds>
7

> <ROCS_ShapeQuery>
A71EV2A-x0451_0A_A71EV2A-x0310_0A_A71EV2A-x0416_0A_peptide

> <ROCS_TanimotoCombo>
0.528 

> <ROCS_ShapeTanimoto>
0.383 

> <ROCS_ColorTanimoto>
0.145 

> <ROCS_RefTversky>
0.343 

> <ROCS_RefColorTversky>
0.172 

> <ROCS_RefTverskyCombo>
0.516 

> <ROCS_FitTversky>
1.429 

> <ROCS_FitColorTversky>
0.475 

> <ROCS_FitTverskyCombo>
1.904 

> <ROCS_ColorScore>
-5.273

> <ROCS_Overlap>
2391.625

> <ROCS_Rank>
250                 

$$$$
untitled-dbase-2950_1080
  -OEChem-11132309573D

 34 36  0     1  0  0  0  0  0999 V2000
    4.4599   12.0619   27.1682 C   0  0  0  0  0  0  0  0  0  0  0  0
    5.0026   13.0504   26.3473 C   0  0  0  0  0  0  0  0  0  0  0  0
    5.0066   10.7785   27.1692 C   0  0  0  0  0  0  0  0  0  0  0  0
    6.0917   12.7557   25.5273 C   0  0  0  0  0  0  0  0  0  0  0  0
    6.0957   10.4838   26.3492 C   0  0  0  0  0  0  0  0  0  0  0  0
    8.7675   12.0603   24.2708 C   0  0  0  0  0  0  0  0  0  0  0  0
    6.6384   11.4723   25.5282 C   0  0  0  0  0  0  0  0  0  0  0  0
    7.7596   11.1685   24.6839 C   0  0  0  0  0  0  0  0  0  0  0  0
    9.5988   11.2992   23.4859 C   0  0  0  0  0  0  0  0  0  0  0  0
   10.8465   14.0983   23.1845 C   0  0  0  0  0  0  0  0  0  0  0  0
   12.0620   15.8018   21.6882 C   0  0  0  0  0  0  0  0  0  0  0  0
   10.8769   15.4280   22.5068 C   0  0  2  0  0  0  0  0  0  0  0  0
    9.5719    8.8852   22.7875 C   0  0  0  0  0  0  0  0  0  0  0  0
   10.8335   11.6485   22.7597 C   0  0  0  0  0  0  0  0  0  0  0  0
    7.9327    9.9352   24.2011 N   0  0  0  0  0  0  0  0  0  0  0  0
    9.0591   10.0467   23.4765 N   0  0  0  0  0  0  0  0  0  0  0  0
   10.8568   13.0258   22.3151 N   0  0  0  0  0  0  0  0  0  0  0  0
   10.8172   14.0445   24.4084 O   0  0  0  0  0  0  0  0  0  0  0  0
   11.8920   16.2766   23.0289 O   0  0  0  0  0  0  0  0  0  0  0  0
    3.6125   12.2914   27.8076 H   0  0  0  0  0  0  0  0  0  0  0  0
    4.5779   14.0500   26.3474 H   0  0  0  0  0  0  0  0  0  0  0  0
    4.5847   10.0094   27.8094 H   0  0  0  0  0  0  0  0  0  0  0  0
    6.5035   13.5372   24.8929 H   0  0  0  0  0  0  0  0  0  0  0  0
    6.5104    9.4784   26.3615 H   0  0  0  0  0  0  0  0  0  0  0  0
    8.8798   13.1091   24.5073 H   0  0  0  0  0  0  0  0  0  0  0  0
   12.8446   15.0759   21.5087 H   0  0  0  0  0  0  0  0  0  0  0  0
   11.9045   16.5090   20.8842 H   0  0  0  0  0  0  0  0  0  0  0  0
    9.9170   15.8403   22.2794 H   0  0  0  0  0  0  0  0  0  0  0  0
   10.2544    8.3652   23.4649 H   0  0  0  0  0  0  0  0  0  0  0  0
    8.7410    8.2321   22.5065 H   0  0  0  0  0  0  0  0  0  0  0  0
   10.0981    9.2043   21.8836 H   0  0  0  0  0  0  0  0  0  0  0  0
   11.7347   11.5008   23.3822 H   0  0  0  0  0  0  0  0  0  0  0  0
   10.9820   11.0249   21.8595 H   0  0  0  0  0  0  0  0  0  0  0  0
   10.8820   13.2118   21.3181 H   0  0  0  0  0  0  0  0  0  0  0  0
  1  2  1  0  0  0  0
  1  3  2  0  0  0  0
  2  4  2  0  0  0  0
  3  5  1  0  0  0  0
  4  7  1  0  0  0  0
  5  7  2  0  0  0  0
  6  8  1  0  0  0  0
  6  9  2  0  0  0  0
  7  8  1  0  0  0  0
  8 15  2  0  0  0  0
  9 14  1  0  0  0  0
  9 16  1  0  0  0  0
 10 12  1  0  0  0  0
 10 17  1  0  0  0  0
 10 18  2  0  0  0  0
 11 12  1  0  0  0  0
 11 19  1  0  0  0  0
 12 19  1  0  0  0  0
 13 16  1  0  0  0  0
 14 17  1  0  0  0  0
 15 16  1  0  0  0  0
  1 20  1  0  0  0  0
  2 21  1  0  0  0  0
  3 22  1  0  0  0  0
  4 23  1  0  0  0  0
  5 24  1  0  0  0  0
  6 25  1  0  0  0  0
 11 26  1  0  0  0  0
 11 27  1  0  0  0  0
 12 28  1  0  0  0  0
 13 29  1  0  0  0  0
 13 30  1  0  0  0  0
 13 31  1  0  0  0  0
 14 32  1  0  0  0  0
 14 33  1  0  0  0  0
 17 34  1  0  0  0  0
M  END
> <Catalog ID>
Z3687611413

> <MW>
257.288

> <MW (desalted)>
257.288

> <ClogP>
1.768

> <logS>
-2.719

> <HBD>
1

> <HBA>
3

> <TPSA>
59.45

> <RotBonds>
4

> <ROCS_ShapeQuery>
A71EV2A-x0451_0A_A71EV2A-x0310_0A_A71EV2A-x0416_0A_peptide

> <ROCS_TanimotoCombo>
0.527 

> <ROCS_ShapeTanimoto>
0.334 

> <ROCS_ColorTanimoto>
0.194 

> <ROCS_RefTversky>
0.293 

> <ROCS_RefColorTversky>
0.201 

> <ROCS_RefTverskyCombo>
0.494 

> <ROCS_FitTversky>
1.719 

> <ROCS_FitColorTversky>
0.840 

> <ROCS_FitTverskyCombo>
2.559 

> <ROCS_ColorScore>
-6.121

> <ROCS_Overlap>
2032.074

> <ROCS_Rank>
251                 

$$$$
untitled-dbase-1548_2899
  -OEChem-11132309573D

 54 55  0     0  0  0  0  0  0999 V2000
   13.3369   13.6444   22.6181 C   0  0  0  0  0  0  0  0  0  0  0  0
   13.5753   16.2498   20.6387 C   0  0  0  0  0  0  0  0  0  0  0  0
    9.2296   10.1439   23.4917 C   0  0  0  0  0  0  0  0  0  0  0  0
    8.2959   12.1341   24.2813 C   0  0  0  0  0  0  0  0  0  0  0  0
   12.4825   15.3825   20.3928 C   0  0  0  0  0  0  0  0  0  0  0  0
    9.2972   11.5207   23.5565 C   0  0  0  0  0  0  0  0  0  0  0  0
   14.1321   16.5660   19.4191 C   0  0  0  0  0  0  0  0  0  0  0  0
   12.4048   15.1948   19.0304 C   0  0  0  0  0  0  0  0  0  0  0  0
    7.3449   10.1263   24.7622 C   0  0  0  0  0  0  0  0  0  0  0  0
   11.5846   14.7815   21.3913 C   0  0  0  0  0  0  0  0  0  0  0  0
   11.9651   13.9802   22.4060 C   0  0  0  0  0  0  0  0  0  0  0  0
   10.8707   13.4732   23.3208 C   0  0  0  0  0  0  0  0  0  0  0  0
   15.2880   17.4296   19.1019 C   0  0  0  0  0  0  0  0  0  0  0  0
   11.4600   14.3894   18.2246 C   0  0  0  0  0  0  0  0  0  0  0  0
   12.0690   17.8949   16.6844 C   0  0  0  0  0  0  0  0  0  0  0  0
    6.7576    7.9352   25.8577 C   0  0  0  0  0  0  0  0  0  0  0  0
    5.0387    9.1524   24.4793 C   0  0  0  0  0  0  0  0  0  0  0  0
    5.6749    9.9966   26.7295 C   0  0  0  0  0  0  0  0  0  0  0  0
   12.4692   16.4968   16.2425 C   0  0  0  0  0  0  0  0  0  0  0  0
   13.6773   15.9901   17.0271 C   0  0  0  0  0  0  0  0  0  0  0  0
    6.2263    9.3266   25.4506 C   0  0  0  0  0  0  0  0  0  0  0  0
   14.4505   13.3694   22.7950 N   0  0  0  0  0  0  0  0  0  0  0  0
    8.2638    9.4120   24.0848 N   0  0  0  0  0  0  0  0  0  0  0  0
    7.3004   11.4652   24.8993 N   0  0  0  0  0  0  0  0  0  0  0  0
   13.4126   15.9188   18.4487 N   0  0  0  0  0  0  0  0  0  0  0  0
   10.3093   12.2418   22.9332 N   0  0  0  0  0  0  0  0  0  0  0  0
   10.5356   14.1232   24.3079 O   0  0  0  0  0  0  0  0  0  0  0  0
   13.9226   16.6080   21.5988 H   0  0  0  0  0  0  0  0  0  0  0  0
    9.9697    9.5650   22.9474 H   0  0  0  0  0  0  0  0  0  0  0  0
    8.2578   13.2131   24.3938 H   0  0  0  0  0  0  0  0  0  0  0  0
   10.5423   15.0606   21.2530 H   0  0  0  0  0  0  0  0  0  0  0  0
   16.2248   16.8497   19.0928 H   0  0  0  0  0  0  0  0  0  0  0  0
   15.1829   17.9142   18.1168 H   0  0  0  0  0  0  0  0  0  0  0  0
   15.4053   18.2468   19.8335 H   0  0  0  0  0  0  0  0  0  0  0  0
   10.5820   14.9869   17.9345 H   0  0  0  0  0  0  0  0  0  0  0  0
   11.9289   14.0076   17.3035 H   0  0  0  0  0  0  0  0  0  0  0  0
   11.1008   13.5057   18.7765 H   0  0  0  0  0  0  0  0  0  0  0  0
   12.8986   18.5980   16.5596 H   0  0  0  0  0  0  0  0  0  0  0  0
   11.7825   17.8913   17.7408 H   0  0  0  0  0  0  0  0  0  0  0  0
   11.2171   18.2612   16.1025 H   0  0  0  0  0  0  0  0  0  0  0  0
    5.9781    7.3434   26.3517 H   0  0  0  0  0  0  0  0  0  0  0  0
    7.1019    7.3541   24.9952 H   0  0  0  0  0  0  0  0  0  0  0  0
    7.6009    8.0230   26.5530 H   0  0  0  0  0  0  0  0  0  0  0  0
    4.2153    8.5865   24.9285 H   0  0  0  0  0  0  0  0  0  0  0  0
    4.6312   10.1235   24.1749 H   0  0  0  0  0  0  0  0  0  0  0  0
    5.3466    8.6205   23.5713 H   0  0  0  0  0  0  0  0  0  0  0  0
    4.8817    9.3900   27.1828 H   0  0  0  0  0  0  0  0  0  0  0  0
    6.4563   10.1229   27.4881 H   0  0  0  0  0  0  0  0  0  0  0  0
    5.2441   10.9817   26.5154 H   0  0  0  0  0  0  0  0  0  0  0  0
   11.6192   15.8176   16.3795 H   0  0  0  0  0  0  0  0  0  0  0  0
   12.6945   16.5075   15.1693 H   0  0  0  0  0  0  0  0  0  0  0  0
   14.5438   16.6463   16.8823 H   0  0  0  0  0  0  0  0  0  0  0  0
   13.9717   14.9882   16.6926 H   0  0  0  0  0  0  0  0  0  0  0  0
   10.6978   11.8216   22.0790 H   0  0  0  0  0  0  0  0  0  0  0  0
  1 11  1  0  0  0  0
  1 22  3  0  0  0  0
  2  5  1  0  0  0  0
  2  7  2  0  0  0  0
  3  6  1  0  0  0  0
  3 23  2  0  0  0  0
  4  6  2  0  0  0  0
  4 24  1  0  0  0  0
  5  8  2  0  0  0  0
  5 10  1  4  0  0  0
  6 26  1  0  0  0  0
  7 13  1  0  0  0  0
  7 25  1  0  0  0  0
  8 14  1  0  0  0  0
  8 25  1  0  0  0  0
  9 21  1  0  0  0  0
  9 23  1  0  0  0  0
  9 24  2  0  0  0  0
 10 11  2  0  0  0  0
 11 12  1  0  0  0  0
 12 26  1  0  0  0  0
 12 27  2  0  0  0  0
 15 19  1  0  0  0  0
 16 21  1  0  0  0  0
 17 21  1  0  0  0  0
 18 21  1  0  0  0  0
 19 20  1  0  0  0  0
 20 25  1  0  0  0  0
  2 28  1  0  0  0  0
  3 29  1  0  0  0  0
  4 30  1  0  0  0  0
 10 31  1  0  0  0  0
 13 32  1  0  0  0  0
 13 33  1  0  0  0  0
 13 34  1  0  0  0  0
 14 35  1  0  0  0  0
 14 36  1  0  0  0  0
 14 37  1  0  0  0  0
 15 38  1  0  0  0  0
 15 39  1  0  0  0  0
 15 40  1  0  0  0  0
 16 41  1  0  0  0  0
 16 42  1  0  0  0  0
 16 43  1  0  0  0  0
 17 44  1  0  0  0  0
 17 45  1  0  0  0  0
 17 46  1  0  0  0  0
 18 47  1  0  0  0  0
 18 48  1  0  0  0  0
 18 49  1  0  0  0  0
 19 50  1  0  0  0  0
 19 51  1  0  0  0  0
 20 52  1  0  0  0  0
 20 53  1  0  0  0  0
 26 54  1  0  0  0  0
M  END
> <Catalog ID>
Z850226976

> <MW>
365.472

> <MW (desalted)>
365.472

> <ClogP>
4.605

> <logS>
-2.731

> <HBD>
1

> <HBA>
4

> <TPSA>
83.6

> <RotBonds>
6

> <ROCS_ShapeQuery>
A71EV2A-x0451_0A_A71EV2A-x0310_0A_A71EV2A-x0416_0A_peptide

> <ROCS_TanimotoCombo>
0.527 

> <ROCS_ShapeTanimoto>
0.320 

> <ROCS_ColorTanimoto>
0.207 

> <ROCS_RefTversky>
0.295 

> <ROCS_RefColorTversky>
0.228 

> <ROCS_RefTverskyCombo>
0.523 

> <ROCS_FitTversky>
1.373 

> <ROCS_FitColorTversky>
0.688 

> <ROCS_FitTverskyCombo>
2.061 

> <ROCS_ColorScore>
-6.979

> <ROCS_Overlap>
2050.526

> <ROCS_Rank>
252                 

$$$$
untitled-dbase-4792_5484
  -OEChem-11132309573D

 37 38  0     1  0  0  0  0  0999 V2000
    8.2714   12.2889   25.2417 C   0  0  0  0  0  0  0  0  0  0  0  0
    8.9459   10.6864   23.6188 C   0  0  0  0  0  0  0  0  0  0  0  0
    7.1332   10.2210   24.9513 C   0  0  0  0  0  0  0  0  0  0  0  0
    9.1425   11.9174   24.2236 C   0  0  0  0  0  0  0  0  0  0  0  0
    7.2449   11.4301   25.6186 C   0  0  0  0  0  0  0  0  0  0  0  0
   10.2491   12.8124   23.7975 C   0  0  0  0  0  0  0  0  0  0  0  0
   12.6432   15.8000   22.0137 C   0  0  0  0  0  0  0  0  0  0  0  0
   13.4631   15.4562   23.2557 C   0  0  0  0  0  0  0  0  0  0  0  0
   13.0586   13.1845   22.6907 C   0  0  0  0  0  0  0  0  0  0  0  0
   11.7571   13.4521   21.9278 C   0  0  2  0  0  0  0  0  0  0  0  0
   11.3858   14.9425   21.9378 C   0  0  2  0  0  0  0  0  0  0  0  0
    9.8723   16.4503   20.9595 C   0  0  0  0  0  0  0  0  0  0  0  0
    7.9602    9.8255   23.9576 N   0  0  0  0  0  0  0  0  0  0  0  0
   10.6733   12.6702   22.4842 N   0  0  0  0  0  0  0  0  0  0  0  0
   10.7336   13.5960   24.6097 O   0  0  0  0  0  0  0  0  0  0  0  0
    4.0867   12.3676   27.4690 O   0  0  0  0  0  0  0  0  0  0  0  0
    5.2753   13.8961   25.8298 O   0  0  0  0  0  0  0  0  0  0  0  0
   13.2272   14.1319   23.7410 O   0  0  0  0  0  0  0  0  0  0  0  0
    6.3805   11.7659   26.6080 O   0  0  0  0  0  0  0  0  0  0  0  0
   10.6418   15.2715   20.7704 O   0  0  0  0  0  0  0  0  0  0  0  0
    4.2813   11.8171   25.1335 F   0  0  0  0  0  0  0  0  0  0  0  0
    4.9775   12.5743   26.3444 S   0  0  0  0  0  0  0  0  0  0  0  0
    8.3891   13.2460   25.7438 H   0  0  0  0  0  0  0  0  0  0  0  0
    9.5938   10.3414   22.8187 H   0  0  0  0  0  0  0  0  0  0  0  0
    6.3511    9.5120   25.2042 H   0  0  0  0  0  0  0  0  0  0  0  0
   12.3831   16.8644   22.0072 H   0  0  0  0  0  0  0  0  0  0  0  0
   13.2520   15.6254   21.1170 H   0  0  0  0  0  0  0  0  0  0  0  0
   14.5401   15.5365   23.0223 H   0  0  0  0  0  0  0  0  0  0  0  0
   13.2707   16.1806   24.0709 H   0  0  0  0  0  0  0  0  0  0  0  0
   13.0794   12.1720   23.1107 H   0  0  0  0  0  0  0  0  0  0  0  0
   13.9162   13.2830   22.0175 H   0  0  0  0  0  0  0  0  0  0  0  0
   11.8590   13.1220   20.8890 H   0  0  0  0  0  0  0  0  0  0  0  0
   10.7493   15.1622   22.8155 H   0  0  0  0  0  0  0  0  0  0  0  0
    9.3153   16.6732   20.0462 H   0  0  0  0  0  0  0  0  0  0  0  0
   10.5351   17.2833   21.2071 H   0  0  0  0  0  0  0  0  0  0  0  0
    9.1707   16.2888   21.7813 H   0  0  0  0  0  0  0  0  0  0  0  0
   10.2643   11.9546   21.8901 H   0  0  0  0  0  0  0  0  0  0  0  0
  1  4  2  0  0  0  0
  1  5  1  0  0  0  0
  2  4  1  0  0  0  0
  2 13  2  0  0  0  0
  3  5  2  0  0  0  0
  3 13  1  0  0  0  0
  4  6  1  0  0  0  0
  5 19  1  0  0  0  0
  6 14  1  0  0  0  0
  6 15  2  0  0  0  0
  7  8  1  0  0  0  0
  7 11  1  0  0  0  0
  8 18  1  0  0  0  0
  9 10  1  0  0  0  0
  9 18  1  0  0  0  0
 10 11  1  0  0  0  0
 10 14  1  1  0  0  0
 11 20  1  6  0  0  0
 12 20  1  0  0  0  0
 16 22  2  0  0  0  0
 17 22  2  0  0  0  0
 19 22  1  0  0  0  0
 21 22  1  0  0  0  0
  1 23  1  0  0  0  0
  2 24  1  0  0  0  0
  3 25  1  0  0  0  0
  7 26  1  0  0  0  0
  7 27  1  0  0  0  0
  8 28  1  0  0  0  0
  8 29  1  0  0  0  0
  9 30  1  0  0  0  0
  9 31  1  0  0  0  0
 10 32  1  0  0  0  0
 11 33  1  0  0  0  0
 12 34  1  0  0  0  0
 12 35  1  0  0  0  0
 12 36  1  0  0  0  0
 14 37  1  0  0  0  0
M  END
> <Catalog ID>
Z4262482665

> <MW>
334.321

> <MW (desalted)>
334.321

> <ClogP>
-1.444

> <logS>
-2.106

> <HBD>
1

> <HBA>
6

> <TPSA>
103.82

> <RotBonds>
5

> <ROCS_ShapeQuery>
A71EV2A-x0451_0A_A71EV2A-x0310_0A_A71EV2A-x0416_0A_peptide

> <ROCS_TanimotoCombo>
0.527 

> <ROCS_ShapeTanimoto>
0.323 

> <ROCS_ColorTanimoto>
0.204 

> <ROCS_RefTversky>
0.289 

> <ROCS_RefColorTversky>
0.226 

> <ROCS_RefTverskyCombo>
0.515 

> <ROCS_FitTversky>
1.571 

> <ROCS_FitColorTversky>
0.681 

> <ROCS_FitTverskyCombo>
2.253 

> <ROCS_ColorScore>
-6.909

> <ROCS_Overlap>
2006.676

> <ROCS_Rank>
253                 

$$$$
untitled-dbase-6074_6006
  -OEChem-11132309573D

 52 54  0     1  0  0  0  0  0999 V2000
    9.2343    9.2189   24.0857 C   0  0  0  0  0  0  0  0  0  0  0  0
    8.2208    9.5545   24.9829 C   0  0  0  0  0  0  0  0  0  0  0  0
    9.8203   10.2051   23.2961 C   0  0  0  0  0  0  0  0  0  0  0  0
    7.7826   10.8813   25.0960 C   0  0  0  0  0  0  0  0  0  0  0  0
    8.3892   11.8800   24.3139 C   0  0  0  0  0  0  0  0  0  0  0  0
    9.3979   11.5296   23.4062 C   0  0  0  0  0  0  0  0  0  0  0  0
   16.3600   15.3878   21.3498 C   0  0  0  0  0  0  0  0  0  0  0  0
   15.1986   14.9626   20.8480 C   0  0  0  0  0  0  0  0  0  0  0  0
   14.2098   15.9608   20.3938 C   0  0  0  0  0  0  0  0  0  0  0  0
   10.7210   13.6222   22.9648 C   0  0  0  0  0  0  0  0  0  0  0  0
    7.9207   13.3100   24.3983 C   0  0  0  0  0  0  0  0  0  0  0  0
    6.6972   11.2233   26.0876 C   0  0  0  0  0  0  0  0  0  0  0  0
   10.6433   16.2765   20.2116 C   0  0  0  0  0  0  0  0  0  0  0  0
   10.1352   15.3996   21.3530 C   0  0  0  0  0  0  0  0  0  0  0  0
    7.2183   13.6118   25.7190 C   0  0  0  0  0  0  0  0  0  0  0  0
   11.9602   16.9487   20.5845 C   0  0  0  0  0  0  0  0  0  0  0  0
   12.5304   15.0888   22.1108 C   0  0  0  0  0  0  0  0  0  0  0  0
   11.2068   14.3942   21.7774 C   0  0  1  0  0  0  0  0  0  0  0  0
    5.8313   12.8515   28.5543 C   0  0  0  0  0  0  0  0  0  0  0  0
   12.9607   15.9658   21.0105 N   0  0  0  0  0  0  0  0  0  0  0  0
    6.1440   12.6031   25.9290 N   0  0  2  0  0  0  0  0  0  0  0  0
   10.0007   12.4852   22.5822 N   0  0  0  0  0  0  0  0  0  0  0  0
   14.5523   16.7336   19.4971 O   0  0  0  0  0  0  0  0  0  0  0  0
   10.9678   14.0022   24.1048 O   0  0  0  0  0  0  0  0  0  0  0  0
    3.8864   12.0243   27.0179 O   0  0  0  0  0  0  0  0  0  0  0  0
    4.6126   14.4405   26.8757 O   0  0  0  0  0  0  0  0  0  0  0  0
    4.9192   13.0368   27.0437 S   0  0  0  0  0  0  0  0  0  0  0  0
    9.5659    8.1879   24.0020 H   0  0  0  0  0  0  0  0  0  0  0  0
    7.7713    8.7749   25.5931 H   0  0  0  0  0  0  0  0  0  0  0  0
   10.6046    9.9286   22.5956 H   0  0  0  0  0  0  0  0  0  0  0  0
   17.1254   14.7031   21.6997 H   0  0  0  0  0  0  0  0  0  0  0  0
   16.5663   16.4506   21.4192 H   0  0  0  0  0  0  0  0  0  0  0  0
   14.9566   13.9113   20.7623 H   0  0  0  0  0  0  0  0  0  0  0  0
    8.7640   14.0033   24.3008 H   0  0  0  0  0  0  0  0  0  0  0  0
    7.2321   13.4939   23.5639 H   0  0  0  0  0  0  0  0  0  0  0  0
    5.8696   10.5153   25.9606 H   0  0  0  0  0  0  0  0  0  0  0  0
    7.1042   11.1179   27.1005 H   0  0  0  0  0  0  0  0  0  0  0  0
   10.7855   15.6632   19.3148 H   0  0  0  0  0  0  0  0  0  0  0  0
    9.8975   17.0397   19.9597 H   0  0  0  0  0  0  0  0  0  0  0  0
    9.8361   16.0279   22.1911 H   0  0  0  0  0  0  0  0  0  0  0  0
    9.2551   14.8513   21.0148 H   0  0  0  0  0  0  0  0  0  0  0  0
    7.9232   13.5775   26.5588 H   0  0  0  0  0  0  0  0  0  0  0  0
    6.7854   14.6170   25.6743 H   0  0  0  0  0  0  0  0  0  0  0  0
   12.3760   17.4821   19.7207 H   0  0  0  0  0  0  0  0  0  0  0  0
   11.7842   17.6933   21.3680 H   0  0  0  0  0  0  0  0  0  0  0  0
   12.4217   15.6345   23.0435 H   0  0  0  0  0  0  0  0  0  0  0  0
   13.3156   14.3415   22.2419 H   0  0  0  0  0  0  0  0  0  0  0  0
   11.3619   13.6784   20.9806 H   0  0  0  0  0  0  0  0  0  0  0  0
    5.1715   13.0988   29.3875 H   0  0  0  0  0  0  0  0  0  0  0  0
    6.1688   11.8166   28.6279 H   0  0  0  0  0  0  0  0  0  0  0  0
    6.6842   13.5312   28.5271 H   0  0  0  0  0  0  0  0  0  0  0  0
    9.9055   12.3367   21.5723 H   0  0  0  0  0  0  0  0  0  0  0  0
  1  2  2  0  0  0  0
  1  3  1  0  0  0  0
  2  4  1  0  0  0  0
  3  6  2  0  0  0  0
  4  5  2  0  0  0  0
  4 12  1  0  0  0  0
  5  6  1  0  0  0  0
  5 11  1  0  0  0  0
  6 22  1  0  0  0  0
  7  8  2  0  0  0  0
  8  9  1  0  0  0  0
  9 20  1  0  0  0  0
  9 23  2  0  0  0  0
 10 18  1  0  0  0  0
 10 22  1  0  0  0  0
 10 24  2  0  0  0  0
 11 15  1  0  0  0  0
 12 21  1  0  0  0  0
 13 14  1  0  0  0  0
 13 16  1  0  0  0  0
 14 18  1  0  0  0  0
 15 21  1  0  0  0  0
 16 20  1  0  0  0  0
 17 18  1  0  0  0  0
 17 20  1  0  0  0  0
 19 27  1  0  0  0  0
 21 27  1  0  0  0  0
 25 27  2  0  0  0  0
 26 27  2  0  0  0  0
  1 28  1  0  0  0  0
  2 29  1  0  0  0  0
  3 30  1  0  0  0  0
  7 31  1  0  0  0  0
  7 32  1  0  0  0  0
  8 33  1  0  0  0  0
 11 34  1  0  0  0  0
 11 35  1  0  0  0  0
 12 36  1  0  0  0  0
 12 37  1  0  0  0  0
 13 38  1  0  0  0  0
 13 39  1  0  0  0  0
 14 40  1  0  0  0  0
 14 41  1  0  0  0  0
 15 42  1  0  0  0  0
 15 43  1  0  0  0  0
 16 44  1  0  0  0  0
 16 45  1  0  0  0  0
 17 46  1  0  0  0  0
 17 47  1  0  0  0  0
 18 48  1  0  0  0  0
 19 49  1  0  0  0  0
 19 50  1  0  0  0  0
 19 51  1  0  0  0  0
 22 52  1  0  0  0  0
M  END
> <Catalog ID>
Z3707776766

> <MW>
391.485

> <MW (desalted)>
391.485

> <ClogP>
0.828

> <logS>
-3.118

> <HBD>
1

> <HBA>
4

> <TPSA>
86.79

> <RotBonds>
3

> <ROCS_ShapeQuery>
A71EV2A-x0451_0A_A71EV2A-x0310_0A_A71EV2A-x0416_0A_peptide

> <ROCS_TanimotoCombo>
0.527 

> <ROCS_ShapeTanimoto>
0.368 

> <ROCS_ColorTanimoto>
0.159 

> <ROCS_RefTversky>
0.327 

> <ROCS_RefColorTversky>
0.183 

> <ROCS_RefTverskyCombo>
0.509 

> <ROCS_FitTversky>
1.527 

> <ROCS_FitColorTversky>
0.551 

> <ROCS_FitTverskyCombo>
2.078 

> <ROCS_ColorScore>
-5.587

> <ROCS_Overlap>
2272.096

> <ROCS_Rank>
254                 

$$$$
untitled-dbase-10857_902
  -OEChem-11132309573D

 55 58  0     0  0  0  0  0  0999 V2000
   11.6076   12.4745   24.2557 C   0  0  0  0  0  0  0  0  0  0  0  0
    7.3958    7.0799   25.0403 C   0  0  0  0  0  0  0  0  0  0  0  0
    6.9223    8.2855   25.3719 C   0  0  0  0  0  0  0  0  0  0  0  0
    8.5279    6.9509   24.1660 C   0  0  0  0  0  0  0  0  0  0  0  0
    9.1182    8.0468   23.6757 C   0  0  0  0  0  0  0  0  0  0  0  0
    8.7687   11.7591   23.8376 C   0  0  0  0  0  0  0  0  0  0  0  0
    7.6969   11.8230   24.6671 C   0  0  0  0  0  0  0  0  0  0  0  0
    7.5778    9.5121   24.8270 C   0  0  0  0  0  0  0  0  0  0  0  0
    9.3290   10.4267   23.4426 C   0  0  0  0  0  0  0  0  0  0  0  0
    9.4327   12.9277   23.2879 C   0  0  0  0  0  0  0  0  0  0  0  0
   10.7165   13.2647   23.4685 C   0  0  0  0  0  0  0  0  0  0  0  0
   11.1776   14.5309   22.7918 C   0  0  0  0  0  0  0  0  0  0  0  0
   13.9604   16.5467   18.6257 C   0  0  0  0  0  0  0  0  0  0  0  0
   14.2208   16.8075   20.1066 C   0  0  0  0  0  0  0  0  0  0  0  0
   12.4782   16.3141   18.3469 C   0  0  0  0  0  0  0  0  0  0  0  0
   13.6532   15.6927   20.9835 C   0  0  0  0  0  0  0  0  0  0  0  0
   11.9089   15.1982   19.2213 C   0  0  0  0  0  0  0  0  0  0  0  0
    6.6224   13.9560   24.0821 C   0  0  0  0  0  0  0  0  0  0  0  0
    7.1871   13.4569   26.4324 C   0  0  0  0  0  0  0  0  0  0  0  0
    5.2875   14.4984   24.5733 C   0  0  0  0  0  0  0  0  0  0  0  0
    5.8286   14.0224   26.8235 C   0  0  0  0  0  0  0  0  0  0  0  0
   12.1619   15.4702   20.7082 C   0  0  0  0  0  0  0  0  0  0  0  0
   12.3366   11.8365   24.8947 N   0  0  0  0  0  0  0  0  0  0  0  0
    7.1064   10.6722   25.1590 N   0  0  0  0  0  0  0  0  0  0  0  0
    8.6708    9.3268   23.9850 N   0  0  0  0  0  0  0  0  0  0  0  0
    7.1607   13.0076   25.0474 N   0  0  0  0  0  0  0  0  0  0  0  0
   11.6707   14.3503   21.5088 N   0  0  0  0  0  0  0  0  0  0  0  0
   10.3035   10.3588   22.6927 O   0  0  0  0  0  0  0  0  0  0  0  0
   11.1143   15.6253   23.3499 O   0  0  0  0  0  0  0  0  0  0  0  0
    5.4258   15.0344   25.8939 O   0  0  0  0  0  0  0  0  0  0  0  0
    6.9358    6.1754   25.4219 H   0  0  0  0  0  0  0  0  0  0  0  0
    6.0690    8.4015   26.0298 H   0  0  0  0  0  0  0  0  0  0  0  0
    8.8843    5.9585   23.9163 H   0  0  0  0  0  0  0  0  0  0  0  0
    9.9729    7.9599   23.0140 H   0  0  0  0  0  0  0  0  0  0  0  0
    8.7664   13.5361   22.6880 H   0  0  0  0  0  0  0  0  0  0  0  0
   14.3182   17.3962   18.0332 H   0  0  0  0  0  0  0  0  0  0  0  0
   14.5336   15.6683   18.3043 H   0  0  0  0  0  0  0  0  0  0  0  0
   15.2988   16.9000   20.2804 H   0  0  0  0  0  0  0  0  0  0  0  0
   13.7671   17.7640   20.3941 H   0  0  0  0  0  0  0  0  0  0  0  0
   11.9220   17.2415   18.5316 H   0  0  0  0  0  0  0  0  0  0  0  0
   12.3371   16.0620   17.2898 H   0  0  0  0  0  0  0  0  0  0  0  0
   14.2119   14.7671   20.7937 H   0  0  0  0  0  0  0  0  0  0  0  0
   13.8072   15.9519   22.0379 H   0  0  0  0  0  0  0  0  0  0  0  0
   10.8323   15.1081   19.0325 H   0  0  0  0  0  0  0  0  0  0  0  0
   12.3686   14.2447   18.9308 H   0  0  0  0  0  0  0  0  0  0  0  0
    6.4892   13.5045   23.0912 H   0  0  0  0  0  0  0  0  0  0  0  0
    7.3408   14.7789   23.9758 H   0  0  0  0  0  0  0  0  0  0  0  0
    7.9530   14.2378   26.5224 H   0  0  0  0  0  0  0  0  0  0  0  0
    7.4573   12.6487   27.1234 H   0  0  0  0  0  0  0  0  0  0  0  0
    4.9505   15.3093   23.9198 H   0  0  0  0  0  0  0  0  0  0  0  0
    4.5113   13.7239   24.5703 H   0  0  0  0  0  0  0  0  0  0  0  0
    5.0633   13.2384   26.8673 H   0  0  0  0  0  0  0  0  0  0  0  0
    5.8872   14.4852   27.8135 H   0  0  0  0  0  0  0  0  0  0  0  0
   11.5939   16.3394   21.0267 H   0  0  0  0  0  0  0  0  0  0  0  0
   11.7177   13.4268   21.0912 H   0  0  0  0  0  0  0  0  0  0  0  0
  1 11  1  0  0  0  0
  1 23  3  0  0  0  0
  2  3  2  0  0  0  0
  2  4  1  0  0  0  0
  3  8  1  0  0  0  0
  4  5  2  0  0  0  0
  5 25  1  0  0  0  0
  6  7  2  0  0  0  0
  6  9  1  0  0  0  0
  6 10  1  4  0  0  0
  7 24  1  0  0  0  0
  7 26  1  0  0  0  0
  8 24  2  0  0  0  0
  8 25  1  0  0  0  0
  9 25  1  0  0  0  0
  9 28  2  0  0  0  0
 10 11  2  0  0  0  0
 11 12  1  0  0  0  0
 12 27  1  0  0  0  0
 12 29  2  0  0  0  0
 13 14  1  0  0  0  0
 13 15  1  0  0  0  0
 14 16  1  0  0  0  0
 15 17  1  0  0  0  0
 16 22  1  0  0  0  0
 17 22  1  0  0  0  0
 18 20  1  0  0  0  0
 18 26  1  0  0  0  0
 19 21  1  0  0  0  0
 19 26  1  0  0  0  0
 20 30  1  0  0  0  0
 21 30  1  0  0  0  0
 22 27  1  0  0  0  0
  2 31  1  0  0  0  0
  3 32  1  0  0  0  0
  4 33  1  0  0  0  0
  5 34  1  0  0  0  0
 10 35  1  0  0  0  0
 13 36  1  0  0  0  0
 13 37  1  0  0  0  0
 14 38  1  0  0  0  0
 14 39  1  0  0  0  0
 15 40  1  0  0  0  0
 15 41  1  0  0  0  0
 16 42  1  0  0  0  0
 16 43  1  0  0  0  0
 17 44  1  0  0  0  0
 17 45  1  0  0  0  0
 18 46  1  0  0  0  0
 18 47  1  0  0  0  0
 19 48  1  0  0  0  0
 19 49  1  0  0  0  0
 20 50  1  0  0  0  0
 20 51  1  0  0  0  0
 21 52  1  0  0  0  0
 21 53  1  0  0  0  0
 22 54  1  0  0  0  0
 27 55  1  0  0  0  0
M  END
> <Catalog ID>
Z57240299

> <MW>
407.466

> <MW (desalted)>
407.466

> <ClogP>
1.46

> <logS>
-4.83

> <HBD>
1

> <HBA>
6

> <TPSA>
98.03

> <RotBonds>
4

> <ROCS_ShapeQuery>
A71EV2A-x0451_0A_A71EV2A-x0310_0A_A71EV2A-x0416_0A_peptide

> <ROCS_TanimotoCombo>
0.527 

> <ROCS_ShapeTanimoto>
0.401 

> <ROCS_ColorTanimoto>
0.127 

> <ROCS_RefTversky>
0.354 

> <ROCS_RefColorTversky>
0.153 

> <ROCS_RefTverskyCombo>
0.507 

> <ROCS_FitTversky>
1.487 

> <ROCS_FitColorTversky>
0.423 

> <ROCS_FitTverskyCombo>
1.910 

> <ROCS_ColorScore>
-4.689

> <ROCS_Overlap>
2466.149

> <ROCS_Rank>
255                 

$$$$
untitled-dbase-10035_1461
  -OEChem-11132309573D

 40 42  0     0  0  0  0  0  0999 V2000
    6.2359   11.6315   25.7242 C   0  0  0  0  0  0  0  0  0  0  0  0
    7.2095   12.5744   26.0477 C   0  0  0  0  0  0  0  0  0  0  0  0
   10.0836   17.0536   21.1135 C   0  0  0  0  0  0  0  0  0  0  0  0
    6.5005   10.6183   24.7956 C   0  0  0  0  0  0  0  0  0  0  0  0
    8.4752   12.5358   25.4557 C   0  0  0  0  0  0  0  0  0  0  0  0
   10.1663   15.8597   21.8298 C   0  0  0  0  0  0  0  0  0  0  0  0
   10.8478   17.2292   19.9598 C   0  0  0  0  0  0  0  0  0  0  0  0
   11.7774   15.0168   20.2389 C   0  0  0  0  0  0  0  0  0  0  0  0
    9.6544   10.1372   23.0118 C   0  0  0  0  0  0  0  0  0  0  0  0
    7.7694   10.5592   24.1858 C   0  0  0  0  0  0  0  0  0  0  0  0
    8.3696    9.6950   23.2276 C   0  0  0  0  0  0  0  0  0  0  0  0
    8.7255   11.5173   24.5292 C   0  0  0  0  0  0  0  0  0  0  0  0
   11.0132   14.8413   21.3925 C   0  0  0  0  0  0  0  0  0  0  0  0
   11.6947   16.2108   19.5225 C   0  0  0  0  0  0  0  0  0  0  0  0
    7.7885    8.5570   22.5740 C   0  0  0  0  0  0  0  0  0  0  0  0
   10.9186   13.4469   23.4875 C   0  0  0  0  0  0  0  0  0  0  0  0
   11.0976   11.9846   23.8516 C   0  0  0  0  0  0  0  0  0  0  0  0
    9.8599   11.2366   23.8014 N   0  0  0  0  0  0  0  0  0  0  0  0
    7.9218    7.3006   23.1791 N   0  0  0  0  0  0  0  0  0  0  0  0
   11.0970   13.6298   22.1190 N   0  0  0  0  0  0  0  0  0  0  0  0
    7.1853    8.6522   21.4792 O   0  0  0  0  0  0  0  0  0  0  0  0
   10.6526   14.3030   24.3247 O   0  0  0  0  0  0  0  0  0  0  0  0
   12.9840   15.1182   17.5619 O   0  0  0  0  0  0  0  0  0  0  0  0
   12.0060   17.4463   17.2692 O   0  0  0  0  0  0  0  0  0  0  0  0
   14.0383   17.0694   18.5192 F   0  0  0  0  0  0  0  0  0  0  0  0
   12.6515   16.4315   18.0791 S   0  0  0  0  0  0  0  0  0  0  0  0
    5.2590   11.6821   26.1977 H   0  0  0  0  0  0  0  0  0  0  0  0
    6.9824   13.3529   26.7716 H   0  0  0  0  0  0  0  0  0  0  0  0
    9.4239   17.8466   21.4534 H   0  0  0  0  0  0  0  0  0  0  0  0
    5.7309    9.8906   24.5541 H   0  0  0  0  0  0  0  0  0  0  0  0
    9.2294   13.2725   25.7114 H   0  0  0  0  0  0  0  0  0  0  0  0
    9.5656   15.7340   22.7271 H   0  0  0  0  0  0  0  0  0  0  0  0
   10.7761   18.1635   19.4095 H   0  0  0  0  0  0  0  0  0  0  0  0
   12.4380   14.2230   19.8971 H   0  0  0  0  0  0  0  0  0  0  0  0
   10.4377    9.7637   22.3651 H   0  0  0  0  0  0  0  0  0  0  0  0
   11.8060   11.5140   23.1603 H   0  0  0  0  0  0  0  0  0  0  0  0
   11.5032   11.9009   24.8664 H   0  0  0  0  0  0  0  0  0  0  0  0
    7.5142    6.4911   22.7238 H   0  0  0  0  0  0  0  0  0  0  0  0
    8.4130    7.1740   24.0581 H   0  0  0  0  0  0  0  0  0  0  0  0
   11.3126   12.8039   21.5643 H   0  0  0  0  0  0  0  0  0  0  0  0
  1  2  1  0  0  0  0
  1  4  2  0  0  0  0
  2  5  2  0  0  0  0
  3  6  2  0  0  0  0
  3  7  1  0  0  0  0
  4 10  1  0  0  0  0
  5 12  1  0  0  0  0
  6 13  1  0  0  0  0
  7 14  2  0  0  0  0
  8 13  2  0  0  0  0
  8 14  1  0  0  0  0
  9 11  2  0  0  0  0
  9 18  1  0  0  0  0
 10 11  1  0  0  0  0
 10 12  2  0  0  0  0
 11 15  1  0  0  0  0
 12 18  1  0  0  0  0
 13 20  1  0  0  0  0
 14 26  1  0  0  0  0
 15 19  1  0  0  0  0
 15 21  2  0  0  0  0
 16 17  1  0  0  0  0
 16 20  1  0  0  0  0
 16 22  2  0  0  0  0
 17 18  1  0  0  0  0
 23 26  2  0  0  0  0
 24 26  2  0  0  0  0
 25 26  1  0  0  0  0
  1 27  1  0  0  0  0
  2 28  1  0  0  0  0
  3 29  1  0  0  0  0
  4 30  1  0  0  0  0
  5 31  1  0  0  0  0
  6 32  1  0  0  0  0
  7 33  1  0  0  0  0
  8 34  1  0  0  0  0
  9 35  1  0  0  0  0
 17 36  1  0  0  0  0
 17 37  1  0  0  0  0
 19 38  1  0  0  0  0
 19 39  1  0  0  0  0
 20 40  1  0  0  0  0
M  END
> <Catalog ID>
Z2156384785

> <MW>
375.374

> <MW (desalted)>
375.374

> <ClogP>
2.941

> <logS>
-4.012

> <HBD>
2

> <HBA>
4

> <TPSA>
111.26

> <RotBonds>
5

> <ROCS_ShapeQuery>
A71EV2A-x0451_0A_A71EV2A-x0310_0A_A71EV2A-x0416_0A_peptide

> <ROCS_TanimotoCombo>
0.527 

> <ROCS_ShapeTanimoto>
0.342 

> <ROCS_ColorTanimoto>
0.185 

> <ROCS_RefTversky>
0.309 

> <ROCS_RefColorTversky>
0.198 

> <ROCS_RefTverskyCombo>
0.507 

> <ROCS_FitTversky>
1.456 

> <ROCS_FitColorTversky>
0.732 

> <ROCS_FitTverskyCombo>
2.187 

> <ROCS_ColorScore>
-6.038

> <ROCS_Overlap>
2151.189

> <ROCS_Rank>
256                 

$$$$
untitled-dbase-2699_1329
  -OEChem-11132309573D

 47 50  0     0  0  0  0  0  0999 V2000
   12.8603   12.7817   21.6081 C   0  0  0  0  0  0  0  0  0  0  0  0
    3.9169   12.7193   28.8901 C   0  0  0  0  0  0  0  0  0  0  0  0
    3.6382   11.3542   28.8766 C   0  0  0  0  0  0  0  0  0  0  0  0
    4.9043   13.2403   28.0534 C   0  0  0  0  0  0  0  0  0  0  0  0
    4.3457   10.5039   28.0263 C   0  0  0  0  0  0  0  0  0  0  0  0
   13.7665   16.1148   20.6418 C   0  0  0  0  0  0  0  0  0  0  0  0
   12.1933   15.2452   19.0276 C   0  0  0  0  0  0  0  0  0  0  0  0
   14.5625   16.6003   19.6045 C   0  0  0  0  0  0  0  0  0  0  0  0
   12.9893   15.7308   17.9902 C   0  0  0  0  0  0  0  0  0  0  0  0
    8.3960   12.5618   24.5778 C   0  0  0  0  0  0  0  0  0  0  0  0
    7.8373    9.8255   24.5506 C   0  0  0  0  0  0  0  0  0  0  0  0
    5.6166   12.3906   27.1985 C   0  0  0  0  0  0  0  0  0  0  0  0
    5.3372   11.0225   27.1849 C   0  0  0  0  0  0  0  0  0  0  0  0
    7.4043   12.0433   25.4191 C   0  0  0  0  0  0  0  0  0  0  0  0
    7.1249   10.6752   25.4055 C   0  0  0  0  0  0  0  0  0  0  0  0
   12.5819   15.4371   20.3534 C   0  0  0  0  0  0  0  0  0  0  0  0
    9.1035   11.7116   23.7275 C   0  0  0  0  0  0  0  0  0  0  0  0
   14.1739   16.4084   18.2787 C   0  0  0  0  0  0  0  0  0  0  0  0
    8.8247   10.3464   23.7139 C   0  0  0  0  0  0  0  0  0  0  0  0
    6.6603   12.9511   26.3161 C   0  0  0  0  0  0  0  0  0  0  0  0
    6.0812   10.1148   26.2879 C   0  0  0  0  0  0  0  0  0  0  0  0
   11.7423   14.9249   21.4476 C   0  0  0  0  0  0  0  0  0  0  0  0
   11.8572   13.7106   22.0211 C   0  0  0  0  0  0  0  0  0  0  0  0
   10.8863   13.3900   23.1375 C   0  0  0  0  0  0  0  0  0  0  0  0
   15.7205   18.0504   17.5244 C   0  0  0  0  0  0  0  0  0  0  0  0
   13.6742   12.0239   21.2766 N   0  0  0  0  0  0  0  0  0  0  0  0
   10.0867   12.2623   22.8997 N   0  0  0  0  0  0  0  0  0  0  0  0
    6.9047   14.1512   26.3281 O   0  0  0  0  0  0  0  0  0  0  0  0
    5.8359    8.9148   26.2767 O   0  0  0  0  0  0  0  0  0  0  0  0
   10.8431   14.0931   24.1440 O   0  0  0  0  0  0  0  0  0  0  0  0
   14.9507   16.8822   17.2664 O   0  0  0  0  0  0  0  0  0  0  0  0
   15.0456   18.7916   18.4408 F   0  0  0  0  0  0  0  0  0  0  0  0
   16.8917   17.6921   18.1055 F   0  0  0  0  0  0  0  0  0  0  0  0
    9.6800    9.2613   22.6758 Cl  0  0  0  0  0  0  0  0  0  0  0  0
    3.3647   13.3788   29.5537 H   0  0  0  0  0  0  0  0  0  0  0  0
    2.8687   10.9515   29.5290 H   0  0  0  0  0  0  0  0  0  0  0  0
    5.1020   14.3081   28.0824 H   0  0  0  0  0  0  0  0  0  0  0  0
    4.1100    9.4431   28.0353 H   0  0  0  0  0  0  0  0  0  0  0  0
   14.0827   16.2722   21.6703 H   0  0  0  0  0  0  0  0  0  0  0  0
   11.2726   14.7190   18.7869 H   0  0  0  0  0  0  0  0  0  0  0  0
   15.4843   17.1274   19.8354 H   0  0  0  0  0  0  0  0  0  0  0  0
   12.6814   15.5782   16.9594 H   0  0  0  0  0  0  0  0  0  0  0  0
    8.6226   13.6258   24.5781 H   0  0  0  0  0  0  0  0  0  0  0  0
    7.6266    8.7585   24.5337 H   0  0  0  0  0  0  0  0  0  0  0  0
   10.9976   15.6413   21.7875 H   0  0  0  0  0  0  0  0  0  0  0  0
   15.8903   18.6655   16.6342 H   0  0  0  0  0  0  0  0  0  0  0  0
   10.2427   11.7820   22.0080 H   0  0  0  0  0  0  0  0  0  0  0  0
  1 23  1  0  0  0  0
  1 26  3  0  0  0  0
  2  3  1  0  0  0  0
  2  4  2  0  0  0  0
  3  5  2  0  0  0  0
  4 12  1  0  0  0  0
  5 13  1  0  0  0  0
  6  8  2  0  0  0  0
  6 16  1  0  0  0  0
  7  9  1  0  0  0  0
  7 16  2  0  0  0  0
  8 18  1  0  0  0  0
  9 18  2  0  0  0  0
 10 14  2  0  0  0  0
 10 17  1  0  0  0  0
 11 15  2  0  0  0  0
 11 19  1  0  0  0  0
 12 13  2  0  0  0  0
 12 20  1  0  0  0  0
 13 21  1  0  0  0  0
 14 15  1  0  0  0  0
 14 20  1  0  0  0  0
 15 21  1  0  0  0  0
 16 22  1  4  0  0  0
 17 19  2  0  0  0  0
 17 27  1  0  0  0  0
 18 31  1  0  0  0  0
 19 34  1  0  0  0  0
 20 28  2  0  0  0  0
 21 29  2  0  0  0  0
 22 23  2  0  0  0  0
 23 24  1  0  0  0  0
 24 27  1  0  0  0  0
 24 30  2  0  0  0  0
 25 31  1  0  0  0  0
 25 32  1  0  0  0  0
 25 33  1  0  0  0  0
  2 35  1  0  0  0  0
  3 36  1  0  0  0  0
  4 37  1  0  0  0  0
  5 38  1  0  0  0  0
  6 39  1  0  0  0  0
  7 40  1  0  0  0  0
  8 41  1  0  0  0  0
  9 42  1  0  0  0  0
 10 43  1  0  0  0  0
 11 44  1  0  0  0  0
 22 45  1  0  0  0  0
 25 46  1  0  0  0  0
 27 47  1  0  0  0  0
M  END
> <Catalog ID>
Z56786715

> <MW>
478.832

> <MW (desalted)>
478.832

> <ClogP>
5.009

> <logS>
-8.4

> <HBD>
1

> <HBA>
5

> <TPSA>
96.26

> <RotBonds>
5

> <ROCS_ShapeQuery>
A71EV2A-x0451_0A_A71EV2A-x0310_0A_A71EV2A-x0416_0A_peptide

> <ROCS_TanimotoCombo>
0.527 

> <ROCS_ShapeTanimoto>
0.366 

> <ROCS_ColorTanimoto>
0.161 

> <ROCS_RefTversky>
0.339 

> <ROCS_RefColorTversky>
0.189 

> <ROCS_RefTverskyCombo>
0.528 

> <ROCS_FitTversky>
1.280 

> <ROCS_FitColorTversky>
0.521 

> <ROCS_FitTverskyCombo>
1.801 

> <ROCS_ColorScore>
-5.777

> <ROCS_Overlap>
2365.758

> <ROCS_Rank>
257                 

$$$$
untitled-dbase-11433_2477
  -OEChem-11132309573D

 43 45  0     0  0  0  0  0  0999 V2000
    7.3587   12.8858   26.2193 C   0  0  0  0  0  0  0  0  0  0  0  0
    8.8886   16.3570   20.3988 C   0  0  0  0  0  0  0  0  0  0  0  0
    9.9775   16.9847   19.7940 C   0  0  0  0  0  0  0  0  0  0  0  0
    6.3517   11.9174   26.2306 C   0  0  0  0  0  0  0  0  0  0  0  0
    8.5089   12.7239   25.4348 C   0  0  0  0  0  0  0  0  0  0  0  0
    9.0977   15.4131   21.4044 C   0  0  0  0  0  0  0  0  0  0  0  0
   11.2756   16.6686   20.1948 C   0  0  0  0  0  0  0  0  0  0  0  0
    6.4552   10.7546   25.4612 C   0  0  0  0  0  0  0  0  0  0  0  0
    8.6338   11.5622   24.6530 C   0  0  0  0  0  0  0  0  0  0  0  0
   10.3958   15.0970   21.8051 C   0  0  0  0  0  0  0  0  0  0  0  0
   11.4848   15.7247   21.2003 C   0  0  0  0  0  0  0  0  0  0  0  0
    9.6033   11.0401   23.7566 C   0  0  0  0  0  0  0  0  0  0  0  0
    7.6095   10.6217   24.6916 C   0  0  0  0  0  0  0  0  0  0  0  0
    9.1127    9.8334   23.3144 C   0  0  0  0  0  0  0  0  0  0  0  0
   14.3899   15.5607   26.2802 C   0  0  0  0  0  0  0  0  0  0  0  0
   13.9611   16.1100   25.1398 C   0  0  0  0  0  0  0  0  0  0  0  0
   10.5896   14.0876   22.8778 C   0  0  0  0  0  0  0  0  0  0  0  0
   13.6674   15.2571   23.9573 C   0  0  0  0  0  0  0  0  0  0  0  0
   12.8853   15.4047   21.6095 C   0  0  0  0  0  0  0  0  0  0  0  0
   10.8821   11.6756   23.3802 C   0  0  0  0  0  0  0  0  0  0  0  0
   10.7131   12.7745   22.4548 N   0  0  0  0  0  0  0  0  0  0  0  0
   13.2353   16.0039   22.8714 N   0  0  0  0  0  0  0  0  0  0  0  0
   10.6091   14.4540   24.0500 O   0  0  0  0  0  0  0  0  0  0  0  0
   13.7993   14.0374   23.9739 O   0  0  0  0  0  0  0  0  0  0  0  0
    7.9038    9.5704   23.8758 O   0  0  0  0  0  0  0  0  0  0  0  0
    9.8692    8.7526   22.2060 Cl  0  0  0  0  0  0  0  0  0  0  0  0
    7.2495   13.7796   26.8281 H   0  0  0  0  0  0  0  0  0  0  0  0
    7.8774   16.6029   20.0872 H   0  0  0  0  0  0  0  0  0  0  0  0
    9.8140   17.7193   19.0109 H   0  0  0  0  0  0  0  0  0  0  0  0
    5.4706   12.0703   26.8488 H   0  0  0  0  0  0  0  0  0  0  0  0
    9.2824   13.4860   25.4371 H   0  0  0  0  0  0  0  0  0  0  0  0
    8.2408   14.9302   21.8671 H   0  0  0  0  0  0  0  0  0  0  0  0
   12.1171   17.1638   19.7174 H   0  0  0  0  0  0  0  0  0  0  0  0
    5.6783    9.9994   25.4646 H   0  0  0  0  0  0  0  0  0  0  0  0
   14.6032   16.1896   27.1383 H   0  0  0  0  0  0  0  0  0  0  0  0
   14.5385   14.4926   26.3948 H   0  0  0  0  0  0  0  0  0  0  0  0
   13.8251   17.1836   25.0672 H   0  0  0  0  0  0  0  0  0  0  0  0
   13.0293   14.3203   21.7060 H   0  0  0  0  0  0  0  0  0  0  0  0
   13.6108   15.7578   20.8650 H   0  0  0  0  0  0  0  0  0  0  0  0
   11.4152   12.0783   24.2596 H   0  0  0  0  0  0  0  0  0  0  0  0
   11.5775   10.9635   22.9021 H   0  0  0  0  0  0  0  0  0  0  0  0
   10.6242   12.5393   21.4723 H   0  0  0  0  0  0  0  0  0  0  0  0
   13.1272   17.0121   22.9639 H   0  0  0  0  0  0  0  0  0  0  0  0
  1  4  1  0  0  0  0
  1  5  2  0  0  0  0
  2  3  1  0  0  0  0
  2  6  2  0  0  0  0
  3  7  2  0  0  0  0
  4  8  2  0  0  0  0
  5  9  1  0  0  0  0
  6 10  1  0  0  0  0
  7 11  1  0  0  0  0
  8 13  1  0  0  0  0
  9 12  1  0  0  0  0
  9 13  2  0  0  0  0
 10 11  2  0  0  0  0
 10 17  1  0  0  0  0
 11 19  1  0  0  0  0
 12 14  2  0  0  0  0
 12 20  1  0  0  0  0
 13 25  1  0  0  0  0
 14 25  1  0  0  0  0
 14 26  1  0  0  0  0
 15 16  2  0  0  0  0
 16 18  1  0  0  0  0
 17 21  1  0  0  0  0
 17 23  2  0  0  0  0
 18 22  1  0  0  0  0
 18 24  2  0  0  0  0
 19 22  1  0  0  0  0
 20 21  1  0  0  0  0
  1 27  1  0  0  0  0
  2 28  1  0  0  0  0
  3 29  1  0  0  0  0
  4 30  1  0  0  0  0
  5 31  1  0  0  0  0
  6 32  1  0  0  0  0
  7 33  1  0  0  0  0
  8 34  1  0  0  0  0
 15 35  1  0  0  0  0
 15 36  1  0  0  0  0
 16 37  1  0  0  0  0
 19 38  1  0  0  0  0
 19 39  1  0  0  0  0
 20 40  1  0  0  0  0
 20 41  1  0  0  0  0
 21 42  1  0  0  0  0
 22 43  1  0  0  0  0
M  END
> <Catalog ID>
Z4899891175

> <MW>
368.814

> <MW (desalted)>
368.814

> <ClogP>
2.805

> <logS>
-6.23

> <HBD>
2

> <HBA>
2

> <TPSA>
71.34

> <RotBonds>
6

> <ROCS_ShapeQuery>
A71EV2A-x0451_0A_A71EV2A-x0310_0A_A71EV2A-x0416_0A_peptide

> <ROCS_TanimotoCombo>
0.527 

> <ROCS_ShapeTanimoto>
0.341 

> <ROCS_ColorTanimoto>
0.186 

> <ROCS_RefTversky>
0.308 

> <ROCS_RefColorTversky>
0.209 

> <ROCS_RefTverskyCombo>
0.517 

> <ROCS_FitTversky>
1.454 

> <ROCS_FitColorTversky>
0.628 

> <ROCS_FitTverskyCombo>
2.082 

> <ROCS_ColorScore>
-6.380

> <ROCS_Overlap>
2145.262

> <ROCS_Rank>
258                 

$$$$
untitled-dbase-9760_4158
  -OEChem-11132309573D

 45 45  0     0  0  0  0  0  0999 V2000
    7.0886   10.3378   25.0537 C   0  0  0  0  0  0  0  0  0  0  0  0
    7.9892    9.5425   24.3450 C   0  0  0  0  0  0  0  0  0  0  0  0
    8.2654   12.3185   24.3264 C   0  0  0  0  0  0  0  0  0  0  0  0
    7.2267   11.7258   25.0443 C   0  0  0  0  0  0  0  0  0  0  0  0
    9.0279   10.1352   23.6271 C   0  0  0  0  0  0  0  0  0  0  0  0
    9.1660   11.5233   23.6178 C   0  0  0  0  0  0  0  0  0  0  0  0
   13.2117   16.9515   19.8998 C   0  0  0  0  0  0  0  0  0  0  0  0
   12.3263   17.1873   20.8736 C   0  0  0  0  0  0  0  0  0  0  0  0
    6.2869   12.5541   25.7830 C   0  0  0  0  0  0  0  0  0  0  0  0
   12.0917   16.1657   21.9336 C   0  0  0  0  0  0  0  0  0  0  0  0
   10.8536   13.3436   23.1901 C   0  0  0  0  0  0  0  0  0  0  0  0
    9.2795    8.4463   21.7730 C   0  0  0  0  0  0  0  0  0  0  0  0
   10.7617    8.3144   23.8079 C   0  0  0  0  0  0  0  0  0  0  0  0
   10.8390   14.8327   20.2812 C   0  0  0  0  0  0  0  0  0  0  0  0
    4.3554   12.5009   27.1825 C   0  0  0  0  0  0  0  0  0  0  0  0
   11.9206   13.6440   22.1552 C   0  0  0  0  0  0  0  0  0  0  0  0
    9.9784    9.2586   22.8781 C   0  0  0  0  0  0  0  0  0  0  0  0
   10.2129   12.1432   22.8948 N   0  0  0  0  0  0  0  0  0  0  0  0
   11.6335   14.9184   21.4998 N   0  0  0  0  0  0  0  0  0  0  0  0
    6.3314   13.7905   25.8318 O   0  0  0  0  0  0  0  0  0  0  0  0
   12.2812   16.4573   23.1155 O   0  0  0  0  0  0  0  0  0  0  0  0
   10.6374   14.0877   24.1413 O   0  0  0  0  0  0  0  0  0  0  0  0
    5.3417   11.7972   26.4199 O   0  0  0  0  0  0  0  0  0  0  0  0
    6.2828    9.8653   25.6095 H   0  0  0  0  0  0  0  0  0  0  0  0
    7.8729    8.4621   24.3590 H   0  0  0  0  0  0  0  0  0  0  0  0
    8.3728   13.4013   24.3205 H   0  0  0  0  0  0  0  0  0  0  0  0
   13.4147   17.6650   19.1089 H   0  0  0  0  0  0  0  0  0  0  0  0
   13.7649   16.0181   19.8843 H   0  0  0  0  0  0  0  0  0  0  0  0
   11.8096   18.1383   20.9097 H   0  0  0  0  0  0  0  0  0  0  0  0
    8.5034    7.7908   22.1830 H   0  0  0  0  0  0  0  0  0  0  0  0
    9.9924    7.8172   21.2289 H   0  0  0  0  0  0  0  0  0  0  0  0
    8.8023    9.1159   21.0486 H   0  0  0  0  0  0  0  0  0  0  0  0
   10.0752    7.6585   24.3548 H   0  0  0  0  0  0  0  0  0  0  0  0
   11.3474    8.8753   24.5443 H   0  0  0  0  0  0  0  0  0  0  0  0
   11.4552    7.6786   23.2467 H   0  0  0  0  0  0  0  0  0  0  0  0
   11.5050   14.6862   19.4181 H   0  0  0  0  0  0  0  0  0  0  0  0
   10.1438   13.9835   20.3559 H   0  0  0  0  0  0  0  0  0  0  0  0
   10.2679   15.7636   20.1497 H   0  0  0  0  0  0  0  0  0  0  0  0
    3.6657   11.7851   27.6364 H   0  0  0  0  0  0  0  0  0  0  0  0
    3.8088   13.1857   26.5293 H   0  0  0  0  0  0  0  0  0  0  0  0
    4.8547   13.0714   27.9691 H   0  0  0  0  0  0  0  0  0  0  0  0
   11.9455   12.8454   21.4071 H   0  0  0  0  0  0  0  0  0  0  0  0
   12.8946   13.6928   22.6521 H   0  0  0  0  0  0  0  0  0  0  0  0
   10.7356    9.8816   22.3671 H   0  0  0  0  0  0  0  0  0  0  0  0
   10.5236   11.6422   22.0651 H   0  0  0  0  0  0  0  0  0  0  0  0
  1  2  2  0  0  0  0
  1  4  1  0  0  0  0
  2  5  1  0  0  0  0
  3  4  2  0  0  0  0
  3  6  1  0  0  0  0
  4  9  1  0  0  0  0
  5  6  2  0  0  0  0
  5 17  1  0  0  0  0
  6 18  1  0  0  0  0
  7  8  2  0  0  0  0
  8 10  1  0  0  0  0
  9 20  2  0  0  0  0
  9 23  1  0  0  0  0
 10 19  1  0  0  0  0
 10 21  2  0  0  0  0
 11 16  1  0  0  0  0
 11 18  1  0  0  0  0
 11 22  2  0  0  0  0
 12 17  1  0  0  0  0
 13 17  1  0  0  0  0
 14 19  1  0  0  0  0
 15 23  1  0  0  0  0
 16 19  1  0  0  0  0
  1 24  1  0  0  0  0
  2 25  1  0  0  0  0
  3 26  1  0  0  0  0
  7 27  1  0  0  0  0
  7 28  1  0  0  0  0
  8 29  1  0  0  0  0
 12 30  1  0  0  0  0
 12 31  1  0  0  0  0
 12 32  1  0  0  0  0
 13 33  1  0  0  0  0
 13 34  1  0  0  0  0
 13 35  1  0  0  0  0
 14 36  1  0  0  0  0
 14 37  1  0  0  0  0
 14 38  1  0  0  0  0
 15 39  1  0  0  0  0
 15 40  1  0  0  0  0
 15 41  1  0  0  0  0
 16 42  1  0  0  0  0
 16 43  1  0  0  0  0
 17 44  1  0  0  0  0
 18 45  1  0  0  0  0
M  END
> <Catalog ID>
Z2710746217

> <MW>
318.368

> <MW (desalted)>
318.368

> <ClogP>
2.051

> <logS>
-3.918

> <HBD>
1

> <HBA>
3

> <TPSA>
75.71

> <RotBonds>
7

> <ROCS_ShapeQuery>
A71EV2A-x0451_0A_A71EV2A-x0310_0A_A71EV2A-x0416_0A_peptide

> <ROCS_TanimotoCombo>
0.527 

> <ROCS_ShapeTanimoto>
0.372 

> <ROCS_ColorTanimoto>
0.155 

> <ROCS_RefTversky>
0.322 

> <ROCS_RefColorTversky>
0.170 

> <ROCS_RefTverskyCombo>
0.493 

> <ROCS_FitTversky>
1.709 

> <ROCS_FitColorTversky>
0.630 

> <ROCS_FitTverskyCombo>
2.339 

> <ROCS_ColorScore>
-5.190

> <ROCS_Overlap>
2239.393

> <ROCS_Rank>
259                 

$$$$
untitled-dbase-1187_2686
  -OEChem-11132309573D

 44 46  0     1  0  0  0  0  0999 V2000
   14.3747   16.1494   18.2565 C   0  0  0  0  0  0  0  0  0  0  0  0
   14.8285   16.4119   19.5586 C   0  0  0  0  0  0  0  0  0  0  0  0
   13.0921   15.6421   18.0381 C   0  0  0  0  0  0  0  0  0  0  0  0
   14.0069   16.1691   20.6613 C   0  0  0  0  0  0  0  0  0  0  0  0
    9.2160   10.3234   23.4192 C   0  0  0  0  0  0  0  0  0  0  0  0
    8.2024    9.6461   24.0969 C   0  0  0  0  0  0  0  0  0  0  0  0
    8.3597   12.4277   24.2415 C   0  0  0  0  0  0  0  0  0  0  0  0
   12.2795   15.4157   19.1362 C   0  0  0  0  0  0  0  0  0  0  0  0
   12.7336   15.6706   20.4363 C   0  0  0  0  0  0  0  0  0  0  0  0
    9.2947   11.7142   23.4915 C   0  0  0  0  0  0  0  0  0  0  0  0
    7.3460   11.7503   24.9192 C   0  0  0  0  0  0  0  0  0  0  0  0
    7.2674   10.3595   24.8469 C   0  0  0  0  0  0  0  0  0  0  0  0
    4.5326   13.2042   28.6305 C   0  0  0  0  0  0  0  0  0  0  0  0
    4.8090   13.1116   27.3259 C   0  0  0  0  0  0  0  0  0  0  0  0
    5.7255   12.0498   26.8179 C   0  0  0  0  0  0  0  0  0  0  0  0
   10.9263   13.6039   23.1609 C   0  0  0  0  0  0  0  0  0  0  0  0
   10.8955   14.8489   19.1531 C   0  0  0  0  0  0  0  0  0  0  0  0
   10.4283   15.2445   20.5627 C   0  0  0  0  0  0  0  0  0  0  0  0
   11.6871   15.3143   21.4538 C   0  0  1  0  0  0  0  0  0  0  0  0
   11.9877   13.9885   22.1426 C   0  0  0  0  0  0  0  0  0  0  0  0
    6.4121   12.4661   25.6691 N   0  0  0  0  0  0  0  0  0  0  0  0
   10.3232   12.4013   22.8037 N   0  0  0  0  0  0  0  0  0  0  0  0
    5.8187   10.9669   27.3836 O   0  0  0  0  0  0  0  0  0  0  0  0
   10.6812   14.2985   24.1416 O   0  0  0  0  0  0  0  0  0  0  0  0
    6.2975    9.6978   25.4937 F   0  0  0  0  0  0  0  0  0  0  0  0
   15.0269   16.3499   17.4105 H   0  0  0  0  0  0  0  0  0  0  0  0
   15.8264   16.8148   19.7073 H   0  0  0  0  0  0  0  0  0  0  0  0
   12.7464   15.4338   17.0313 H   0  0  0  0  0  0  0  0  0  0  0  0
   14.3645   16.3748   21.6635 H   0  0  0  0  0  0  0  0  0  0  0  0
    9.9391    9.7569   22.8377 H   0  0  0  0  0  0  0  0  0  0  0  0
    8.1409    8.5633   24.0413 H   0  0  0  0  0  0  0  0  0  0  0  0
    8.4215   13.5128   24.2975 H   0  0  0  0  0  0  0  0  0  0  0  0
    3.8718   13.9621   29.0360 H   0  0  0  0  0  0  0  0  0  0  0  0
    4.9766   12.5036   29.3300 H   0  0  0  0  0  0  0  0  0  0  0  0
    4.3654   13.8113   26.6260 H   0  0  0  0  0  0  0  0  0  0  0  0
   10.2812   15.3277   18.3828 H   0  0  0  0  0  0  0  0  0  0  0  0
   10.8839   13.7629   19.0205 H   0  0  0  0  0  0  0  0  0  0  0  0
    9.8708   16.1902   20.5593 H   0  0  0  0  0  0  0  0  0  0  0  0
    9.7386   14.4718   20.9386 H   0  0  0  0  0  0  0  0  0  0  0  0
   11.6091   16.1102   22.1788 H   0  0  0  0  0  0  0  0  0  0  0  0
   12.9540   14.0563   22.6536 H   0  0  0  0  0  0  0  0  0  0  0  0
   12.0539   13.1956   21.3901 H   0  0  0  0  0  0  0  0  0  0  0  0
    6.2017   13.4155   25.3383 H   0  0  0  0  0  0  0  0  0  0  0  0
   10.6507   11.9527   21.9507 H   0  0  0  0  0  0  0  0  0  0  0  0
  1  2  1  0  0  0  0
  1  3  2  0  0  0  0
  2  4  2  0  0  0  0
  3  8  1  0  0  0  0
  4  9  1  0  0  0  0
  5  6  2  0  0  0  0
  5 10  1  0  0  0  0
  6 12  1  0  0  0  0
  7 10  2  0  0  0  0
  7 11  1  0  0  0  0
  8  9  2  0  0  0  0
  8 17  1  0  0  0  0
  9 19  1  0  0  0  0
 10 22  1  0  0  0  0
 11 12  2  0  0  0  0
 11 21  1  0  0  0  0
 12 25  1  0  0  0  0
 13 14  2  0  0  0  0
 14 15  1  0  0  0  0
 15 21  1  0  0  0  0
 15 23  2  0  0  0  0
 16 20  1  0  0  0  0
 16 22  1  0  0  0  0
 16 24  2  0  0  0  0
 17 18  1  0  0  0  0
 18 19  1  0  0  0  0
 19 20  1  0  0  0  0
  1 26  1  0  0  0  0
  2 27  1  0  0  0  0
  3 28  1  0  0  0  0
  4 29  1  0  0  0  0
  5 30  1  0  0  0  0
  6 31  1  0  0  0  0
  7 32  1  0  0  0  0
 13 33  1  0  0  0  0
 13 34  1  0  0  0  0
 14 35  1  0  0  0  0
 17 36  1  0  0  0  0
 17 37  1  0  0  0  0
 18 38  1  0  0  0  0
 18 39  1  0  0  0  0
 19 40  1  0  0  0  0
 20 41  1  0  0  0  0
 20 42  1  0  0  0  0
 21 43  1  0  0  0  0
 22 44  1  0  0  0  0
M  END
> <Catalog ID>
Z1410270175

> <MW>
338.375

> <MW (desalted)>
338.375

> <ClogP>
2.914

> <logS>
-5.237

> <HBD>
2

> <HBA>
2

> <TPSA>
58.2

> <RotBonds>
5

> <ROCS_ShapeQuery>
A71EV2A-x0451_0A_A71EV2A-x0310_0A_A71EV2A-x0416_0A_peptide

> <ROCS_TanimotoCombo>
0.527 

> <ROCS_ShapeTanimoto>
0.368 

> <ROCS_ColorTanimoto>
0.159 

> <ROCS_RefTversky>
0.324 

> <ROCS_RefColorTversky>
0.179 

> <ROCS_RefTverskyCombo>
0.503 

> <ROCS_FitTversky>
1.574 

> <ROCS_FitColorTversky>
0.592 

> <ROCS_FitTverskyCombo>
2.166 

> <ROCS_ColorScore>
-5.450

> <ROCS_Overlap>
2255.813

> <ROCS_Rank>
260                 

$$$$
untitled-dbase-11001_9722
  -OEChem-11132309573D

 53 56  0     0  0  0  0  0  0999 V2000
   12.9898   11.6285   24.2287 C   0  0  0  0  0  0  0  0  0  0  0  0
    4.3628   11.5870   29.3441 C   0  0  0  0  0  0  0  0  0  0  0  0
    3.6051   11.7844   28.1898 C   0  0  0  0  0  0  0  0  0  0  0  0
    5.7275   11.8757   29.3405 C   0  0  0  0  0  0  0  0  0  0  0  0
    7.4179    7.1174   23.1705 C   0  0  0  0  0  0  0  0  0  0  0  0
    7.2947    8.3218   23.8542 C   0  0  0  0  0  0  0  0  0  0  0  0
    4.2121   12.2705   27.0318 C   0  0  0  0  0  0  0  0  0  0  0  0
    6.3345   12.3618   28.1825 C   0  0  0  0  0  0  0  0  0  0  0  0
    8.5512    6.9235   22.3974 C   0  0  0  0  0  0  0  0  0  0  0  0
    9.3886    8.9912   22.9466 C   0  0  0  0  0  0  0  0  0  0  0  0
    8.6320   12.4168   25.5019 C   0  0  0  0  0  0  0  0  0  0  0  0
    8.2944    9.2820   23.7454 C   0  0  0  0  0  0  0  0  0  0  0  0
    9.2519   11.3355   24.9249 C   0  0  0  0  0  0  0  0  0  0  0  0
    5.5768   12.5592   27.0281 C   0  0  0  0  0  0  0  0  0  0  0  0
    8.1952   10.5407   24.4415 C   0  0  0  0  0  0  0  0  0  0  0  0
   10.7050   11.1154   24.8592 C   0  0  0  0  0  0  0  0  0  0  0  0
   11.5923   11.9203   24.2426 C   0  0  0  0  0  0  0  0  0  0  0  0
   11.0390   13.1601   23.5869 C   0  0  0  0  0  0  0  0  0  0  0  0
   11.2039   16.6128   20.6394 C   0  0  0  0  0  0  0  0  0  0  0  0
   11.0954   15.6885   19.4235 C   0  0  0  0  0  0  0  0  0  0  0  0
   11.4379   15.7020   21.8418 C   0  0  0  0  0  0  0  0  0  0  0  0
   11.2683   14.2685   19.9564 C   0  0  0  0  0  0  0  0  0  0  0  0
   10.8267   14.3740   21.4111 C   0  0  0  0  0  0  0  0  0  0  0  0
    6.2322   13.0834   25.7791 C   0  0  0  0  0  0  0  0  0  0  0  0
   14.1265   11.3949   24.2156 N   0  0  0  0  0  0  0  0  0  0  0  0
    9.5433    7.8326   22.2673 N   0  0  0  0  0  0  0  0  0  0  0  0
    6.9951   11.0717   24.6900 N   0  0  0  0  0  0  0  0  0  0  0  0
    7.2939   12.2118   25.3358 N   0  0  0  0  0  0  0  0  0  0  0  0
   11.2833   13.2574   22.2190 N   0  0  0  0  0  0  0  0  0  0  0  0
   10.4182   14.0074   24.2270 O   0  0  0  0  0  0  0  0  0  0  0  0
    3.8898   11.2098   30.2461 H   0  0  0  0  0  0  0  0  0  0  0  0
    2.5423   11.5607   28.1927 H   0  0  0  0  0  0  0  0  0  0  0  0
    6.3175   11.7232   30.2394 H   0  0  0  0  0  0  0  0  0  0  0  0
    6.6506    6.3548   23.2403 H   0  0  0  0  0  0  0  0  0  0  0  0
    6.4144    8.4974   24.4676 H   0  0  0  0  0  0  0  0  0  0  0  0
    3.6139   12.4210   26.1369 H   0  0  0  0  0  0  0  0  0  0  0  0
    7.3983   12.5839   28.1889 H   0  0  0  0  0  0  0  0  0  0  0  0
    8.6940    6.0011   21.8444 H   0  0  0  0  0  0  0  0  0  0  0  0
   10.2032    9.6986   22.8194 H   0  0  0  0  0  0  0  0  0  0  0  0
    9.0162   13.2944   26.0048 H   0  0  0  0  0  0  0  0  0  0  0  0
   11.0238   10.2004   25.3538 H   0  0  0  0  0  0  0  0  0  0  0  0
   12.0141   17.3404   20.5276 H   0  0  0  0  0  0  0  0  0  0  0  0
   10.2710   17.1750   20.7626 H   0  0  0  0  0  0  0  0  0  0  0  0
   10.1106   15.8034   18.9563 H   0  0  0  0  0  0  0  0  0  0  0  0
   11.8483   15.9238   18.6645 H   0  0  0  0  0  0  0  0  0  0  0  0
   12.5161   15.5986   22.0184 H   0  0  0  0  0  0  0  0  0  0  0  0
   10.9810   16.0997   22.7532 H   0  0  0  0  0  0  0  0  0  0  0  0
   10.6794   13.5418   19.3884 H   0  0  0  0  0  0  0  0  0  0  0  0
   12.3246   13.9795   19.8866 H   0  0  0  0  0  0  0  0  0  0  0  0
    9.7376   14.4046   21.4826 H   0  0  0  0  0  0  0  0  0  0  0  0
    5.5065   13.1827   24.9628 H   0  0  0  0  0  0  0  0  0  0  0  0
    6.6548   14.0822   25.9427 H   0  0  0  0  0  0  0  0  0  0  0  0
   11.8072   12.5096   21.7638 H   0  0  0  0  0  0  0  0  0  0  0  0
  1 17  1  0  0  0  0
  1 25  3  0  0  0  0
  2  3  1  0  0  0  0
  2  4  2  0  0  0  0
  3  7  2  0  0  0  0
  4  8  1  0  0  0  0
  5  6  2  0  0  0  0
  5  9  1  0  0  0  0
  6 12  1  0  0  0  0
  7 14  1  0  0  0  0
  8 14  2  0  0  0  0
  9 26  2  0  0  0  0
 10 12  2  0  0  0  0
 10 26  1  0  0  0  0
 11 13  2  0  0  0  0
 11 28  1  0  0  0  0
 12 15  1  0  0  0  0
 13 15  1  0  0  0  0
 13 16  1  4  0  0  0
 14 24  1  0  0  0  0
 15 27  2  0  0  0  0
 16 17  2  0  0  0  0
 17 18  1  0  0  0  0
 18 29  1  0  0  0  0
 18 30  2  0  0  0  0
 19 20  1  0  0  0  0
 19 21  1  0  0  0  0
 20 22  1  0  0  0  0
 21 23  1  0  0  0  0
 22 23  1  0  0  0  0
 23 29  1  0  0  0  0
 24 28  1  0  0  0  0
 27 28  1  0  0  0  0
  2 31  1  0  0  0  0
  3 32  1  0  0  0  0
  4 33  1  0  0  0  0
  5 34  1  0  0  0  0
  6 35  1  0  0  0  0
  7 36  1  0  0  0  0
  8 37  1  0  0  0  0
  9 38  1  0  0  0  0
 10 39  1  0  0  0  0
 11 40  1  0  0  0  0
 16 41  1  0  0  0  0
 19 42  1  0  0  0  0
 19 43  1  0  0  0  0
 20 44  1  0  0  0  0
 20 45  1  0  0  0  0
 21 46  1  0  0  0  0
 21 47  1  0  0  0  0
 22 48  1  0  0  0  0
 22 49  1  0  0  0  0
 23 50  1  0  0  0  0
 24 51  1  0  0  0  0
 24 52  1  0  0  0  0
 29 53  1  0  0  0  0
M  END
> <Catalog ID>
Z228604782

> <MW>
397.472

> <MW (desalted)>
397.472

> <ClogP>
3.471

> <logS>
-4.517

> <HBD>
1

> <HBA>
4

> <TPSA>
83.6

> <RotBonds>
6

> <ROCS_ShapeQuery>
A71EV2A-x0451_0A_A71EV2A-x0310_0A_A71EV2A-x0416_0A_peptide

> <ROCS_TanimotoCombo>
0.527 

> <ROCS_ShapeTanimoto>
0.369 

> <ROCS_ColorTanimoto>
0.158 

> <ROCS_RefTversky>
0.334 

> <ROCS_RefColorTversky>
0.182 

> <ROCS_RefTverskyCombo>
0.516 

> <ROCS_FitTversky>
1.400 

> <ROCS_FitColorTversky>
0.549 

> <ROCS_FitTverskyCombo>
1.948 

> <ROCS_ColorScore>
-5.562

> <ROCS_Overlap>
2323.457

> <ROCS_Rank>
261                 

$$$$
untitled-dbase-8587_6196
  -OEChem-11132309573D

 43 45  0     0  0  0  0  0  0999 V2000
    7.8925    9.5579   23.7857 C   0  0  0  0  0  0  0  0  0  0  0  0
    7.0052   10.3245   24.5412 C   0  0  0  0  0  0  0  0  0  0  0  0
    9.0872   10.1178   23.3331 C   0  0  0  0  0  0  0  0  0  0  0  0
    8.5073   12.2109   24.3912 C   0  0  0  0  0  0  0  0  0  0  0  0
    7.3126   11.6510   24.8439 C   0  0  0  0  0  0  0  0  0  0  0  0
    9.3946   11.4442   23.6357 C   0  0  0  0  0  0  0  0  0  0  0  0
    6.3956   12.4436   25.6259 C   0  0  0  0  0  0  0  0  0  0  0  0
    4.9340   12.9802   27.0161 C   0  0  0  0  0  0  0  0  0  0  0  0
   14.2994   16.4023   20.3165 C   0  0  0  0  0  0  0  0  0  0  0  0
   13.1267   16.7354   20.8656 C   0  0  0  0  0  0  0  0  0  0  0  0
   12.5746   15.9318   21.9933 C   0  0  0  0  0  0  0  0  0  0  0  0
   11.0690   13.3088   23.3821 C   0  0  0  0  0  0  0  0  0  0  0  0
    4.0588   13.8949   29.3116 C   0  0  0  0  0  0  0  0  0  0  0  0
    4.1836   12.4111   29.4630 C   0  0  0  0  0  0  0  0  0  0  0  0
    3.8651   13.0002   28.1003 C   0  0  0  0  0  0  0  0  0  0  0  0
   12.0070   14.1647   20.3710 C   0  0  0  0  0  0  0  0  0  0  0  0
   12.4164   13.5044   22.7144 C   0  0  0  0  0  0  0  0  0  0  0  0
    5.5644   11.9174   26.5730 N   0  0  0  0  0  0  0  0  0  0  0  0
    5.3773   14.0837   26.3562 N   0  0  0  0  0  0  0  0  0  0  0  0
    6.3191   13.7651   25.4552 N   0  0  0  0  0  0  0  0  0  0  0  0
   10.6061   12.0121   23.1746 N   0  0  0  0  0  0  0  0  0  0  0  0
   12.3321   14.5808   21.7293 N   0  0  0  0  0  0  0  0  0  0  0  0
   12.3379   16.4763   23.0728 O   0  0  0  0  0  0  0  0  0  0  0  0
   10.5165   14.2035   24.0142 O   0  0  0  0  0  0  0  0  0  0  0  0
    7.6529    8.5250   23.5500 H   0  0  0  0  0  0  0  0  0  0  0  0
    6.0778    9.8737   24.8871 H   0  0  0  0  0  0  0  0  0  0  0  0
    9.7704    9.5110   22.7442 H   0  0  0  0  0  0  0  0  0  0  0  0
    8.7519   13.2452   24.6254 H   0  0  0  0  0  0  0  0  0  0  0  0
   14.7391   16.9574   19.4952 H   0  0  0  0  0  0  0  0  0  0  0  0
   14.8530   15.5496   20.6958 H   0  0  0  0  0  0  0  0  0  0  0  0
   12.5996   17.6133   20.5130 H   0  0  0  0  0  0  0  0  0  0  0  0
    3.1845   14.3745   29.7348 H   0  0  0  0  0  0  0  0  0  0  0  0
    4.9650   14.4852   29.3745 H   0  0  0  0  0  0  0  0  0  0  0  0
    5.1736   12.0023   29.6263 H   0  0  0  0  0  0  0  0  0  0  0  0
    3.3934   11.8881   29.9881 H   0  0  0  0  0  0  0  0  0  0  0  0
    2.8392   12.8788   27.7517 H   0  0  0  0  0  0  0  0  0  0  0  0
   12.9329   13.9176   19.8311 H   0  0  0  0  0  0  0  0  0  0  0  0
   11.3551   13.2793   20.4051 H   0  0  0  0  0  0  0  0  0  0  0  0
   11.4870   14.9831   19.8515 H   0  0  0  0  0  0  0  0  0  0  0  0
   12.7212   12.5776   22.2182 H   0  0  0  0  0  0  0  0  0  0  0  0
   13.1587   13.7569   23.4780 H   0  0  0  0  0  0  0  0  0  0  0  0
    6.7726   14.4554   24.8627 H   0  0  0  0  0  0  0  0  0  0  0  0
   11.1981   11.3889   22.6296 H   0  0  0  0  0  0  0  0  0  0  0  0
  1  2  1  0  0  0  0
  1  3  2  0  0  0  0
  2  5  2  0  0  0  0
  3  6  1  0  0  0  0
  4  5  1  0  0  0  0
  4  6  2  0  0  0  0
  5  7  1  0  0  0  0
  6 21  1  0  0  0  0
  7 18  2  0  0  0  0
  7 20  1  0  0  0  0
  8 15  1  0  0  0  0
  8 18  1  0  0  0  0
  8 19  2  0  0  0  0
  9 10  2  0  0  0  0
 10 11  1  0  0  0  0
 11 22  1  0  0  0  0
 11 23  2  0  0  0  0
 12 17  1  0  0  0  0
 12 21  1  0  0  0  0
 12 24  2  0  0  0  0
 13 14  1  0  0  0  0
 13 15  1  0  0  0  0
 14 15  1  0  0  0  0
 16 22  1  0  0  0  0
 17 22  1  0  0  0  0
 19 20  1  0  0  0  0
  1 25  1  0  0  0  0
  2 26  1  0  0  0  0
  3 27  1  0  0  0  0
  4 28  1  0  0  0  0
  9 29  1  0  0  0  0
  9 30  1  0  0  0  0
 10 31  1  0  0  0  0
 13 32  1  0  0  0  0
 13 33  1  0  0  0  0
 14 34  1  0  0  0  0
 14 35  1  0  0  0  0
 15 36  1  0  0  0  0
 16 37  1  0  0  0  0
 16 38  1  0  0  0  0
 16 39  1  0  0  0  0
 17 40  1  0  0  0  0
 17 41  1  0  0  0  0
 20 42  1  0  0  0  0
 21 43  1  0  0  0  0
M  END
> <Catalog ID>
Z2703222851

> <MW>
325.365

> <MW (desalted)>
325.365

> <ClogP>
1.656

> <logS>
-4.001

> <HBD>
2

> <HBA>
4

> <TPSA>
90.98

> <RotBonds>
6

> <ROCS_ShapeQuery>
A71EV2A-x0451_0A_A71EV2A-x0310_0A_A71EV2A-x0416_0A_peptide

> <ROCS_TanimotoCombo>
0.527 

> <ROCS_ShapeTanimoto>
0.345 

> <ROCS_ColorTanimoto>
0.182 

> <ROCS_RefTversky>
0.308 

> <ROCS_RefColorTversky>
0.205 

> <ROCS_RefTverskyCombo>
0.513 

> <ROCS_FitTversky>
1.538 

> <ROCS_FitColorTversky>
0.618 

> <ROCS_FitTverskyCombo>
2.155 

> <ROCS_ColorScore>
-6.269

> <ROCS_Overlap>
2138.858

> <ROCS_Rank>
262                 

$$$$
untitled-dbase-5320_2815
  -OEChem-11132309573D

 56 58  0     0  0  0  0  0  0999 V2000
   13.2988   14.3374   23.0324 C   0  0  0  0  0  0  0  0  0  0  0  0
   13.5969   15.9692   20.5687 C   0  0  0  0  0  0  0  0  0  0  0  0
   12.4638   15.1549   20.3236 C   0  0  0  0  0  0  0  0  0  0  0  0
    9.3516   11.5273   23.4710 C   0  0  0  0  0  0  0  0  0  0  0  0
    8.3242   11.9225   24.2861 C   0  0  0  0  0  0  0  0  0  0  0  0
    9.1602   10.1410   23.3404 C   0  0  0  0  0  0  0  0  0  0  0  0
   14.1105   16.3384   19.3451 C   0  0  0  0  0  0  0  0  0  0  0  0
   12.3195   15.0511   18.9577 C   0  0  0  0  0  0  0  0  0  0  0  0
   11.6248   14.5516   21.2855 C   0  0  0  0  0  0  0  0  0  0  0  0
   11.9644   14.1424   22.5625 C   0  0  0  0  0  0  0  0  0  0  0  0
   10.8969   13.5159   23.4340 C   0  0  0  0  0  0  0  0  0  0  0  0
    8.1466   13.6592   26.2417 C   0  0  0  0  0  0  0  0  0  0  0  0
    6.8026   13.6177   25.5844 C   0  0  0  0  0  0  0  0  0  0  0  0
    8.0463   13.3504   24.7625 C   0  0  0  0  0  0  0  0  0  0  0  0
    9.9689    9.1797   22.5719 C   0  0  0  0  0  0  0  0  0  0  0  0
   15.2818   17.1802   19.0255 C   0  0  0  0  0  0  0  0  0  0  0  0
   11.3118   14.3270   18.1511 C   0  0  0  0  0  0  0  0  0  0  0  0
   16.0559   14.2712   14.4266 C   0  0  0  0  0  0  0  0  0  0  0  0
   15.2087   16.6222   14.5533 C   0  0  0  0  0  0  0  0  0  0  0  0
   14.6726   15.0369   16.4268 C   0  0  0  0  0  0  0  0  0  0  0  0
   13.5324   15.9222   16.9344 C   0  0  0  0  0  0  0  0  0  0  0  0
   14.9130   15.1639   14.9119 C   0  0  0  0  0  0  0  0  0  0  0  0
   14.3817   14.4946   23.4190 N   0  0  0  0  0  0  0  0  0  0  0  0
    8.0955    9.7094   24.0223 N   0  0  0  0  0  0  0  0  0  0  0  0
   13.3262   15.7743   18.3730 N   0  0  0  0  0  0  0  0  0  0  0  0
   10.3607   12.3471   22.9047 N   0  0  0  0  0  0  0  0  0  0  0  0
   10.5771   14.0402   24.4980 O   0  0  0  0  0  0  0  0  0  0  0  0
    7.5675   10.8465   24.6219 O   0  0  0  0  0  0  0  0  0  0  0  0
   13.9988   16.2580   21.5309 H   0  0  0  0  0  0  0  0  0  0  0  0
   10.5640   14.4050   20.9842 H   0  0  0  0  0  0  0  0  0  0  0  0
    8.5387   14.6270   26.5301 H   0  0  0  0  0  0  0  0  0  0  0  0
    8.3988   12.8554   26.9228 H   0  0  0  0  0  0  0  0  0  0  0  0
    6.1507   12.7855   25.8217 H   0  0  0  0  0  0  0  0  0  0  0  0
    6.2867   14.5574   25.4283 H   0  0  0  0  0  0  0  0  0  0  0  0
    8.3573   14.1349   24.0777 H   0  0  0  0  0  0  0  0  0  0  0  0
   10.7826    8.7586   23.1870 H   0  0  0  0  0  0  0  0  0  0  0  0
    9.3658    8.3345   22.1949 H   0  0  0  0  0  0  0  0  0  0  0  0
   10.4309    9.6417   21.6809 H   0  0  0  0  0  0  0  0  0  0  0  0
   16.1958   16.5709   18.9398 H   0  0  0  0  0  0  0  0  0  0  0  0
   15.1510   17.7255   18.0758 H   0  0  0  0  0  0  0  0  0  0  0  0
   15.4605   17.9481   19.7968 H   0  0  0  0  0  0  0  0  0  0  0  0
   10.4440   14.9696   17.9367 H   0  0  0  0  0  0  0  0  0  0  0  0
   11.7257   13.9850   17.1889 H   0  0  0  0  0  0  0  0  0  0  0  0
   10.9456   13.4246   18.6670 H   0  0  0  0  0  0  0  0  0  0  0  0
   16.9978   14.5245   14.9224 H   0  0  0  0  0  0  0  0  0  0  0  0
   15.8472   13.2189   14.6478 H   0  0  0  0  0  0  0  0  0  0  0  0
   16.2025   14.3663   13.3454 H   0  0  0  0  0  0  0  0  0  0  0  0
   16.1172   16.9703   15.0562 H   0  0  0  0  0  0  0  0  0  0  0  0
   15.3619   16.7349   13.4748 H   0  0  0  0  0  0  0  0  0  0  0  0
   14.3840   17.2796   14.8495 H   0  0  0  0  0  0  0  0  0  0  0  0
   14.4683   13.9896   16.6853 H   0  0  0  0  0  0  0  0  0  0  0  0
   15.5960   15.3066   16.9565 H   0  0  0  0  0  0  0  0  0  0  0  0
   13.7387   16.9804   16.7359 H   0  0  0  0  0  0  0  0  0  0  0  0
   12.5831   15.6769   16.4457 H   0  0  0  0  0  0  0  0  0  0  0  0
   13.9976   14.8673   14.3842 H   0  0  0  0  0  0  0  0  0  0  0  0
   10.7351   12.0458   22.0090 H   0  0  0  0  0  0  0  0  0  0  0  0
  1 10  1  0  0  0  0
  1 23  3  0  0  0  0
  2  3  1  0  0  0  0
  2  7  2  0  0  0  0
  3  8  2  0  0  0  0
  3  9  1  4  0  0  0
  4  5  2  0  0  0  0
  4  6  1  0  0  0  0
  4 26  1  0  0  0  0
  5 14  1  0  0  0  0
  5 28  1  0  0  0  0
  6 15  1  0  0  0  0
  6 24  2  0  0  0  0
  7 16  1  0  0  0  0
  7 25  1  0  0  0  0
  8 17  1  0  0  0  0
  8 25  1  0  0  0  0
  9 10  2  0  0  0  0
 10 11  1  0  0  0  0
 11 26  1  0  0  0  0
 11 27  2  0  0  0  0
 12 13  1  0  0  0  0
 12 14  1  0  0  0  0
 13 14  1  0  0  0  0
 18 22  1  0  0  0  0
 19 22  1  0  0  0  0
 20 21  1  0  0  0  0
 20 22  1  0  0  0  0
 21 25  1  0  0  0  0
 24 28  1  0  0  0  0
  2 29  1  0  0  0  0
  9 30  1  0  0  0  0
 12 31  1  0  0  0  0
 12 32  1  0  0  0  0
 13 33  1  0  0  0  0
 13 34  1  0  0  0  0
 14 35  1  0  0  0  0
 15 36  1  0  0  0  0
 15 37  1  0  0  0  0
 15 38  1  0  0  0  0
 16 39  1  0  0  0  0
 16 40  1  0  0  0  0
 16 41  1  0  0  0  0
 17 42  1  0  0  0  0
 17 43  1  0  0  0  0
 17 44  1  0  0  0  0
 18 45  1  0  0  0  0
 18 46  1  0  0  0  0
 18 47  1  0  0  0  0
 19 48  1  0  0  0  0
 19 49  1  0  0  0  0
 19 50  1  0  0  0  0
 20 51  1  0  0  0  0
 20 52  1  0  0  0  0
 21 53  1  0  0  0  0
 21 54  1  0  0  0  0
 22 55  1  0  0  0  0
 26 56  1  0  0  0  0
M  END
> <Catalog ID>
Z1659977407

> <MW>
380.483

> <MW (desalted)>
380.483

> <ClogP>
3.259

> <logS>
-3.569

> <HBD>
1

> <HBA>
3

> <TPSA>
83.85

> <RotBonds>
7

> <ROCS_ShapeQuery>
A71EV2A-x0451_0A_A71EV2A-x0310_0A_A71EV2A-x0416_0A_peptide

> <ROCS_TanimotoCombo>
0.527 

> <ROCS_ShapeTanimoto>
0.331 

> <ROCS_ColorTanimoto>
0.196 

> <ROCS_RefTversky>
0.303 

> <ROCS_RefColorTversky>
0.208 

> <ROCS_RefTverskyCombo>
0.512 

> <ROCS_FitTversky>
1.375 

> <ROCS_FitColorTversky>
0.771 

> <ROCS_FitTverskyCombo>
2.146 

> <ROCS_ColorScore>
-6.350

> <ROCS_Overlap>
2109.974

> <ROCS_Rank>
263                 

$$$$
untitled-dbase-3862_13094
  -OEChem-11132309573D

 41 43  0     0  0  0  0  0  0999 V2000
   12.0802   15.1534   16.9678 B   0  0  0  0  0  0  0  0  0  0  0  0
    5.8904   11.5863   26.9147 C   0  0  0  0  0  0  0  0  0  0  0  0
    5.5745   10.2889   26.5311 C   0  0  0  0  0  0  0  0  0  0  0  0
   14.3493   16.8701   19.5389 C   0  0  0  0  0  0  0  0  0  0  0  0
   13.7694   16.4369   18.3466 C   0  0  0  0  0  0  0  0  0  0  0  0
    6.9439   12.2496   26.2922 C   0  0  0  0  0  0  0  0  0  0  0  0
    6.3124    9.6580   25.5264 C   0  0  0  0  0  0  0  0  0  0  0  0
   13.8232   16.4539   20.7620 C   0  0  0  0  0  0  0  0  0  0  0  0
    8.7512   12.2592   24.6385 C   0  0  0  0  0  0  0  0  0  0  0  0
    9.0822   10.3178   23.3264 C   0  0  0  0  0  0  0  0  0  0  0  0
   12.6635   15.5874   18.3773 C   0  0  0  0  0  0  0  0  0  0  0  0
    7.6859   11.6148   25.2817 C   0  0  0  0  0  0  0  0  0  0  0  0
   12.1374   15.1711   19.6002 C   0  0  0  0  0  0  0  0  0  0  0  0
    7.3707   10.2977   24.8869 C   0  0  0  0  0  0  0  0  0  0  0  0
    9.4645   11.6053   23.6442 C   0  0  0  0  0  0  0  0  0  0  0  0
   12.7173   15.6044   20.7926 C   0  0  0  0  0  0  0  0  0  0  0  0
   10.9782   14.2813   19.6798 C   0  0  0  0  0  0  0  0  0  0  0  0
   11.0362   13.5165   23.1949 C   0  0  0  0  0  0  0  0  0  0  0  0
   12.2040   13.8234   22.2827 C   0  0  0  0  0  0  0  0  0  0  0  0
    8.0611    9.6606   23.9224 N   0  0  0  0  0  0  0  0  0  0  0  0
   10.5267   12.2253   22.9915 N   0  0  0  0  0  0  0  0  0  0  0  0
   10.9716   13.1531   19.1920 O   0  0  0  0  0  0  0  0  0  0  0  0
   10.6323   14.3563   23.9935 O   0  0  0  0  0  0  0  0  0  0  0  0
   12.8700   14.4714   16.0731 O   0  0  0  0  0  0  0  0  0  0  0  0
   10.7820   15.4571   16.6337 O   0  0  0  0  0  0  0  0  0  0  0  0
   12.2182   15.2096   22.0109 O   0  0  0  0  0  0  0  0  0  0  0  0
    5.3195   12.0800   27.6952 H   0  0  0  0  0  0  0  0  0  0  0  0
    4.7542    9.7637   27.0115 H   0  0  0  0  0  0  0  0  0  0  0  0
   15.2105   17.5314   19.5156 H   0  0  0  0  0  0  0  0  0  0  0  0
   14.2065   16.7816   17.4108 H   0  0  0  0  0  0  0  0  0  0  0  0
    7.1828   13.2652   26.6001 H   0  0  0  0  0  0  0  0  0  0  0  0
    6.0451    8.6413   25.2438 H   0  0  0  0  0  0  0  0  0  0  0  0
   14.2798   16.7960   21.6867 H   0  0  0  0  0  0  0  0  0  0  0  0
    9.0227   13.2760   24.9168 H   0  0  0  0  0  0  0  0  0  0  0  0
    9.5969    9.7488   22.5578 H   0  0  0  0  0  0  0  0  0  0  0  0
   10.0839   14.6673   20.2071 H   0  0  0  0  0  0  0  0  0  0  0  0
   13.1433   13.5324   22.7628 H   0  0  0  0  0  0  0  0  0  0  0  0
   12.1127   13.2734   21.3413 H   0  0  0  0  0  0  0  0  0  0  0  0
   10.9973   11.6660   22.2691 H   0  0  0  0  0  0  0  0  0  0  0  0
   13.7694   14.3045   16.4004 H   0  0  0  0  0  0  0  0  0  0  0  0
   10.5276   15.1457   15.7493 H   0  0  0  0  0  0  0  0  0  0  0  0
  1 11  1  0  0  0  0
  1 24  1  0  0  0  0
  1 25  1  0  0  0  0
  2  3  1  0  0  0  0
  2  6  2  0  0  0  0
  3  7  2  0  0  0  0
  4  5  2  0  0  0  0
  4  8  1  0  0  0  0
  5 11  1  0  0  0  0
  6 12  1  0  0  0  0
  7 14  1  0  0  0  0
  8 16  2  0  0  0  0
  9 12  1  0  0  0  0
  9 15  2  0  0  0  0
 10 15  1  0  0  0  0
 10 20  2  0  0  0  0
 11 13  2  0  0  0  0
 12 14  2  0  0  0  0
 13 16  1  0  0  0  0
 13 17  1  0  0  0  0
 14 20  1  0  0  0  0
 15 21  1  0  0  0  0
 16 26  1  0  0  0  0
 17 22  2  0  0  0  0
 18 19  1  0  0  0  0
 18 21  1  0  0  0  0
 18 23  2  0  0  0  0
 19 26  1  0  0  0  0
  2 27  1  0  0  0  0
  3 28  1  0  0  0  0
  4 29  1  0  0  0  0
  5 30  1  0  0  0  0
  6 31  1  0  0  0  0
  7 32  1  0  0  0  0
  8 33  1  0  0  0  0
  9 34  1  0  0  0  0
 10 35  1  0  0  0  0
 17 36  1  0  0  0  0
 19 37  1  0  0  0  0
 19 38  1  0  0  0  0
 21 39  1  0  0  0  0
 24 40  1  0  0  0  0
 25 41  1  0  0  0  0
M  END
> <Catalog ID>
Z5107364334

> <MW>
350.133

> <MW (desalted)>
350.133

> <ClogP>
2.563

> <logS>
-3.009

> <HBD>
3

> <HBA>
6

> <TPSA>
108.75

> <RotBonds>
6

> <ROCS_ShapeQuery>
A71EV2A-x0451_0A_A71EV2A-x0310_0A_A71EV2A-x0416_0A_peptide

> <ROCS_TanimotoCombo>
0.527 

> <ROCS_ShapeTanimoto>
0.339 

> <ROCS_ColorTanimoto>
0.188 

> <ROCS_RefTversky>
0.307 

> <ROCS_RefColorTversky>
0.206 

> <ROCS_RefTverskyCombo>
0.513 

> <ROCS_FitTversky>
1.436 

> <ROCS_FitColorTversky>
0.684 

> <ROCS_FitTverskyCombo>
2.119 

> <ROCS_ColorScore>
-6.284

> <ROCS_Overlap>
2136.874

> <ROCS_Rank>
264                 

$$$$
untitled-dbase-5966_2994
  -OEChem-11132309573D

 43 45  0     1  0  0  0  0  0999 V2000
   10.5694   11.1440   23.2324 C   0  0  0  0  0  0  0  0  0  0  0  0
    9.8355    9.9719   23.4145 C   0  0  0  0  0  0  0  0  0  0  0  0
    8.7879   12.4179   24.2524 C   0  0  0  0  0  0  0  0  0  0  0  0
   10.0456   12.3670   23.6514 C   0  0  0  0  0  0  0  0  0  0  0  0
    8.5778   10.0227   24.0155 C   0  0  0  0  0  0  0  0  0  0  0  0
    8.0540   11.2458   24.4345 C   0  0  0  0  0  0  0  0  0  0  0  0
   10.8003   13.5719   23.4644 C   0  0  0  0  0  0  0  0  0  0  0  0
   12.4495   14.7171   22.8443 C   0  0  0  0  0  0  0  0  0  0  0  0
   12.1610   15.6258   19.8564 C   0  0  0  0  0  0  0  0  0  0  0  0
   14.0817   16.1236   19.1479 C   0  0  0  0  0  0  0  0  0  0  0  0
   13.1165   16.8198   20.1582 C   0  0  1  0  0  0  0  0  0  0  0  0
   12.5803   18.1708   19.6977 C   0  0  0  0  0  0  0  0  0  0  0  0
   13.0611   13.9212   18.1842 C   0  0  0  0  0  0  0  0  0  0  0  0
    8.4768    7.6637   23.7320 C   0  0  0  0  0  0  0  0  0  0  0  0
    6.3649   12.5977   25.4221 C   0  0  0  0  0  0  0  0  0  0  0  0
   13.6209   16.8581   21.5965 C   0  0  0  0  0  0  0  0  0  0  0  0
   10.5123   14.8142   23.7748 N   0  0  0  0  0  0  0  0  0  0  0  0
   11.5972   15.5677   23.3668 N   0  0  0  0  0  0  0  0  0  0  0  0
   13.0617   15.0980   18.9976 N   0  0  0  0  0  0  0  0  0  0  0  0
   11.0612   15.2721   20.2149 O   0  0  0  0  0  0  0  0  0  0  0  0
   12.0156   13.4272   22.8688 O   0  0  0  0  0  0  0  0  0  0  0  0
    7.8703    8.8714   24.1878 O   0  0  0  0  0  0  0  0  0  0  0  0
    6.8269   11.3087   25.0231 O   0  0  0  0  0  0  0  0  0  0  0  0
   14.0142   15.1862   22.1701 S   0  0  0  0  0  0  0  0  0  0  0  0
   11.5482   11.0874   22.7623 H   0  0  0  0  0  0  0  0  0  0  0  0
   10.2493    9.0226   23.0858 H   0  0  0  0  0  0  0  0  0  0  0  0
    8.3711   13.3670   24.5830 H   0  0  0  0  0  0  0  0  0  0  0  0
   14.2805   16.6652   18.2187 H   0  0  0  0  0  0  0  0  0  0  0  0
   15.0168   15.7361   19.5625 H   0  0  0  0  0  0  0  0  0  0  0  0
   13.2956   18.9565   19.9392 H   0  0  0  0  0  0  0  0  0  0  0  0
   11.6358   18.3855   20.1968 H   0  0  0  0  0  0  0  0  0  0  0  0
   12.4174   18.1583   18.6203 H   0  0  0  0  0  0  0  0  0  0  0  0
   12.6348   14.1568   17.1979 H   0  0  0  0  0  0  0  0  0  0  0  0
   14.0929   13.5605   18.0608 H   0  0  0  0  0  0  0  0  0  0  0  0
   12.4554   13.1411   18.6685 H   0  0  0  0  0  0  0  0  0  0  0  0
    7.8082    6.8222   23.9294 H   0  0  0  0  0  0  0  0  0  0  0  0
    9.4286    7.5155   24.2483 H   0  0  0  0  0  0  0  0  0  0  0  0
    8.6556    7.7395   22.6568 H   0  0  0  0  0  0  0  0  0  0  0  0
    5.3755   12.5063   25.8767 H   0  0  0  0  0  0  0  0  0  0  0  0
    6.3177   13.2548   24.5501 H   0  0  0  0  0  0  0  0  0  0  0  0
    7.0620   13.0147   26.1528 H   0  0  0  0  0  0  0  0  0  0  0  0
   12.8569   17.2886   22.2467 H   0  0  0  0  0  0  0  0  0  0  0  0
   14.5176   17.4773   21.6590 H   0  0  0  0  0  0  0  0  0  0  0  0
  1  2  2  0  0  0  0
  1  4  1  0  0  0  0
  2  5  1  0  0  0  0
  3  4  2  0  0  0  0
  3  6  1  0  0  0  0
  4  7  1  0  0  0  0
  5  6  2  0  0  0  0
  5 22  1  0  0  0  0
  6 23  1  0  0  0  0
  7 17  2  0  0  0  0
  7 21  1  0  0  0  0
  8 18  2  0  0  0  0
  8 21  1  0  0  0  0
  8 24  1  0  0  0  0
  9 11  1  0  0  0  0
  9 19  1  0  0  0  0
  9 20  2  0  0  0  0
 10 11  1  0  0  0  0
 10 19  1  0  0  0  0
 11 12  1  0  0  0  0
 11 16  1  0  0  0  0
 13 19  1  0  0  0  0
 14 22  1  0  0  0  0
 15 23  1  0  0  0  0
 16 24  1  0  0  0  0
 17 18  1  0  0  0  0
  1 25  1  0  0  0  0
  2 26  1  0  0  0  0
  3 27  1  0  0  0  0
 10 28  1  0  0  0  0
 10 29  1  0  0  0  0
 12 30  1  0  0  0  0
 12 31  1  0  0  0  0
 12 32  1  0  0  0  0
 13 33  1  0  0  0  0
 13 34  1  0  0  0  0
 13 35  1  0  0  0  0
 14 36  1  0  0  0  0
 14 37  1  0  0  0  0
 14 38  1  0  0  0  0
 15 39  1  0  0  0  0
 15 40  1  0  0  0  0
 15 41  1  0  0  0  0
 16 42  1  0  0  0  0
 16 43  1  0  0  0  0
M  END
> <Catalog ID>
Z3063577810

> <MW>
349.405

> <MW (desalted)>
349.405

> <ClogP>
0.562

> <logS>
-4.628

> <HBD>
0

> <HBA>
5

> <TPSA>
77.69

> <RotBonds>
6

> <ROCS_ShapeQuery>
A71EV2A-x0451_0A_A71EV2A-x0310_0A_A71EV2A-x0416_0A_peptide

> <ROCS_TanimotoCombo>
0.527 

> <ROCS_ShapeTanimoto>
0.355 

> <ROCS_ColorTanimoto>
0.172 

> <ROCS_RefTversky>
0.314 

> <ROCS_RefColorTversky>
0.193 

> <ROCS_RefTverskyCombo>
0.506 

> <ROCS_FitTversky>
1.578 

> <ROCS_FitColorTversky>
0.621 

> <ROCS_FitTverskyCombo>
2.199 

> <ROCS_ColorScore>
-5.879

> <ROCS_Overlap>
2180.735

> <ROCS_Rank>
265                 

$$$$
untitled-dbase-4635_3657
  -OEChem-11132309573D

 32 34  0     0  0  0  0  0  0999 V2000
    8.2149   12.2884   24.3136 C   0  0  0  0  0  0  0  0  0  0  0  0
   11.9469   17.1443   21.6609 C   0  0  0  0  0  0  0  0  0  0  0  0
   11.3775   16.4722   20.5703 C   0  0  0  0  0  0  0  0  0  0  0  0
    9.0946   10.2194   23.5377 C   0  0  0  0  0  0  0  0  0  0  0  0
    7.0941   10.2208   24.6673 C   0  0  0  0  0  0  0  0  0  0  0  0
    9.2215   11.5945   23.6515 C   0  0  0  0  0  0  0  0  0  0  0  0
    7.1274   11.5959   24.8343 C   0  0  0  0  0  0  0  0  0  0  0  0
   10.9253   13.4426   23.5741 C   0  0  0  0  0  0  0  0  0  0  0  0
   12.8587   12.7174   22.0540 C   0  0  0  0  0  0  0  0  0  0  0  0
   13.4637   13.4342   23.2172 C   0  0  0  0  0  0  0  0  0  0  0  0
   12.1007   13.8394   22.7166 C   0  0  0  0  0  0  0  0  0  0  0  0
    8.0531    9.5122   24.0303 N   0  0  0  0  0  0  0  0  0  0  0  0
   12.2922   16.2646   22.6052 N   0  0  0  0  0  0  0  0  0  0  0  0
   11.3561   15.1580   20.8092 N   0  0  0  0  0  0  0  0  0  0  0  0
   11.9126   15.1120   22.0303 N   0  0  0  0  0  0  0  0  0  0  0  0
   10.3223   12.2609   23.1184 N   0  0  0  0  0  0  0  0  0  0  0  0
   10.5966   14.1207   24.5421 O   0  0  0  0  0  0  0  0  0  0  0  0
    6.6533   12.6297   27.9220 O   0  0  0  0  0  0  0  0  0  0  0  0
    4.2879   12.0674   27.1976 O   0  0  0  0  0  0  0  0  0  0  0  0
    6.1306   12.2465   25.4837 O   0  0  0  0  0  0  0  0  0  0  0  0
    6.0241   10.4012   27.2635 F   0  0  0  0  0  0  0  0  0  0  0  0
    5.7240   11.9460   27.0445 S   0  0  0  0  0  0  0  0  0  0  0  0
    8.2736   13.3680   24.4259 H   0  0  0  0  0  0  0  0  0  0  0  0
   12.1237   18.1985   21.8132 H   0  0  0  0  0  0  0  0  0  0  0  0
   10.9888   16.8592   19.6404 H   0  0  0  0  0  0  0  0  0  0  0  0
    9.8489    9.6232   23.0326 H   0  0  0  0  0  0  0  0  0  0  0  0
    6.2698    9.6297   25.0541 H   0  0  0  0  0  0  0  0  0  0  0  0
   13.2784   12.9067   21.0726 H   0  0  0  0  0  0  0  0  0  0  0  0
   12.5387   11.6929   22.2043 H   0  0  0  0  0  0  0  0  0  0  0  0
   13.5512   12.8934   24.1522 H   0  0  0  0  0  0  0  0  0  0  0  0
   14.2910   14.1060   23.0197 H   0  0  0  0  0  0  0  0  0  0  0  0
   10.7538   11.8400   22.2861 H   0  0  0  0  0  0  0  0  0  0  0  0
  1  6  1  0  0  0  0
  1  7  2  0  0  0  0
  2  3  1  0  0  0  0
  2 13  2  0  0  0  0
  3 14  2  0  0  0  0
  4  6  2  0  0  0  0
  4 12  1  0  0  0  0
  5  7  1  0  0  0  0
  5 12  2  0  0  0  0
  6 16  1  0  0  0  0
  7 20  1  0  0  0  0
  8 11  1  0  0  0  0
  8 16  1  0  0  0  0
  8 17  2  0  0  0  0
  9 10  1  0  0  0  0
  9 11  1  0  0  0  0
 10 11  1  0  0  0  0
 11 15  1  0  0  0  0
 13 15  1  0  0  0  0
 14 15  1  0  0  0  0
 18 22  2  0  0  0  0
 19 22  2  0  0  0  0
 20 22  1  0  0  0  0
 21 22  1  0  0  0  0
  1 23  1  0  0  0  0
  2 24  1  0  0  0  0
  3 25  1  0  0  0  0
  4 26  1  0  0  0  0
  5 27  1  0  0  0  0
  9 28  1  0  0  0  0
  9 29  1  0  0  0  0
 10 30  1  0  0  0  0
 10 31  1  0  0  0  0
 16 32  1  0  0  0  0
M  END
> <Catalog ID>
Z4607528828

> <MW>
327.292

> <MW (desalted)>
327.292

> <ClogP>
-1.088

> <logS>
-1.415

> <HBD>
1

> <HBA>
6

> <TPSA>
116.07

> <RotBonds>
5

> <ROCS_ShapeQuery>
A71EV2A-x0451_0A_A71EV2A-x0310_0A_A71EV2A-x0416_0A_peptide

> <ROCS_TanimotoCombo>
0.527 

> <ROCS_ShapeTanimoto>
0.334 

> <ROCS_ColorTanimoto>
0.193 

> <ROCS_RefTversky>
0.297 

> <ROCS_RefColorTversky>
0.216 

> <ROCS_RefTverskyCombo>
0.513 

> <ROCS_FitTversky>
1.577 

> <ROCS_FitColorTversky>
0.649 

> <ROCS_FitTverskyCombo>
2.226 

> <ROCS_ColorScore>
-6.589

> <ROCS_Overlap>
2065.642

> <ROCS_Rank>
266                 

$$$$
untitled-dbase-11088_3033
  -OEChem-11132309573D

 35 36  0     0  0  0  0  0  0999 V2000
   10.9901    7.1112   21.6493 C   0  0  0  0  0  0  0  0  0  0  0  0
   11.6147    8.3066   22.0047 C   0  0  0  0  0  0  0  0  0  0  0  0
    9.6437    6.9104   21.9535 C   0  0  0  0  0  0  0  0  0  0  0  0
   10.8929    9.3013   22.6644 C   0  0  0  0  0  0  0  0  0  0  0  0
    8.9219    7.9051   22.6132 C   0  0  0  0  0  0  0  0  0  0  0  0
    8.0487   11.9426   24.3945 C   0  0  0  0  0  0  0  0  0  0  0  0
    9.5465    9.1006   22.9687 C   0  0  0  0  0  0  0  0  0  0  0  0
    9.0195   11.4398   23.5651 C   0  0  0  0  0  0  0  0  0  0  0  0
   14.5252   17.0355   21.5593 C   0  0  0  0  0  0  0  0  0  0  0  0
   14.6368   15.8876   22.2305 C   0  0  0  0  0  0  0  0  0  0  0  0
   10.6663   13.2797   23.0694 C   0  0  0  0  0  0  0  0  0  0  0  0
   11.0717   13.9783   21.7769 C   0  0  0  0  0  0  0  0  0  0  0  0
   12.5688   14.2062   21.6476 C   0  0  0  0  0  0  0  0  0  0  0  0
    7.3155   10.9148   24.9195 N   0  0  0  0  0  0  0  0  0  0  0  0
    7.8050    9.7771   24.4389 N   0  0  0  0  0  0  0  0  0  0  0  0
    8.8267   10.0940   23.6271 N   0  0  0  0  0  0  0  0  0  0  0  0
   10.0198   12.0780   22.7937 N   0  0  0  0  0  0  0  0  0  0  0  0
   10.9214   13.7502   24.1730 O   0  0  0  0  0  0  0  0  0  0  0  0
   13.5817   14.3617   24.0411 O   0  0  0  0  0  0  0  0  0  0  0  0
   12.2501   16.3079   23.1508 O   0  0  0  0  0  0  0  0  0  0  0  0
   13.2017   15.2303   22.9400 S   0  0  0  0  0  0  0  0  0  0  0  0
   11.5511    6.3371   21.1341 H   0  0  0  0  0  0  0  0  0  0  0  0
   12.6627    8.4637   21.7668 H   0  0  0  0  0  0  0  0  0  0  0  0
    9.1577    5.9798   21.6751 H   0  0  0  0  0  0  0  0  0  0  0  0
   11.3917   10.2288   22.9351 H   0  0  0  0  0  0  0  0  0  0  0  0
    7.8728    7.7359   22.8436 H   0  0  0  0  0  0  0  0  0  0  0  0
    7.8401   12.9738   24.6388 H   0  0  0  0  0  0  0  0  0  0  0  0
   15.3992   17.4835   21.0987 H   0  0  0  0  0  0  0  0  0  0  0  0
   13.5783   17.5533   21.4506 H   0  0  0  0  0  0  0  0  0  0  0  0
   15.5832   15.3728   22.3378 H   0  0  0  0  0  0  0  0  0  0  0  0
   10.7370   13.3392   20.9508 H   0  0  0  0  0  0  0  0  0  0  0  0
   10.5343   14.9312   21.7025 H   0  0  0  0  0  0  0  0  0  0  0  0
   13.1357   13.2710   21.6679 H   0  0  0  0  0  0  0  0  0  0  0  0
   12.7919   14.7283   20.7120 H   0  0  0  0  0  0  0  0  0  0  0  0
   10.2899   11.5893   21.9426 H   0  0  0  0  0  0  0  0  0  0  0  0
  1  2  1  0  0  0  0
  1  3  2  0  0  0  0
  2  4  2  0  0  0  0
  3  5  1  0  0  0  0
  4  7  1  0  0  0  0
  5  7  2  0  0  0  0
  6  8  2  0  0  0  0
  6 14  1  0  0  0  0
  7 16  1  0  0  0  0
  8 16  1  0  0  0  0
  8 17  1  0  0  0  0
  9 10  2  0  0  0  0
 10 21  1  0  0  0  0
 11 12  1  0  0  0  0
 11 17  1  0  0  0  0
 11 18  2  0  0  0  0
 12 13  1  0  0  0  0
 13 21  1  0  0  0  0
 14 15  2  0  0  0  0
 15 16  1  0  0  0  0
 19 21  2  0  0  0  0
 20 21  2  0  0  0  0
  1 22  1  0  0  0  0
  2 23  1  0  0  0  0
  3 24  1  0  0  0  0
  4 25  1  0  0  0  0
  5 26  1  0  0  0  0
  6 27  1  0  0  0  0
  9 28  1  0  0  0  0
  9 29  1  0  0  0  0
 10 30  1  0  0  0  0
 12 31  1  0  0  0  0
 12 32  1  0  0  0  0
 13 33  1  0  0  0  0
 13 34  1  0  0  0  0
 17 35  1  0  0  0  0
M  END
> <Catalog ID>
Z3015821407

> <MW>
306.34

> <MW (desalted)>
306.34

> <ClogP>
0.471

> <logS>
-2.443

> <HBD>
1

> <HBA>
5

> <TPSA>
93.95

> <RotBonds>
6

> <ROCS_ShapeQuery>
A71EV2A-x0451_0A_A71EV2A-x0310_0A_A71EV2A-x0416_0A_peptide

> <ROCS_TanimotoCombo>
0.527 

> <ROCS_ShapeTanimoto>
0.294 

> <ROCS_ColorTanimoto>
0.232 

> <ROCS_RefTversky>
0.268 

> <ROCS_RefColorTversky>
0.247 

> <ROCS_RefTverskyCombo>
0.515 

> <ROCS_FitTversky>
1.502 

> <ROCS_FitColorTversky>
0.794 

> <ROCS_FitTverskyCombo>
2.296 

> <ROCS_ColorScore>
-7.554

> <ROCS_Overlap>
1860.093

> <ROCS_Rank>
267                 

$$$$
untitled-dbase-1223_1272
  -OEChem-11132309573D

 40 42  0     1  0  0  0  0  0999 V2000
   14.3516   16.9916   19.5472 C   0  0  0  0  0  0  0  0  0  0  0  0
   13.7570   16.7019   18.3192 C   0  0  0  0  0  0  0  0  0  0  0  0
   13.8495   16.4214   20.7170 C   0  0  0  0  0  0  0  0  0  0  0  0
   12.6602   15.8421   18.2609 C   0  0  0  0  0  0  0  0  0  0  0  0
   12.7527   15.5616   20.6588 C   0  0  0  0  0  0  0  0  0  0  0  0
   12.1580   15.2719   19.4307 C   0  0  0  0  0  0  0  0  0  0  0  0
    8.5976   11.7617   24.0322 C   0  0  0  0  0  0  0  0  0  0  0  0
    7.3059   12.3444   25.5769 C   0  0  0  0  0  0  0  0  0  0  0  0
   12.2669   14.9896   21.9265 C   0  0  0  0  0  0  0  0  0  0  0  0
   12.2286   13.6814   22.2085 C   0  0  0  0  0  0  0  0  0  0  0  0
    9.1619    9.1259   23.0778 C   0  0  0  0  0  0  0  0  0  0  0  0
    9.3904   10.3264   22.1502 C   0  0  0  0  0  0  0  0  0  0  0  0
    7.9390    9.3451   23.9711 C   0  0  0  0  0  0  0  0  0  0  0  0
    9.5991   11.6298   22.9399 C   0  0  2  0  0  0  0  0  0  0  0  0
    6.6208   13.2031   26.5502 C   0  0  0  0  0  0  0  0  0  0  0  0
    8.2412   12.8342   24.7070 N   0  0  0  0  0  0  0  0  0  0  0  0
    7.0532   11.0359   25.4870 N   0  0  0  0  0  0  0  0  0  0  0  0
    7.8931   10.6882   24.5021 N   0  0  0  0  0  0  0  0  0  0  0  0
   10.9153   11.6817   23.5318 N   0  0  0  0  0  0  0  0  0  0  0  0
   12.7589   13.0750   24.6678 O   0  0  0  0  0  0  0  0  0  0  0  0
   10.5553   14.1437   24.1146 O   0  0  0  0  0  0  0  0  0  0  0  0
   11.6279   13.2272   23.7694 S   0  0  0  0  0  0  0  0  0  0  0  0
   10.6622   14.1099   19.2805 Br  0  0  0  0  0  0  0  0  0  0  0  0
   15.2060   17.6605   19.5922 H   0  0  0  0  0  0  0  0  0  0  0  0
   14.1488   17.1455   17.4085 H   0  0  0  0  0  0  0  0  0  0  0  0
   14.3263   16.6588   21.6654 H   0  0  0  0  0  0  0  0  0  0  0  0
   12.2119   15.6272   17.2943 H   0  0  0  0  0  0  0  0  0  0  0  0
   11.9393   15.7132   22.6703 H   0  0  0  0  0  0  0  0  0  0  0  0
   12.5562   12.9054   21.5288 H   0  0  0  0  0  0  0  0  0  0  0  0
    9.0157    8.2244   22.4684 H   0  0  0  0  0  0  0  0  0  0  0  0
   10.0477    8.9527   23.6993 H   0  0  0  0  0  0  0  0  0  0  0  0
   10.2637   10.1219   21.5089 H   0  0  0  0  0  0  0  0  0  0  0  0
    8.5342   10.4401   21.4678 H   0  0  0  0  0  0  0  0  0  0  0  0
    7.0148    9.1662   23.4107 H   0  0  0  0  0  0  0  0  0  0  0  0
    7.9656    8.6681   24.8331 H   0  0  0  0  0  0  0  0  0  0  0  0
    9.4749   12.4938   22.2629 H   0  0  0  0  0  0  0  0  0  0  0  0
    5.6916   13.6305   26.1309 H   0  0  0  0  0  0  0  0  0  0  0  0
    6.3440   12.6583   27.4728 H   0  0  0  0  0  0  0  0  0  0  0  0
    7.2506   14.0502   26.8828 H   0  0  0  0  0  0  0  0  0  0  0  0
   11.5389   10.9414   23.1911 H   0  0  0  0  0  0  0  0  0  0  0  0
  1  2  1  0  0  0  0
  1  3  2  0  0  0  0
  2  4  2  0  0  0  0
  3  5  1  0  0  0  0
  4  6  1  0  0  0  0
  5  6  2  0  0  0  0
  5  9  1  0  0  0  0
  6 23  1  0  0  0  0
  7 14  1  0  0  0  0
  7 16  2  0  0  0  0
  7 18  1  0  0  0  0
  8 15  1  0  0  0  0
  8 16  1  0  0  0  0
  8 17  2  0  0  0  0
  9 10  2  0  0  0  0
 10 22  1  4  0  0  0
 11 12  1  0  0  0  0
 11 13  1  0  0  0  0
 12 14  1  0  0  0  0
 13 18  1  0  0  0  0
 14 19  1  0  0  0  0
 17 18  1  0  0  0  0
 19 22  1  0  0  0  0
 20 22  2  0  0  0  0
 21 22  2  0  0  0  0
  1 24  1  0  0  0  0
  2 25  1  0  0  0  0
  3 26  1  0  0  0  0
  4 27  1  0  0  0  0
  9 28  1  0  0  0  0
 10 29  1  0  0  0  0
 11 30  1  0  0  0  0
 11 31  1  0  0  0  0
 12 32  1  0  0  0  0
 12 33  1  0  0  0  0
 13 34  1  0  0  0  0
 13 35  1  0  0  0  0
 14 36  1  0  0  0  0
 15 37  1  0  0  0  0
 15 38  1  0  0  0  0
 15 39  1  0  0  0  0
 19 40  1  0  0  0  0
M  END
> <Catalog ID>
Z1359755396

> <MW>
397.29

> <MW (desalted)>
397.29

> <ClogP>
1.779

> <logS>
-3.336

> <HBD>
1

> <HBA>
4

> <TPSA>
76.88

> <RotBonds>
3

> <ROCS_ShapeQuery>
A71EV2A-x0451_0A_A71EV2A-x0310_0A_A71EV2A-x0416_0A_peptide

> <ROCS_TanimotoCombo>
0.527 

> <ROCS_ShapeTanimoto>
0.358 

> <ROCS_ColorTanimoto>
0.169 

> <ROCS_RefTversky>
0.314 

> <ROCS_RefColorTversky>
0.192 

> <ROCS_RefTverskyCombo>
0.506 

> <ROCS_FitTversky>
1.649 

> <ROCS_FitColorTversky>
0.579 

> <ROCS_FitTverskyCombo>
2.228 

> <ROCS_ColorScore>
-5.885

> <ROCS_Overlap>
2178.605

> <ROCS_Rank>
268                 

$$$$
untitled-dbase-11693_5834
  -OEChem-11132309573D

 45 48  0     1  0  0  0  0  0999 V2000
   13.1108   16.8903   18.0489 C   0  0  0  0  0  0  0  0  0  0  0  0
   14.0912   17.1937   19.0059 C   0  0  0  0  0  0  0  0  0  0  0  0
   12.1309   15.9324   18.3143 C   0  0  0  0  0  0  0  0  0  0  0  0
   14.1050   16.5450   20.2431 C   0  0  0  0  0  0  0  0  0  0  0  0
    5.7321   11.7884   25.4454 C   0  0  0  0  0  0  0  0  0  0  0  0
    5.6839   13.1267   25.8491 C   0  0  0  0  0  0  0  0  0  0  0  0
    8.0244   13.4721   25.2546 C   0  0  0  0  0  0  0  0  0  0  0  0
    8.0872   12.1318   24.8462 C   0  0  0  0  0  0  0  0  0  0  0  0
   12.1441   15.3033   19.5484 C   0  0  0  0  0  0  0  0  0  0  0  0
   13.1189   15.6075   20.5095 C   0  0  0  0  0  0  0  0  0  0  0  0
    6.9551   11.3429   24.9527 C   0  0  0  0  0  0  0  0  0  0  0  0
    6.8074   13.9548   25.7565 C   0  0  0  0  0  0  0  0  0  0  0  0
    9.0501   11.2569   24.3068 C   0  0  0  0  0  0  0  0  0  0  0  0
   10.7124   12.9880   23.5210 C   0  0  0  0  0  0  0  0  0  0  0  0
   13.5410   14.7817   24.1343 C   0  0  0  0  0  0  0  0  0  0  0  0
   11.2274   14.2221   20.0336 C   0  0  0  0  0  0  0  0  0  0  0  0
   12.9414   14.7472   21.7288 C   0  0  2  0  0  0  0  0  0  0  0  0
   11.4752   14.2939   21.5508 C   0  0  2  0  0  0  0  0  0  0  0  0
   10.4861   11.5561   23.9666 C   0  0  0  0  0  0  0  0  0  0  0  0
   13.7159   15.7082   25.3104 C   0  0  0  0  0  0  0  0  0  0  0  0
    8.5625   10.0308   24.0958 N   0  0  0  0  0  0  0  0  0  0  0  0
   13.1481   15.4353   22.9730 N   0  0  0  0  0  0  0  0  0  0  0  0
   11.1846   13.0529   22.2135 N   0  0  0  0  0  0  0  0  0  0  0  0
   10.4968   13.9629   24.2365 O   0  0  0  0  0  0  0  0  0  0  0  0
   13.7501   13.5731   24.2238 O   0  0  0  0  0  0  0  0  0  0  0  0
    7.2362   10.0883   24.5058 O   0  0  0  0  0  0  0  0  0  0  0  0
    6.7200   15.2317   26.1546 F   0  0  0  0  0  0  0  0  0  0  0  0
   12.5978   15.1908   26.5821 Cl  0  0  0  0  0  0  0  0  0  0  0  0
   13.1210   17.4005   17.0895 H   0  0  0  0  0  0  0  0  0  0  0  0
   14.8520   17.9355   18.7781 H   0  0  0  0  0  0  0  0  0  0  0  0
   11.3826   15.6884   17.5679 H   0  0  0  0  0  0  0  0  0  0  0  0
   14.8757   16.7733   20.9715 H   0  0  0  0  0  0  0  0  0  0  0  0
    4.8681   11.1388   25.5143 H   0  0  0  0  0  0  0  0  0  0  0  0
    4.7547   13.5303   26.2438 H   0  0  0  0  0  0  0  0  0  0  0  0
    8.8879   14.1263   25.1882 H   0  0  0  0  0  0  0  0  0  0  0  0
   10.1806   14.4240   19.7883 H   0  0  0  0  0  0  0  0  0  0  0  0
   11.5358   13.2604   19.6091 H   0  0  0  0  0  0  0  0  0  0  0  0
   13.6344   13.8994   21.6806 H   0  0  0  0  0  0  0  0  0  0  0  0
   10.7929   15.0429   21.9781 H   0  0  0  0  0  0  0  0  0  0  0  0
   11.1206   11.3527   24.8387 H   0  0  0  0  0  0  0  0  0  0  0  0
   10.8261   10.8831   23.1693 H   0  0  0  0  0  0  0  0  0  0  0  0
   14.7328   15.6919   25.7102 H   0  0  0  0  0  0  0  0  0  0  0  0
   13.4671   16.7293   25.0086 H   0  0  0  0  0  0  0  0  0  0  0  0
   13.0005   16.4435   23.0050 H   0  0  0  0  0  0  0  0  0  0  0  0
   11.3307   12.1823   21.7041 H   0  0  0  0  0  0  0  0  0  0  0  0
  1  2  1  0  0  0  0
  1  3  2  0  0  0  0
  2  4  2  0  0  0  0
  3  9  1  0  0  0  0
  4 10  1  0  0  0  0
  5  6  2  0  0  0  0
  5 11  1  0  0  0  0
  6 12  1  0  0  0  0
  7  8  1  0  0  0  0
  7 12  2  0  0  0  0
  8 11  2  0  0  0  0
  8 13  1  0  0  0  0
  9 10  2  0  0  0  0
  9 16  1  0  0  0  0
 10 17  1  0  0  0  0
 11 26  1  0  0  0  0
 12 27  1  0  0  0  0
 13 19  1  0  0  0  0
 13 21  2  0  0  0  0
 14 19  1  0  0  0  0
 14 23  1  0  0  0  0
 14 24  2  0  0  0  0
 15 20  1  0  0  0  0
 15 22  1  0  0  0  0
 15 25  2  0  0  0  0
 16 18  1  0  0  0  0
 17 18  1  0  0  0  0
 17 22  1  1  0  0  0
 18 23  1  6  0  0  0
 20 28  1  0  0  0  0
 21 26  1  0  0  0  0
  1 29  1  0  0  0  0
  2 30  1  0  0  0  0
  3 31  1  0  0  0  0
  4 32  1  0  0  0  0
  5 33  1  0  0  0  0
  6 34  1  0  0  0  0
  7 35  1  0  0  0  0
 16 36  1  0  0  0  0
 16 37  1  0  0  0  0
 17 38  1  0  0  0  0
 18 39  1  0  0  0  0
 19 40  1  0  0  0  0
 19 41  1  0  0  0  0
 20 42  1  0  0  0  0
 20 43  1  0  0  0  0
 22 44  1  0  0  0  0
 23 45  1  0  0  0  0
M  END
> <Catalog ID>
Z4439378889

> <MW>
401.819

> <MW (desalted)>
401.819

> <ClogP>
2.354

> <logS>
-4.799

> <HBD>
2

> <HBA>
3

> <TPSA>
84.23

> <RotBonds>
5

> <ROCS_ShapeQuery>
A71EV2A-x0451_0A_A71EV2A-x0310_0A_A71EV2A-x0416_0A_peptide

> <ROCS_TanimotoCombo>
0.526 

> <ROCS_ShapeTanimoto>
0.340 

> <ROCS_ColorTanimoto>
0.186 

> <ROCS_RefTversky>
0.311 

> <ROCS_RefColorTversky>
0.209 

> <ROCS_RefTverskyCombo>
0.521 

> <ROCS_FitTversky>
1.373 

> <ROCS_FitColorTversky>
0.629 

> <ROCS_FitTverskyCombo>
2.002 

> <ROCS_ColorScore>
-6.401

> <ROCS_Overlap>
2166.994

> <ROCS_Rank>
269                 

$$$$
untitled-dbase-1101_481
  -OEChem-11132309573D

 49 51  0     1  0  0  0  0  0999 V2000
   11.7245   14.5520   21.1896 C   0  0  0  0  0  0  0  0  0  0  0  0
    4.9643   12.1723   28.3882 C   0  0  0  0  0  0  0  0  0  0  0  0
    5.2670   13.2128   27.5099 C   0  0  0  0  0  0  0  0  0  0  0  0
    5.4701   10.8934   28.1551 C   0  0  0  0  0  0  0  0  0  0  0  0
    6.0753   12.9743   26.3984 C   0  0  0  0  0  0  0  0  0  0  0  0
    6.2784   10.6550   27.0436 C   0  0  0  0  0  0  0  0  0  0  0  0
    6.5810   11.6954   26.1652 C   0  0  0  0  0  0  0  0  0  0  0  0
   14.9891   11.6098   26.1287 C   0  0  0  0  0  0  0  0  0  0  0  0
   13.9572   12.4579   26.2375 C   0  0  0  0  0  0  0  0  0  0  0  0
    9.2241   11.5635   23.6234 C   0  0  0  0  0  0  0  0  0  0  0  0
    8.8685   10.2821   23.7783 C   0  0  0  0  0  0  0  0  0  0  0  0
    8.2600   12.3706   24.4155 C   0  0  0  0  0  0  0  0  0  0  0  0
   13.2224   13.2672   22.5868 C   0  0  0  0  0  0  0  0  0  0  0  0
   11.9821   13.7170   22.3169 C   0  0  0  0  0  0  0  0  0  0  0  0
   10.8798   13.2981   23.2587 C   0  0  0  0  0  0  0  0  0  0  0  0
   15.5861   11.2089   24.8128 C   0  0  0  0  0  0  0  0  0  0  0  0
   13.2676   13.0686   25.0534 C   0  0  0  0  0  0  0  0  0  0  0  0
   15.1356   12.1004   23.6528 C   0  0  0  0  0  0  0  0  0  0  0  0
   13.6358   12.3896   23.7279 C   0  0  2  0  0  0  0  0  0  0  0  0
    9.5110    9.0842   23.1642 C   0  0  0  0  0  0  0  0  0  0  0  0
    6.6506    9.2551   24.2170 C   0  0  0  0  0  0  0  0  0  0  0  0
   11.5076   15.2316   20.2742 N   0  0  0  0  0  0  0  0  0  0  0  0
    7.4023   11.4534   25.0359 N   0  0  0  0  0  0  0  0  0  0  0  0
    7.7343   10.1620   24.5825 N   0  0  0  0  0  0  0  0  0  0  0  0
   10.2355   12.1085   22.9119 N   0  0  0  0  0  0  0  0  0  0  0  0
    8.3289   13.5846   24.5162 O   0  0  0  0  0  0  0  0  0  0  0  0
   10.5903   13.9695   24.2485 O   0  0  0  0  0  0  0  0  0  0  0  0
    4.3356   12.3578   29.2542 H   0  0  0  0  0  0  0  0  0  0  0  0
    4.8741   14.2088   27.6915 H   0  0  0  0  0  0  0  0  0  0  0  0
    5.2350   10.0836   28.8398 H   0  0  0  0  0  0  0  0  0  0  0  0
    6.3045   13.7930   25.7208 H   0  0  0  0  0  0  0  0  0  0  0  0
    6.6669    9.6542   26.8720 H   0  0  0  0  0  0  0  0  0  0  0  0
   15.4228   11.1837   27.0279 H   0  0  0  0  0  0  0  0  0  0  0  0
   13.5949   12.7276   27.2234 H   0  0  0  0  0  0  0  0  0  0  0  0
   14.0506   13.5427   21.9364 H   0  0  0  0  0  0  0  0  0  0  0  0
   16.6772   11.2324   24.9047 H   0  0  0  0  0  0  0  0  0  0  0  0
   15.3071   10.1734   24.5920 H   0  0  0  0  0  0  0  0  0  0  0  0
   12.1911   12.9698   25.2191 H   0  0  0  0  0  0  0  0  0  0  0  0
   13.4863   14.1382   25.0198 H   0  0  0  0  0  0  0  0  0  0  0  0
   15.7185   13.0220   23.6472 H   0  0  0  0  0  0  0  0  0  0  0  0
   15.3465   11.5835   22.7136 H   0  0  0  0  0  0  0  0  0  0  0  0
   13.0862   11.4658   23.6423 H   0  0  0  0  0  0  0  0  0  0  0  0
   10.2991    8.7089   23.8179 H   0  0  0  0  0  0  0  0  0  0  0  0
    9.9431    9.3479   22.1978 H   0  0  0  0  0  0  0  0  0  0  0  0
    8.7678    8.3001   23.0129 H   0  0  0  0  0  0  0  0  0  0  0  0
    5.8561    9.3076   24.9759 H   0  0  0  0  0  0  0  0  0  0  0  0
    6.2425    9.5473   23.2382 H   0  0  0  0  0  0  0  0  0  0  0  0
    7.0366    8.2265   24.1610 H   0  0  0  0  0  0  0  0  0  0  0  0
   10.5477   11.6209   22.0696 H   0  0  0  0  0  0  0  0  0  0  0  0
  1 14  1  0  0  0  0
  1 22  3  0  0  0  0
  2  3  1  0  0  0  0
  2  4  2  0  0  0  0
  3  5  2  0  0  0  0
  4  6  1  0  0  0  0
  5  7  1  0  0  0  0
  6  7  2  0  0  0  0
  7 23  1  0  0  0  0
  8  9  2  0  0  0  0
  8 16  1  0  0  0  0
  9 17  1  0  0  0  0
 10 11  2  0  0  0  0
 10 12  1  0  0  0  0
 10 25  1  0  0  0  0
 11 20  1  0  0  0  0
 11 24  1  0  0  0  0
 12 23  1  0  0  0  0
 12 26  2  0  0  0  0
 13 14  2  0  0  0  0
 13 19  1  4  0  0  0
 14 15  1  0  0  0  0
 15 25  1  0  0  0  0
 15 27  2  0  0  0  0
 16 18  1  0  0  0  0
 17 19  1  0  0  0  0
 18 19  1  0  0  0  0
 21 24  1  0  0  0  0
 23 24  1  0  0  0  0
  2 28  1  0  0  0  0
  3 29  1  0  0  0  0
  4 30  1  0  0  0  0
  5 31  1  0  0  0  0
  6 32  1  0  0  0  0
  8 33  1  0  0  0  0
  9 34  1  0  0  0  0
 13 35  1  0  0  0  0
 16 36  1  0  0  0  0
 16 37  1  0  0  0  0
 17 38  1  0  0  0  0
 17 39  1  0  0  0  0
 18 40  1  0  0  0  0
 18 41  1  0  0  0  0
 19 42  1  0  0  0  0
 20 43  1  0  0  0  0
 20 44  1  0  0  0  0
 20 45  1  0  0  0  0
 21 46  1  0  0  0  0
 21 47  1  0  0  0  0
 21 48  1  0  0  0  0
 25 49  1  0  0  0  0
M  END
> <Catalog ID>
Z56903725

> <MW>
362.425

> <MW (desalted)>
362.425

> <ClogP>
1.802

> <logS>
-4.26

> <HBD>
1

> <HBA>
4

> <TPSA>
76.44

> <RotBonds>
4

> <ROCS_ShapeQuery>
A71EV2A-x0451_0A_A71EV2A-x0310_0A_A71EV2A-x0416_0A_peptide

> <ROCS_TanimotoCombo>
0.526 

> <ROCS_ShapeTanimoto>
0.393 

> <ROCS_ColorTanimoto>
0.133 

> <ROCS_RefTversky>
0.344 

> <ROCS_RefColorTversky>
0.149 

> <ROCS_RefTverskyCombo>
0.493 

> <ROCS_FitTversky>
1.574 

> <ROCS_FitColorTversky>
0.552 

> <ROCS_FitTverskyCombo>
2.125 

> <ROCS_ColorScore>
-4.549

> <ROCS_Overlap>
2393.291

> <ROCS_Rank>
270                 

$$$$
untitled-dbase-7640_7311
  -OEChem-11132309573D

 40 40  0     0  0  0  0  0  0999 V2000
    8.6121   12.3043   24.7882 C   0  0  0  0  0  0  0  0  0  0  0  0
    8.7770   10.2727   23.5627 C   0  0  0  0  0  0  0  0  0  0  0  0
    7.0326   10.5432   25.0332 C   0  0  0  0  0  0  0  0  0  0  0  0
    9.2880   11.5272   23.8542 C   0  0  0  0  0  0  0  0  0  0  0  0
    7.4620   11.8102   25.3937 C   0  0  0  0  0  0  0  0  0  0  0  0
   11.0862   13.2284   23.4069 C   0  0  0  0  0  0  0  0  0  0  0  0
   11.1023   16.1068   22.2340 C   0  0  0  0  0  0  0  0  0  0  0  0
   13.3800   14.5214   20.5361 C   0  0  0  0  0  0  0  0  0  0  0  0
   11.6286   12.7961   20.2008 C   0  0  0  0  0  0  0  0  0  0  0  0
    9.7663   17.5737   23.5265 C   0  0  0  0  0  0  0  0  0  0  0  0
   12.3314   13.3759   22.5399 C   0  0  0  0  0  0  0  0  0  0  0  0
   11.0155   15.0906   21.1108 C   0  0  0  0  0  0  0  0  0  0  0  0
   12.0682   13.9526   21.1247 C   0  0  0  0  0  0  0  0  0  0  0  0
    7.6628    9.7588   24.1302 N   0  0  0  0  0  0  0  0  0  0  0  0
   10.4600   12.0030   23.2204 N   0  0  0  0  0  0  0  0  0  0  0  0
   10.7379   14.1378   24.1552 O   0  0  0  0  0  0  0  0  0  0  0  0
   12.1147   16.3993   22.8534 O   0  0  0  0  0  0  0  0  0  0  0  0
    4.3518   11.8870   26.4650 O   0  0  0  0  0  0  0  0  0  0  0  0
    5.0285   14.3232   26.6717 O   0  0  0  0  0  0  0  0  0  0  0  0
    6.7819   12.5462   26.3071 O   0  0  0  0  0  0  0  0  0  0  0  0
    9.8555   16.6187   22.4643 O   0  0  0  0  0  0  0  0  0  0  0  0
    5.0230   13.1838   24.5511 F   0  0  0  0  0  0  0  0  0  0  0  0
    5.2160   12.9974   26.1171 S   0  0  0  0  0  0  0  0  0  0  0  0
    8.9776   13.2949   25.0469 H   0  0  0  0  0  0  0  0  0  0  0  0
    9.2615    9.6195   22.8428 H   0  0  0  0  0  0  0  0  0  0  0  0
    6.1419   10.1072   25.4746 H   0  0  0  0  0  0  0  0  0  0  0  0
   13.7591   15.3531   21.1406 H   0  0  0  0  0  0  0  0  0  0  0  0
   14.1613   13.7530   20.5026 H   0  0  0  0  0  0  0  0  0  0  0  0
   13.2424   14.8863   19.5129 H   0  0  0  0  0  0  0  0  0  0  0  0
   10.6975   12.3411   20.5591 H   0  0  0  0  0  0  0  0  0  0  0  0
   12.3882   12.0070   20.1638 H   0  0  0  0  0  0  0  0  0  0  0  0
   11.4449   13.1318   19.1762 H   0  0  0  0  0  0  0  0  0  0  0  0
    8.7331   17.9159   23.6239 H   0  0  0  0  0  0  0  0  0  0  0  0
   10.4232   18.4205   23.3124 H   0  0  0  0  0  0  0  0  0  0  0  0
   10.0798   17.0985   24.4590 H   0  0  0  0  0  0  0  0  0  0  0  0
   13.0220   14.0308   23.0885 H   0  0  0  0  0  0  0  0  0  0  0  0
   12.8441   12.4087   22.4728 H   0  0  0  0  0  0  0  0  0  0  0  0
   10.0027   14.6693   21.1410 H   0  0  0  0  0  0  0  0  0  0  0  0
   11.1023   15.6368   20.1622 H   0  0  0  0  0  0  0  0  0  0  0  0
   10.8949   11.3739   22.5497 H   0  0  0  0  0  0  0  0  0  0  0  0
  1  4  2  0  0  0  0
  1  5  1  0  0  0  0
  2  4  1  0  0  0  0
  2 14  2  0  0  0  0
  3  5  2  0  0  0  0
  3 14  1  0  0  0  0
  4 15  1  0  0  0  0
  5 20  1  0  0  0  0
  6 11  1  0  0  0  0
  6 15  1  0  0  0  0
  6 16  2  0  0  0  0
  7 12  1  0  0  0  0
  7 17  2  0  0  0  0
  7 21  1  0  0  0  0
  8 13  1  0  0  0  0
  9 13  1  0  0  0  0
 10 21  1  0  0  0  0
 11 13  1  0  0  0  0
 12 13  1  0  0  0  0
 18 23  2  0  0  0  0
 19 23  2  0  0  0  0
 20 23  1  0  0  0  0
 22 23  1  0  0  0  0
  1 24  1  0  0  0  0
  2 25  1  0  0  0  0
  3 26  1  0  0  0  0
  8 27  1  0  0  0  0
  8 28  1  0  0  0  0
  8 29  1  0  0  0  0
  9 30  1  0  0  0  0
  9 31  1  0  0  0  0
  9 32  1  0  0  0  0
 10 33  1  0  0  0  0
 10 34  1  0  0  0  0
 10 35  1  0  0  0  0
 11 36  1  0  0  0  0
 11 37  1  0  0  0  0
 12 38  1  0  0  0  0
 12 39  1  0  0  0  0
 15 40  1  0  0  0  0
M  END
> <Catalog ID>
Z4607528834

> <MW>
348.347

> <MW (desalted)>
348.347

> <ClogP>
0.323

> <logS>
-1.851

> <HBD>
1

> <HBA>
5

> <TPSA>
111.66

> <RotBonds>
8

> <ROCS_ShapeQuery>
A71EV2A-x0451_0A_A71EV2A-x0310_0A_A71EV2A-x0416_0A_peptide

> <ROCS_TanimotoCombo>
0.526 

> <ROCS_ShapeTanimoto>
0.315 

> <ROCS_ColorTanimoto>
0.212 

> <ROCS_RefTversky>
0.284 

> <ROCS_RefColorTversky>
0.227 

> <ROCS_RefTverskyCombo>
0.511 

> <ROCS_FitTversky>
1.520 

> <ROCS_FitColorTversky>
0.755 

> <ROCS_FitTverskyCombo>
2.276 

> <ROCS_ColorScore>
-6.942

> <ROCS_Overlap>
1972.636

> <ROCS_Rank>
271                 

$$$$
untitled-dbase-6487_10374
  -OEChem-11132309573D

 59 62  0     1  0  0  0  0  0999 V2000
    8.8593   14.1503   20.9039 C   0  0  0  0  0  0  0  0  0  0  0  0
   13.9521   11.9182   22.8098 C   0  0  0  0  0  0  0  0  0  0  0  0
    5.8794   14.6555   25.9677 C   0  0  0  0  0  0  0  0  0  0  0  0
    8.7409   13.0883   21.8003 C   0  0  0  0  0  0  0  0  0  0  0  0
   12.8127   11.2126   22.4231 C   0  0  0  0  0  0  0  0  0  0  0  0
   14.2334   12.1008   24.1637 C   0  0  0  0  0  0  0  0  0  0  0  0
    9.6979   15.2244   21.2019 C   0  0  0  0  0  0  0  0  0  0  0  0
    6.7266   13.6340   25.5382 C   0  0  0  0  0  0  0  0  0  0  0  0
    5.0166   14.4404   27.0424 C   0  0  0  0  0  0  0  0  0  0  0  0
   12.2358   10.8722   24.7444 C   0  0  0  0  0  0  0  0  0  0  0  0
    5.8479   12.1823   27.2580 C   0  0  0  0  0  0  0  0  0  0  0  0
    9.4610   13.1003   22.9949 C   0  0  0  0  0  0  0  0  0  0  0  0
   11.9545   10.6896   23.3904 C   0  0  0  0  0  0  0  0  0  0  0  0
   13.3752   11.5778   25.1311 C   0  0  0  0  0  0  0  0  0  0  0  0
    6.7108   12.3974   26.1833 C   0  0  0  0  0  0  0  0  0  0  0  0
   10.4180   15.2364   22.3965 C   0  0  0  0  0  0  0  0  0  0  0  0
   10.2996   14.1744   23.2930 C   0  0  0  0  0  0  0  0  0  0  0  0
    5.0008   13.2038   27.6875 C   0  0  0  0  0  0  0  0  0  0  0  0
    8.3386   10.0214   23.8458 C   0  0  0  0  0  0  0  0  0  0  0  0
   14.7436   12.4333   27.0598 C   0  0  0  0  0  0  0  0  0  0  0  0
    9.3148   11.8857   24.0010 C   0  0  1  0  0  0  0  0  0  0  0  0
    7.8778   11.3981   24.3680 C   0  0  2  0  0  0  0  0  0  0  0  0
   14.6847   12.4064   28.5665 C   0  0  0  0  0  0  0  0  0  0  0  0
   12.5860   16.1999   22.2315 C   0  0  0  0  0  0  0  0  0  0  0  0
   10.3737   14.7884   25.5893 C   0  0  0  0  0  0  0  0  0  0  0  0
   10.7283    9.9302   22.9737 C   0  0  0  0  0  0  0  0  0  0  0  0
    9.5286   10.5384   23.4649 N   0  0  0  0  0  0  0  0  0  0  0  0
   13.6572   11.7601   26.4853 N   0  0  0  0  0  0  0  0  0  0  0  0
    7.8699    8.9074   23.7949 O   0  0  0  0  0  0  0  0  0  0  0  0
   15.6626   12.9999   26.4771 O   0  0  0  0  0  0  0  0  0  0  0  0
    7.5400   11.3990   25.7642 O   0  0  0  0  0  0  0  0  0  0  0  0
   11.2336   16.2915   22.6748 O   0  0  0  0  0  0  0  0  0  0  0  0
   11.0041   14.1882   24.4601 O   0  0  0  0  0  0  0  0  0  0  0  0
    3.9361   12.9399   29.0132 Cl  0  0  0  0  0  0  0  0  0  0  0  0
    8.2994   14.1405   19.9733 H   0  0  0  0  0  0  0  0  0  0  0  0
   14.6205   12.3251   22.0566 H   0  0  0  0  0  0  0  0  0  0  0  0
    5.8922   15.6184   25.4656 H   0  0  0  0  0  0  0  0  0  0  0  0
    8.0860   12.2550   21.5604 H   0  0  0  0  0  0  0  0  0  0  0  0
   12.6017   11.0762   21.3661 H   0  0  0  0  0  0  0  0  0  0  0  0
   15.1241   12.6526   24.4535 H   0  0  0  0  0  0  0  0  0  0  0  0
    9.7860   16.0485   20.4991 H   0  0  0  0  0  0  0  0  0  0  0  0
    7.3965   13.8073   24.7005 H   0  0  0  0  0  0  0  0  0  0  0  0
    4.3615   15.2454   27.3659 H   0  0  0  0  0  0  0  0  0  0  0  0
   11.5646   10.4641   25.4970 H   0  0  0  0  0  0  0  0  0  0  0  0
    5.8414   11.2150   27.7552 H   0  0  0  0  0  0  0  0  0  0  0  0
    9.9444   12.0496   24.8875 H   0  0  0  0  0  0  0  0  0  0  0  0
    7.0684   11.8245   23.7651 H   0  0  0  0  0  0  0  0  0  0  0  0
   15.2103   11.5237   28.9418 H   0  0  0  0  0  0  0  0  0  0  0  0
   13.6425   12.3648   28.8955 H   0  0  0  0  0  0  0  0  0  0  0  0
   15.1480   13.3096   28.9744 H   0  0  0  0  0  0  0  0  0  0  0  0
   13.1262   17.1057   22.5175 H   0  0  0  0  0  0  0  0  0  0  0  0
   12.6069   16.0780   21.1456 H   0  0  0  0  0  0  0  0  0  0  0  0
   13.0566   15.3337   22.7025 H   0  0  0  0  0  0  0  0  0  0  0  0
   11.0415   14.7330   26.4525 H   0  0  0  0  0  0  0  0  0  0  0  0
    9.4378   14.2668   25.8052 H   0  0  0  0  0  0  0  0  0  0  0  0
   10.1610   15.8358   25.3627 H   0  0  0  0  0  0  0  0  0  0  0  0
   10.6581    9.8795   21.8817 H   0  0  0  0  0  0  0  0  0  0  0  0
   10.7583    8.9007   23.3458 H   0  0  0  0  0  0  0  0  0  0  0  0
   12.9883   11.3528   27.1489 H   0  0  0  0  0  0  0  0  0  0  0  0
  1  4  1  0  0  0  0
  1  7  2  0  0  0  0
  2  5  2  0  0  0  0
  2  6  1  0  0  0  0
  3  8  2  0  0  0  0
  3  9  1  0  0  0  0
  4 12  2  0  0  0  0
  5 13  1  0  0  0  0
  6 14  2  0  0  0  0
  7 16  1  0  0  0  0
  8 15  1  0  0  0  0
  9 18  2  0  0  0  0
 10 13  2  0  0  0  0
 10 14  1  0  0  0  0
 11 15  2  0  0  0  0
 11 18  1  0  0  0  0
 12 17  1  0  0  0  0
 12 21  1  0  0  0  0
 13 26  1  0  0  0  0
 14 28  1  0  0  0  0
 15 31  1  0  0  0  0
 16 17  2  0  0  0  0
 16 32  1  0  0  0  0
 17 33  1  0  0  0  0
 18 34  1  0  0  0  0
 19 22  1  0  0  0  0
 19 27  1  0  0  0  0
 19 29  2  0  0  0  0
 20 23  1  0  0  0  0
 20 28  1  0  0  0  0
 20 30  2  0  0  0  0
 21 22  1  0  0  0  0
 21 27  1  0  0  0  0
 22 31  1  0  0  0  0
 24 32  1  0  0  0  0
 25 33  1  0  0  0  0
 26 27  1  0  0  0  0
  1 35  1  0  0  0  0
  2 36  1  0  0  0  0
  3 37  1  0  0  0  0
  4 38  1  0  0  0  0
  5 39  1  0  0  0  0
  6 40  1  0  0  0  0
  7 41  1  0  0  0  0
  8 42  1  0  0  0  0
  9 43  1  0  0  0  0
 10 44  1  0  0  0  0
 11 45  1  0  0  0  0
 21 46  1  0  0  0  0
 22 47  1  0  0  0  0
 23 48  1  0  0  0  0
 23 49  1  0  0  0  0
 23 50  1  0  0  0  0
 24 51  1  0  0  0  0
 24 52  1  0  0  0  0
 24 53  1  0  0  0  0
 25 54  1  0  0  0  0
 25 55  1  0  0  0  0
 25 56  1  0  0  0  0
 26 57  1  0  0  0  0
 26 58  1  0  0  0  0
 28 59  1  0  0  0  0
M  END
> <Catalog ID>
Z781034730

> <MW>
480.94

> <MW (desalted)>
480.94

> <ClogP>
4.333

> <logS>
-6.49

> <HBD>
1

> <HBA>
5

> <TPSA>
77.1

> <RotBonds>
8

> <ROCS_ShapeQuery>
A71EV2A-x0451_0A_A71EV2A-x0310_0A_A71EV2A-x0416_0A_peptide

> <ROCS_TanimotoCombo>
0.526 

> <ROCS_ShapeTanimoto>
0.372 

> <ROCS_ColorTanimoto>
0.154 

> <ROCS_RefTversky>
0.342 

> <ROCS_RefColorTversky>
0.182 

> <ROCS_RefTverskyCombo>
0.524 

> <ROCS_FitTversky>
1.310 

> <ROCS_FitColorTversky>
0.503 

> <ROCS_FitTverskyCombo>
1.814 

> <ROCS_ColorScore>
-5.581

> <ROCS_Overlap>
2383.443

> <ROCS_Rank>
272                 

$$$$
untitled-dbase-8822_9410
  -OEChem-11132309573D

 54 56  0     1  0  0  0  0  0999 V2000
    5.9575   10.6529   26.0773 C   0  0  0  0  0  0  0  0  0  0  0  0
    6.1606   12.0297   26.0678 C   0  0  0  0  0  0  0  0  0  0  0  0
    6.8083    9.8163   25.3543 C   0  0  0  0  0  0  0  0  0  0  0  0
    7.2153   12.5752   25.3354 C   0  0  0  0  0  0  0  0  0  0  0  0
    8.7412    9.5210   23.8781 C   0  0  0  0  0  0  0  0  0  0  0  0
    9.7959   10.0664   23.1457 C   0  0  0  0  0  0  0  0  0  0  0  0
    9.1482   12.2798   23.8591 C   0  0  0  0  0  0  0  0  0  0  0  0
   14.0449   16.5457   21.1105 C   0  0  0  0  0  0  0  0  0  0  0  0
    7.8750   10.3480   24.6116 C   0  0  0  0  0  0  0  0  0  0  0  0
    8.0816   11.7481   24.6019 C   0  0  0  0  0  0  0  0  0  0  0  0
    9.9991   11.4432   23.1362 C   0  0  0  0  0  0  0  0  0  0  0  0
   13.8338   16.8608   22.4662 C   0  0  0  0  0  0  0  0  0  0  0  0
   12.8296   16.0783   20.6734 C   0  0  0  0  0  0  0  0  0  0  0  0
   13.4054   12.9619   24.5812 C   0  0  0  0  0  0  0  0  0  0  0  0
   10.4050   14.2574   21.5197 C   0  0  0  0  0  0  0  0  0  0  0  0
   14.8122   17.4022   23.4245 C   0  0  0  0  0  0  0  0  0  0  0  0
   12.3989   15.5892   19.3509 C   0  0  0  0  0  0  0  0  0  0  0  0
    9.7361   16.6117   20.8575 C   0  0  0  0  0  0  0  0  0  0  0  0
   13.5684   13.0452   26.0775 C   0  0  0  0  0  0  0  0  0  0  0  0
   12.5238   11.5095   22.7770 C   0  0  0  0  0  0  0  0  0  0  0  0
   11.1274   12.0245   22.3527 C   0  0  2  0  0  0  0  0  0  0  0  0
   10.5789   15.7491   21.7973 C   0  0  2  0  0  0  0  0  0  0  0  0
   12.5828   16.6146   22.8641 N   0  0  0  0  0  0  0  0  0  0  0  0
   11.9968   16.1399   21.7517 N   0  0  0  0  0  0  0  0  0  0  0  0
   12.7949   11.7888   24.1631 N   0  0  0  0  0  0  0  0  0  0  0  0
   11.1271   13.5013   22.4053 N   0  0  0  0  0  0  0  0  0  0  0  0
   13.7733   13.8693   23.8371 O   0  0  0  0  0  0  0  0  0  0  0  0
    9.6975   13.8295   20.6102 O   0  0  0  0  0  0  0  0  0  0  0  0
   15.1359   12.3355   26.4948 Cl  0  0  0  0  0  0  0  0  0  0  0  0
    5.1360   10.2293   26.6474 H   0  0  0  0  0  0  0  0  0  0  0  0
    5.4975   12.6803   26.6304 H   0  0  0  0  0  0  0  0  0  0  0  0
    6.6305    8.7430   25.3767 H   0  0  0  0  0  0  0  0  0  0  0  0
    7.3550   13.6543   25.3422 H   0  0  0  0  0  0  0  0  0  0  0  0
    8.6011    8.4418   23.8710 H   0  0  0  0  0  0  0  0  0  0  0  0
   10.4539    9.4077   22.5851 H   0  0  0  0  0  0  0  0  0  0  0  0
    9.3184   13.3552   23.8435 H   0  0  0  0  0  0  0  0  0  0  0  0
   14.9516   16.6428   20.5307 H   0  0  0  0  0  0  0  0  0  0  0  0
   14.8082   18.5058   23.4209 H   0  0  0  0  0  0  0  0  0  0  0  0
   14.6092   17.0726   24.4591 H   0  0  0  0  0  0  0  0  0  0  0  0
   15.8426   17.0729   23.1997 H   0  0  0  0  0  0  0  0  0  0  0  0
   12.5546   14.5013   19.2578 H   0  0  0  0  0  0  0  0  0  0  0  0
   11.3302   15.7907   19.1612 H   0  0  0  0  0  0  0  0  0  0  0  0
   12.9502   16.0769   18.5278 H   0  0  0  0  0  0  0  0  0  0  0  0
   10.0311   16.4853   19.8099 H   0  0  0  0  0  0  0  0  0  0  0  0
    8.6770   16.3425   20.9339 H   0  0  0  0  0  0  0  0  0  0  0  0
    9.8360   17.6740   21.1060 H   0  0  0  0  0  0  0  0  0  0  0  0
   13.5402   14.0735   26.4463 H   0  0  0  0  0  0  0  0  0  0  0  0
   12.7746   12.4702   26.5619 H   0  0  0  0  0  0  0  0  0  0  0  0
   12.6038   10.4228   22.6594 H   0  0  0  0  0  0  0  0  0  0  0  0
   13.3263   11.9665   22.1883 H   0  0  0  0  0  0  0  0  0  0  0  0
   11.0092   11.7657   21.2832 H   0  0  0  0  0  0  0  0  0  0  0  0
   10.2241   15.9314   22.8206 H   0  0  0  0  0  0  0  0  0  0  0  0
   12.5284   11.0994   24.8626 H   0  0  0  0  0  0  0  0  0  0  0  0
   11.6701   13.9626   23.1082 H   0  0  0  0  0  0  0  0  0  0  0  0
  1  2  1  0  0  0  0
  1  3  2  0  0  0  0
  2  4  2  0  0  0  0
  3  9  1  0  0  0  0
  4 10  1  0  0  0  0
  5  6  2  0  0  0  0
  5  9  1  0  0  0  0
  6 11  1  0  0  0  0
  7 10  1  0  0  0  0
  7 11  2  0  0  0  0
  8 12  1  0  0  0  0
  8 13  2  0  0  0  0
  9 10  2  0  0  0  0
 11 21  1  0  0  0  0
 12 16  1  0  0  0  0
 12 23  2  0  0  0  0
 13 17  1  0  0  0  0
 13 24  1  0  0  0  0
 14 19  1  0  0  0  0
 14 25  1  0  0  0  0
 14 27  2  0  0  0  0
 15 22  1  0  0  0  0
 15 26  1  0  0  0  0
 15 28  2  0  0  0  0
 18 22  1  0  0  0  0
 19 29  1  0  0  0  0
 20 21  1  0  0  0  0
 20 25  1  0  0  0  0
 21 26  1  0  0  0  0
 22 24  1  0  0  0  0
 23 24  1  0  0  0  0
  1 30  1  0  0  0  0
  2 31  1  0  0  0  0
  3 32  1  0  0  0  0
  4 33  1  0  0  0  0
  5 34  1  0  0  0  0
  6 35  1  0  0  0  0
  7 36  1  0  0  0  0
  8 37  1  0  0  0  0
 16 38  1  0  0  0  0
 16 39  1  0  0  0  0
 16 40  1  0  0  0  0
 17 41  1  0  0  0  0
 17 42  1  0  0  0  0
 17 43  1  0  0  0  0
 18 44  1  0  0  0  0
 18 45  1  0  0  0  0
 18 46  1  0  0  0  0
 19 47  1  0  0  0  0
 19 48  1  0  0  0  0
 20 49  1  0  0  0  0
 20 50  1  0  0  0  0
 21 51  1  0  0  0  0
 22 52  1  0  0  0  0
 25 53  1  0  0  0  0
 26 54  1  0  0  0  0
M  END
> <Catalog ID>
Z4425211731

> <MW>
412.913

> <MW (desalted)>
412.913

> <ClogP>
3.176

> <logS>
-4.95

> <HBD>
2

> <HBA>
3

> <TPSA>
76.02

> <RotBonds>
7

> <ROCS_ShapeQuery>
A71EV2A-x0451_0A_A71EV2A-x0310_0A_A71EV2A-x0416_0A_peptide

> <ROCS_TanimotoCombo>
0.526 

> <ROCS_ShapeTanimoto>
0.369 

> <ROCS_ColorTanimoto>
0.157 

> <ROCS_RefTversky>
0.332 

> <ROCS_RefColorTversky>
0.177 

> <ROCS_RefTverskyCombo>
0.508 

> <ROCS_FitTversky>
1.447 

> <ROCS_FitColorTversky>
0.586 

> <ROCS_FitTverskyCombo>
2.033 

> <ROCS_ColorScore>
-5.390

> <ROCS_Overlap>
2307.847

> <ROCS_Rank>
273                 

$$$$
untitled-dbase-10578_322
  -OEChem-11132309573D

 58 62  0     0  0  0  0  0  0999 V2000
   11.4757   13.0619   24.7447 C   0  0  0  0  0  0  0  0  0  0  0  0
   12.4830    8.3559   21.3056 C   0  0  0  0  0  0  0  0  0  0  0  0
   12.8022    9.2675   22.3119 C   0  0  0  0  0  0  0  0  0  0  0  0
   11.1475    8.0765   21.0155 C   0  0  0  0  0  0  0  0  0  0  0  0
   11.7859    9.8997   23.0283 C   0  0  0  0  0  0  0  0  0  0  0  0
   10.1312    8.7087   21.7319 C   0  0  0  0  0  0  0  0  0  0  0  0
   10.4504    9.6203   22.7383 C   0  0  0  0  0  0  0  0  0  0  0  0
   12.3062   16.4609   20.1904 C   0  0  0  0  0  0  0  0  0  0  0  0
   13.1073   16.9154   19.1002 C   0  0  0  0  0  0  0  0  0  0  0  0
    9.4067   10.2691   23.4737 C   0  0  0  0  0  0  0  0  0  0  0  0
    9.1999   11.6272   23.5341 C   0  0  0  0  0  0  0  0  0  0  0  0
   13.8897   15.8960   18.5915 C   0  0  0  0  0  0  0  0  0  0  0  0
   12.5058   15.1241   20.4603 C   0  0  0  0  0  0  0  0  0  0  0  0
    7.6995   10.5176   24.7358 C   0  0  0  0  0  0  0  0  0  0  0  0
    6.5633   10.4354   25.5934 C   0  0  0  0  0  0  0  0  0  0  0  0
    5.9392   11.5635   25.9838 C   0  0  0  0  0  0  0  0  0  0  0  0
    6.3956   12.8747   25.5511 C   0  0  0  0  0  0  0  0  0  0  0  0
    7.4648   12.9604   24.7430 C   0  0  0  0  0  0  0  0  0  0  0  0
    9.8829   12.7870   22.9401 C   0  0  0  0  0  0  0  0  0  0  0  0
   10.9177   13.4532   23.4896 C   0  0  0  0  0  0  0  0  0  0  0  0
   11.3879   17.2732   20.9491 C   0  0  0  0  0  0  0  0  0  0  0  0
   11.4720   14.6206   22.7011 C   0  0  0  0  0  0  0  0  0  0  0  0
   13.1579   18.3078   18.5516 C   0  0  0  0  0  0  0  0  0  0  0  0
   14.8244   16.0274   17.4300 C   0  0  0  0  0  0  0  0  0  0  0  0
   13.8213   18.3506   17.1661 C   0  0  0  0  0  0  0  0  0  0  0  0
   15.1046   17.5079   17.1271 C   0  0  0  0  0  0  0  0  0  0  0  0
    8.9928   17.6134   21.6454 C   0  0  0  0  0  0  0  0  0  0  0  0
   11.9329   12.7472   25.7638 N   0  0  0  0  0  0  0  0  0  0  0  0
    8.4766    9.5883   24.2177 N   0  0  0  0  0  0  0  0  0  0  0  0
    8.1051   11.7906   24.3435 N   0  0  0  0  0  0  0  0  0  0  0  0
   11.9531   14.2998   21.4030 N   0  0  0  0  0  0  0  0  0  0  0  0
   10.0355   16.8907   20.9530 N   0  0  0  0  0  0  0  0  0  0  0  0
   11.7818   18.2897   21.5612 O   0  0  0  0  0  0  0  0  0  0  0  0
   11.4870   15.7481   23.1886 O   0  0  0  0  0  0  0  0  0  0  0  0
   13.6554   14.4190   19.4049 S   0  0  0  0  0  0  0  0  0  0  0  0
   13.2742    7.8643   20.7470 H   0  0  0  0  0  0  0  0  0  0  0  0
   13.8419    9.4861   22.5371 H   0  0  0  0  0  0  0  0  0  0  0  0
   10.8992    7.3677   20.2311 H   0  0  0  0  0  0  0  0  0  0  0  0
   12.0509   10.6079   23.8099 H   0  0  0  0  0  0  0  0  0  0  0  0
    9.0950    8.4801   21.4936 H   0  0  0  0  0  0  0  0  0  0  0  0
    6.2138    9.4633   25.9227 H   0  0  0  0  0  0  0  0  0  0  0  0
    5.0736   11.5216   26.6361 H   0  0  0  0  0  0  0  0  0  0  0  0
    5.8623   13.7544   25.8901 H   0  0  0  0  0  0  0  0  0  0  0  0
    7.8450   13.9116   24.3919 H   0  0  0  0  0  0  0  0  0  0  0  0
    9.4823   13.0688   21.9688 H   0  0  0  0  0  0  0  0  0  0  0  0
   12.1495   18.7310   18.4816 H   0  0  0  0  0  0  0  0  0  0  0  0
   13.7298   18.9356   19.2462 H   0  0  0  0  0  0  0  0  0  0  0  0
   15.7711   15.5106   17.6244 H   0  0  0  0  0  0  0  0  0  0  0  0
   14.3651   15.5591   16.5507 H   0  0  0  0  0  0  0  0  0  0  0  0
   13.1207   17.9712   16.4111 H   0  0  0  0  0  0  0  0  0  0  0  0
   14.0468   19.3896   16.9009 H   0  0  0  0  0  0  0  0  0  0  0  0
   15.8153   17.9047   17.8636 H   0  0  0  0  0  0  0  0  0  0  0  0
   15.5810   17.5955   16.1441 H   0  0  0  0  0  0  0  0  0  0  0  0
    8.8426   17.1752   22.6431 H   0  0  0  0  0  0  0  0  0  0  0  0
    9.2850   18.6688   21.7488 H   0  0  0  0  0  0  0  0  0  0  0  0
    8.0570   17.5466   21.0710 H   0  0  0  0  0  0  0  0  0  0  0  0
   11.8743   13.3013   21.1319 H   0  0  0  0  0  0  0  0  0  0  0  0
    9.7506   16.0953   20.3909 H   0  0  0  0  0  0  0  0  0  0  0  0
  1 20  1  0  0  0  0
  1 28  3  0  0  0  0
  2  3  1  0  0  0  0
  2  4  2  0  0  0  0
  3  5  2  0  0  0  0
  4  6  1  0  0  0  0
  5  7  1  0  0  0  0
  6  7  2  0  0  0  0
  7 10  1  0  0  0  0
  8  9  1  0  0  0  0
  8 13  2  0  0  0  0
  8 21  1  0  0  0  0
  9 12  2  0  0  0  0
  9 23  1  0  0  0  0
 10 11  2  0  0  0  0
 10 29  1  0  0  0  0
 11 19  1  4  0  0  0
 11 30  1  0  0  0  0
 12 24  1  0  0  0  0
 12 35  1  0  0  0  0
 13 31  1  0  0  0  0
 13 35  1  0  0  0  0
 14 15  1  0  0  0  0
 14 29  2  0  0  0  0
 14 30  1  0  0  0  0
 15 16  2  0  0  0  0
 16 17  1  0  0  0  0
 17 18  2  0  0  0  0
 18 30  1  0  0  0  0
 19 20  2  0  0  0  0
 20 22  1  0  0  0  0
 21 32  1  0  0  0  0
 21 33  2  0  0  0  0
 22 31  1  0  0  0  0
 22 34  2  0  0  0  0
 23 25  1  0  0  0  0
 24 26  1  0  0  0  0
 25 26  1  0  0  0  0
 27 32  1  0  0  0  0
  2 36  1  0  0  0  0
  3 37  1  0  0  0  0
  4 38  1  0  0  0  0
  5 39  1  0  0  0  0
  6 40  1  0  0  0  0
 15 41  1  0  0  0  0
 16 42  1  0  0  0  0
 17 43  1  0  0  0  0
 18 44  1  0  0  0  0
 19 45  1  0  0  0  0
 23 46  1  0  0  0  0
 23 47  1  0  0  0  0
 24 48  1  0  0  0  0
 24 49  1  0  0  0  0
 25 50  1  0  0  0  0
 25 51  1  0  0  0  0
 26 52  1  0  0  0  0
 26 53  1  0  0  0  0
 27 54  1  0  0  0  0
 27 55  1  0  0  0  0
 27 56  1  0  0  0  0
 31 57  1  0  0  0  0
 32 58  1  0  0  0  0
M  END
> <Catalog ID>
Z57906878

> <MW>
481.569

> <MW (desalted)>
481.569

> <ClogP>
5.104

> <logS>
-7.86

> <HBD>
2

> <HBA>
4

> <TPSA>
99.29

> <RotBonds>
5

> <ROCS_ShapeQuery>
A71EV2A-x0451_0A_A71EV2A-x0310_0A_A71EV2A-x0416_0A_peptide

> <ROCS_TanimotoCombo>
0.526 

> <ROCS_ShapeTanimoto>
0.365 

> <ROCS_ColorTanimoto>
0.161 

> <ROCS_RefTversky>
0.340 

> <ROCS_RefColorTversky>
0.198 

> <ROCS_RefTverskyCombo>
0.537 

> <ROCS_FitTversky>
1.258 

> <ROCS_FitColorTversky>
0.466 

> <ROCS_FitTverskyCombo>
1.724 

> <ROCS_ColorScore>
-6.069

> <ROCS_Overlap>
2370.370

> <ROCS_Rank>
274                 

$$$$
untitled-dbase-4595_1511
  -OEChem-11132309573D

 49 51  0     1  0  0  0  0  0999 V2000
    4.2033   16.0567   25.3914 C   0  0  0  0  0  0  0  0  0  0  0  0
    6.5803   15.8747   25.7837 C   0  0  0  0  0  0  0  0  0  0  0  0
    9.9701   10.2142   23.3227 C   0  0  0  0  0  0  0  0  0  0  0  0
    8.9518    9.3573   23.7402 C   0  0  0  0  0  0  0  0  0  0  0  0
    4.3331   17.4378   25.2455 C   0  0  0  0  0  0  0  0  0  0  0  0
    6.7101   17.2558   25.6377 C   0  0  0  0  0  0  0  0  0  0  0  0
    8.5628   12.1192   23.7998 C   0  0  0  0  0  0  0  0  0  0  0  0
    7.5444   11.2622   24.2173 C   0  0  0  0  0  0  0  0  0  0  0  0
    5.3269   15.2751   25.6605 C   0  0  0  0  0  0  0  0  0  0  0  0
    9.7756   11.5952   23.3526 C   0  0  0  0  0  0  0  0  0  0  0  0
    7.7390    9.8813   24.1875 C   0  0  0  0  0  0  0  0  0  0  0  0
    5.5865   18.0374   25.3686 C   0  0  0  0  0  0  0  0  0  0  0  0
   12.0963   15.0280   21.5495 C   0  0  0  0  0  0  0  0  0  0  0  0
   12.2483   14.3376   22.6840 C   0  0  0  0  0  0  0  0  0  0  0  0
    6.2605   11.8410   24.6902 C   0  0  0  0  0  0  0  0  0  0  0  0
   11.0659   13.7528   23.3807 C   0  0  0  0  0  0  0  0  0  0  0  0
    5.7406   12.2347   29.1398 C   0  0  0  0  0  0  0  0  0  0  0  0
    6.1780   13.2255   28.0905 C   0  0  0  0  0  0  0  0  0  0  0  0
    4.8719   11.2907   28.3360 C   0  0  0  0  0  0  0  0  0  0  0  0
    4.9188   13.3525   27.2508 C   0  0  1  0  0  0  0  0  0  0  0  0
    5.1865   13.7722   25.8186 C   0  0  2  0  0  0  0  0  0  0  0  0
   10.7946   12.4517   22.9351 N   0  0  0  0  0  0  0  0  0  0  0  0
    6.3466   13.0876   25.2849 N   0  0  0  0  0  0  0  0  0  0  0  0
    5.2246   11.1957   24.5525 O   0  0  0  0  0  0  0  0  0  0  0  0
   10.4507   14.3872   24.2295 O   0  0  0  0  0  0  0  0  0  0  0  0
    4.2918   12.0592   27.2715 O   0  0  0  0  0  0  0  0  0  0  0  0
    6.7561    9.0275   24.5905 O   0  0  0  0  0  0  0  0  0  0  0  0
    5.7117   19.3633   25.2258 F   0  0  0  0  0  0  0  0  0  0  0  0
    3.2225   15.5987   25.2945 H   0  0  0  0  0  0  0  0  0  0  0  0
    7.4614   15.2738   25.9930 H   0  0  0  0  0  0  0  0  0  0  0  0
   10.9113    9.7949   22.9764 H   0  0  0  0  0  0  0  0  0  0  0  0
    9.1099    8.2825   23.7146 H   0  0  0  0  0  0  0  0  0  0  0  0
    3.4587   18.0462   25.0353 H   0  0  0  0  0  0  0  0  0  0  0  0
    7.6857   17.7230   25.7339 H   0  0  0  0  0  0  0  0  0  0  0  0
    8.4106   13.1964   23.8224 H   0  0  0  0  0  0  0  0  0  0  0  0
   12.9316   15.4672   21.0156 H   0  0  0  0  0  0  0  0  0  0  0  0
   11.1063   15.1673   21.1279 H   0  0  0  0  0  0  0  0  0  0  0  0
   13.2376   14.1976   23.1059 H   0  0  0  0  0  0  0  0  0  0  0  0
    6.5698   11.7293   29.6417 H   0  0  0  0  0  0  0  0  0  0  0  0
    5.1369   12.7418   29.9018 H   0  0  0  0  0  0  0  0  0  0  0  0
    6.5101   14.1807   28.5064 H   0  0  0  0  0  0  0  0  0  0  0  0
    7.0017   12.8004   27.5042 H   0  0  0  0  0  0  0  0  0  0  0  0
    5.4690   10.4925   27.8825 H   0  0  0  0  0  0  0  0  0  0  0  0
    4.0794   10.8354   28.9365 H   0  0  0  0  0  0  0  0  0  0  0  0
    4.2210   14.0578   27.7181 H   0  0  0  0  0  0  0  0  0  0  0  0
    4.3456   13.4301   25.1968 H   0  0  0  0  0  0  0  0  0  0  0  0
   11.4240   12.0833   22.2116 H   0  0  0  0  0  0  0  0  0  0  0  0
    7.2453   13.5349   25.4215 H   0  0  0  0  0  0  0  0  0  0  0  0
    5.9744    9.5270   24.8736 H   0  0  0  0  0  0  0  0  0  0  0  0
  1  5  2  0  0  0  0
  1  9  1  0  0  0  0
  2  6  1  0  0  0  0
  2  9  2  0  0  0  0
  3  4  2  0  0  0  0
  3 10  1  0  0  0  0
  4 11  1  0  0  0  0
  5 12  1  0  0  0  0
  6 12  2  0  0  0  0
  7  8  1  0  0  0  0
  7 10  2  0  0  0  0
  8 11  2  0  0  0  0
  8 15  1  0  0  0  0
  9 21  1  0  0  0  0
 10 22  1  0  0  0  0
 11 27  1  0  0  0  0
 12 28  1  0  0  0  0
 13 14  2  0  0  0  0
 14 16  1  0  0  0  0
 15 23  1  0  0  0  0
 15 24  2  0  0  0  0
 16 22  1  0  0  0  0
 16 25  2  0  0  0  0
 17 18  1  0  0  0  0
 17 19  1  0  0  0  0
 18 20  1  0  0  0  0
 19 26  1  0  0  0  0
 20 21  1  0  0  0  0
 20 26  1  0  0  0  0
 21 23  1  0  0  0  0
  1 29  1  0  0  0  0
  2 30  1  0  0  0  0
  3 31  1  0  0  0  0
  4 32  1  0  0  0  0
  5 33  1  0  0  0  0
  6 34  1  0  0  0  0
  7 35  1  0  0  0  0
 13 36  1  0  0  0  0
 13 37  1  0  0  0  0
 14 38  1  0  0  0  0
 17 39  1  0  0  0  0
 17 40  1  0  0  0  0
 18 41  1  0  0  0  0
 18 42  1  0  0  0  0
 19 43  1  0  0  0  0
 19 44  1  0  0  0  0
 20 45  1  0  0  0  0
 21 46  1  0  0  0  0
 22 47  1  0  0  0  0
 23 48  1  0  0  0  0
 27 49  1  0  0  0  0
M  END
> <Catalog ID>
Z3756046977

> <MW>
384.401

> <MW (desalted)>
384.401

> <ClogP>
3.285

> <logS>
-4.784

> <HBD>
3

> <HBA>
4

> <TPSA>
87.66

> <RotBonds>
6

> <ROCS_ShapeQuery>
A71EV2A-x0451_0A_A71EV2A-x0310_0A_A71EV2A-x0416_0A_peptide

> <ROCS_TanimotoCombo>
0.526 

> <ROCS_ShapeTanimoto>
0.316 

> <ROCS_ColorTanimoto>
0.210 

> <ROCS_RefTversky>
0.294 

> <ROCS_RefColorTversky>
0.242 

> <ROCS_RefTverskyCombo>
0.536 

> <ROCS_FitTversky>
1.309 

> <ROCS_FitColorTversky>
0.617 

> <ROCS_FitTverskyCombo>
1.926 

> <ROCS_ColorScore>
-7.422

> <ROCS_Overlap>
2045.857

> <ROCS_Rank>
275                 

$$$$
untitled-dbase-2909_843
  -OEChem-11132309573D

 44 45  0     1  0  0  0  0  0999 V2000
    5.3241   11.7456   27.5032 C   0  0  0  0  0  0  0  0  0  0  0  0
    5.9008   12.0079   28.7282 C   0  0  0  0  0  0  0  0  0  0  0  0
    3.6084   12.7039   28.4770 C   0  0  0  0  0  0  0  0  0  0  0  0
    6.9462   11.9945   25.6233 C   0  0  0  0  0  0  0  0  0  0  0  0
   11.0227   13.7988   23.1015 C   0  0  0  0  0  0  0  0  0  0  0  0
    8.7440    9.4086   23.8265 C   0  0  0  0  0  0  0  0  0  0  0  0
    7.4028   10.1237   23.9655 C   0  0  0  0  0  0  0  0  0  0  0  0
    8.5029   12.3224   23.7285 C   0  0  0  0  0  0  0  0  0  0  0  0
    9.7467   10.2322   23.0008 C   0  0  1  0  0  0  0  0  0  0  0  0
    9.8741   11.6560   23.5821 C   0  0  1  0  0  0  0  0  0  0  0  0
    7.2635   11.7202   29.2194 C   0  0  0  0  0  0  0  0  0  0  0  0
    2.2530   13.2527   28.6997 C   0  0  0  0  0  0  0  0  0  0  0  0
    5.9908   11.0738   26.3398 C   0  0  0  0  0  0  0  0  0  0  0  0
   11.9578   14.4613   22.1222 C   0  0  0  0  0  0  0  0  0  0  0  0
   11.0949    9.5100   22.9463 C   0  0  0  0  0  0  0  0  0  0  0  0
    4.0095   12.1436   27.3574 N   0  0  0  0  0  0  0  0  0  0  0  0
    7.5875   11.4773   24.4976 N   0  0  0  0  0  0  0  0  0  0  0  0
   10.7350   12.4856   22.7710 N   0  0  0  0  0  0  0  0  0  0  0  0
    7.1170   13.1381   26.0537 O   0  0  0  0  0  0  0  0  0  0  0  0
   10.5931   14.3906   24.0902 O   0  0  0  0  0  0  0  0  0  0  0  0
   11.9511   10.1986   22.1784 F   0  0  0  0  0  0  0  0  0  0  0  0
   11.6050    9.4017   24.1812 F   0  0  0  0  0  0  0  0  0  0  0  0
   10.9348    8.2831   22.4304 F   0  0  0  0  0  0  0  0  0  0  0  0
    4.7606   12.7859   29.7461 S   0  0  0  0  0  0  0  0  0  0  0  0
   11.1836   14.4395   20.5301 Cl  0  0  0  0  0  0  0  0  0  0  0  0
    9.1528    9.2116   24.8261 H   0  0  0  0  0  0  0  0  0  0  0  0
    8.5842    8.4335   23.3508 H   0  0  0  0  0  0  0  0  0  0  0  0
    6.9228   10.2254   22.9848 H   0  0  0  0  0  0  0  0  0  0  0  0
    6.7364    9.5243   24.5881 H   0  0  0  0  0  0  0  0  0  0  0  0
    8.6105   13.3030   24.2046 H   0  0  0  0  0  0  0  0  0  0  0  0
    8.0401   12.4839   22.7468 H   0  0  0  0  0  0  0  0  0  0  0  0
    9.3588   10.3029   21.9749 H   0  0  0  0  0  0  0  0  0  0  0  0
   10.3497   11.6037   24.5699 H   0  0  0  0  0  0  0  0  0  0  0  0
    7.9470   12.5579   29.0058 H   0  0  0  0  0  0  0  0  0  0  0  0
    7.2812   11.5415   30.3078 H   0  0  0  0  0  0  0  0  0  0  0  0
    7.6874   10.8140   28.7543 H   0  0  0  0  0  0  0  0  0  0  0  0
    1.5777   12.4830   29.1049 H   0  0  0  0  0  0  0  0  0  0  0  0
    2.2634   14.0987   29.4062 H   0  0  0  0  0  0  0  0  0  0  0  0
    1.8071   13.6364   27.7674 H   0  0  0  0  0  0  0  0  0  0  0  0
    6.5428   10.1952   26.6782 H   0  0  0  0  0  0  0  0  0  0  0  0
    5.2505   10.7188   25.6213 H   0  0  0  0  0  0  0  0  0  0  0  0
   12.1804   15.4973   22.3893 H   0  0  0  0  0  0  0  0  0  0  0  0
   12.8927   13.8963   22.0736 H   0  0  0  0  0  0  0  0  0  0  0  0
   11.1434   12.0917   21.9292 H   0  0  0  0  0  0  0  0  0  0  0  0
  1  2  2  0  0  0  0
  1 13  1  0  0  0  0
  1 16  1  0  0  0  0
  2 11  1  0  0  0  0
  2 24  1  0  0  0  0
  3 12  1  0  0  0  0
  3 16  2  0  0  0  0
  3 24  1  0  0  0  0
  4 13  1  0  0  0  0
  4 17  1  0  0  0  0
  4 19  2  0  0  0  0
  5 14  1  0  0  0  0
  5 18  1  0  0  0  0
  5 20  2  0  0  0  0
  6  7  1  0  0  0  0
  6  9  1  0  0  0  0
  7 17  1  0  0  0  0
  8 10  1  0  0  0  0
  8 17  1  0  0  0  0
  9 10  1  0  0  0  0
  9 15  1  0  0  0  0
 10 18  1  0  0  0  0
 14 25  1  0  0  0  0
 15 21  1  0  0  0  0
 15 22  1  0  0  0  0
 15 23  1  0  0  0  0
  6 26  1  0  0  0  0
  6 27  1  0  0  0  0
  7 28  1  0  0  0  0
  7 29  1  0  0  0  0
  8 30  1  0  0  0  0
  8 31  1  0  0  0  0
  9 32  1  0  0  0  0
 10 33  1  0  0  0  0
 11 34  1  0  0  0  0
 11 35  1  0  0  0  0
 11 36  1  0  0  0  0
 12 37  1  0  0  0  0
 12 38  1  0  0  0  0
 12 39  1  0  0  0  0
 13 40  1  0  0  0  0
 13 41  1  0  0  0  0
 14 42  1  0  0  0  0
 14 43  1  0  0  0  0
 18 44  1  0  0  0  0
M  END
> <Catalog ID>
Z4425211505

> <MW>
397.843

> <MW (desalted)>
397.843

> <ClogP>
1.486

> <logS>
-3.533

> <HBD>
1

> <HBA>
3

> <TPSA>
62.3

> <RotBonds>
5

> <ROCS_ShapeQuery>
A71EV2A-x0451_0A_A71EV2A-x0310_0A_A71EV2A-x0416_0A_peptide

> <ROCS_TanimotoCombo>
0.526 

> <ROCS_ShapeTanimoto>
0.344 

> <ROCS_ColorTanimoto>
0.183 

> <ROCS_RefTversky>
0.307 

> <ROCS_RefColorTversky>
0.191 

> <ROCS_RefTverskyCombo>
0.498 

> <ROCS_FitTversky>
1.531 

> <ROCS_FitColorTversky>
0.799 

> <ROCS_FitTverskyCombo>
2.331 

> <ROCS_ColorScore>
-5.823

> <ROCS_Overlap>
2133.665

> <ROCS_Rank>
276                 

$$$$
untitled-dbase-10396_1392
  -OEChem-11132309573D

 44 45  0     0  0  0  0  0  0999 V2000
   13.3555   13.7369   22.6733 C   0  0  0  0  0  0  0  0  0  0  0  0
   13.1982   15.6895   18.1041 C   0  0  0  0  0  0  0  0  0  0  0  0
   14.2129   16.5594   18.5029 C   0  0  0  0  0  0  0  0  0  0  0  0
   12.3498   15.1242   19.0561 C   0  0  0  0  0  0  0  0  0  0  0  0
    7.2873   10.1164   24.7865 C   0  0  0  0  0  0  0  0  0  0  0  0
   14.3793   16.8641   19.8539 C   0  0  0  0  0  0  0  0  0  0  0  0
    8.2944    9.4319   24.1062 C   0  0  0  0  0  0  0  0  0  0  0  0
    8.3354   12.2189   24.2227 C   0  0  0  0  0  0  0  0  0  0  0  0
   12.5162   15.4289   20.4071 C   0  0  0  0  0  0  0  0  0  0  0  0
    7.3078   11.5099   24.8447 C   0  0  0  0  0  0  0  0  0  0  0  0
    9.3426   11.5344   23.5424 C   0  0  0  0  0  0  0  0  0  0  0  0
   13.5310   16.2988   20.8060 C   0  0  0  0  0  0  0  0  0  0  0  0
    9.3221   10.1409   23.4841 C   0  0  0  0  0  0  0  0  0  0  0  0
   11.6171   14.8259   21.3819 C   0  0  0  0  0  0  0  0  0  0  0  0
   11.9821   14.0394   22.4248 C   0  0  0  0  0  0  0  0  0  0  0  0
   10.8776   13.5188   23.3197 C   0  0  0  0  0  0  0  0  0  0  0  0
   12.6470   16.8327   24.2603 C   0  0  0  0  0  0  0  0  0  0  0  0
   12.7361   18.7479   22.6246 C   0  0  0  0  0  0  0  0  0  0  0  0
   12.6288   17.2402   22.7949 C   0  0  0  0  0  0  0  0  0  0  0  0
    6.2307   12.2414   25.5718 C   0  0  0  0  0  0  0  0  0  0  0  0
   14.4704   13.4891   22.8798 N   0  0  0  0  0  0  0  0  0  0  0  0
   10.3733   12.2855   22.9220 N   0  0  0  0  0  0  0  0  0  0  0  0
   10.5048   14.1728   24.2906 O   0  0  0  0  0  0  0  0  0  0  0  0
   13.7166   16.6130   22.1199 O   0  0  0  0  0  0  0  0  0  0  0  0
    5.2924   11.4208   26.1306 F   0  0  0  0  0  0  0  0  0  0  0  0
    6.6914   13.0093   26.6033 F   0  0  0  0  0  0  0  0  0  0  0  0
    5.5361   13.0936   24.7629 F   0  0  0  0  0  0  0  0  0  0  0  0
   10.5491    9.2531   22.6529 Cl  0  0  0  0  0  0  0  0  0  0  0  0
   13.0699   15.4514   17.0522 H   0  0  0  0  0  0  0  0  0  0  0  0
   14.8730   16.9987   17.7610 H   0  0  0  0  0  0  0  0  0  0  0  0
   11.5647   14.4471   18.7280 H   0  0  0  0  0  0  0  0  0  0  0  0
    6.4908    9.5555   25.2682 H   0  0  0  0  0  0  0  0  0  0  0  0
   15.1716   17.5432   20.1573 H   0  0  0  0  0  0  0  0  0  0  0  0
    8.2628    8.3459   24.0694 H   0  0  0  0  0  0  0  0  0  0  0  0
    8.3485   13.3058   24.2708 H   0  0  0  0  0  0  0  0  0  0  0  0
   10.5636   15.0739   21.2253 H   0  0  0  0  0  0  0  0  0  0  0  0
   13.5607   17.1743   24.7562 H   0  0  0  0  0  0  0  0  0  0  0  0
   11.7843   17.2574   24.7847 H   0  0  0  0  0  0  0  0  0  0  0  0
   12.5756   15.7447   24.3681 H   0  0  0  0  0  0  0  0  0  0  0  0
   13.6518   19.1353   23.0815 H   0  0  0  0  0  0  0  0  0  0  0  0
   11.8767   19.2457   23.0865 H   0  0  0  0  0  0  0  0  0  0  0  0
   12.7284   19.0263   21.5650 H   0  0  0  0  0  0  0  0  0  0  0  0
   11.7044   16.8845   22.3282 H   0  0  0  0  0  0  0  0  0  0  0  0
   10.7915   11.8751   22.0914 H   0  0  0  0  0  0  0  0  0  0  0  0
  1 15  1  0  0  0  0
  1 21  3  0  0  0  0
  2  3  1  0  0  0  0
  2  4  2  0  0  0  0
  3  6  2  0  0  0  0
  4  9  1  0  0  0  0
  5  7  2  0  0  0  0
  5 10  1  0  0  0  0
  6 12  1  0  0  0  0
  7 13  1  0  0  0  0
  8 10  2  0  0  0  0
  8 11  1  0  0  0  0
  9 12  2  0  0  0  0
  9 14  1  4  0  0  0
 10 20  1  0  0  0  0
 11 13  2  0  0  0  0
 11 22  1  0  0  0  0
 12 24  1  0  0  0  0
 13 28  1  0  0  0  0
 14 15  2  0  0  0  0
 15 16  1  0  0  0  0
 16 22  1  0  0  0  0
 16 23  2  0  0  0  0
 17 19  1  0  0  0  0
 18 19  1  0  0  0  0
 19 24  1  0  0  0  0
 20 25  1  0  0  0  0
 20 26  1  0  0  0  0
 20 27  1  0  0  0  0
  2 29  1  0  0  0  0
  3 30  1  0  0  0  0
  4 31  1  0  0  0  0
  5 32  1  0  0  0  0
  6 33  1  0  0  0  0
  7 34  1  0  0  0  0
  8 35  1  0  0  0  0
 14 36  1  0  0  0  0
 17 37  1  0  0  0  0
 17 38  1  0  0  0  0
 17 39  1  0  0  0  0
 18 40  1  0  0  0  0
 18 41  1  0  0  0  0
 18 42  1  0  0  0  0
 19 43  1  0  0  0  0
 22 44  1  0  0  0  0
M  END
> <Catalog ID>
Z44308421

> <MW>
408.801

> <MW (desalted)>
408.801

> <ClogP>
5.031

> <logS>
-6.42

> <HBD>
1

> <HBA>
3

> <TPSA>
62.12

> <RotBonds>
6

> <ROCS_ShapeQuery>
A71EV2A-x0451_0A_A71EV2A-x0310_0A_A71EV2A-x0416_0A_peptide

> <ROCS_TanimotoCombo>
0.526 

> <ROCS_ShapeTanimoto>
0.368 

> <ROCS_ColorTanimoto>
0.158 

> <ROCS_RefTversky>
0.329 

> <ROCS_RefColorTversky>
0.173 

> <ROCS_RefTverskyCombo>
0.502 

> <ROCS_FitTversky>
1.482 

> <ROCS_FitColorTversky>
0.641 

> <ROCS_FitTverskyCombo>
2.123 

> <ROCS_ColorScore>
-5.276

> <ROCS_Overlap>
2289.013

> <ROCS_Rank>
277                 

$$$$
untitled-dbase-2992_155
  -OEChem-11132309573D

 42 45  0     1  0  0  0  0  0999 V2000
    6.3977   11.8754   25.9084 C   0  0  0  0  0  0  0  0  0  0  0  0
    6.7096   13.0602   25.2445 C   0  0  0  0  0  0  0  0  0  0  0  0
    7.1125   10.7001   25.6502 C   0  0  0  0  0  0  0  0  0  0  0  0
    7.7426   13.1091   24.3041 C   0  0  0  0  0  0  0  0  0  0  0  0
   14.3443   16.0843   19.7465 C   0  0  0  0  0  0  0  0  0  0  0  0
    9.8775   10.3676   23.2828 C   0  0  0  0  0  0  0  0  0  0  0  0
   13.7379   16.2267   18.5178 C   0  0  0  0  0  0  0  0  0  0  0  0
    8.1582   10.7250   24.7061 C   0  0  0  0  0  0  0  0  0  0  0  0
    9.0678    9.7505   24.2083 C   0  0  0  0  0  0  0  0  0  0  0  0
   13.4114   15.7381   20.7685 C   0  0  0  0  0  0  0  0  0  0  0  0
    8.4486   11.9265   24.0562 C   0  0  0  0  0  0  0  0  0  0  0  0
   12.1237   15.6419   20.2748 C   0  0  0  0  0  0  0  0  0  0  0  0
    9.1672    8.3649   24.5693 C   0  0  0  0  0  0  0  0  0  0  0  0
   10.6992   13.7864   23.1380 C   0  0  0  0  0  0  0  0  0  0  0  0
   13.7223   15.4714   22.2050 C   0  0  0  0  0  0  0  0  0  0  0  0
   12.4551   15.5300   23.0638 C   0  0  0  0  0  0  0  0  0  0  0  0
   10.8999   15.2972   21.0859 C   0  0  2  0  0  0  0  0  0  0  0  0
    9.9596   16.4959   21.2371 C   0  0  0  0  0  0  0  0  0  0  0  0
   10.1178   12.6562   22.3249 C   0  0  0  0  0  0  0  0  0  0  0  0
    9.4965   11.6799   23.1981 N   0  0  0  0  0  0  0  0  0  0  0  0
   11.3336   14.8108   22.4276 N   0  0  0  0  0  0  0  0  0  0  0  0
    9.9987    7.5791   24.0791 O   0  0  0  0  0  0  0  0  0  0  0  0
   10.6028   13.7531   24.3676 O   0  0  0  0  0  0  0  0  0  0  0  0
   12.0534   15.9340   18.5942 S   0  0  0  0  0  0  0  0  0  0  0  0
    5.5901   11.8622   26.6355 H   0  0  0  0  0  0  0  0  0  0  0  0
    6.1414   13.9614   25.4605 H   0  0  0  0  0  0  0  0  0  0  0  0
    6.8572    9.7845   26.1761 H   0  0  0  0  0  0  0  0  0  0  0  0
    7.9812   14.0343   23.7903 H   0  0  0  0  0  0  0  0  0  0  0  0
   15.4077   16.2152   19.9010 H   0  0  0  0  0  0  0  0  0  0  0  0
   10.6902    9.9852   22.6791 H   0  0  0  0  0  0  0  0  0  0  0  0
   14.2060   16.4803   17.5771 H   0  0  0  0  0  0  0  0  0  0  0  0
    8.4555    7.9642   25.3367 H   0  0  0  0  0  0  0  0  0  0  0  0
   14.1764   14.4764   22.2891 H   0  0  0  0  0  0  0  0  0  0  0  0
   14.4514   16.1996   22.5777 H   0  0  0  0  0  0  0  0  0  0  0  0
   12.6683   15.1281   24.0594 H   0  0  0  0  0  0  0  0  0  0  0  0
   12.1349   16.5697   23.2014 H   0  0  0  0  0  0  0  0  0  0  0  0
   10.3616   14.4949   20.5726 H   0  0  0  0  0  0  0  0  0  0  0  0
   10.4779   17.3052   21.7461 H   0  0  0  0  0  0  0  0  0  0  0  0
    9.0878   16.2054   21.8188 H   0  0  0  0  0  0  0  0  0  0  0  0
    9.6395   16.8356   20.2547 H   0  0  0  0  0  0  0  0  0  0  0  0
   10.9183   12.1828   21.7616 H   0  0  0  0  0  0  0  0  0  0  0  0
    9.3727   13.0616   21.6445 H   0  0  0  0  0  0  0  0  0  0  0  0
  1  2  1  0  0  0  0
  1  3  2  0  0  0  0
  2  4  2  0  0  0  0
  3  8  1  0  0  0  0
  4 11  1  0  0  0  0
  5  7  2  0  0  0  0
  5 10  1  0  0  0  0
  6  9  2  0  0  0  0
  6 20  1  0  0  0  0
  7 24  1  0  0  0  0
  8  9  1  0  0  0  0
  8 11  2  0  0  0  0
  9 13  1  0  0  0  0
 10 12  2  0  0  0  0
 10 15  1  0  0  0  0
 11 20  1  0  0  0  0
 12 17  1  0  0  0  0
 12 24  1  0  0  0  0
 13 22  2  0  0  0  0
 14 19  1  0  0  0  0
 14 21  1  0  0  0  0
 14 23  2  0  0  0  0
 15 16  1  0  0  0  0
 16 21  1  0  0  0  0
 17 18  1  0  0  0  0
 17 21  1  0  0  0  0
 19 20  1  0  0  0  0
  1 25  1  0  0  0  0
  2 26  1  0  0  0  0
  3 27  1  0  0  0  0
  4 28  1  0  0  0  0
  5 29  1  0  0  0  0
  6 30  1  0  0  0  0
  7 31  1  0  0  0  0
 13 32  1  0  0  0  0
 15 33  1  0  0  0  0
 15 34  1  0  0  0  0
 16 35  1  0  0  0  0
 16 36  1  0  0  0  0
 17 37  1  0  0  0  0
 18 38  1  0  0  0  0
 18 39  1  0  0  0  0
 18 40  1  0  0  0  0
 19 41  1  0  0  0  0
 19 42  1  0  0  0  0
M  END
> <Catalog ID>
Z2919628139

> <MW>
338.423

> <MW (desalted)>
338.423

> <ClogP>
3.283

> <logS>
-3.689

> <HBD>
0

> <HBA>
2

> <TPSA>
42.31

> <RotBonds>
3

> <ROCS_ShapeQuery>
A71EV2A-x0451_0A_A71EV2A-x0310_0A_A71EV2A-x0416_0A_peptide

> <ROCS_TanimotoCombo>
0.526 

> <ROCS_ShapeTanimoto>
0.372 

> <ROCS_ColorTanimoto>
0.155 

> <ROCS_RefTversky>
0.326 

> <ROCS_RefColorTversky>
0.166 

> <ROCS_RefTverskyCombo>
0.492 

> <ROCS_FitTversky>
1.615 

> <ROCS_FitColorTversky>
0.691 

> <ROCS_FitTverskyCombo>
2.305 

> <ROCS_ColorScore>
-5.051

> <ROCS_Overlap>
2262.540

> <ROCS_Rank>
278                 

$$$$
untitled-dbase-3228_831
  -OEChem-11132309573D

 43 46  0     1  0  0  0  0  0999 V2000
    6.3265   12.5776   25.7566 C   0  0  0  0  0  0  0  0  0  0  0  0
   13.8474   16.7031   18.4327 C   0  0  0  0  0  0  0  0  0  0  0  0
   14.6918   16.7404   19.5528 C   0  0  0  0  0  0  0  0  0  0  0  0
    5.9444   11.2560   25.9379 C   0  0  0  0  0  0  0  0  0  0  0  0
    7.4892   12.8845   25.0450 C   0  0  0  0  0  0  0  0  0  0  0  0
   12.6376   16.0082   18.4773 C   0  0  0  0  0  0  0  0  0  0  0  0
   14.3381   16.0849   20.7346 C   0  0  0  0  0  0  0  0  0  0  0  0
    6.7130   10.2149   25.4139 C   0  0  0  0  0  0  0  0  0  0  0  0
    9.9855   10.6742   23.3937 C   0  0  0  0  0  0  0  0  0  0  0  0
    8.2903   11.8514   24.5011 C   0  0  0  0  0  0  0  0  0  0  0  0
    9.5084   11.9147   23.7445 C   0  0  0  0  0  0  0  0  0  0  0  0
   12.2885   15.3720   19.6572 C   0  0  0  0  0  0  0  0  0  0  0  0
   13.1271   15.4113   20.7805 C   0  0  0  0  0  0  0  0  0  0  0  0
    7.8846   10.5277   24.6970 C   0  0  0  0  0  0  0  0  0  0  0  0
   10.2190   13.1602   23.3558 C   0  0  0  0  0  0  0  0  0  0  0  0
   13.7866   14.9454   24.0178 C   0  0  0  0  0  0  0  0  0  0  0  0
   11.0722   14.5380   19.9213 C   0  0  0  0  0  0  0  0  0  0  0  0
   12.5434   14.5976   21.9010 C   0  0  2  0  0  0  0  0  0  0  0  0
   11.0648   14.5189   21.4602 C   0  0  2  0  0  0  0  0  0  0  0  0
   13.7356   15.6921   25.3262 C   0  0  0  0  0  0  0  0  0  0  0  0
   10.3786   13.3739   21.9913 N   0  0  0  0  0  0  0  0  0  0  0  0
   12.6898   15.1911   23.2013 N   0  0  0  0  0  0  0  0  0  0  0  0
   10.6380   13.9106   24.2332 O   0  0  0  0  0  0  0  0  0  0  0  0
   14.7294   14.2118   23.7259 O   0  0  0  0  0  0  0  0  0  0  0  0
    8.9833    9.4190   23.9641 S   0  0  0  0  0  0  0  0  0  0  0  0
   12.2749   15.1824   26.1874 Cl  0  0  0  0  0  0  0  0  0  0  0  0
    5.7210   13.3790   26.1705 H   0  0  0  0  0  0  0  0  0  0  0  0
   14.1433   17.2133   17.5200 H   0  0  0  0  0  0  0  0  0  0  0  0
   15.6342   17.2785   19.4965 H   0  0  0  0  0  0  0  0  0  0  0  0
    5.0389   11.0278   26.4936 H   0  0  0  0  0  0  0  0  0  0  0  0
    7.7721   13.9263   24.9149 H   0  0  0  0  0  0  0  0  0  0  0  0
   11.9929   15.9680   17.6060 H   0  0  0  0  0  0  0  0  0  0  0  0
   15.0036   16.1048   21.5911 H   0  0  0  0  0  0  0  0  0  0  0  0
    6.4070    9.1831   25.5613 H   0  0  0  0  0  0  0  0  0  0  0  0
   10.8772   10.4403   22.8281 H   0  0  0  0  0  0  0  0  0  0  0  0
   10.1615   14.9935   19.5216 H   0  0  0  0  0  0  0  0  0  0  0  0
   11.2122   13.5382   19.4958 H   0  0  0  0  0  0  0  0  0  0  0  0
   13.0133   13.6074   21.9155 H   0  0  0  0  0  0  0  0  0  0  0  0
   10.5163   15.4034   21.8149 H   0  0  0  0  0  0  0  0  0  0  0  0
   14.6034   15.4904   25.9590 H   0  0  0  0  0  0  0  0  0  0  0  0
   13.6789   16.7662   25.1296 H   0  0  0  0  0  0  0  0  0  0  0  0
   10.0561   12.6703   21.3291 H   0  0  0  0  0  0  0  0  0  0  0  0
   11.9595   15.8177   23.5382 H   0  0  0  0  0  0  0  0  0  0  0  0
  1  4  1  0  0  0  0
  1  5  2  0  0  0  0
  2  3  1  0  0  0  0
  2  6  2  0  0  0  0
  3  7  2  0  0  0  0
  4  8  2  0  0  0  0
  5 10  1  0  0  0  0
  6 12  1  0  0  0  0
  7 13  1  0  0  0  0
  8 14  1  0  0  0  0
  9 11  2  0  0  0  0
  9 25  1  0  0  0  0
 10 11  1  0  0  0  0
 10 14  2  0  0  0  0
 11 15  1  0  0  0  0
 12 13  2  0  0  0  0
 12 17  1  0  0  0  0
 13 18  1  0  0  0  0
 14 25  1  0  0  0  0
 15 21  1  0  0  0  0
 15 23  2  0  0  0  0
 16 20  1  0  0  0  0
 16 22  1  0  0  0  0
 16 24  2  0  0  0  0
 17 19  1  0  0  0  0
 18 19  1  0  0  0  0
 18 22  1  1  0  0  0
 19 21  1  6  0  0  0
 20 26  1  0  0  0  0
  1 27  1  0  0  0  0
  2 28  1  0  0  0  0
  3 29  1  0  0  0  0
  4 30  1  0  0  0  0
  5 31  1  0  0  0  0
  6 32  1  0  0  0  0
  7 33  1  0  0  0  0
  8 34  1  0  0  0  0
  9 35  1  0  0  0  0
 17 36  1  0  0  0  0
 17 37  1  0  0  0  0
 18 38  1  0  0  0  0
 19 39  1  0  0  0  0
 20 40  1  0  0  0  0
 20 41  1  0  0  0  0
 21 42  1  0  0  0  0
 22 43  1  0  0  0  0
M  END
> <Catalog ID>
Z4439378571

> <MW>
384.879

> <MW (desalted)>
384.879

> <ClogP>
3.943

> <logS>
-5.943

> <HBD>
2

> <HBA>
2

> <TPSA>
58.2

> <RotBonds>
4

> <ROCS_ShapeQuery>
A71EV2A-x0451_0A_A71EV2A-x0310_0A_A71EV2A-x0416_0A_peptide

> <ROCS_TanimotoCombo>
0.526 

> <ROCS_ShapeTanimoto>
0.351 

> <ROCS_ColorTanimoto>
0.175 

> <ROCS_RefTversky>
0.315 

> <ROCS_RefColorTversky>
0.194 

> <ROCS_RefTverskyCombo>
0.509 

> <ROCS_FitTversky>
1.486 

> <ROCS_FitColorTversky>
0.643 

> <ROCS_FitTverskyCombo>
2.129 

> <ROCS_ColorScore>
-5.920

> <ROCS_Overlap>
2189.679

> <ROCS_Rank>
279                 

$$$$
untitled-dbase-606_473
  -OEChem-11132309573D

 37 39  0     0  0  0  0  0  0999 V2000
   12.7419   15.8268   22.9415 C   0  0  0  0  0  0  0  0  0  0  0  0
   10.1248   10.4102   22.8554 C   0  0  0  0  0  0  0  0  0  0  0  0
    9.3110    9.3960   23.3605 C   0  0  0  0  0  0  0  0  0  0  0  0
   13.3134   16.5155   18.0874 C   0  0  0  0  0  0  0  0  0  0  0  0
    8.7547   12.0689   23.9590 C   0  0  0  0  0  0  0  0  0  0  0  0
   14.4106   16.6677   18.9062 C   0  0  0  0  0  0  0  0  0  0  0  0
   12.2581   15.8082   18.7325 C   0  0  0  0  0  0  0  0  0  0  0  0
    9.8438   11.7449   23.1496 C   0  0  0  0  0  0  0  0  0  0  0  0
    8.2131    9.7199   24.1580 C   0  0  0  0  0  0  0  0  0  0  0  0
    7.9481   11.0545   24.4753 C   0  0  0  0  0  0  0  0  0  0  0  0
   12.5891   15.4465   20.0200 C   0  0  0  0  0  0  0  0  0  0  0  0
   11.7888   14.7128   21.0129 C   0  0  0  0  0  0  0  0  0  0  0  0
   11.8578   14.8744   22.3492 C   0  0  0  0  0  0  0  0  0  0  0  0
   10.9373   14.0135   23.1877 C   0  0  0  0  0  0  0  0  0  0  0  0
    6.1769    9.1349   25.1052 C   0  0  0  0  0  0  0  0  0  0  0  0
    6.3717   10.3305   26.0172 C   0  0  0  0  0  0  0  0  0  0  0  0
   10.9618   15.5073   18.0756 C   0  0  0  0  0  0  0  0  0  0  0  0
   13.4581   16.6000   23.4273 N   0  0  0  0  0  0  0  0  0  0  0  0
   10.6505   12.7572   22.6287 N   0  0  0  0  0  0  0  0  0  0  0  0
   10.5041   14.4287   24.2597 O   0  0  0  0  0  0  0  0  0  0  0  0
    7.4385    8.6820   24.6063 O   0  0  0  0  0  0  0  0  0  0  0  0
    6.9059   11.4338   25.2802 O   0  0  0  0  0  0  0  0  0  0  0  0
   14.1663   15.9594   20.4460 S   0  0  0  0  0  0  0  0  0  0  0  0
   10.9790   10.1484   22.2359 H   0  0  0  0  0  0  0  0  0  0  0  0
    9.5440    8.3585   23.1366 H   0  0  0  0  0  0  0  0  0  0  0  0
   13.2751   16.8954   17.0739 H   0  0  0  0  0  0  0  0  0  0  0  0
    8.5260   13.1090   24.1798 H   0  0  0  0  0  0  0  0  0  0  0  0
   15.3440   17.1607   18.6740 H   0  0  0  0  0  0  0  0  0  0  0  0
   11.0907   14.0091   20.5648 H   0  0  0  0  0  0  0  0  0  0  0  0
    5.6880    8.3035   25.6276 H   0  0  0  0  0  0  0  0  0  0  0  0
    5.5581    9.4095   24.2454 H   0  0  0  0  0  0  0  0  0  0  0  0
    5.4280   10.6432   26.4811 H   0  0  0  0  0  0  0  0  0  0  0  0
    7.0809   10.0885   26.8148 H   0  0  0  0  0  0  0  0  0  0  0  0
   11.0045   14.5398   17.5550 H   0  0  0  0  0  0  0  0  0  0  0  0
   10.1375   15.4678   18.8035 H   0  0  0  0  0  0  0  0  0  0  0  0
   10.6908   16.2797   17.3400 H   0  0  0  0  0  0  0  0  0  0  0  0
   11.0898   12.5589   21.7230 H   0  0  0  0  0  0  0  0  0  0  0  0
  1 13  1  0  0  0  0
  1 18  3  0  0  0  0
  2  3  2  0  0  0  0
  2  8  1  0  0  0  0
  3  9  1  0  0  0  0
  4  6  2  0  0  0  0
  4  7  1  0  0  0  0
  5  8  2  0  0  0  0
  5 10  1  0  0  0  0
  6 23  1  0  0  0  0
  7 11  2  0  0  0  0
  7 17  1  0  0  0  0
  8 19  1  0  0  0  0
  9 10  2  0  0  0  0
  9 21  1  0  0  0  0
 10 22  1  0  0  0  0
 11 12  1  4  0  0  0
 11 23  1  0  0  0  0
 12 13  2  0  0  0  0
 13 14  1  0  0  0  0
 14 19  1  0  0  0  0
 14 20  2  0  0  0  0
 15 16  1  0  0  0  0
 15 21  1  0  0  0  0
 16 22  1  0  0  0  0
  2 24  1  0  0  0  0
  3 25  1  0  0  0  0
  4 26  1  0  0  0  0
  5 27  1  0  0  0  0
  6 28  1  0  0  0  0
 12 29  1  0  0  0  0
 15 30  1  0  0  0  0
 15 31  1  0  0  0  0
 16 32  1  0  0  0  0
 16 33  1  0  0  0  0
 17 34  1  0  0  0  0
 17 35  1  0  0  0  0
 17 36  1  0  0  0  0
 19 37  1  0  0  0  0
M  END
> <Catalog ID>
Z44390892

> <MW>
326.37

> <MW (desalted)>
326.37

> <ClogP>
3.148

> <logS>
-4.9

> <HBD>
1

> <HBA>
4

> <TPSA>
71.35

> <RotBonds>
3

> <ROCS_ShapeQuery>
A71EV2A-x0451_0A_A71EV2A-x0310_0A_A71EV2A-x0416_0A_peptide

> <ROCS_TanimotoCombo>
0.526 

> <ROCS_ShapeTanimoto>
0.351 

> <ROCS_ColorTanimoto>
0.175 

> <ROCS_RefTversky>
0.310 

> <ROCS_RefColorTversky>
0.194 

> <ROCS_RefTverskyCombo>
0.504 

> <ROCS_FitTversky>
1.605 

> <ROCS_FitColorTversky>
0.644 

> <ROCS_FitTverskyCombo>
2.248 

> <ROCS_ColorScore>
-5.917

> <ROCS_Overlap>
2153.217

> <ROCS_Rank>
280                 

$$$$
untitled-dbase-9334_11484
  -OEChem-11132309573D

 51 53  0     1  0  0  0  0  0999 V2000
    6.6596   13.2157   25.4639 C   0  0  0  0  0  0  0  0  0  0  0  0
    7.6786   13.2794   24.5118 C   0  0  0  0  0  0  0  0  0  0  0  0
   12.0872   16.0647   18.7022 C   0  0  0  0  0  0  0  0  0  0  0  0
   14.3389   15.4776   19.3520 C   0  0  0  0  0  0  0  0  0  0  0  0
   11.6279   15.7060   19.9695 C   0  0  0  0  0  0  0  0  0  0  0  0
   13.8796   15.1189   20.6193 C   0  0  0  0  0  0  0  0  0  0  0  0
    6.2780   11.9869   25.9959 C   0  0  0  0  0  0  0  0  0  0  0  0
    8.3361   12.1148   24.0849 C   0  0  0  0  0  0  0  0  0  0  0  0
   13.4426   15.9504   18.3934 C   0  0  0  0  0  0  0  0  0  0  0  0
   12.5241   15.2332   20.9281 C   0  0  0  0  0  0  0  0  0  0  0  0
    7.9147   10.8795   24.6012 C   0  0  0  0  0  0  0  0  0  0  0  0
    6.9045   10.8192   25.5660 C   0  0  0  0  0  0  0  0  0  0  0  0
   10.4964   12.3274   15.2166 C   0  0  0  0  0  0  0  0  0  0  0  0
   10.6948   13.2587   16.1544 C   0  0  0  0  0  0  0  0  0  0  0  0
   12.0743   13.6183   16.5783 C   0  0  0  0  0  0  0  0  0  0  0  0
   10.4334   13.2654   23.3547 C   0  0  0  0  0  0  0  0  0  0  0  0
   10.1861   10.8521   22.9745 C   0  0  0  0  0  0  0  0  0  0  0  0
    9.1851    9.7104   22.9991 C   0  0  0  0  0  0  0  0  0  0  0  0
    9.4400   12.1837   23.0567 C   0  0  1  0  0  0  0  0  0  0  0  0
   13.9345   16.3336   17.0387 C   0  0  0  0  0  0  0  0  0  0  0  0
   12.0293   14.8490   22.2925 C   0  0  0  0  0  0  0  0  0  0  0  0
   13.9236   15.1763   16.0323 C   0  0  0  0  0  0  0  0  0  0  0  0
   12.6017   14.6519   15.8168 N   0  0  0  0  0  0  0  0  0  0  0  0
   11.0418   13.7952   22.2328 N   0  0  0  0  0  0  0  0  0  0  0  0
   12.6530   13.0464   17.4965 O   0  0  0  0  0  0  0  0  0  0  0  0
   10.6339   13.5981   24.5169 O   0  0  0  0  0  0  0  0  0  0  0  0
    8.4605    9.6761   24.2315 O   0  0  0  0  0  0  0  0  0  0  0  0
    6.5364    9.6405   26.0875 F   0  0  0  0  0  0  0  0  0  0  0  0
    6.1612   14.1255   25.7859 H   0  0  0  0  0  0  0  0  0  0  0  0
    7.9547   14.2469   24.0977 H   0  0  0  0  0  0  0  0  0  0  0  0
   11.3816   16.4315   17.9614 H   0  0  0  0  0  0  0  0  0  0  0  0
   15.3969   15.3865   19.1202 H   0  0  0  0  0  0  0  0  0  0  0  0
   10.5705   15.7998   20.2018 H   0  0  0  0  0  0  0  0  0  0  0  0
   14.5846   14.7513   21.3602 H   0  0  0  0  0  0  0  0  0  0  0  0
    5.4923   11.9383   26.7439 H   0  0  0  0  0  0  0  0  0  0  0  0
    9.4869   12.0697   14.9134 H   0  0  0  0  0  0  0  0  0  0  0  0
   11.3125   11.8040   14.7309 H   0  0  0  0  0  0  0  0  0  0  0  0
    9.8501   13.7592   16.6154 H   0  0  0  0  0  0  0  0  0  0  0  0
   10.9046   10.7496   23.7913 H   0  0  0  0  0  0  0  0  0  0  0  0
   10.7384   10.8159   22.0296 H   0  0  0  0  0  0  0  0  0  0  0  0
    8.4527    9.8497   22.1997 H   0  0  0  0  0  0  0  0  0  0  0  0
    9.6612    8.7388   22.8381 H   0  0  0  0  0  0  0  0  0  0  0  0
    9.0182   12.3971   22.0719 H   0  0  0  0  0  0  0  0  0  0  0  0
   14.9654   16.7177   17.1191 H   0  0  0  0  0  0  0  0  0  0  0  0
   13.3444   17.1740   16.6343 H   0  0  0  0  0  0  0  0  0  0  0  0
   12.8572   14.5003   22.9194 H   0  0  0  0  0  0  0  0  0  0  0  0
   11.5745   15.7055   22.8012 H   0  0  0  0  0  0  0  0  0  0  0  0
   14.2929   15.5116   15.0580 H   0  0  0  0  0  0  0  0  0  0  0  0
   14.5560   14.3491   16.3709 H   0  0  0  0  0  0  0  0  0  0  0  0
   12.0532   15.0431   15.0524 H   0  0  0  0  0  0  0  0  0  0  0  0
   10.7828   13.4264   21.3227 H   0  0  0  0  0  0  0  0  0  0  0  0
  1  2  1  0  0  0  0
  1  7  2  0  0  0  0
  2  8  2  0  0  0  0
  3  5  2  0  0  0  0
  3  9  1  0  0  0  0
  4  6  1  0  0  0  0
  4  9  2  0  0  0  0
  5 10  1  0  0  0  0
  6 10  2  0  0  0  0
  7 12  1  0  0  0  0
  8 11  1  0  0  0  0
  8 19  1  0  0  0  0
  9 20  1  0  0  0  0
 10 21  1  0  0  0  0
 11 12  2  0  0  0  0
 11 27  1  0  0  0  0
 12 28  1  0  0  0  0
 13 14  2  0  0  0  0
 14 15  1  0  0  0  0
 15 23  1  0  0  0  0
 15 25  2  0  0  0  0
 16 19  1  0  0  0  0
 16 24  1  0  0  0  0
 16 26  2  0  0  0  0
 17 18  1  0  0  0  0
 17 19  1  0  0  0  0
 18 27  1  0  0  0  0
 20 22  1  0  0  0  0
 21 24  1  0  0  0  0
 22 23  1  0  0  0  0
  1 29  1  0  0  0  0
  2 30  1  0  0  0  0
  3 31  1  0  0  0  0
  4 32  1  0  0  0  0
  5 33  1  0  0  0  0
  6 34  1  0  0  0  0
  7 35  1  0  0  0  0
 13 36  1  0  0  0  0
 13 37  1  0  0  0  0
 14 38  1  0  0  0  0
 17 39  1  0  0  0  0
 17 40  1  0  0  0  0
 18 41  1  0  0  0  0
 18 42  1  0  0  0  0
 19 43  1  0  0  0  0
 20 44  1  0  0  0  0
 20 45  1  0  0  0  0
 21 46  1  0  0  0  0
 21 47  1  0  0  0  0
 22 48  1  0  0  0  0
 22 49  1  0  0  0  0
 23 50  1  0  0  0  0
 24 51  1  0  0  0  0
M  END
> <Catalog ID>
Z4425283640

> <MW>
382.428

> <MW (desalted)>
382.428

> <ClogP>
2.237

> <logS>
-4.343

> <HBD>
2

> <HBA>
3

> <TPSA>
67.43

> <RotBonds>
7

> <ROCS_ShapeQuery>
A71EV2A-x0451_0A_A71EV2A-x0310_0A_A71EV2A-x0416_0A_peptide

> <ROCS_TanimotoCombo>
0.526 

> <ROCS_ShapeTanimoto>
0.339 

> <ROCS_ColorTanimoto>
0.187 

> <ROCS_RefTversky>
0.310 

> <ROCS_RefColorTversky>
0.210 

> <ROCS_RefTverskyCombo>
0.519 

> <ROCS_FitTversky>
1.389 

> <ROCS_FitColorTversky>
0.632 

> <ROCS_FitTverskyCombo>
2.021 

> <ROCS_ColorScore>
-6.406

> <ROCS_Overlap>
2155.446

> <ROCS_Rank>
281                 

$$$$
untitled-dbase-5997_2907
  -OEChem-11132309573D

 38 40  0     0  0  0  0  0  0999 V2000
    6.2266   11.2028   25.8610 C   0  0  0  0  0  0  0  0  0  0  0  0
    6.7559   12.4957   25.9752 C   0  0  0  0  0  0  0  0  0  0  0  0
   12.6884   15.8811   18.2714 C   0  0  0  0  0  0  0  0  0  0  0  0
   14.4091   17.0442   19.5058 C   0  0  0  0  0  0  0  0  0  0  0  0
   12.2002   15.3408   19.4611 C   0  0  0  0  0  0  0  0  0  0  0  0
   13.9208   16.5040   20.6955 C   0  0  0  0  0  0  0  0  0  0  0  0
    6.8738   10.2412   25.0858 C   0  0  0  0  0  0  0  0  0  0  0  0
    7.9388   12.8458   25.3163 C   0  0  0  0  0  0  0  0  0  0  0  0
   13.7929   16.7328   18.2938 C   0  0  0  0  0  0  0  0  0  0  0  0
   12.8163   15.6523   20.6731 C   0  0  0  0  0  0  0  0  0  0  0  0
    8.0462   10.5966   24.4359 C   0  0  0  0  0  0  0  0  0  0  0  0
    8.5763   11.8835   24.5469 C   0  0  0  0  0  0  0  0  0  0  0  0
   14.3016   17.2963   17.0535 C   0  0  0  0  0  0  0  0  0  0  0  0
   12.2954   15.0787   21.9396 C   0  0  0  0  0  0  0  0  0  0  0  0
   10.5597   13.1142   23.6729 C   0  0  0  0  0  0  0  0  0  0  0  0
    8.8892    9.7254   23.5637 C   0  0  0  0  0  0  0  0  0  0  0  0
   10.0204   10.6747   23.1544 C   0  0  0  0  0  0  0  0  0  0  0  0
   11.7808   12.9411   22.8007 C   0  0  0  0  0  0  0  0  0  0  0  0
    9.7648   11.9826   23.7938 N   0  0  0  0  0  0  0  0  0  0  0  0
   15.4897   17.5824   16.8805 O   0  0  0  0  0  0  0  0  0  0  0  0
   12.3804   15.6470   23.0172 O   0  0  0  0  0  0  0  0  0  0  0  0
   10.3488   14.2045   24.2045 O   0  0  0  0  0  0  0  0  0  0  0  0
   11.7222   13.8569   21.7280 O   0  0  0  0  0  0  0  0  0  0  0  0
    5.3065   10.9496   26.3802 H   0  0  0  0  0  0  0  0  0  0  0  0
    6.2399   13.2343   26.5830 H   0  0  0  0  0  0  0  0  0  0  0  0
   12.2002   15.6323   17.3325 H   0  0  0  0  0  0  0  0  0  0  0  0
   15.2698   17.7075   19.5353 H   0  0  0  0  0  0  0  0  0  0  0  0
   11.3384   14.6789   19.4320 H   0  0  0  0  0  0  0  0  0  0  0  0
   14.4084   16.7539   21.6343 H   0  0  0  0  0  0  0  0  0  0  0  0
    6.4655    9.2401   24.9966 H   0  0  0  0  0  0  0  0  0  0  0  0
    8.3189   13.8538   25.4270 H   0  0  0  0  0  0  0  0  0  0  0  0
   13.5713   17.4713   16.2336 H   0  0  0  0  0  0  0  0  0  0  0  0
    9.2751    8.8679   24.1233 H   0  0  0  0  0  0  0  0  0  0  0  0
    8.3249    9.3835   22.6908 H   0  0  0  0  0  0  0  0  0  0  0  0
   10.9958   10.2998   23.4842 H   0  0  0  0  0  0  0  0  0  0  0  0
   10.0570   10.8084   22.0677 H   0  0  0  0  0  0  0  0  0  0  0  0
   11.8114   11.9267   22.4163 H   0  0  0  0  0  0  0  0  0  0  0  0
   12.6674   13.1383   23.3944 H   0  0  0  0  0  0  0  0  0  0  0  0
  1  2  1  0  0  0  0
  1  7  2  0  0  0  0
  2  8  2  0  0  0  0
  3  5  2  0  0  0  0
  3  9  1  0  0  0  0
  4  6  1  0  0  0  0
  4  9  2  0  0  0  0
  5 10  1  0  0  0  0
  6 10  2  0  0  0  0
  7 11  1  0  0  0  0
  8 12  1  0  0  0  0
  9 13  1  0  0  0  0
 10 14  1  0  0  0  0
 11 12  2  0  0  0  0
 11 16  1  0  0  0  0
 12 19  1  0  0  0  0
 13 20  2  0  0  0  0
 14 21  2  0  0  0  0
 14 23  1  0  0  0  0
 15 18  1  0  0  0  0
 15 19  1  0  0  0  0
 15 22  2  0  0  0  0
 16 17  1  0  0  0  0
 17 19  1  0  0  0  0
 18 23  1  0  0  0  0
  1 24  1  0  0  0  0
  2 25  1  0  0  0  0
  3 26  1  0  0  0  0
  4 27  1  0  0  0  0
  5 28  1  0  0  0  0
  6 29  1  0  0  0  0
  7 30  1  0  0  0  0
  8 31  1  0  0  0  0
 13 32  1  0  0  0  0
 16 33  1  0  0  0  0
 16 34  1  0  0  0  0
 17 35  1  0  0  0  0
 17 36  1  0  0  0  0
 18 37  1  0  0  0  0
 18 38  1  0  0  0  0
M  END
> <Catalog ID>
Z18297711

> <MW>
309.316

> <MW (desalted)>
309.316

> <ClogP>
2.749

> <logS>
-4.056

> <HBD>
0

> <HBA>
3

> <TPSA>
63.68

> <RotBonds>
5

> <ROCS_ShapeQuery>
A71EV2A-x0451_0A_A71EV2A-x0310_0A_A71EV2A-x0416_0A_peptide

> <ROCS_TanimotoCombo>
0.526 

> <ROCS_ShapeTanimoto>
0.345 

> <ROCS_ColorTanimoto>
0.181 

> <ROCS_RefTversky>
0.307 

> <ROCS_RefColorTversky>
0.190 

> <ROCS_RefTverskyCombo>
0.497 

> <ROCS_FitTversky>
1.563 

> <ROCS_FitColorTversky>
0.792 

> <ROCS_FitTverskyCombo>
2.355 

> <ROCS_ColorScore>
-5.785

> <ROCS_Overlap>
2130.044

> <ROCS_Rank>
282                 

$$$$
untitled-dbase-5910_8954
  -OEChem-11132309573D

 53 56  0     1  0  0  0  0  0999 V2000
   13.3502   16.9158   17.9347 C   0  0  0  0  0  0  0  0  0  0  0  0
   13.4672   15.5507   17.6903 C   0  0  0  0  0  0  0  0  0  0  0  0
   13.1692   17.3791   19.2381 C   0  0  0  0  0  0  0  0  0  0  0  0
   13.4035   14.6437   18.7485 C   0  0  0  0  0  0  0  0  0  0  0  0
   12.9209   16.9291   21.6337 C   0  0  0  0  0  0  0  0  0  0  0  0
   12.8572   16.0221   22.6918 C   0  0  0  0  0  0  0  0  0  0  0  0
    6.8536    8.8933   24.4075 C   0  0  0  0  0  0  0  0  0  0  0  0
    7.2062    7.5749   24.1223 C   0  0  0  0  0  0  0  0  0  0  0  0
   13.1551   14.1936   21.1440 C   0  0  0  0  0  0  0  0  0  0  0  0
    9.4453    8.2931   23.5692 C   0  0  0  0  0  0  0  0  0  0  0  0
   13.1027   16.4804   20.3153 C   0  0  0  0  0  0  0  0  0  0  0  0
   13.2216   15.0923   20.0668 C   0  0  0  0  0  0  0  0  0  0  0  0
    9.0993    9.6229   23.8427 C   0  0  0  0  0  0  0  0  0  0  0  0
   12.9741   14.6570   22.4475 C   0  0  0  0  0  0  0  0  0  0  0  0
    7.8002    9.9133   24.2826 C   0  0  0  0  0  0  0  0  0  0  0  0
    8.5019    7.2743   23.7074 C   0  0  0  0  0  0  0  0  0  0  0  0
   10.4972   13.1358   23.9175 C   0  0  0  0  0  0  0  0  0  0  0  0
   14.9390   11.8942   25.9244 C   0  0  0  0  0  0  0  0  0  0  0  0
   10.1255   10.7106   23.6858 C   0  0  0  0  0  0  0  0  0  0  0  0
    8.4136   12.1384   24.7742 C   0  0  0  0  0  0  0  0  0  0  0  0
    9.4483   12.0727   23.6640 C   0  0  1  0  0  0  0  0  0  0  0  0
   14.6272   10.8221   26.9371 C   0  0  0  0  0  0  0  0  0  0  0  0
   14.1832   12.8334   23.7591 C   0  0  0  0  0  0  0  0  0  0  0  0
   12.9047   13.6711   23.6008 C   0  0  2  0  0  0  0  0  0  0  0  0
   11.7586   12.8013   23.4632 N   0  0  0  0  0  0  0  0  0  0  0  0
   14.0787   11.8841   24.8364 N   0  0  0  0  0  0  0  0  0  0  0  0
   10.1788   14.1766   24.4806 O   0  0  0  0  0  0  0  0  0  0  0  0
   15.8609   12.6917   26.0869 O   0  0  0  0  0  0  0  0  0  0  0  0
    7.3667   11.1812   24.5780 O   0  0  0  0  0  0  0  0  0  0  0  0
    8.8438    6.0056   23.4457 F   0  0  0  0  0  0  0  0  0  0  0  0
   14.2630   11.6168   28.4768 Cl  0  0  0  0  0  0  0  0  0  0  0  0
   13.3996   17.6210   17.1104 H   0  0  0  0  0  0  0  0  0  0  0  0
   13.6076   15.1908   16.6753 H   0  0  0  0  0  0  0  0  0  0  0  0
   13.0806   18.4507   19.4054 H   0  0  0  0  0  0  0  0  0  0  0  0
   13.4970   13.5809   18.5340 H   0  0  0  0  0  0  0  0  0  0  0  0
   12.8269   17.9919   21.8480 H   0  0  0  0  0  0  0  0  0  0  0  0
   12.7157   16.3914   23.7041 H   0  0  0  0  0  0  0  0  0  0  0  0
    5.8382    9.1195   24.7209 H   0  0  0  0  0  0  0  0  0  0  0  0
    6.4709    6.7817   24.2228 H   0  0  0  0  0  0  0  0  0  0  0  0
   13.2455   13.1231   20.9667 H   0  0  0  0  0  0  0  0  0  0  0  0
   10.4541    8.0428   23.2521 H   0  0  0  0  0  0  0  0  0  0  0  0
   10.8553   10.6536   24.4908 H   0  0  0  0  0  0  0  0  0  0  0  0
   10.6345   10.5510   22.7358 H   0  0  0  0  0  0  0  0  0  0  0  0
    8.8731   11.9153   25.7348 H   0  0  0  0  0  0  0  0  0  0  0  0
    7.9692   13.1309   24.8335 H   0  0  0  0  0  0  0  0  0  0  0  0
    9.0196   12.2726   22.7135 H   0  0  0  0  0  0  0  0  0  0  0  0
   13.7705   10.2082   26.6485 H   0  0  0  0  0  0  0  0  0  0  0  0
   15.5014   10.1777   27.0647 H   0  0  0  0  0  0  0  0  0  0  0  0
   14.3764   12.2505   22.8513 H   0  0  0  0  0  0  0  0  0  0  0  0
   15.0675   13.4502   23.9512 H   0  0  0  0  0  0  0  0  0  0  0  0
   12.7604   14.2379   24.5300 H   0  0  0  0  0  0  0  0  0  0  0  0
   11.8866   11.9010   23.0109 H   0  0  0  0  0  0  0  0  0  0  0  0
   13.3460   11.1791   24.7982 H   0  0  0  0  0  0  0  0  0  0  0  0
  1  2  1  0  0  0  0
  1  3  2  0  0  0  0
  2  4  2  0  0  0  0
  3 11  1  0  0  0  0
  4 12  1  0  0  0  0
  5  6  2  0  0  0  0
  5 11  1  0  0  0  0
  6 14  1  0  0  0  0
  7  8  2  0  0  0  0
  7 15  1  0  0  0  0
  8 16  1  0  0  0  0
  9 12  1  0  0  0  0
  9 14  2  0  0  0  0
 10 13  1  0  0  0  0
 10 16  2  0  0  0  0
 11 12  2  0  0  0  0
 13 15  2  0  0  0  0
 13 19  1  0  0  0  0
 14 24  1  0  0  0  0
 15 29  1  0  0  0  0
 16 30  1  0  0  0  0
 17 21  1  0  0  0  0
 17 25  1  0  0  0  0
 17 27  2  0  0  0  0
 18 22  1  0  0  0  0
 18 26  1  0  0  0  0
 18 28  2  0  0  0  0
 19 21  1  0  0  0  0
 20 21  1  0  0  0  0
 20 29  1  0  0  0  0
 22 31  1  0  0  0  0
 23 24  1  0  0  0  0
 23 26  1  0  0  0  0
 24 25  1  0  0  0  0
  1 32  1  0  0  0  0
  2 33  1  0  0  0  0
  3 34  1  0  0  0  0
  4 35  1  0  0  0  0
  5 36  1  0  0  0  0
  6 37  1  0  0  0  0
  7 38  1  0  0  0  0
  8 39  1  0  0  0  0
  9 40  1  0  0  0  0
 10 41  1  0  0  0  0
 19 42  1  0  0  0  0
 19 43  1  0  0  0  0
 20 44  1  0  0  0  0
 20 45  1  0  0  0  0
 21 46  1  0  0  0  0
 22 47  1  0  0  0  0
 22 48  1  0  0  0  0
 23 49  1  0  0  0  0
 23 50  1  0  0  0  0
 24 51  1  0  0  0  0
 25 52  1  0  0  0  0
 26 53  1  0  0  0  0
M  END
> <Catalog ID>
Z4425212104

> <MW>
440.894

> <MW (desalted)>
440.894

> <ClogP>
4.407

> <logS>
-6.562

> <HBD>
2

> <HBA>
3

> <TPSA>
67.43

> <RotBonds>
6

> <ROCS_ShapeQuery>
A71EV2A-x0451_0A_A71EV2A-x0310_0A_A71EV2A-x0416_0A_peptide

> <ROCS_TanimotoCombo>
0.526 

> <ROCS_ShapeTanimoto>
0.355 

> <ROCS_ColorTanimoto>
0.171 

> <ROCS_RefTversky>
0.326 

> <ROCS_RefColorTversky>
0.194 

> <ROCS_RefTverskyCombo>
0.520 

> <ROCS_FitTversky>
1.337 

> <ROCS_FitColorTversky>
0.585 

> <ROCS_FitTverskyCombo>
1.922 

> <ROCS_ColorScore>
-5.939

> <ROCS_Overlap>
2269.626

> <ROCS_Rank>
283                 

$$$$
untitled-dbase-8418_9516
  -OEChem-11132309573D

 49 52  0     0  0  0  0  0  0999 V2000
   11.7524   15.0656   20.9895 C   0  0  0  0  0  0  0  0  0  0  0  0
    3.5079   11.3013   29.0243 C   0  0  0  0  0  0  0  0  0  0  0  0
    3.5408   12.2708   30.0265 C   0  0  0  0  0  0  0  0  0  0  0  0
   13.3803   11.7616   23.6045 C   0  0  0  0  0  0  0  0  0  0  0  0
    4.5403   11.2298   28.0889 C   0  0  0  0  0  0  0  0  0  0  0  0
    9.5541   10.2966   23.2124 C   0  0  0  0  0  0  0  0  0  0  0  0
   13.8046   10.9551   24.6633 C   0  0  0  0  0  0  0  0  0  0  0  0
    4.6060   13.1689   30.0934 C   0  0  0  0  0  0  0  0  0  0  0  0
    8.5732    9.5352   23.8476 C   0  0  0  0  0  0  0  0  0  0  0  0
   14.6895   13.6328   24.4489 C   0  0  0  0  0  0  0  0  0  0  0  0
    8.5041   12.3190   24.0150 C   0  0  0  0  0  0  0  0  0  0  0  0
   13.8203   13.0928   23.4979 C   0  0  0  0  0  0  0  0  0  0  0  0
    9.5196   11.6886   23.2961 C   0  0  0  0  0  0  0  0  0  0  0  0
    5.6054   12.1279   28.1557 C   0  0  0  0  0  0  0  0  0  0  0  0
   14.6627   11.5125   25.5888 C   0  0  0  0  0  0  0  0  0  0  0  0
   15.0935   12.8154   25.4844 C   0  0  0  0  0  0  0  0  0  0  0  0
    7.5231   11.5576   24.6503 C   0  0  0  0  0  0  0  0  0  0  0  0
    5.6383   13.0975   29.1580 C   0  0  0  0  0  0  0  0  0  0  0  0
    7.5577   10.1656   24.5666 C   0  0  0  0  0  0  0  0  0  0  0  0
   13.3642   13.9142   22.3870 C   0  0  0  0  0  0  0  0  0  0  0  0
   12.0771   14.2489   22.1151 C   0  0  0  0  0  0  0  0  0  0  0  0
   11.0083   13.7038   23.0382 C   0  0  0  0  0  0  0  0  0  0  0  0
   15.9819   11.9365   27.2508 C   0  0  0  0  0  0  0  0  0  0  0  0
   11.4835   15.7283   20.0755 N   0  0  0  0  0  0  0  0  0  0  0  0
   10.5177   12.4618   22.6503 N   0  0  0  0  0  0  0  0  0  0  0  0
    6.6519   12.0271   27.1744 N   0  0  0  0  0  0  0  0  0  0  0  0
   10.6495   14.3473   24.0213 O   0  0  0  0  0  0  0  0  0  0  0  0
    5.0000   11.7760   25.2091 O   0  0  0  0  0  0  0  0  0  0  0  0
    6.4341   13.8331   25.3129 O   0  0  0  0  0  0  0  0  0  0  0  0
   15.1787   10.8834   26.6796 O   0  0  0  0  0  0  0  0  0  0  0  0
   15.9327   13.1652   26.4970 O   0  0  0  0  0  0  0  0  0  0  0  0
    6.2718   12.4042   25.5383 S   0  0  0  0  0  0  0  0  0  0  0  0
    6.9379   14.2289   29.2742 Cl  0  0  0  0  0  0  0  0  0  0  0  0
    6.3680    9.1777   25.3352 Cl  0  0  0  0  0  0  0  0  0  0  0  0
    2.6778   10.6026   28.9725 H   0  0  0  0  0  0  0  0  0  0  0  0
    2.7363   12.3266   30.7541 H   0  0  0  0  0  0  0  0  0  0  0  0
   12.7036   11.3430   22.8625 H   0  0  0  0  0  0  0  0  0  0  0  0
    4.5035   10.4691   27.3131 H   0  0  0  0  0  0  0  0  0  0  0  0
   10.3419    9.7939   22.6569 H   0  0  0  0  0  0  0  0  0  0  0  0
   13.4672    9.9286   24.7496 H   0  0  0  0  0  0  0  0  0  0  0  0
    4.6149   13.9189   30.8801 H   0  0  0  0  0  0  0  0  0  0  0  0
    8.6162    8.4515   23.7738 H   0  0  0  0  0  0  0  0  0  0  0  0
   15.0400   14.6577   24.3834 H   0  0  0  0  0  0  0  0  0  0  0  0
    8.4786   13.4047   24.0789 H   0  0  0  0  0  0  0  0  0  0  0  0
   14.1713   14.2875   21.7493 H   0  0  0  0  0  0  0  0  0  0  0  0
   15.6281   12.1349   28.2690 H   0  0  0  0  0  0  0  0  0  0  0  0
   17.0226   11.5964   27.2995 H   0  0  0  0  0  0  0  0  0  0  0  0
   10.9208   12.0623   21.8070 H   0  0  0  0  0  0  0  0  0  0  0  0
    7.5800   12.3252   27.5025 H   0  0  0  0  0  0  0  0  0  0  0  0
  1 21  1  0  0  0  0
  1 24  3  0  0  0  0
  2  3  1  0  0  0  0
  2  5  2  0  0  0  0
  3  8  2  0  0  0  0
  4  7  2  0  0  0  0
  4 12  1  0  0  0  0
  5 14  1  0  0  0  0
  6  9  2  0  0  0  0
  6 13  1  0  0  0  0
  7 15  1  0  0  0  0
  8 18  1  0  0  0  0
  9 19  1  0  0  0  0
 10 12  2  0  0  0  0
 10 16  1  0  0  0  0
 11 13  2  0  0  0  0
 11 17  1  0  0  0  0
 12 20  1  4  0  0  0
 13 25  1  0  0  0  0
 14 18  2  0  0  0  0
 14 26  1  0  0  0  0
 15 16  2  0  0  0  0
 15 30  1  0  0  0  0
 16 31  1  0  0  0  0
 17 19  2  0  0  0  0
 17 32  1  0  0  0  0
 18 33  1  0  0  0  0
 19 34  1  0  0  0  0
 20 21  2  0  0  0  0
 21 22  1  0  0  0  0
 22 25  1  0  0  0  0
 22 27  2  0  0  0  0
 23 30  1  0  0  0  0
 23 31  1  0  0  0  0
 26 32  1  0  0  0  0
 28 32  2  0  0  0  0
 29 32  2  0  0  0  0
  2 35  1  0  0  0  0
  3 36  1  0  0  0  0
  4 37  1  0  0  0  0
  5 38  1  0  0  0  0
  6 39  1  0  0  0  0
  7 40  1  0  0  0  0
  8 41  1  0  0  0  0
  9 42  1  0  0  0  0
 10 43  1  0  0  0  0
 11 44  1  0  0  0  0
 20 45  1  0  0  0  0
 23 46  1  0  0  0  0
 23 47  1  0  0  0  0
 25 48  1  0  0  0  0
 26 49  1  0  0  0  0
M  END
> <Catalog ID>
Z56590156

> <MW>
516.353

> <MW (desalted)>
516.353

> <ClogP>
4.676

> <logS>
-7.81

> <HBD>
2

> <HBA>
6

> <TPSA>
117.52

> <RotBonds>
5

> <ROCS_ShapeQuery>
A71EV2A-x0451_0A_A71EV2A-x0310_0A_A71EV2A-x0416_0A_peptide

> <ROCS_TanimotoCombo>
0.526 

> <ROCS_ShapeTanimoto>
0.383 

> <ROCS_ColorTanimoto>
0.143 

> <ROCS_RefTversky>
0.349 

> <ROCS_RefColorTversky>
0.178 

> <ROCS_RefTverskyCombo>
0.527 

> <ROCS_FitTversky>
1.342 

> <ROCS_FitColorTversky>
0.420 

> <ROCS_FitTverskyCombo>
1.763 

> <ROCS_ColorScore>
-5.468

> <ROCS_Overlap>
2431.690

> <ROCS_Rank>
284                 

$$$$
untitled-dbase-6207_135
  -OEChem-11132309573D

 40 42  0     0  0  0  0  0  0999 V2000
   12.0279   12.3086   23.9913 C   0  0  0  0  0  0  0  0  0  0  0  0
   13.7853   17.0765   18.6567 C   0  0  0  0  0  0  0  0  0  0  0  0
   14.3851   16.8233   19.8903 C   0  0  0  0  0  0  0  0  0  0  0  0
   12.6381   16.3769   18.2822 C   0  0  0  0  0  0  0  0  0  0  0  0
   13.8377   15.8704   20.7494 C   0  0  0  0  0  0  0  0  0  0  0  0
   12.0908   15.4241   19.1413 C   0  0  0  0  0  0  0  0  0  0  0  0
   12.6905   15.1708   20.3749 C   0  0  0  0  0  0  0  0  0  0  0  0
    9.1686   11.6955   23.6026 C   0  0  0  0  0  0  0  0  0  0  0  0
    9.3275   10.3227   23.5052 C   0  0  0  0  0  0  0  0  0  0  0  0
    7.6718   10.5985   24.7689 C   0  0  0  0  0  0  0  0  0  0  0  0
    7.3731   12.8885   24.9567 C   0  0  0  0  0  0  0  0  0  0  0  0
    6.3659   12.4499   25.7355 C   0  0  0  0  0  0  0  0  0  0  0  0
    9.8351   12.8099   23.0721 C   0  0  0  0  0  0  0  0  0  0  0  0
   11.1712   13.1563   23.2252 C   0  0  0  0  0  0  0  0  0  0  0  0
   11.6857   14.4133   22.5567 C   0  0  0  0  0  0  0  0  0  0  0  0
   10.3422    9.5766   22.7410 C   0  0  0  0  0  0  0  0  0  0  0  0
    5.3779   13.2828   26.4713 C   0  0  0  0  0  0  0  0  0  0  0  0
   10.8614   14.6898   18.7139 C   0  0  0  0  0  0  0  0  0  0  0  0
   12.7282   11.6223   24.6122 N   0  0  0  0  0  0  0  0  0  0  0  0
    8.3799    9.6378   24.2432 N   0  0  0  0  0  0  0  0  0  0  0  0
    8.0932   11.8458   24.4238 N   0  0  0  0  0  0  0  0  0  0  0  0
   12.1495   14.2059   21.2623 N   0  0  0  0  0  0  0  0  0  0  0  0
   11.6699   15.4861   23.1552 O   0  0  0  0  0  0  0  0  0  0  0  0
   10.4072   15.0597   17.4811 F   0  0  0  0  0  0  0  0  0  0  0  0
   11.0328   13.3378   18.6421 F   0  0  0  0  0  0  0  0  0  0  0  0
    9.8144   14.8840   19.5659 F   0  0  0  0  0  0  0  0  0  0  0  0
    6.2936   10.6703   25.8223 S   0  0  0  0  0  0  0  0  0  0  0  0
   14.2115   17.8179   17.9874 H   0  0  0  0  0  0  0  0  0  0  0  0
   15.2788   17.3676   20.1815 H   0  0  0  0  0  0  0  0  0  0  0  0
   12.1787   16.5814   17.3188 H   0  0  0  0  0  0  0  0  0  0  0  0
   14.3142   15.6825   21.7081 H   0  0  0  0  0  0  0  0  0  0  0  0
    7.6271   13.9161   24.7424 H   0  0  0  0  0  0  0  0  0  0  0  0
    9.2266   13.4960   22.4351 H   0  0  0  0  0  0  0  0  0  0  0  0
   11.2431    9.3884   23.3496 H   0  0  0  0  0  0  0  0  0  0  0  0
    9.9657    8.5985   22.3927 H   0  0  0  0  0  0  0  0  0  0  0  0
   10.6614   10.1183   21.8328 H   0  0  0  0  0  0  0  0  0  0  0  0
    4.5061   13.4751   25.8424 H   0  0  0  0  0  0  0  0  0  0  0  0
    5.8275   14.2370   26.7554 H   0  0  0  0  0  0  0  0  0  0  0  0
    5.0541   12.7683   27.3787 H   0  0  0  0  0  0  0  0  0  0  0  0
   12.0944   13.2533   20.9119 H   0  0  0  0  0  0  0  0  0  0  0  0
  1 14  1  0  0  0  0
  1 19  3  0  0  0  0
  2  3  1  0  0  0  0
  2  4  2  0  0  0  0
  3  5  2  0  0  0  0
  4  6  1  0  0  0  0
  5  7  1  0  0  0  0
  6  7  2  0  0  0  0
  6 18  1  0  0  0  0
  7 22  1  0  0  0  0
  8  9  2  0  0  0  0
  8 13  1  4  0  0  0
  8 21  1  0  0  0  0
  9 16  1  0  0  0  0
  9 20  1  0  0  0  0
 10 20  2  0  0  0  0
 10 21  1  0  0  0  0
 10 27  1  0  0  0  0
 11 12  2  0  0  0  0
 11 21  1  0  0  0  0
 12 17  1  0  0  0  0
 12 27  1  0  0  0  0
 13 14  2  0  0  0  0
 14 15  1  0  0  0  0
 15 22  1  0  0  0  0
 15 23  2  0  0  0  0
 18 24  1  0  0  0  0
 18 25  1  0  0  0  0
 18 26  1  0  0  0  0
  2 28  1  0  0  0  0
  3 29  1  0  0  0  0
  4 30  1  0  0  0  0
  5 31  1  0  0  0  0
 11 32  1  0  0  0  0
 13 33  1  0  0  0  0
 16 34  1  0  0  0  0
 16 35  1  0  0  0  0
 16 36  1  0  0  0  0
 17 37  1  0  0  0  0
 17 38  1  0  0  0  0
 17 39  1  0  0  0  0
 22 40  1  0  0  0  0
M  END
> <Catalog ID>
Z196370660

> <MW>
390.382

> <MW (desalted)>
390.382

> <ClogP>
2.894

> <logS>
-5.88

> <HBD>
1

> <HBA>
3

> <TPSA>
70.19

> <RotBonds>
4

> <ROCS_ShapeQuery>
A71EV2A-x0451_0A_A71EV2A-x0310_0A_A71EV2A-x0416_0A_peptide

> <ROCS_TanimotoCombo>
0.526 

> <ROCS_ShapeTanimoto>
0.377 

> <ROCS_ColorTanimoto>
0.149 

> <ROCS_RefTversky>
0.334 

> <ROCS_RefColorTversky>
0.169 

> <ROCS_RefTverskyCombo>
0.503 

> <ROCS_FitTversky>
1.516 

> <ROCS_FitColorTversky>
0.558 

> <ROCS_FitTverskyCombo>
2.073 

> <ROCS_ColorScore>
-5.151

> <ROCS_Overlap>
2324.087

> <ROCS_Rank>
285                 

$$$$
untitled-dbase-6536_14219
  -OEChem-11132309573D

 49 51  0     0  0  0  0  0  0999 V2000
    8.5573    9.7096   23.2651 C   0  0  0  0  0  0  0  0  0  0  0  0
    9.7430   10.3780   22.9603 C   0  0  0  0  0  0  0  0  0  0  0  0
   11.7384   15.9426   19.1699 C   0  0  0  0  0  0  0  0  0  0  0  0
   13.1014   15.5534   21.1264 C   0  0  0  0  0  0  0  0  0  0  0  0
    7.6158   10.3066   24.1035 C   0  0  0  0  0  0  0  0  0  0  0  0
   12.8881   16.0156   18.3834 C   0  0  0  0  0  0  0  0  0  0  0  0
   14.2511   15.6264   20.3399 C   0  0  0  0  0  0  0  0  0  0  0  0
    9.0458   12.2404   24.3324 C   0  0  0  0  0  0  0  0  0  0  0  0
   11.8450   15.7115   20.5414 C   0  0  0  0  0  0  0  0  0  0  0  0
    9.9873   11.6434   23.4939 C   0  0  0  0  0  0  0  0  0  0  0  0
    7.8601   11.5720   24.6372 C   0  0  0  0  0  0  0  0  0  0  0  0
   14.1444   15.8574   18.9684 C   0  0  0  0  0  0  0  0  0  0  0  0
    5.6817   11.6566   25.8909 C   0  0  0  0  0  0  0  0  0  0  0  0
   10.7555   14.7221   22.5936 C   0  0  0  0  0  0  0  0  0  0  0  0
    5.4059   12.3552   28.8933 C   0  0  0  0  0  0  0  0  0  0  0  0
    4.1754   12.0368   28.0247 C   0  0  0  0  0  0  0  0  0  0  0  0
    5.7893   13.4206   27.8501 C   0  0  0  0  0  0  0  0  0  0  0  0
    4.9427   12.6335   26.8166 C   0  0  0  0  0  0  0  0  0  0  0  0
   10.6042   15.6335   21.3908 C   0  0  0  0  0  0  0  0  0  0  0  0
   11.2550   12.3576   23.1677 C   0  0  0  0  0  0  0  0  0  0  0  0
    6.9045   12.1776   25.4872 N   0  0  0  0  0  0  0  0  0  0  0  0
   11.0560   13.4197   22.2144 N   0  0  0  0  0  0  0  0  0  0  0  0
    5.1869   10.5730   25.5976 O   0  0  0  0  0  0  0  0  0  0  0  0
   10.6292   15.1045   23.7540 O   0  0  0  0  0  0  0  0  0  0  0  0
   15.2587   16.7038   16.7907 O   0  0  0  0  0  0  0  0  0  0  0  0
   16.6928   16.2962   18.8497 O   0  0  0  0  0  0  0  0  0  0  0  0
   15.9020   14.4771   17.4711 F   0  0  0  0  0  0  0  0  0  0  0  0
   15.5835   15.9466   17.9839 S   0  0  0  0  0  0  0  0  0  0  0  0
    8.3668    8.7245   22.8493 H   0  0  0  0  0  0  0  0  0  0  0  0
   10.4705    9.9046   22.3068 H   0  0  0  0  0  0  0  0  0  0  0  0
   10.7639   16.0673   18.7054 H   0  0  0  0  0  0  0  0  0  0  0  0
   13.1942   15.3735   22.1942 H   0  0  0  0  0  0  0  0  0  0  0  0
    6.6953    9.7763   24.3344 H   0  0  0  0  0  0  0  0  0  0  0  0
   12.7938   16.1965   17.3159 H   0  0  0  0  0  0  0  0  0  0  0  0
   15.2249   15.5021   20.8061 H   0  0  0  0  0  0  0  0  0  0  0  0
    9.2389   13.2270   24.7480 H   0  0  0  0  0  0  0  0  0  0  0  0
    5.1557   12.7711   29.8774 H   0  0  0  0  0  0  0  0  0  0  0  0
    6.1210   11.5377   29.0251 H   0  0  0  0  0  0  0  0  0  0  0  0
    3.9610   10.9638   27.9380 H   0  0  0  0  0  0  0  0  0  0  0  0
    3.2548   12.5577   28.3062 H   0  0  0  0  0  0  0  0  0  0  0  0
    5.4462   14.4367   28.0692 H   0  0  0  0  0  0  0  0  0  0  0  0
    6.8630   13.4520   27.6241 H   0  0  0  0  0  0  0  0  0  0  0  0
    4.3050   13.3023   26.2207 H   0  0  0  0  0  0  0  0  0  0  0  0
   10.3340   16.6381   21.7401 H   0  0  0  0  0  0  0  0  0  0  0  0
    9.7619   15.2766   20.7846 H   0  0  0  0  0  0  0  0  0  0  0  0
   11.7024   12.8020   24.0679 H   0  0  0  0  0  0  0  0  0  0  0  0
   12.0051   11.6749   22.7451 H   0  0  0  0  0  0  0  0  0  0  0  0
    7.1545   13.1004   25.8365 H   0  0  0  0  0  0  0  0  0  0  0  0
   11.1388   13.2071   21.2230 H   0  0  0  0  0  0  0  0  0  0  0  0
  1  2  2  0  0  0  0
  1  5  1  0  0  0  0
  2 10  1  0  0  0  0
  3  6  2  0  0  0  0
  3  9  1  0  0  0  0
  4  7  1  0  0  0  0
  4  9  2  0  0  0  0
  5 11  2  0  0  0  0
  6 12  1  0  0  0  0
  7 12  2  0  0  0  0
  8 10  2  0  0  0  0
  8 11  1  0  0  0  0
  9 19  1  0  0  0  0
 10 20  1  0  0  0  0
 11 21  1  0  0  0  0
 12 28  1  0  0  0  0
 13 18  1  0  0  0  0
 13 21  1  0  0  0  0
 13 23  2  0  0  0  0
 14 19  1  0  0  0  0
 14 22  1  0  0  0  0
 14 24  2  0  0  0  0
 15 16  1  0  0  0  0
 15 17  1  0  0  0  0
 16 18  1  0  0  0  0
 17 18  1  0  0  0  0
 20 22  1  0  0  0  0
 25 28  2  0  0  0  0
 26 28  2  0  0  0  0
 27 28  1  0  0  0  0
  1 29  1  0  0  0  0
  2 30  1  0  0  0  0
  3 31  1  0  0  0  0
  4 32  1  0  0  0  0
  5 33  1  0  0  0  0
  6 34  1  0  0  0  0
  7 35  1  0  0  0  0
  8 36  1  0  0  0  0
 15 37  1  0  0  0  0
 15 38  1  0  0  0  0
 16 39  1  0  0  0  0
 16 40  1  0  0  0  0
 17 41  1  0  0  0  0
 17 42  1  0  0  0  0
 18 43  1  0  0  0  0
 19 44  1  0  0  0  0
 19 45  1  0  0  0  0
 20 46  1  0  0  0  0
 20 47  1  0  0  0  0
 21 48  1  0  0  0  0
 22 49  1  0  0  0  0
M  END
> <Catalog ID>
Z4751086374

> <MW>
404.455

> <MW (desalted)>
404.455

> <ClogP>
2.813

> <logS>
-4.508

> <HBD>
2

> <HBA>
4

> <TPSA>
92.34

> <RotBonds>
7

> <ROCS_ShapeQuery>
A71EV2A-x0451_0A_A71EV2A-x0310_0A_A71EV2A-x0416_0A_peptide

> <ROCS_TanimotoCombo>
0.526 

> <ROCS_ShapeTanimoto>
0.344 

> <ROCS_ColorTanimoto>
0.181 

> <ROCS_RefTversky>
0.312 

> <ROCS_RefColorTversky>
0.195 

> <ROCS_RefTverskyCombo>
0.507 

> <ROCS_FitTversky>
1.426 

> <ROCS_FitColorTversky>
0.721 

> <ROCS_FitTverskyCombo>
2.146 

> <ROCS_ColorScore>
-5.934

> <ROCS_Overlap>
2172.997

> <ROCS_Rank>
286                 

$$$$
untitled-dbase-3698_11003
  -OEChem-11132309573D

 59 61  0     0  0  0  0  0  0999 V2000
   13.5923   16.6802   18.4823 C   0  0  0  0  0  0  0  0  0  0  0  0
   14.4426   16.2501   19.5009 C   0  0  0  0  0  0  0  0  0  0  0  0
   12.2534   16.2892   18.4799 C   0  0  0  0  0  0  0  0  0  0  0  0
   13.9540   15.4289   20.5170 C   0  0  0  0  0  0  0  0  0  0  0  0
   11.7648   15.4680   19.4960 C   0  0  0  0  0  0  0  0  0  0  0  0
    7.6302   10.0539   25.4399 C   0  0  0  0  0  0  0  0  0  0  0  0
    6.7198   10.7826   26.2051 C   0  0  0  0  0  0  0  0  0  0  0  0
    7.1658   12.7445   24.8676 C   0  0  0  0  0  0  0  0  0  0  0  0
   12.6151   15.0378   20.5146 C   0  0  0  0  0  0  0  0  0  0  0  0
    8.0764   12.0158   24.1024 C   0  0  0  0  0  0  0  0  0  0  0  0
    8.3086   10.6705   24.3885 C   0  0  0  0  0  0  0  0  0  0  0  0
    6.4875   12.1279   25.9190 C   0  0  0  0  0  0  0  0  0  0  0  0
   12.0985   14.1704   21.5875 C   0  0  0  0  0  0  0  0  0  0  0  0
   10.8326   14.1667   22.0231 C   0  0  0  0  0  0  0  0  0  0  0  0
    8.0897   12.9069   30.5568 C   0  0  0  0  0  0  0  0  0  0  0  0
    8.0223   14.1583   29.6859 C   0  0  0  0  0  0  0  0  0  0  0  0
    6.7470   12.1814   30.5657 C   0  0  0  0  0  0  0  0  0  0  0  0
    7.5262   13.8311   28.2813 C   0  0  0  0  0  0  0  0  0  0  0  0
    6.2695   11.8811   29.1487 C   0  0  0  0  0  0  0  0  0  0  0  0
    8.8858    8.9772   21.4747 C   0  0  0  0  0  0  0  0  0  0  0  0
    9.3872    7.5521   23.4919 C   0  0  0  0  0  0  0  0  0  0  0  0
    8.6863    8.7979   22.9720 C   0  0  0  0  0  0  0  0  0  0  0  0
    6.2008   13.1492   28.3642 N   0  0  0  0  0  0  0  0  0  0  0  0
    8.7642   12.6614   23.0282 N   0  0  0  0  0  0  0  0  0  0  0  0
    5.2324   14.3735   26.3127 O   0  0  0  0  0  0  0  0  0  0  0  0
    4.1617   12.2284   27.0872 O   0  0  0  0  0  0  0  0  0  0  0  0
   11.2380   11.8554   23.1129 O   0  0  0  0  0  0  0  0  0  0  0  0
   10.5153   13.7785   24.5492 O   0  0  0  0  0  0  0  0  0  0  0  0
    9.1956    9.9422   23.6536 O   0  0  0  0  0  0  0  0  0  0  0  0
    5.3357   13.0500   26.8877 S   0  0  0  0  0  0  0  0  0  0  0  0
   10.4366   13.0530   23.2928 S   0  0  0  0  0  0  0  0  0  0  0  0
   13.9724   17.3206   17.6918 H   0  0  0  0  0  0  0  0  0  0  0  0
   15.4850   16.5554   19.5036 H   0  0  0  0  0  0  0  0  0  0  0  0
   11.5909   16.6250   17.6875 H   0  0  0  0  0  0  0  0  0  0  0  0
   14.6291   15.1016   21.3042 H   0  0  0  0  0  0  0  0  0  0  0  0
   10.7186   15.1717   19.4802 H   0  0  0  0  0  0  0  0  0  0  0  0
    7.8066    9.0063   25.6685 H   0  0  0  0  0  0  0  0  0  0  0  0
    6.1963   10.2925   27.0215 H   0  0  0  0  0  0  0  0  0  0  0  0
    6.9846   13.7934   24.6444 H   0  0  0  0  0  0  0  0  0  0  0  0
   12.8225   13.4842   22.0226 H   0  0  0  0  0  0  0  0  0  0  0  0
   10.0534   14.8041   21.6255 H   0  0  0  0  0  0  0  0  0  0  0  0
    8.8681   12.2348   30.1749 H   0  0  0  0  0  0  0  0  0  0  0  0
    8.3724   13.1797   31.5796 H   0  0  0  0  0  0  0  0  0  0  0  0
    7.3466   14.8862   30.1526 H   0  0  0  0  0  0  0  0  0  0  0  0
    9.0118   14.6254   29.6307 H   0  0  0  0  0  0  0  0  0  0  0  0
    6.8336   11.2484   31.1337 H   0  0  0  0  0  0  0  0  0  0  0  0
    6.0037   12.8046   31.0785 H   0  0  0  0  0  0  0  0  0  0  0  0
    7.4222   14.7626   27.7143 H   0  0  0  0  0  0  0  0  0  0  0  0
    8.2411   13.1853   27.7586 H   0  0  0  0  0  0  0  0  0  0  0  0
    6.9466   11.1762   28.6525 H   0  0  0  0  0  0  0  0  0  0  0  0
    5.2733   11.4280   29.1974 H   0  0  0  0  0  0  0  0  0  0  0  0
    9.9480    9.0445   21.2208 H   0  0  0  0  0  0  0  0  0  0  0  0
    8.4479    8.1349   20.9284 H   0  0  0  0  0  0  0  0  0  0  0  0
    8.3815    9.8810   21.1150 H   0  0  0  0  0  0  0  0  0  0  0  0
   10.4614    7.5853   23.2861 H   0  0  0  0  0  0  0  0  0  0  0  0
    8.9685    6.6553   23.0226 H   0  0  0  0  0  0  0  0  0  0  0  0
    9.2408    7.4392   24.5718 H   0  0  0  0  0  0  0  0  0  0  0  0
    7.6158    8.7341   23.1929 H   0  0  0  0  0  0  0  0  0  0  0  0
    8.5846   12.2279   22.1067 H   0  0  0  0  0  0  0  0  0  0  0  0
  1  2  1  0  0  0  0
  1  3  2  0  0  0  0
  2  4  2  0  0  0  0
  3  5  1  0  0  0  0
  4  9  1  0  0  0  0
  5  9  2  0  0  0  0
  6  7  2  0  0  0  0
  6 11  1  0  0  0  0
  7 12  1  0  0  0  0
  8 10  1  0  0  0  0
  8 12  2  0  0  0  0
  9 13  1  0  0  0  0
 10 11  2  0  0  0  0
 10 24  1  0  0  0  0
 11 29  1  0  0  0  0
 12 30  1  0  0  0  0
 13 14  2  0  0  0  0
 14 31  1  4  0  0  0
 15 16  1  0  0  0  0
 15 17  1  0  0  0  0
 16 18  1  0  0  0  0
 17 19  1  0  0  0  0
 18 23  1  0  0  0  0
 19 23  1  0  0  0  0
 20 22  1  0  0  0  0
 21 22  1  0  0  0  0
 22 29  1  0  0  0  0
 23 30  1  0  0  0  0
 24 31  1  0  0  0  0
 25 30  2  0  0  0  0
 26 30  2  0  0  0  0
 27 31  2  0  0  0  0
 28 31  2  0  0  0  0
  1 32  1  0  0  0  0
  2 33  1  0  0  0  0
  3 34  1  0  0  0  0
  4 35  1  0  0  0  0
  5 36  1  0  0  0  0
  6 37  1  0  0  0  0
  7 38  1  0  0  0  0
  8 39  1  0  0  0  0
 13 40  1  0  0  0  0
 14 41  1  0  0  0  0
 15 42  1  0  0  0  0
 15 43  1  0  0  0  0
 16 44  1  0  0  0  0
 16 45  1  0  0  0  0
 17 46  1  0  0  0  0
 17 47  1  0  0  0  0
 18 48  1  0  0  0  0
 18 49  1  0  0  0  0
 19 50  1  0  0  0  0
 19 51  1  0  0  0  0
 20 52  1  0  0  0  0
 20 53  1  0  0  0  0
 20 54  1  0  0  0  0
 21 55  1  0  0  0  0
 21 56  1  0  0  0  0
 21 57  1  0  0  0  0
 22 58  1  0  0  0  0
 24 59  1  0  0  0  0
M  END
> <Catalog ID>
Z45600605

> <MW>
464.598

> <MW (desalted)>
464.598

> <ClogP>
4.676

> <logS>
-4.989

> <HBD>
1

> <HBA>
5

> <TPSA>
92.78

> <RotBonds>
6

> <ROCS_ShapeQuery>
A71EV2A-x0451_0A_A71EV2A-x0310_0A_A71EV2A-x0416_0A_peptide

> <ROCS_TanimotoCombo>
0.525 

> <ROCS_ShapeTanimoto>
0.365 

> <ROCS_ColorTanimoto>
0.161 

> <ROCS_RefTversky>
0.330 

> <ROCS_RefColorTversky>
0.188 

> <ROCS_RefTverskyCombo>
0.518 

> <ROCS_FitTversky>
1.414 

> <ROCS_FitColorTversky>
0.520 

> <ROCS_FitTverskyCombo>
1.934 

> <ROCS_ColorScore>
-5.770

> <ROCS_Overlap>
2295.853

> <ROCS_Rank>
287                 

$$$$
untitled-dbase-3872_464
  -OEChem-11132309573D

 57 60  0     1  0  0  0  0  0999 V2000
   11.2706   11.6768   26.4145 C   0  0  0  0  0  0  0  0  0  0  0  0
   12.6274   12.2364   24.4954 C   0  0  0  0  0  0  0  0  0  0  0  0
    6.9741   13.1077   24.3370 C   0  0  0  0  0  0  0  0  0  0  0  0
   12.4240   11.5003   27.1786 C   0  0  0  0  0  0  0  0  0  0  0  0
   13.7809   12.0599   25.2595 C   0  0  0  0  0  0  0  0  0  0  0  0
    6.1881   14.1283   24.8718 C   0  0  0  0  0  0  0  0  0  0  0  0
   11.0699   14.5314   21.3895 C   0  0  0  0  0  0  0  0  0  0  0  0
    5.8134   12.8005   26.8552 C   0  0  0  0  0  0  0  0  0  0  0  0
   11.3035   15.8748   21.5541 C   0  0  0  0  0  0  0  0  0  0  0  0
   11.3722   12.0448   25.0728 C   0  0  0  0  0  0  0  0  0  0  0  0
    6.5994   11.7798   26.3203 C   0  0  0  0  0  0  0  0  0  0  0  0
    7.1797   11.9334   25.0612 C   0  0  0  0  0  0  0  0  0  0  0  0
   13.6792   11.6919   26.6012 C   0  0  0  0  0  0  0  0  0  0  0  0
    5.6078   13.9748   26.1309 C   0  0  0  0  0  0  0  0  0  0  0  0
   10.7605   14.0670   22.6820 C   0  0  0  0  0  0  0  0  0  0  0  0
    9.2691   10.9888   24.1317 C   0  0  0  0  0  0  0  0  0  0  0  0
   16.6754   11.3279   30.4344 C   0  0  0  0  0  0  0  0  0  0  0  0
   16.3475   11.0677   29.1648 C   0  0  0  0  0  0  0  0  0  0  0  0
   14.9275   11.1510   28.7154 C   0  0  0  0  0  0  0  0  0  0  0  0
    6.7997   10.5341   27.1220 C   0  0  0  0  0  0  0  0  0  0  0  0
   11.2645   17.4010   23.5413 C   0  0  0  0  0  0  0  0  0  0  0  0
    4.6726   16.1444   25.8585 C   0  0  0  0  0  0  0  0  0  0  0  0
   10.1389   12.2334   24.2559 C   0  0  2  0  0  0  0  0  0  0  0  0
   10.7939   15.0367   23.6000 N   0  0  0  0  0  0  0  0  0  0  0  0
    9.6204    9.8145   23.6606 N   0  0  0  0  0  0  0  0  0  0  0  0
    8.4971    9.0246   23.7570 N   0  0  0  0  0  0  0  0  0  0  0  0
    7.4808    9.7020   24.2770 N   0  0  0  0  0  0  0  0  0  0  0  0
   11.1271   16.1237   22.8835 N   0  0  0  0  0  0  0  0  0  0  0  0
    7.9658   10.9296   24.5102 N   0  0  0  0  0  0  0  0  0  0  0  0
   14.8331   11.5157   27.3653 N   0  0  0  0  0  0  0  0  0  0  0  0
   10.4649   12.7508   22.9140 N   0  0  0  0  0  0  0  0  0  0  0  0
   14.0029   10.9168   29.4847 O   0  0  0  0  0  0  0  0  0  0  0  0
    4.8411   14.9710   26.6526 O   0  0  0  0  0  0  0  0  0  0  0  0
   10.2967   11.5233   26.8720 H   0  0  0  0  0  0  0  0  0  0  0  0
   12.7160   12.5224   23.4506 H   0  0  0  0  0  0  0  0  0  0  0  0
    7.4200   13.2416   23.3543 H   0  0  0  0  0  0  0  0  0  0  0  0
   12.3329   11.2138   28.2234 H   0  0  0  0  0  0  0  0  0  0  0  0
   14.7542   12.2107   24.7992 H   0  0  0  0  0  0  0  0  0  0  0  0
    6.0315   15.0409   24.3030 H   0  0  0  0  0  0  0  0  0  0  0  0
   11.1188   13.9772   20.4630 H   0  0  0  0  0  0  0  0  0  0  0  0
    5.3591   12.6849   27.8364 H   0  0  0  0  0  0  0  0  0  0  0  0
   11.5735   16.6536   20.8544 H   0  0  0  0  0  0  0  0  0  0  0  0
   17.6959   11.2775   30.7970 H   0  0  0  0  0  0  0  0  0  0  0  0
   15.9054   11.6021   31.1480 H   0  0  0  0  0  0  0  0  0  0  0  0
   17.1166   10.7938   28.4508 H   0  0  0  0  0  0  0  0  0  0  0  0
    6.0161    9.8044   26.8896 H   0  0  0  0  0  0  0  0  0  0  0  0
    7.7753   10.0806   26.9101 H   0  0  0  0  0  0  0  0  0  0  0  0
    6.7725   10.7478   28.1972 H   0  0  0  0  0  0  0  0  0  0  0  0
   10.2897   17.8956   23.5247 H   0  0  0  0  0  0  0  0  0  0  0  0
   11.5972   17.2461   24.5715 H   0  0  0  0  0  0  0  0  0  0  0  0
   12.0085   18.0023   23.0113 H   0  0  0  0  0  0  0  0  0  0  0  0
    4.0401   16.8583   26.3916 H   0  0  0  0  0  0  0  0  0  0  0  0
    4.2132   15.8763   24.9037 H   0  0  0  0  0  0  0  0  0  0  0  0
    5.6516   16.5937   25.6760 H   0  0  0  0  0  0  0  0  0  0  0  0
    9.5071   13.0280   24.6936 H   0  0  0  0  0  0  0  0  0  0  0  0
   15.7238   11.6726   26.8782 H   0  0  0  0  0  0  0  0  0  0  0  0
   10.4622   12.0868   22.1666 H   0  0  0  0  0  0  0  0  0  0  0  0
  1  4  2  0  0  0  0
  1 10  1  0  0  0  0
  2  5  1  0  0  0  0
  2 10  2  0  0  0  0
  3  6  2  0  0  0  0
  3 12  1  0  0  0  0
  4 13  1  0  0  0  0
  5 13  2  0  0  0  0
  6 14  1  0  0  0  0
  7  9  2  0  0  0  0
  7 15  1  0  0  0  0
  8 11  1  0  0  0  0
  8 14  2  0  0  0  0
  9 28  1  0  0  0  0
 10 23  1  0  0  0  0
 11 12  2  0  0  0  0
 11 20  1  0  0  0  0
 12 29  1  0  0  0  0
 13 30  1  0  0  0  0
 14 33  1  0  0  0  0
 15 24  2  0  0  0  0
 15 31  1  0  0  0  0
 16 23  1  0  0  0  0
 16 25  2  0  0  0  0
 16 29  1  0  0  0  0
 17 18  2  0  0  0  0
 18 19  1  0  0  0  0
 19 30  1  0  0  0  0
 19 32  2  0  0  0  0
 21 28  1  0  0  0  0
 22 33  1  0  0  0  0
 23 31  1  0  0  0  0
 24 28  1  0  0  0  0
 25 26  1  0  0  0  0
 26 27  2  0  0  0  0
 27 29  1  0  0  0  0
  1 34  1  0  0  0  0
  2 35  1  0  0  0  0
  3 36  1  0  0  0  0
  4 37  1  0  0  0  0
  5 38  1  0  0  0  0
  6 39  1  0  0  0  0
  7 40  1  0  0  0  0
  8 41  1  0  0  0  0
  9 42  1  0  0  0  0
 17 43  1  0  0  0  0
 17 44  1  0  0  0  0
 18 45  1  0  0  0  0
 20 46  1  0  0  0  0
 20 47  1  0  0  0  0
 20 48  1  0  0  0  0
 21 49  1  0  0  0  0
 21 50  1  0  0  0  0
 21 51  1  0  0  0  0
 22 52  1  0  0  0  0
 22 53  1  0  0  0  0
 22 54  1  0  0  0  0
 23 55  1  0  0  0  0
 30 56  1  0  0  0  0
 31 57  1  0  0  0  0
M  END
> <Catalog ID>
Z7865476461

> <MW>
444.489

> <MW (desalted)>
444.489

> <ClogP>
1.522

> <logS>
-4.011

> <HBD>
2

> <HBA>
7

> <TPSA>
111.78

> <RotBonds>
8

> <ROCS_ShapeQuery>
A71EV2A-x0451_0A_A71EV2A-x0310_0A_A71EV2A-x0416_0A_peptide

> <ROCS_TanimotoCombo>
0.525 

> <ROCS_ShapeTanimoto>
0.372 

> <ROCS_ColorTanimoto>
0.153 

> <ROCS_RefTversky>
0.342 

> <ROCS_RefColorTversky>
0.196 

> <ROCS_RefTverskyCombo>
0.538 

> <ROCS_FitTversky>
1.313 

> <ROCS_FitColorTversky>
0.414 

> <ROCS_FitTverskyCombo>
1.727 

> <ROCS_ColorScore>
-6.026

> <ROCS_Overlap>
2384.206

> <ROCS_Rank>
288                 

$$$$
untitled-dbase-5183_2602
  -OEChem-11132309573D

 43 44  0     0  0  0  0  0  0999 V2000
    8.6567   12.2033   24.1448 C   0  0  0  0  0  0  0  0  0  0  0  0
    7.6702   11.4856   24.9248 C   0  0  0  0  0  0  0  0  0  0  0  0
    9.5912   11.5778   23.4095 C   0  0  0  0  0  0  0  0  0  0  0  0
    7.6765   10.1412   24.9143 C   0  0  0  0  0  0  0  0  0  0  0  0
    9.5961   10.0740   23.4074 C   0  0  0  0  0  0  0  0  0  0  0  0
   10.6282   18.6123   21.9865 C   0  0  0  0  0  0  0  0  0  0  0  0
   10.5120   17.3134   21.6912 C   0  0  0  0  0  0  0  0  0  0  0  0
   11.5278   16.3410   22.1858 C   0  0  0  0  0  0  0  0  0  0  0  0
   11.0998   13.4602   22.9677 C   0  0  0  0  0  0  0  0  0  0  0  0
    6.6833   12.2918   25.7251 C   0  0  0  0  0  0  0  0  0  0  0  0
    6.6826    9.3084   25.6749 C   0  0  0  0  0  0  0  0  0  0  0  0
    5.9254   11.4549   26.7601 C   0  0  0  0  0  0  0  0  0  0  0  0
    5.4828   10.1183   26.1735 C   0  0  0  0  0  0  0  0  0  0  0  0
   12.8814   15.5620   19.2468 C   0  0  0  0  0  0  0  0  0  0  0  0
   12.1433   13.9610   22.0028 C   0  0  0  0  0  0  0  0  0  0  0  0
   11.6092   15.1871   19.9276 C   0  0  0  0  0  0  0  0  0  0  0  0
    8.6183    9.4625   24.1737 N   0  0  0  0  0  0  0  0  0  0  0  0
   10.5460   12.1936   22.6561 N   0  0  0  0  0  0  0  0  0  0  0  0
   11.7664   15.2000   21.3918 N   0  0  0  0  0  0  0  0  0  0  0  0
   10.4269    9.4439   22.7551 O   0  0  0  0  0  0  0  0  0  0  0  0
   12.0954   16.5440   23.2603 O   0  0  0  0  0  0  0  0  0  0  0  0
   10.7480   14.0947   23.9554 O   0  0  0  0  0  0  0  0  0  0  0  0
    8.6192   13.2892   24.1718 H   0  0  0  0  0  0  0  0  0  0  0  0
    9.9138   19.3548   21.6486 H   0  0  0  0  0  0  0  0  0  0  0  0
   11.4595   18.9584   22.5919 H   0  0  0  0  0  0  0  0  0  0  0  0
    9.6568   16.9668   21.1243 H   0  0  0  0  0  0  0  0  0  0  0  0
    7.2241   13.0973   26.2384 H   0  0  0  0  0  0  0  0  0  0  0  0
    5.9502   12.7677   25.0623 H   0  0  0  0  0  0  0  0  0  0  0  0
    6.3293    8.5016   25.0203 H   0  0  0  0  0  0  0  0  0  0  0  0
    7.1650    8.8344   26.5382 H   0  0  0  0  0  0  0  0  0  0  0  0
    6.5620   11.2893   27.6366 H   0  0  0  0  0  0  0  0  0  0  0  0
    5.0440   12.0094   27.1066 H   0  0  0  0  0  0  0  0  0  0  0  0
    4.7808   10.2835   25.3484 H   0  0  0  0  0  0  0  0  0  0  0  0
    4.9449    9.5453   26.9395 H   0  0  0  0  0  0  0  0  0  0  0  0
   13.6709   14.8484   19.5251 H   0  0  0  0  0  0  0  0  0  0  0  0
   12.7344   15.5392   18.1569 H   0  0  0  0  0  0  0  0  0  0  0  0
   13.1777   16.5753   19.5557 H   0  0  0  0  0  0  0  0  0  0  0  0
   12.2839   13.2225   21.2094 H   0  0  0  0  0  0  0  0  0  0  0  0
   13.0821   14.1212   22.5391 H   0  0  0  0  0  0  0  0  0  0  0  0
   10.8253   15.9049   19.6443 H   0  0  0  0  0  0  0  0  0  0  0  0
   11.3146   14.1769   19.6070 H   0  0  0  0  0  0  0  0  0  0  0  0
    8.5942    8.4469   24.1907 H   0  0  0  0  0  0  0  0  0  0  0  0
   10.8440   11.6911   21.8497 H   0  0  0  0  0  0  0  0  0  0  0  0
  1  2  1  0  0  0  0
  1  3  2  0  0  0  0
  2  4  2  0  0  0  0
  2 10  1  0  0  0  0
  3  5  1  0  0  0  0
  3 18  1  0  0  0  0
  4 11  1  0  0  0  0
  4 17  1  0  0  0  0
  5 17  1  0  0  0  0
  5 20  2  0  0  0  0
  6  7  2  0  0  0  0
  7  8  1  0  0  0  0
  8 19  1  0  0  0  0
  8 21  2  0  0  0  0
  9 15  1  0  0  0  0
  9 18  1  0  0  0  0
  9 22  2  0  0  0  0
 10 12  1  0  0  0  0
 11 13  1  0  0  0  0
 12 13  1  0  0  0  0
 14 16  1  0  0  0  0
 15 19  1  0  0  0  0
 16 19  1  0  0  0  0
  1 23  1  0  0  0  0
  6 24  1  0  0  0  0
  6 25  1  0  0  0  0
  7 26  1  0  0  0  0
 10 27  1  0  0  0  0
 10 28  1  0  0  0  0
 11 29  1  0  0  0  0
 11 30  1  0  0  0  0
 12 31  1  0  0  0  0
 12 32  1  0  0  0  0
 13 33  1  0  0  0  0
 13 34  1  0  0  0  0
 14 35  1  0  0  0  0
 14 36  1  0  0  0  0
 14 37  1  0  0  0  0
 15 38  1  0  0  0  0
 15 39  1  0  0  0  0
 16 40  1  0  0  0  0
 16 41  1  0  0  0  0
 17 42  1  0  0  0  0
 18 43  1  0  0  0  0
M  END
> <Catalog ID>
Z2913279196

> <MW>
303.356

> <MW (desalted)>
303.356

> <ClogP>
0.933

> <logS>
-3.423

> <HBD>
2

> <HBA>
3

> <TPSA>
78.51

> <RotBonds>
5

> <ROCS_ShapeQuery>
A71EV2A-x0451_0A_A71EV2A-x0310_0A_A71EV2A-x0416_0A_peptide

> <ROCS_TanimotoCombo>
0.525 

> <ROCS_ShapeTanimoto>
0.349 

> <ROCS_ColorTanimoto>
0.176 

> <ROCS_RefTversky>
0.307 

> <ROCS_RefColorTversky>
0.195 

> <ROCS_RefTverskyCombo>
0.502 

> <ROCS_FitTversky>
1.658 

> <ROCS_FitColorTversky>
0.647 

> <ROCS_FitTverskyCombo>
2.305 

> <ROCS_ColorScore>
-5.948

> <ROCS_Overlap>
2130.338

> <ROCS_Rank>
289                 

$$$$
untitled-dbase-2503_11874
  -OEChem-11132309573D

 42 43  0     0  0  0  0  0  0999 V2000
   13.3530   13.7323   22.6722 C   0  0  0  0  0  0  0  0  0  0  0  0
   13.1990   15.6839   18.1025 C   0  0  0  0  0  0  0  0  0  0  0  0
   14.2174   16.5502   18.5002 C   0  0  0  0  0  0  0  0  0  0  0  0
   12.3493   15.1222   19.0555 C   0  0  0  0  0  0  0  0  0  0  0  0
   14.3861   16.8546   19.8509 C   0  0  0  0  0  0  0  0  0  0  0  0
    8.3200   12.2165   24.2309 C   0  0  0  0  0  0  0  0  0  0  0  0
    8.2995    9.4303   24.0908 C   0  0  0  0  0  0  0  0  0  0  0  0
   12.5181   15.4267   20.4062 C   0  0  0  0  0  0  0  0  0  0  0  0
    7.2972   11.4948   24.8463 C   0  0  0  0  0  0  0  0  0  0  0  0
    9.3325   11.5452   23.5454 C   0  0  0  0  0  0  0  0  0  0  0  0
   13.5364   16.2929   20.8039 C   0  0  0  0  0  0  0  0  0  0  0  0
    9.3223   10.1521   23.4754 C   0  0  0  0  0  0  0  0  0  0  0  0
    7.2870   10.1017   24.7762 C   0  0  0  0  0  0  0  0  0  0  0  0
   11.6175   14.8273   21.3819 C   0  0  0  0  0  0  0  0  0  0  0  0
   11.9805   14.0398   22.4248 C   0  0  0  0  0  0  0  0  0  0  0  0
   10.8748   13.5237   23.3208 C   0  0  0  0  0  0  0  0  0  0  0  0
    6.2302   12.2512   25.5696 C   0  0  0  0  0  0  0  0  0  0  0  0
   11.4520    9.0974   23.5622 C   0  0  0  0  0  0  0  0  0  0  0  0
   12.6468   17.2367   22.7977 C   0  0  0  0  0  0  0  0  0  0  0  0
   14.4670   13.4803   22.8778 N   0  0  0  0  0  0  0  0  0  0  0  0
   10.3655   12.2921   22.9240 N   0  0  0  0  0  0  0  0  0  0  0  0
   10.5053   14.1793   24.2918 O   0  0  0  0  0  0  0  0  0  0  0  0
   10.3016    9.4769   22.8100 O   0  0  0  0  0  0  0  0  0  0  0  0
   13.7244   16.6067   22.1176 O   0  0  0  0  0  0  0  0  0  0  0  0
   11.6296   17.3761   21.9086 F   0  0  0  0  0  0  0  0  0  0  0  0
   12.1944   16.4131   23.7749 F   0  0  0  0  0  0  0  0  0  0  0  0
    6.0385    9.1759   25.5268 Cl  0  0  0  0  0  0  0  0  0  0  0  0
   13.0689   15.4460   17.0507 H   0  0  0  0  0  0  0  0  0  0  0  0
   14.8784   16.9867   17.7575 H   0  0  0  0  0  0  0  0  0  0  0  0
   11.5614   14.4479   18.7282 H   0  0  0  0  0  0  0  0  0  0  0  0
   15.1812   17.5309   20.1534 H   0  0  0  0  0  0  0  0  0  0  0  0
    8.3258   13.3031   24.2854 H   0  0  0  0  0  0  0  0  0  0  0  0
    8.3002    8.3443   24.0299 H   0  0  0  0  0  0  0  0  0  0  0  0
   10.5649   15.0792   21.2262 H   0  0  0  0  0  0  0  0  0  0  0  0
    5.4064   12.4896   24.8876 H   0  0  0  0  0  0  0  0  0  0  0  0
    5.8328   11.6687   26.4093 H   0  0  0  0  0  0  0  0  0  0  0  0
    6.6224   13.1868   25.9862 H   0  0  0  0  0  0  0  0  0  0  0  0
   12.1537    8.5672   22.9137 H   0  0  0  0  0  0  0  0  0  0  0  0
   11.1497    8.4544   24.3926 H   0  0  0  0  0  0  0  0  0  0  0  0
   11.9316    9.9966   23.9561 H   0  0  0  0  0  0  0  0  0  0  0  0
   12.9003   18.2248   23.1964 H   0  0  0  0  0  0  0  0  0  0  0  0
   10.7814   11.8799   22.0931 H   0  0  0  0  0  0  0  0  0  0  0  0
  1 15  1  0  0  0  0
  1 20  3  0  0  0  0
  2  3  1  0  0  0  0
  2  4  2  0  0  0  0
  3  5  2  0  0  0  0
  4  8  1  0  0  0  0
  5 11  1  0  0  0  0
  6  9  2  0  0  0  0
  6 10  1  0  0  0  0
  7 12  1  0  0  0  0
  7 13  2  0  0  0  0
  8 11  2  0  0  0  0
  8 14  1  4  0  0  0
  9 13  1  0  0  0  0
  9 17  1  0  0  0  0
 10 12  2  0  0  0  0
 10 21  1  0  0  0  0
 11 24  1  0  0  0  0
 12 23  1  0  0  0  0
 13 27  1  0  0  0  0
 14 15  2  0  0  0  0
 15 16  1  0  0  0  0
 16 21  1  0  0  0  0
 16 22  2  0  0  0  0
 18 23  1  0  0  0  0
 19 24  1  0  0  0  0
 19 25  1  0  0  0  0
 19 26  1  0  0  0  0
  2 28  1  0  0  0  0
  3 29  1  0  0  0  0
  4 30  1  0  0  0  0
  5 31  1  0  0  0  0
  6 32  1  0  0  0  0
  7 33  1  0  0  0  0
 14 34  1  0  0  0  0
 17 35  1  0  0  0  0
 17 36  1  0  0  0  0
 17 37  1  0  0  0  0
 18 38  1  0  0  0  0
 18 39  1  0  0  0  0
 18 40  1  0  0  0  0
 19 41  1  0  0  0  0
 21 42  1  0  0  0  0
M  END
> <Catalog ID>
Z44321549

> <MW>
392.784

> <MW (desalted)>
392.784

> <ClogP>
4.247

> <logS>
-5.797

> <HBD>
1

> <HBA>
4

> <TPSA>
71.35

> <RotBonds>
6

> <ROCS_ShapeQuery>
A71EV2A-x0451_0A_A71EV2A-x0310_0A_A71EV2A-x0416_0A_peptide

> <ROCS_TanimotoCombo>
0.525 

> <ROCS_ShapeTanimoto>
0.368 

> <ROCS_ColorTanimoto>
0.158 

> <ROCS_RefTversky>
0.327 

> <ROCS_RefColorTversky>
0.173 

> <ROCS_RefTverskyCombo>
0.500 

> <ROCS_FitTversky>
1.515 

> <ROCS_FitColorTversky>
0.640 

> <ROCS_FitTverskyCombo>
2.155 

> <ROCS_ColorScore>
-5.270

> <ROCS_Overlap>
2274.307

> <ROCS_Rank>
290                 

$$$$
untitled-dbase-10927_2205
  -OEChem-11132309573D

 49 51  0     0  0  0  0  0  0999 V2000
   12.2659   13.1176   23.9825 C   0  0  0  0  0  0  0  0  0  0  0  0
    8.4381   11.9931   24.2590 C   0  0  0  0  0  0  0  0  0  0  0  0
    9.5322   12.1353   23.4392 C   0  0  0  0  0  0  0  0  0  0  0  0
    9.3315   10.0323   23.7641 C   0  0  0  0  0  0  0  0  0  0  0  0
    7.4922   12.8483   24.8853 C   0  0  0  0  0  0  0  0  0  0  0  0
    6.5208   12.3070   25.6471 C   0  0  0  0  0  0  0  0  0  0  0  0
    6.4185   10.8675   25.8428 C   0  0  0  0  0  0  0  0  0  0  0  0
    7.3142   10.0602   25.2498 C   0  0  0  0  0  0  0  0  0  0  0  0
   10.1072   13.3818   22.9097 C   0  0  0  0  0  0  0  0  0  0  0  0
   11.3551   13.8314   23.1464 C   0  0  0  0  0  0  0  0  0  0  0  0
   11.7357   15.1407   22.5030 C   0  0  0  0  0  0  0  0  0  0  0  0
   14.3114   15.4999   18.5928 C   0  0  0  0  0  0  0  0  0  0  0  0
   14.5076   15.7946   20.0776 C   0  0  0  0  0  0  0  0  0  0  0  0
   12.8943   15.0206   18.2896 C   0  0  0  0  0  0  0  0  0  0  0  0
   13.4538   16.7712   20.6015 C   0  0  0  0  0  0  0  0  0  0  0  0
   11.8443   15.9993   18.8175 C   0  0  0  0  0  0  0  0  0  0  0  0
   12.0190   16.3121   20.3096 C   0  0  0  0  0  0  0  0  0  0  0  0
   10.7766    8.1436   22.9286 C   0  0  0  0  0  0  0  0  0  0  0  0
    8.2960    7.7999   23.2180 C   0  0  0  0  0  0  0  0  0  0  0  0
    9.5315    8.5675   23.7400 C   0  0  0  0  0  0  0  0  0  0  0  0
   13.0091   12.5405   24.6619 N   0  0  0  0  0  0  0  0  0  0  0  0
   10.0812   10.9132   23.1367 N   0  0  0  0  0  0  0  0  0  0  0  0
    8.3136   10.6275   24.4651 N   0  0  0  0  0  0  0  0  0  0  0  0
   11.6894   15.1351   21.1163 N   0  0  0  0  0  0  0  0  0  0  0  0
   12.0538   16.1218   23.1733 O   0  0  0  0  0  0  0  0  0  0  0  0
    7.5566   13.9221   24.7487 H   0  0  0  0  0  0  0  0  0  0  0  0
    5.7853   12.9350   26.1382 H   0  0  0  0  0  0  0  0  0  0  0  0
    5.6209   10.4791   26.4643 H   0  0  0  0  0  0  0  0  0  0  0  0
    7.2901    8.9829   25.3584 H   0  0  0  0  0  0  0  0  0  0  0  0
    9.4103   13.9507   22.2980 H   0  0  0  0  0  0  0  0  0  0  0  0
   14.5290   16.4009   18.0064 H   0  0  0  0  0  0  0  0  0  0  0  0
   15.0306   14.7332   18.2757 H   0  0  0  0  0  0  0  0  0  0  0  0
   14.4596   14.8609   20.6483 H   0  0  0  0  0  0  0  0  0  0  0  0
   15.5068   16.2174   20.2372 H   0  0  0  0  0  0  0  0  0  0  0  0
   12.7717   14.9050   17.2061 H   0  0  0  0  0  0  0  0  0  0  0  0
   12.7351   14.0336   18.7374 H   0  0  0  0  0  0  0  0  0  0  0  0
   13.5922   16.8969   21.6894 H   0  0  0  0  0  0  0  0  0  0  0  0
   13.6298   17.7624   20.1515 H   0  0  0  0  0  0  0  0  0  0  0  0
   11.8963   16.9310   18.2297 H   0  0  0  0  0  0  0  0  0  0  0  0
   10.8402   15.5770   18.6390 H   0  0  0  0  0  0  0  0  0  0  0  0
   11.3175   17.0873   20.6070 H   0  0  0  0  0  0  0  0  0  0  0  0
   10.7079    8.4773   21.8875 H   0  0  0  0  0  0  0  0  0  0  0  0
   10.9083    7.0561   22.9209 H   0  0  0  0  0  0  0  0  0  0  0  0
   11.6795    8.5876   23.3625 H   0  0  0  0  0  0  0  0  0  0  0  0
    8.0536    8.1220   22.1991 H   0  0  0  0  0  0  0  0  0  0  0  0
    7.4134    7.9733   23.8433 H   0  0  0  0  0  0  0  0  0  0  0  0
    8.4777    6.7199   23.1925 H   0  0  0  0  0  0  0  0  0  0  0  0
    9.7046    8.1826   24.7678 H   0  0  0  0  0  0  0  0  0  0  0  0
   11.4157   14.2801   20.6415 H   0  0  0  0  0  0  0  0  0  0  0  0
  1 10  1  0  0  0  0
  1 21  3  0  0  0  0
  2  3  2  0  0  0  0
  2  5  1  0  0  0  0
  2 23  1  0  0  0  0
  3  9  1  4  0  0  0
  3 22  1  0  0  0  0
  4 20  1  0  0  0  0
  4 22  2  0  0  0  0
  4 23  1  0  0  0  0
  5  6  2  0  0  0  0
  6  7  1  0  0  0  0
  7  8  2  0  0  0  0
  8 23  1  0  0  0  0
  9 10  2  0  0  0  0
 10 11  1  0  0  0  0
 11 24  1  0  0  0  0
 11 25  2  0  0  0  0
 12 13  1  0  0  0  0
 12 14  1  0  0  0  0
 13 15  1  0  0  0  0
 14 16  1  0  0  0  0
 15 17  1  0  0  0  0
 16 17  1  0  0  0  0
 17 24  1  0  0  0  0
 18 20  1  0  0  0  0
 19 20  1  0  0  0  0
  5 26  1  0  0  0  0
  6 27  1  0  0  0  0
  7 28  1  0  0  0  0
  8 29  1  0  0  0  0
  9 30  1  0  0  0  0
 12 31  1  0  0  0  0
 12 32  1  0  0  0  0
 13 33  1  0  0  0  0
 13 34  1  0  0  0  0
 14 35  1  0  0  0  0
 14 36  1  0  0  0  0
 15 37  1  0  0  0  0
 15 38  1  0  0  0  0
 16 39  1  0  0  0  0
 16 40  1  0  0  0  0
 17 41  1  0  0  0  0
 18 42  1  0  0  0  0
 18 43  1  0  0  0  0
 18 44  1  0  0  0  0
 19 45  1  0  0  0  0
 19 46  1  0  0  0  0
 19 47  1  0  0  0  0
 20 48  1  0  0  0  0
 24 49  1  0  0  0  0
M  END
> <Catalog ID>
Z1391827048

> <MW>
336.431

> <MW (desalted)>
336.431

> <ClogP>
3.718

> <logS>
-4.466

> <HBD>
1

> <HBA>
3

> <TPSA>
70.19

> <RotBonds>
4

> <ROCS_ShapeQuery>
A71EV2A-x0451_0A_A71EV2A-x0310_0A_A71EV2A-x0416_0A_peptide

> <ROCS_TanimotoCombo>
0.525 

> <ROCS_ShapeTanimoto>
0.395 

> <ROCS_ColorTanimoto>
0.131 

> <ROCS_RefTversky>
0.341 

> <ROCS_RefColorTversky>
0.154 

> <ROCS_RefTverskyCombo>
0.495 

> <ROCS_FitTversky>
1.664 

> <ROCS_FitColorTversky>
0.464 

> <ROCS_FitTverskyCombo>
2.128 

> <ROCS_ColorScore>
-4.709

> <ROCS_Overlap>
2369.858

> <ROCS_Rank>
291                 

$$$$
untitled-dbase-4101_2021
  -OEChem-11132309573D

 56 58  0     1  0  0  0  0  0999 V2000
    6.1277    8.8414   25.3480 C   0  0  0  0  0  0  0  0  0  0  0  0
    5.7744   10.0585   25.9231 C   0  0  0  0  0  0  0  0  0  0  0  0
    7.2342    8.7656   24.5027 C   0  0  0  0  0  0  0  0  0  0  0  0
    6.5241   11.2019   25.6493 C   0  0  0  0  0  0  0  0  0  0  0  0
    8.0034    9.9065   24.2277 C   0  0  0  0  0  0  0  0  0  0  0  0
    7.6337   11.1413   24.7924 C   0  0  0  0  0  0  0  0  0  0  0  0
   14.2983   11.3775   24.6516 C   0  0  0  0  0  0  0  0  0  0  0  0
   13.9284   11.6542   23.3975 C   0  0  0  0  0  0  0  0  0  0  0  0
   13.5865   13.0470   23.0034 C   0  0  0  0  0  0  0  0  0  0  0  0
   10.3251   13.4353   23.3170 C   0  0  0  0  0  0  0  0  0  0  0  0
    9.1730    9.7896   23.2827 C   0  0  0  0  0  0  0  0  0  0  0  0
    8.4374   12.3948   24.5468 C   0  0  0  0  0  0  0  0  0  0  0  0
   10.1347   10.9732   23.3663 C   0  0  0  0  0  0  0  0  0  0  0  0
   14.0652   17.0215   19.2174 C   0  0  0  0  0  0  0  0  0  0  0  0
   13.5672   15.9499   18.2553 C   0  0  0  0  0  0  0  0  0  0  0  0
   13.8542   16.7768   20.7078 C   0  0  0  0  0  0  0  0  0  0  0  0
   12.2587   15.2767   18.6544 C   0  0  0  0  0  0  0  0  0  0  0  0
   14.0682   15.3375   21.1762 C   0  0  0  0  0  0  0  0  0  0  0  0
   12.4736   14.0769   19.5806 C   0  0  0  0  0  0  0  0  0  0  0  0
    9.3615   12.2889   23.3314 C   0  0  2  0  0  0  0  0  0  0  0  0
   12.8553   14.3864   21.0438 C   0  0  0  0  0  0  0  0  0  0  0  0
   11.6285   14.9199   21.8072 C   0  0  0  0  0  0  0  0  0  0  0  0
   13.2327   13.1198   21.6749 N   0  0  0  0  0  0  0  0  0  0  0  0
   10.7244   13.8519   22.0457 N   0  0  0  0  0  0  0  0  0  0  0  0
   13.6297   13.9857   23.7921 O   0  0  0  0  0  0  0  0  0  0  0  0
   10.6949   13.9271   24.3767 O   0  0  0  0  0  0  0  0  0  0  0  0
    5.5426    7.9506   25.5579 H   0  0  0  0  0  0  0  0  0  0  0  0
    4.9157   10.1180   26.5854 H   0  0  0  0  0  0  0  0  0  0  0  0
    7.4952    7.8088   24.0576 H   0  0  0  0  0  0  0  0  0  0  0  0
    6.2383   12.1444   26.1092 H   0  0  0  0  0  0  0  0  0  0  0  0
   14.5451   10.3588   24.9319 H   0  0  0  0  0  0  0  0  0  0  0  0
   14.3668   12.1377   25.4219 H   0  0  0  0  0  0  0  0  0  0  0  0
   13.8731   10.8639   22.6567 H   0  0  0  0  0  0  0  0  0  0  0  0
    9.7081    8.8618   23.5161 H   0  0  0  0  0  0  0  0  0  0  0  0
    8.8094    9.7080   22.2521 H   0  0  0  0  0  0  0  0  0  0  0  0
    7.7254   13.2075   24.3824 H   0  0  0  0  0  0  0  0  0  0  0  0
    9.0193   12.6335   25.4391 H   0  0  0  0  0  0  0  0  0  0  0  0
   10.7263   10.8946   24.2780 H   0  0  0  0  0  0  0  0  0  0  0  0
   10.8238   10.9368   22.5209 H   0  0  0  0  0  0  0  0  0  0  0  0
   15.1486   17.1561   19.0392 H   0  0  0  0  0  0  0  0  0  0  0  0
   13.6121   17.9922   18.9385 H   0  0  0  0  0  0  0  0  0  0  0  0
   13.4314   16.4167   17.2720 H   0  0  0  0  0  0  0  0  0  0  0  0
   14.3481   15.1907   18.1248 H   0  0  0  0  0  0  0  0  0  0  0  0
   14.4582   17.4895   21.3088 H   0  0  0  0  0  0  0  0  0  0  0  0
   12.8013   17.0466   20.9346 H   0  0  0  0  0  0  0  0  0  0  0  0
   11.5572   16.0001   19.0845 H   0  0  0  0  0  0  0  0  0  0  0  0
   11.7911   14.9040   17.7338 H   0  0  0  0  0  0  0  0  0  0  0  0
   14.9075   14.9089   20.6024 H   0  0  0  0  0  0  0  0  0  0  0  0
   14.4295   15.3471   22.2175 H   0  0  0  0  0  0  0  0  0  0  0  0
   11.5496   13.4726   19.5771 H   0  0  0  0  0  0  0  0  0  0  0  0
   13.2341   13.4183   19.1255 H   0  0  0  0  0  0  0  0  0  0  0  0
    8.7826   12.3565   22.4273 H   0  0  0  0  0  0  0  0  0  0  0  0
   12.0003   15.3349   22.7378 H   0  0  0  0  0  0  0  0  0  0  0  0
   11.1799   15.6809   21.1777 H   0  0  0  0  0  0  0  0  0  0  0  0
   13.2522   12.3036   21.0813 H   0  0  0  0  0  0  0  0  0  0  0  0
   10.3402   13.3546   21.2325 H   0  0  0  0  0  0  0  0  0  0  0  0
  1  2  1  0  0  0  0
  1  3  2  0  0  0  0
  2  4  2  0  0  0  0
  3  5  1  0  0  0  0
  4  6  1  0  0  0  0
  5  6  2  0  0  0  0
  5 11  1  0  0  0  0
  6 12  1  0  0  0  0
  7  8  2  0  0  0  0
  8  9  1  0  0  0  0
  9 23  1  0  0  0  0
  9 25  2  0  0  0  0
 10 20  1  0  0  0  0
 10 24  1  0  0  0  0
 10 26  2  0  0  0  0
 11 13  1  0  0  0  0
 12 20  1  0  0  0  0
 13 20  1  0  0  0  0
 14 15  1  0  0  0  0
 14 16  1  0  0  0  0
 15 17  1  0  0  0  0
 16 18  1  0  0  0  0
 17 19  1  0  0  0  0
 18 21  1  0  0  0  0
 19 21  1  0  0  0  0
 21 22  1  0  0  0  0
 21 23  1  0  0  0  0
 22 24  1  0  0  0  0
  1 27  1  0  0  0  0
  2 28  1  0  0  0  0
  3 29  1  0  0  0  0
  4 30  1  0  0  0  0
  7 31  1  0  0  0  0
  7 32  1  0  0  0  0
  8 33  1  0  0  0  0
 11 34  1  0  0  0  0
 11 35  1  0  0  0  0
 12 36  1  0  0  0  0
 12 37  1  0  0  0  0
 13 38  1  0  0  0  0
 13 39  1  0  0  0  0
 14 40  1  0  0  0  0
 14 41  1  0  0  0  0
 15 42  1  0  0  0  0
 15 43  1  0  0  0  0
 16 44  1  0  0  0  0
 16 45  1  0  0  0  0
 17 46  1  0  0  0  0
 17 47  1  0  0  0  0
 18 48  1  0  0  0  0
 18 49  1  0  0  0  0
 19 50  1  0  0  0  0
 19 51  1  0  0  0  0
 20 52  1  0  0  0  0
 22 53  1  0  0  0  0
 22 54  1  0  0  0  0
 23 55  1  0  0  0  0
 24 56  1  0  0  0  0
M  END
> <Catalog ID>
Z4425282832

> <MW>
354.486

> <MW (desalted)>
354.486

> <ClogP>
4.058

> <logS>
-5.469

> <HBD>
2

> <HBA>
2

> <TPSA>
58.2

> <RotBonds>
5

> <ROCS_ShapeQuery>
A71EV2A-x0451_0A_A71EV2A-x0310_0A_A71EV2A-x0416_0A_peptide

> <ROCS_TanimotoCombo>
0.525 

> <ROCS_ShapeTanimoto>
0.345 

> <ROCS_ColorTanimoto>
0.180 

> <ROCS_RefTversky>
0.310 

> <ROCS_RefColorTversky>
0.198 

> <ROCS_RefTverskyCombo>
0.508 

> <ROCS_FitTversky>
1.492 

> <ROCS_FitColorTversky>
0.659 

> <ROCS_FitTverskyCombo>
2.151 

> <ROCS_ColorScore>
-6.055

> <ROCS_Overlap>
2156.081

> <ROCS_Rank>
292                 

$$$$
untitled-dbase-4125_303
  -OEChem-11132309573D

 50 53  0     0  0  0  0  0  0999 V2000
   14.4716   17.0504   19.7790 B   0  0  0  0  0  0  0  0  0  0  0  0
   13.6392   16.2234   22.0241 C   0  0  0  0  0  0  0  0  0  0  0  0
   12.8120   15.4684   22.8554 C   0  0  0  0  0  0  0  0  0  0  0  0
    8.7961    9.4335   23.3200 C   0  0  0  0  0  0  0  0  0  0  0  0
    9.6562   10.3866   22.7734 C   0  0  0  0  0  0  0  0  0  0  0  0
   11.6765   14.5786   20.9173 C   0  0  0  0  0  0  0  0  0  0  0  0
    8.6339   12.1496   24.1127 C   0  0  0  0  0  0  0  0  0  0  0  0
   13.4851   16.1561   20.6393 C   0  0  0  0  0  0  0  0  0  0  0  0
   11.8306   14.6460   22.3021 C   0  0  0  0  0  0  0  0  0  0  0  0
   12.5037   15.3337   20.0860 C   0  0  0  0  0  0  0  0  0  0  0  0
    7.7814   11.2009   24.6535 C   0  0  0  0  0  0  0  0  0  0  0  0
    7.8755    9.8708   24.2521 C   0  0  0  0  0  0  0  0  0  0  0  0
    9.5761   11.7339   23.1664 C   0  0  0  0  0  0  0  0  0  0  0  0
    6.1659    9.8845   25.7930 C   0  0  0  0  0  0  0  0  0  0  0  0
   12.2883   15.2169   18.6455 C   0  0  0  0  0  0  0  0  0  0  0  0
   10.9577   13.8486   23.1806 C   0  0  0  0  0  0  0  0  0  0  0  0
    5.1557   13.1690   27.4818 C   0  0  0  0  0  0  0  0  0  0  0  0
    6.1744   12.1911   28.0534 C   0  0  0  0  0  0  0  0  0  0  0  0
    4.5161   12.6288   26.2090 C   0  0  0  0  0  0  0  0  0  0  0  0
    7.2499   11.8276   27.0301 C   0  0  0  0  0  0  0  0  0  0  0  0
    5.5628   12.2736   25.1535 C   0  0  0  0  0  0  0  0  0  0  0  0
    6.6770   11.3539   25.6830 C   0  0  0  0  0  0  0  0  0  0  0  0
    6.9305    9.1059   24.9201 N   0  0  0  0  0  0  0  0  0  0  0  0
   10.4478   12.6679   22.6043 N   0  0  0  0  0  0  0  0  0  0  0  0
    5.2617    9.4858   26.5121 O   0  0  0  0  0  0  0  0  0  0  0  0
   13.1925   15.3548   17.8225 O   0  0  0  0  0  0  0  0  0  0  0  0
   10.6853   14.2300   24.3169 O   0  0  0  0  0  0  0  0  0  0  0  0
   14.4848   18.4155   19.9394 O   0  0  0  0  0  0  0  0  0  0  0  0
   15.3186   16.4654   18.8684 O   0  0  0  0  0  0  0  0  0  0  0  0
   14.3944   16.8539   22.4903 H   0  0  0  0  0  0  0  0  0  0  0  0
   12.9393   15.5291   23.9335 H   0  0  0  0  0  0  0  0  0  0  0  0
    8.8552    8.3937   23.0194 H   0  0  0  0  0  0  0  0  0  0  0  0
   10.3923   10.0744   22.0362 H   0  0  0  0  0  0  0  0  0  0  0  0
   10.9105   13.9353   20.4888 H   0  0  0  0  0  0  0  0  0  0  0  0
    8.5698   13.1897   24.4176 H   0  0  0  0  0  0  0  0  0  0  0  0
   11.2566   14.9944   18.3060 H   0  0  0  0  0  0  0  0  0  0  0  0
    4.3786   13.3688   28.2279 H   0  0  0  0  0  0  0  0  0  0  0  0
    5.6464   14.1263   27.2678 H   0  0  0  0  0  0  0  0  0  0  0  0
    6.6490   12.6327   28.9373 H   0  0  0  0  0  0  0  0  0  0  0  0
    5.6621   11.2851   28.3961 H   0  0  0  0  0  0  0  0  0  0  0  0
    3.9104   11.7473   26.4474 H   0  0  0  0  0  0  0  0  0  0  0  0
    3.8277   13.3773   25.7998 H   0  0  0  0  0  0  0  0  0  0  0  0
    7.8794   12.7141   26.8749 H   0  0  0  0  0  0  0  0  0  0  0  0
    7.9048   11.0599   27.4628 H   0  0  0  0  0  0  0  0  0  0  0  0
    5.0571   11.8129   24.2948 H   0  0  0  0  0  0  0  0  0  0  0  0
    5.9995   13.2113   24.7841 H   0  0  0  0  0  0  0  0  0  0  0  0
    6.8097    8.1084   24.7913 H   0  0  0  0  0  0  0  0  0  0  0  0
   10.7578   12.4689   21.6464 H   0  0  0  0  0  0  0  0  0  0  0  0
   13.8517   18.7327   20.6048 H   0  0  0  0  0  0  0  0  0  0  0  0
   15.2347   15.4983   18.8283 H   0  0  0  0  0  0  0  0  0  0  0  0
  1  8  1  0  0  0  0
  1 28  1  0  0  0  0
  1 29  1  0  0  0  0
  2  3  2  0  0  0  0
  2  8  1  0  0  0  0
  3  9  1  0  0  0  0
  4  5  2  0  0  0  0
  4 12  1  0  0  0  0
  5 13  1  0  0  0  0
  6  9  2  0  0  0  0
  6 10  1  0  0  0  0
  7 11  1  0  0  0  0
  7 13  2  0  0  0  0
  8 10  2  0  0  0  0
  9 16  1  0  0  0  0
 10 15  1  0  0  0  0
 11 12  2  0  0  0  0
 11 22  1  0  0  0  0
 12 23  1  0  0  0  0
 13 24  1  0  0  0  0
 14 22  1  0  0  0  0
 14 23  1  0  0  0  0
 14 25  2  0  0  0  0
 15 26  2  0  0  0  0
 16 24  1  0  0  0  0
 16 27  2  0  0  0  0
 17 18  1  0  0  0  0
 17 19  1  0  0  0  0
 18 20  1  0  0  0  0
 19 21  1  0  0  0  0
 20 22  1  0  0  0  0
 21 22  1  0  0  0  0
  2 30  1  0  0  0  0
  3 31  1  0  0  0  0
  4 32  1  0  0  0  0
  5 33  1  0  0  0  0
  6 34  1  0  0  0  0
  7 35  1  0  0  0  0
 15 36  1  0  0  0  0
 17 37  1  0  0  0  0
 17 38  1  0  0  0  0
 18 39  1  0  0  0  0
 18 40  1  0  0  0  0
 19 41  1  0  0  0  0
 19 42  1  0  0  0  0
 20 43  1  0  0  0  0
 20 44  1  0  0  0  0
 21 45  1  0  0  0  0
 21 46  1  0  0  0  0
 23 47  1  0  0  0  0
 24 48  1  0  0  0  0
 28 49  1  0  0  0  0
 29 50  1  0  0  0  0
M  END
> <Catalog ID>
Z7158435139

> <MW>
392.213

> <MW (desalted)>
392.213

> <ClogP>
2.57

> <logS>
-4.195

> <HBD>
4

> <HBA>
5

> <TPSA>
115.73

> <RotBonds>
4

> <ROCS_ShapeQuery>
A71EV2A-x0451_0A_A71EV2A-x0310_0A_A71EV2A-x0416_0A_peptide

> <ROCS_TanimotoCombo>
0.525 

> <ROCS_ShapeTanimoto>
0.381 

> <ROCS_ColorTanimoto>
0.144 

> <ROCS_RefTversky>
0.340 

> <ROCS_RefColorTversky>
0.168 

> <ROCS_RefTverskyCombo>
0.508 

> <ROCS_FitTversky>
1.464 

> <ROCS_FitColorTversky>
0.505 

> <ROCS_FitTverskyCombo>
1.969 

> <ROCS_ColorScore>
-5.123

> <ROCS_Overlap>
2368.671

> <ROCS_Rank>
293                 

$$$$
untitled-dbase-11472_6248
  -OEChem-11132309573D

 39 40  0     0  0  0  0  0  0999 V2000
    8.9028   15.3597   20.6473 C   0  0  0  0  0  0  0  0  0  0  0  0
   14.6382   15.6833   19.3084 C   0  0  0  0  0  0  0  0  0  0  0  0
   13.3861   15.0536   19.5054 C   0  0  0  0  0  0  0  0  0  0  0  0
    8.8359   11.9780   24.5253 C   0  0  0  0  0  0  0  0  0  0  0  0
    9.3480    9.6052   23.1505 C   0  0  0  0  0  0  0  0  0  0  0  0
   14.3665   17.0138   19.0898 C   0  0  0  0  0  0  0  0  0  0  0  0
    7.9017   10.9425   24.5495 C   0  0  0  0  0  0  0  0  0  0  0  0
    8.1577    9.7561   23.8621 C   0  0  0  0  0  0  0  0  0  0  0  0
   10.0261   11.8272   23.8136 C   0  0  0  0  0  0  0  0  0  0  0  0
   10.2821   10.6407   23.1263 C   0  0  0  0  0  0  0  0  0  0  0  0
   12.4384   16.0443   19.3933 C   0  0  0  0  0  0  0  0  0  0  0  0
   10.9796   15.9001   19.5155 C   0  0  0  0  0  0  0  0  0  0  0  0
   10.3248   15.4710   20.6116 C   0  0  0  0  0  0  0  0  0  0  0  0
   11.1705   15.0932   21.7944 C   0  0  0  0  0  0  0  0  0  0  0  0
    6.5585   12.3444   25.9229 C   0  0  0  0  0  0  0  0  0  0  0  0
    7.5907    7.5588   23.1507 C   0  0  0  0  0  0  0  0  0  0  0  0
    7.7464   15.2672   20.6806 N   0  0  0  0  0  0  0  0  0  0  0  0
   11.0407   13.7250   22.2059 N   0  0  0  0  0  0  0  0  0  0  0  0
   11.9071   15.8907   22.3634 O   0  0  0  0  0  0  0  0  0  0  0  0
   10.6474   14.1985   24.7174 O   0  0  0  0  0  0  0  0  0  0  0  0
   12.4833   12.6139   24.0392 O   0  0  0  0  0  0  0  0  0  0  0  0
   13.0279   17.2422   19.1400 O   0  0  0  0  0  0  0  0  0  0  0  0
    6.7430   11.1016   25.2480 O   0  0  0  0  0  0  0  0  0  0  0  0
    7.2531    8.7380   23.8787 O   0  0  0  0  0  0  0  0  0  0  0  0
   11.1648   13.1787   23.8258 S   0  0  0  0  0  0  0  0  0  0  0  0
   11.8798   10.3698   22.1376 Br  0  0  0  0  0  0  0  0  0  0  0  0
   15.6159   15.2238   19.3213 H   0  0  0  0  0  0  0  0  0  0  0  0
   13.2068   14.0057   19.7029 H   0  0  0  0  0  0  0  0  0  0  0  0
    8.6294   12.8997   25.0641 H   0  0  0  0  0  0  0  0  0  0  0  0
    9.5350    8.6749   22.6187 H   0  0  0  0  0  0  0  0  0  0  0  0
   14.9814   17.8796   18.8916 H   0  0  0  0  0  0  0  0  0  0  0  0
   10.4406   16.1973   18.6183 H   0  0  0  0  0  0  0  0  0  0  0  0
    5.5958   12.3397   26.4398 H   0  0  0  0  0  0  0  0  0  0  0  0
    6.5910   13.1619   25.1982 H   0  0  0  0  0  0  0  0  0  0  0  0
    7.3608   12.4750   26.6528 H   0  0  0  0  0  0  0  0  0  0  0  0
    6.7847    6.8271   23.2468 H   0  0  0  0  0  0  0  0  0  0  0  0
    8.5230    7.1430   23.5410 H   0  0  0  0  0  0  0  0  0  0  0  0
    7.7219    7.8168   22.0972 H   0  0  0  0  0  0  0  0  0  0  0  0
   10.8175   13.0031   21.5101 H   0  0  0  0  0  0  0  0  0  0  0  0
  1 13  1  0  0  0  0
  1 17  3  0  0  0  0
  2  3  1  0  0  0  0
  2  6  2  0  0  0  0
  3 11  2  0  0  0  0
  4  7  1  0  0  0  0
  4  9  2  0  0  0  0
  5  8  1  0  0  0  0
  5 10  2  0  0  0  0
  6 22  1  0  0  0  0
  7  8  2  0  0  0  0
  7 23  1  0  0  0  0
  8 24  1  0  0  0  0
  9 10  1  0  0  0  0
  9 25  1  0  0  0  0
 10 26  1  0  0  0  0
 11 12  1  4  0  0  0
 11 22  1  0  0  0  0
 12 13  2  0  0  0  0
 13 14  1  0  0  0  0
 14 18  1  0  0  0  0
 14 19  2  0  0  0  0
 15 23  1  0  0  0  0
 16 24  1  0  0  0  0
 18 25  1  0  0  0  0
 20 25  2  0  0  0  0
 21 25  2  0  0  0  0
  2 27  1  0  0  0  0
  3 28  1  0  0  0  0
  4 29  1  0  0  0  0
  5 30  1  0  0  0  0
  6 31  1  0  0  0  0
 12 32  1  0  0  0  0
 15 33  1  0  0  0  0
 15 34  1  0  0  0  0
 15 35  1  0  0  0  0
 16 36  1  0  0  0  0
 16 37  1  0  0  0  0
 16 38  1  0  0  0  0
 18 39  1  0  0  0  0
M  END
> <Catalog ID>
Z614322166

> <MW>
441.253

> <MW (desalted)>
441.253

> <ClogP>
2.009

> <logS>
-4.68

> <HBD>
1

> <HBA>
6

> <TPSA>
118.63

> <RotBonds>
5

> <ROCS_ShapeQuery>
A71EV2A-x0451_0A_A71EV2A-x0310_0A_A71EV2A-x0416_0A_peptide

> <ROCS_TanimotoCombo>
0.525 

> <ROCS_ShapeTanimoto>
0.356 

> <ROCS_ColorTanimoto>
0.169 

> <ROCS_RefTversky>
0.317 

> <ROCS_RefColorTversky>
0.201 

> <ROCS_RefTverskyCombo>
0.518 

> <ROCS_FitTversky>
1.530 

> <ROCS_FitColorTversky>
0.512 

> <ROCS_FitTverskyCombo>
2.043 

> <ROCS_ColorScore>
-6.170

> <ROCS_Overlap>
2205.400

> <ROCS_Rank>
294                 

$$$$
untitled-dbase-927_17
  -OEChem-11132309573D

 42 45  0     0  0  0  0  0  0999 V2000
   13.4628   16.5013   19.1991 C   0  0  0  0  0  0  0  0  0  0  0  0
   12.7661   15.9294   18.1317 C   0  0  0  0  0  0  0  0  0  0  0  0
   12.9157   15.1379   23.0865 C   0  0  0  0  0  0  0  0  0  0  0  0
   11.6823   14.4228   19.6589 C   0  0  0  0  0  0  0  0  0  0  0  0
   10.0572   10.8525   22.9247 C   0  0  0  0  0  0  0  0  0  0  0  0
   13.7799   16.1656   22.7676 C   0  0  0  0  0  0  0  0  0  0  0  0
   12.3832   14.9983   20.7324 C   0  0  0  0  0  0  0  0  0  0  0  0
    9.7952   12.0769   23.5892 C   0  0  0  0  0  0  0  0  0  0  0  0
   13.2897   16.0552   20.5065 C   0  0  0  0  0  0  0  0  0  0  0  0
   12.2088   14.5487   22.0482 C   0  0  0  0  0  0  0  0  0  0  0  0
   11.8747   14.8888   18.3615 C   0  0  0  0  0  0  0  0  0  0  0  0
    9.0308    9.9862   23.2332 C   0  0  0  0  0  0  0  0  0  0  0  0
    8.6133   11.9282   24.2880 C   0  0  0  0  0  0  0  0  0  0  0  0
    8.8801    8.6321   22.7945 C   0  0  0  0  0  0  0  0  0  0  0  0
   10.5880   13.2728   23.5564 C   0  0  0  0  0  0  0  0  0  0  0  0
    7.8474   12.8904   25.1326 C   0  0  0  0  0  0  0  0  0  0  0  0
    6.8284   12.1827   26.0282 C   0  0  0  0  0  0  0  0  0  0  0  0
    6.0383   11.1421   25.2342 C   0  0  0  0  0  0  0  0  0  0  0  0
    6.9730   10.0791   24.6589 C   0  0  0  0  0  0  0  0  0  0  0  0
   13.9772   16.6289   21.5121 N   0  0  0  0  0  0  0  0  0  0  0  0
    8.1639   10.6502   24.0568 N   0  0  0  0  0  0  0  0  0  0  0  0
   11.3194   13.4923   22.3690 N   0  0  0  0  0  0  0  0  0  0  0  0
    7.9229    7.8991   23.1123 O   0  0  0  0  0  0  0  0  0  0  0  0
   10.6590   14.0568   24.5261 O   0  0  0  0  0  0  0  0  0  0  0  0
   11.1944   14.3297   17.3249 O   0  0  0  0  0  0  0  0  0  0  0  0
   14.1548   17.3157   18.9922 H   0  0  0  0  0  0  0  0  0  0  0  0
   12.9268   16.3034   17.1242 H   0  0  0  0  0  0  0  0  0  0  0  0
   12.8025   14.8120   24.1149 H   0  0  0  0  0  0  0  0  0  0  0  0
   10.9800   13.6070   19.8164 H   0  0  0  0  0  0  0  0  0  0  0  0
   10.9045   10.6270   22.2906 H   0  0  0  0  0  0  0  0  0  0  0  0
   14.3593   16.6642   23.5377 H   0  0  0  0  0  0  0  0  0  0  0  0
    9.6679    8.1968   22.1236 H   0  0  0  0  0  0  0  0  0  0  0  0
    8.5304   13.4784   25.7562 H   0  0  0  0  0  0  0  0  0  0  0  0
    7.3243   13.5935   24.4725 H   0  0  0  0  0  0  0  0  0  0  0  0
    7.3459   11.6880   26.8599 H   0  0  0  0  0  0  0  0  0  0  0  0
    6.1471   12.9204   26.4662 H   0  0  0  0  0  0  0  0  0  0  0  0
    5.2866   10.6668   25.8736 H   0  0  0  0  0  0  0  0  0  0  0  0
    5.4997   11.6415   24.4186 H   0  0  0  0  0  0  0  0  0  0  0  0
    7.3187    9.4049   25.4512 H   0  0  0  0  0  0  0  0  0  0  0  0
    6.4487    9.4914   23.8983 H   0  0  0  0  0  0  0  0  0  0  0  0
   11.1899   12.7941   21.6410 H   0  0  0  0  0  0  0  0  0  0  0  0
   11.4366   14.7622   16.4902 H   0  0  0  0  0  0  0  0  0  0  0  0
  1  2  2  0  0  0  0
  1  9  1  0  0  0  0
  2 11  1  0  0  0  0
  3  6  1  0  0  0  0
  3 10  2  0  0  0  0
  4  7  1  0  0  0  0
  4 11  2  0  0  0  0
  5  8  1  0  0  0  0
  5 12  2  0  0  0  0
  6 20  2  0  0  0  0
  7  9  2  0  0  0  0
  7 10  1  0  0  0  0
  8 13  2  0  0  0  0
  8 15  1  0  0  0  0
  9 20  1  0  0  0  0
 10 22  1  0  0  0  0
 11 25  1  0  0  0  0
 12 14  1  0  0  0  0
 12 21  1  0  0  0  0
 13 16  1  0  0  0  0
 13 21  1  0  0  0  0
 14 23  2  0  0  0  0
 15 22  1  0  0  0  0
 15 24  2  0  0  0  0
 16 17  1  0  0  0  0
 17 18  1  0  0  0  0
 18 19  1  0  0  0  0
 19 21  1  0  0  0  0
  1 26  1  0  0  0  0
  2 27  1  0  0  0  0
  3 28  1  0  0  0  0
  4 29  1  0  0  0  0
  5 30  1  0  0  0  0
  6 31  1  0  0  0  0
 14 32  1  0  0  0  0
 16 33  1  0  0  0  0
 16 34  1  0  0  0  0
 17 35  1  0  0  0  0
 17 36  1  0  0  0  0
 18 37  1  0  0  0  0
 18 38  1  0  0  0  0
 19 39  1  0  0  0  0
 19 40  1  0  0  0  0
 22 41  1  0  0  0  0
 25 42  1  0  0  0  0
M  END
> <Catalog ID>
Z5470753759

> <MW>
335.357

> <MW (desalted)>
335.357

> <ClogP>
3.28

> <logS>
-2.98

> <HBD>
2

> <HBA>
4

> <TPSA>
84.22

> <RotBonds>
3

> <ROCS_ShapeQuery>
A71EV2A-x0451_0A_A71EV2A-x0310_0A_A71EV2A-x0416_0A_peptide

> <ROCS_TanimotoCombo>
0.525 

> <ROCS_ShapeTanimoto>
0.369 

> <ROCS_ColorTanimoto>
0.157 

> <ROCS_RefTversky>
0.326 

> <ROCS_RefColorTversky>
0.185 

> <ROCS_RefTverskyCombo>
0.511 

> <ROCS_FitTversky>
1.542 

> <ROCS_FitColorTversky>
0.509 

> <ROCS_FitTverskyCombo>
2.051 

> <ROCS_ColorScore>
-5.653

> <ROCS_Overlap>
2268.777

> <ROCS_Rank>
295                 

$$$$
untitled-dbase-7631_565
  -OEChem-11132309573D

 49 51  0     1  0  0  0  0  0999 V2000
    9.6045   12.2834   23.7060 C   0  0  0  0  0  0  0  0  0  0  0  0
    9.5529   10.1360   22.5981 C   0  0  0  0  0  0  0  0  0  0  0  0
   10.0585   11.4321   22.6985 C   0  0  0  0  0  0  0  0  0  0  0  0
    8.6237   11.8454   24.5977 C   0  0  0  0  0  0  0  0  0  0  0  0
    8.1173   10.5480   24.4969 C   0  0  0  0  0  0  0  0  0  0  0  0
    8.5920    9.6883   23.5046 C   0  0  0  0  0  0  0  0  0  0  0  0
   10.8428   15.3601   22.0826 C   0  0  0  0  0  0  0  0  0  0  0  0
   12.8224   12.1682   25.4727 C   0  0  0  0  0  0  0  0  0  0  0  0
   12.6546   12.0561   24.1510 C   0  0  0  0  0  0  0  0  0  0  0  0
   12.5074   13.2783   23.3103 C   0  0  0  0  0  0  0  0  0  0  0  0
   12.8531   15.5714   19.4731 C   0  0  0  0  0  0  0  0  0  0  0  0
   12.1011   16.8962   19.5815 C   0  0  0  0  0  0  0  0  0  0  0  0
   12.9270   14.7715   20.7732 C   0  0  0  0  0  0  0  0  0  0  0  0
    6.0012   11.9941   26.1918 C   0  0  0  0  0  0  0  0  0  0  0  0
   10.6378   16.7327   19.9699 C   0  0  0  0  0  0  0  0  0  0  0  0
    6.8886   13.0542   25.5516 C   0  0  0  0  0  0  0  0  0  0  0  0
    5.9739   10.7119   25.3695 C   0  0  0  0  0  0  0  0  0  0  0  0
   11.5633   14.2902   21.2703 C   0  0  1  0  0  0  0  0  0  0  0  0
   11.0778   11.9119   21.7207 C   0  0  0  0  0  0  0  0  0  0  0  0
   10.4646   16.4903   21.3907 N   0  0  0  0  0  0  0  0  0  0  0  0
   11.7203   13.1280   22.1504 N   0  0  0  0  0  0  0  0  0  0  0  0
   10.6158   15.2407   23.2881 O   0  0  0  0  0  0  0  0  0  0  0  0
   13.0765   14.3197   23.6414 O   0  0  0  0  0  0  0  0  0  0  0  0
    8.2708   12.6947   25.6106 O   0  0  0  0  0  0  0  0  0  0  0  0
    7.2314   10.0330   25.4035 O   0  0  0  0  0  0  0  0  0  0  0  0
    8.0449    8.0553   23.3736 Cl  0  0  0  0  0  0  0  0  0  0  0  0
    9.9987   13.2913   23.7816 H   0  0  0  0  0  0  0  0  0  0  0  0
    9.9199    9.4770   21.8137 H   0  0  0  0  0  0  0  0  0  0  0  0
   12.9337   11.3076   26.1230 H   0  0  0  0  0  0  0  0  0  0  0  0
   12.8577   13.1500   25.9335 H   0  0  0  0  0  0  0  0  0  0  0  0
   12.6646   11.0760   23.6904 H   0  0  0  0  0  0  0  0  0  0  0  0
   12.3957   14.9541   18.6896 H   0  0  0  0  0  0  0  0  0  0  0  0
   13.8763   15.7838   19.1391 H   0  0  0  0  0  0  0  0  0  0  0  0
   12.6105   17.5658   20.2851 H   0  0  0  0  0  0  0  0  0  0  0  0
   12.1441   17.3885   18.6020 H   0  0  0  0  0  0  0  0  0  0  0  0
   13.5686   13.9025   20.5767 H   0  0  0  0  0  0  0  0  0  0  0  0
   13.4303   15.3698   21.5431 H   0  0  0  0  0  0  0  0  0  0  0  0
    6.3623   11.7542   27.1952 H   0  0  0  0  0  0  0  0  0  0  0  0
    4.9920   12.4015   26.2921 H   0  0  0  0  0  0  0  0  0  0  0  0
   10.0967   17.6592   19.7496 H   0  0  0  0  0  0  0  0  0  0  0  0
   10.1579   15.9247   19.4080 H   0  0  0  0  0  0  0  0  0  0  0  0
    6.5814   13.2693   24.5166 H   0  0  0  0  0  0  0  0  0  0  0  0
    6.7720   13.9986   26.0992 H   0  0  0  0  0  0  0  0  0  0  0  0
    5.1566   10.0442   25.6839 H   0  0  0  0  0  0  0  0  0  0  0  0
    5.7659   10.9627   24.3211 H   0  0  0  0  0  0  0  0  0  0  0  0
   10.9254   13.9592   20.4443 H   0  0  0  0  0  0  0  0  0  0  0  0
   11.8643   11.1598   21.5672 H   0  0  0  0  0  0  0  0  0  0  0  0
   10.6305   12.1082   20.7365 H   0  0  0  0  0  0  0  0  0  0  0  0
    9.9881   17.2116   21.9235 H   0  0  0  0  0  0  0  0  0  0  0  0
  1  3  1  0  0  0  0
  1  4  2  0  0  0  0
  2  3  2  0  0  0  0
  2  6  1  0  0  0  0
  3 19  1  0  0  0  0
  4  5  1  0  0  0  0
  4 24  1  0  0  0  0
  5  6  2  0  0  0  0
  5 25  1  0  0  0  0
  6 26  1  0  0  0  0
  7 18  1  0  0  0  0
  7 20  1  0  0  0  0
  7 22  2  0  0  0  0
  8  9  2  0  0  0  0
  9 10  1  0  0  0  0
 10 21  1  0  0  0  0
 10 23  2  0  0  0  0
 11 12  1  0  0  0  0
 11 13  1  0  0  0  0
 12 15  1  0  0  0  0
 13 18  1  0  0  0  0
 14 16  1  0  0  0  0
 14 17  1  0  0  0  0
 15 20  1  0  0  0  0
 16 24  1  0  0  0  0
 17 25  1  0  0  0  0
 18 21  1  0  0  0  0
 19 21  1  0  0  0  0
  1 27  1  0  0  0  0
  2 28  1  0  0  0  0
  8 29  1  0  0  0  0
  8 30  1  0  0  0  0
  9 31  1  0  0  0  0
 11 32  1  0  0  0  0
 11 33  1  0  0  0  0
 12 34  1  0  0  0  0
 12 35  1  0  0  0  0
 13 36  1  0  0  0  0
 13 37  1  0  0  0  0
 14 38  1  0  0  0  0
 14 39  1  0  0  0  0
 15 40  1  0  0  0  0
 15 41  1  0  0  0  0
 16 42  1  0  0  0  0
 16 43  1  0  0  0  0
 17 44  1  0  0  0  0
 17 45  1  0  0  0  0
 18 46  1  0  0  0  0
 19 47  1  0  0  0  0
 19 48  1  0  0  0  0
 20 49  1  0  0  0  0
M  END
> <Catalog ID>
Z4408138101

> <MW>
378.85

> <MW (desalted)>
378.85

> <ClogP>
2.538

> <logS>
-4.383

> <HBD>
1

> <HBA>
4

> <TPSA>
67.87

> <RotBonds>
4

> <ROCS_ShapeQuery>
A71EV2A-x0451_0A_A71EV2A-x0310_0A_A71EV2A-x0416_0A_peptide

> <ROCS_TanimotoCombo>
0.525 

> <ROCS_ShapeTanimoto>
0.380 

> <ROCS_ColorTanimoto>
0.145 

> <ROCS_RefTversky>
0.333 

> <ROCS_RefColorTversky>
0.169 

> <ROCS_RefTverskyCombo>
0.502 

> <ROCS_FitTversky>
1.581 

> <ROCS_FitColorTversky>
0.510 

> <ROCS_FitTverskyCombo>
2.091 

> <ROCS_ColorScore>
-5.167

> <ROCS_Overlap>
2317.680

> <ROCS_Rank>
296                 

$$$$
untitled-dbase-6813_132
  -OEChem-11132309573D

 35 36  0     0  0  0  0  0  0999 V2000
   13.3647   13.6921   22.6037 C   0  0  0  0  0  0  0  0  0  0  0  0
   14.3926   16.8401   19.8718 C   0  0  0  0  0  0  0  0  0  0  0  0
   14.2355   16.5771   18.5111 C   0  0  0  0  0  0  0  0  0  0  0  0
   13.5286   16.2575   20.7991 C   0  0  0  0  0  0  0  0  0  0  0  0
    7.2844   10.1485   24.8106 C   0  0  0  0  0  0  0  0  0  0  0  0
   13.2143   15.7317   18.0775 C   0  0  0  0  0  0  0  0  0  0  0  0
    8.2677    9.4537   24.1063 C   0  0  0  0  0  0  0  0  0  0  0  0
    8.3531   12.2389   24.2404 C   0  0  0  0  0  0  0  0  0  0  0  0
   12.5073   15.4121   20.3655 C   0  0  0  0  0  0  0  0  0  0  0  0
    7.3271   11.5411   24.8776 C   0  0  0  0  0  0  0  0  0  0  0  0
    9.3364   11.5441   23.5361 C   0  0  0  0  0  0  0  0  0  0  0  0
   12.3502   15.1491   19.0047 C   0  0  0  0  0  0  0  0  0  0  0  0
    9.2937   10.1515   23.4691 C   0  0  0  0  0  0  0  0  0  0  0  0
   11.6183   14.8159   21.3536 C   0  0  0  0  0  0  0  0  0  0  0  0
   11.9914   14.0168   22.3840 C   0  0  0  0  0  0  0  0  0  0  0  0
   10.8967   13.5068   23.2967 C   0  0  0  0  0  0  0  0  0  0  0  0
    6.2754   12.2837   25.6304 C   0  0  0  0  0  0  0  0  0  0  0  0
   14.4794   13.4262   22.7868 N   0  0  0  0  0  0  0  0  0  0  0  0
   10.3662   12.2839   22.9008 N   0  0  0  0  0  0  0  0  0  0  0  0
   10.5527   14.1595   24.2790 O   0  0  0  0  0  0  0  0  0  0  0  0
   11.3598   14.3275   18.5534 O   0  0  0  0  0  0  0  0  0  0  0  0
    5.3359   11.4733   26.2019 F   0  0  0  0  0  0  0  0  0  0  0  0
    6.7676   13.0374   26.6577 F   0  0  0  0  0  0  0  0  0  0  0  0
    5.5784   13.1518   24.8407 F   0  0  0  0  0  0  0  0  0  0  0  0
   10.4909    9.2512   22.6083 Cl  0  0  0  0  0  0  0  0  0  0  0  0
   15.1870   17.4996   20.2088 H   0  0  0  0  0  0  0  0  0  0  0  0
   14.9085   17.0313   17.7900 H   0  0  0  0  0  0  0  0  0  0  0  0
   13.6645   16.4742   21.8561 H   0  0  0  0  0  0  0  0  0  0  0  0
    6.4890    9.5963   25.3039 H   0  0  0  0  0  0  0  0  0  0  0  0
   13.0983   15.5307   17.0158 H   0  0  0  0  0  0  0  0  0  0  0  0
    8.2189    8.3686   24.0629 H   0  0  0  0  0  0  0  0  0  0  0  0
    8.3836   13.3251   24.2954 H   0  0  0  0  0  0  0  0  0  0  0  0
   10.5658   15.0808   21.2192 H   0  0  0  0  0  0  0  0  0  0  0  0
   10.7619   11.8730   22.0595 H   0  0  0  0  0  0  0  0  0  0  0  0
   11.3976   14.2588   17.5870 H   0  0  0  0  0  0  0  0  0  0  0  0
  1 15  1  0  0  0  0
  1 18  3  0  0  0  0
  2  3  1  0  0  0  0
  2  4  2  0  0  0  0
  3  6  2  0  0  0  0
  4  9  1  0  0  0  0
  5  7  2  0  0  0  0
  5 10  1  0  0  0  0
  6 12  1  0  0  0  0
  7 13  1  0  0  0  0
  8 10  2  0  0  0  0
  8 11  1  0  0  0  0
  9 12  2  0  0  0  0
  9 14  1  4  0  0  0
 10 17  1  0  0  0  0
 11 13  2  0  0  0  0
 11 19  1  0  0  0  0
 12 21  1  0  0  0  0
 13 25  1  0  0  0  0
 14 15  2  0  0  0  0
 15 16  1  0  0  0  0
 16 19  1  0  0  0  0
 16 20  2  0  0  0  0
 17 22  1  0  0  0  0
 17 23  1  0  0  0  0
 17 24  1  0  0  0  0
  2 26  1  0  0  0  0
  3 27  1  0  0  0  0
  4 28  1  0  0  0  0
  5 29  1  0  0  0  0
  6 30  1  0  0  0  0
  7 31  1  0  0  0  0
  8 32  1  0  0  0  0
 14 33  1  0  0  0  0
 19 34  1  0  0  0  0
 21 35  1  0  0  0  0
M  END
> <Catalog ID>
Z54317846

> <MW>
366.722

> <MW (desalted)>
366.722

> <ClogP>
3.607

> <logS>
-5.57

> <HBD>
2

> <HBA>
3

> <TPSA>
73.12

> <RotBonds>
4

> <ROCS_ShapeQuery>
A71EV2A-x0451_0A_A71EV2A-x0310_0A_A71EV2A-x0416_0A_peptide

> <ROCS_TanimotoCombo>
0.525 

> <ROCS_ShapeTanimoto>
0.369 

> <ROCS_ColorTanimoto>
0.157 

> <ROCS_RefTversky>
0.325 

> <ROCS_RefColorTversky>
0.172 

> <ROCS_RefTverskyCombo>
0.497 

> <ROCS_FitTversky>
1.581 

> <ROCS_FitColorTversky>
0.637 

> <ROCS_FitTverskyCombo>
2.218 

> <ROCS_ColorScore>
-5.243

> <ROCS_Overlap>
2256.208

> <ROCS_Rank>
297                 

$$$$
untitled-dbase-911_1435
  -OEChem-11132309573D

 38 39  0     1  0  0  0  0  0999 V2000
    6.8474   12.6942   26.0183 C   0  0  0  0  0  0  0  0  0  0  0  0
    6.0719   11.5479   25.8638 C   0  0  0  0  0  0  0  0  0  0  0  0
    8.6130   11.6914   24.6816 C   0  0  0  0  0  0  0  0  0  0  0  0
    7.8182   10.5476   24.5202 C   0  0  0  0  0  0  0  0  0  0  0  0
    8.1115   12.7659   25.4320 C   0  0  0  0  0  0  0  0  0  0  0  0
    6.5573   10.4739   25.1194 C   0  0  0  0  0  0  0  0  0  0  0  0
   14.8028   16.2625   21.0825 C   0  0  0  0  0  0  0  0  0  0  0  0
   13.8890   15.2924   20.9755 C   0  0  0  0  0  0  0  0  0  0  0  0
   12.6069   15.3871   21.7301 C   0  0  0  0  0  0  0  0  0  0  0  0
   10.2001   14.0567   23.0765 C   0  0  0  0  0  0  0  0  0  0  0  0
   10.4663   10.3897   23.6467 C   0  0  0  0  0  0  0  0  0  0  0  0
    9.3385    9.6334   22.9580 C   0  0  0  0  0  0  0  0  0  0  0  0
    9.9845   11.7786   24.0647 C   0  0  1  0  0  0  0  0  0  0  0  0
   11.6316   14.0756   19.8847 C   0  0  0  0  0  0  0  0  0  0  0  0
   10.1504   14.7524   21.7402 C   0  0  0  0  0  0  0  0  0  0  0  0
    9.9877   12.6919   22.9449 N   0  0  0  0  0  0  0  0  0  0  0  0
   11.4960   14.7807   21.1486 N   0  0  0  0  0  0  0  0  0  0  0  0
   12.5703   16.0013   22.7975 O   0  0  0  0  0  0  0  0  0  0  0  0
   10.4066   14.6425   24.1361 O   0  0  0  0  0  0  0  0  0  0  0  0
    8.2156    9.4365   23.8217 O   0  0  0  0  0  0  0  0  0  0  0  0
    8.8474   13.8743   25.5996 F   0  0  0  0  0  0  0  0  0  0  0  0
    5.8043    9.3738   24.9785 F   0  0  0  0  0  0  0  0  0  0  0  0
    6.4703   13.5312   26.5984 H   0  0  0  0  0  0  0  0  0  0  0  0
    5.0899   11.4897   26.3239 H   0  0  0  0  0  0  0  0  0  0  0  0
   15.7486   16.2358   20.5527 H   0  0  0  0  0  0  0  0  0  0  0  0
   14.6087   17.1230   21.7145 H   0  0  0  0  0  0  0  0  0  0  0  0
   14.0686   14.4577   20.3092 H   0  0  0  0  0  0  0  0  0  0  0  0
   10.7638    9.8350   24.5467 H   0  0  0  0  0  0  0  0  0  0  0  0
   11.3491   10.4547   23.0007 H   0  0  0  0  0  0  0  0  0  0  0  0
    9.0023   10.1382   22.0446 H   0  0  0  0  0  0  0  0  0  0  0  0
    9.6941    8.6403   22.6631 H   0  0  0  0  0  0  0  0  0  0  0  0
   10.6948   12.1835   24.7973 H   0  0  0  0  0  0  0  0  0  0  0  0
   11.8765   13.0207   20.0772 H   0  0  0  0  0  0  0  0  0  0  0  0
   10.6850   14.1364   19.3277 H   0  0  0  0  0  0  0  0  0  0  0  0
   12.4358   14.5364   19.2924 H   0  0  0  0  0  0  0  0  0  0  0  0
    9.4735   14.2146   21.0698 H   0  0  0  0  0  0  0  0  0  0  0  0
    9.7930   15.7782   21.8691 H   0  0  0  0  0  0  0  0  0  0  0  0
    9.8265   12.3160   22.0150 H   0  0  0  0  0  0  0  0  0  0  0  0
  1  2  1  0  0  0  0
  1  5  2  0  0  0  0
  2  6  2  0  0  0  0
  3  4  2  0  0  0  0
  3  5  1  0  0  0  0
  3 13  1  0  0  0  0
  4  6  1  0  0  0  0
  4 20  1  0  0  0  0
  5 21  1  0  0  0  0
  6 22  1  0  0  0  0
  7  8  2  0  0  0  0
  8  9  1  0  0  0  0
  9 17  1  0  0  0  0
  9 18  2  0  0  0  0
 10 15  1  0  0  0  0
 10 16  1  0  0  0  0
 10 19  2  0  0  0  0
 11 12  1  0  0  0  0
 11 13  1  0  0  0  0
 12 20  1  0  0  0  0
 13 16  1  6  0  0  0
 14 17  1  0  0  0  0
 15 17  1  0  0  0  0
  1 23  1  0  0  0  0
  2 24  1  0  0  0  0
  7 25  1  0  0  0  0
  7 26  1  0  0  0  0
  8 27  1  0  0  0  0
 11 28  1  0  0  0  0
 11 29  1  0  0  0  0
 12 30  1  0  0  0  0
 12 31  1  0  0  0  0
 13 32  1  0  0  0  0
 14 33  1  0  0  0  0
 14 34  1  0  0  0  0
 14 35  1  0  0  0  0
 15 36  1  0  0  0  0
 15 37  1  0  0  0  0
 16 38  1  0  0  0  0
M  END
> <Catalog ID>
Z2713616474

> <MW>
310.296

> <MW (desalted)>
310.296

> <ClogP>
1.451

> <logS>
-3.629

> <HBD>
1

> <HBA>
3

> <TPSA>
58.64

> <RotBonds>
4

> <ROCS_ShapeQuery>
A71EV2A-x0451_0A_A71EV2A-x0310_0A_A71EV2A-x0416_0A_peptide

> <ROCS_TanimotoCombo>
0.525 

> <ROCS_ShapeTanimoto>
0.344 

> <ROCS_ColorTanimoto>
0.181 

> <ROCS_RefTversky>
0.304 

> <ROCS_RefColorTversky>
0.194 

> <ROCS_RefTverskyCombo>
0.499 

> <ROCS_FitTversky>
1.628 

> <ROCS_FitColorTversky>
0.719 

> <ROCS_FitTverskyCombo>
2.347 

> <ROCS_ColorScore>
-5.926

> <ROCS_Overlap>
2111.702

> <ROCS_Rank>
298                 

$$$$
untitled-dbase-3739_1751
  -OEChem-11132309573D

 44 45  0     1  0  0  0  0  0999 V2000
    8.4662   12.5692   25.4502 C   0  0  0  0  0  0  0  0  0  0  0  0
    8.7343   11.4980   24.6088 C   0  0  0  0  0  0  0  0  0  0  0  0
    7.6810   10.6058   24.4218 C   0  0  0  0  0  0  0  0  0  0  0  0
    6.3505   11.8392   25.8169 C   0  0  0  0  0  0  0  0  0  0  0  0
   14.8560   16.6677   22.8088 C   0  0  0  0  0  0  0  0  0  0  0  0
   14.1312   15.5964   22.4700 C   0  0  0  0  0  0  0  0  0  0  0  0
   12.6451   15.6909   22.4015 C   0  0  0  0  0  0  0  0  0  0  0  0
   10.6235   13.6204   23.0441 C   0  0  0  0  0  0  0  0  0  0  0  0
    7.8466    9.3664   23.5831 C   0  0  0  0  0  0  0  0  0  0  0  0
    9.0502    9.4224   22.6449 C   0  0  0  0  0  0  0  0  0  0  0  0
   10.2823    9.9271   23.3911 C   0  0  0  0  0  0  0  0  0  0  0  0
   10.0644   11.3519   23.9202 C   0  0  1  0  0  0  0  0  0  0  0  0
    5.0298   12.0223   26.4851 C   0  0  0  0  0  0  0  0  0  0  0  0
   12.2638   15.3296   19.1106 C   0  0  0  0  0  0  0  0  0  0  0  0
   10.6557   14.3900   21.7484 C   0  0  0  0  0  0  0  0  0  0  0  0
   12.5960   14.3930   20.2220 C   0  0  0  0  0  0  0  0  0  0  0  0
    7.2863   12.7692   26.0709 N   0  0  0  0  0  0  0  0  0  0  0  0
    6.4783   10.7578   25.0257 N   0  0  0  0  0  0  0  0  0  0  0  0
   10.1896   12.3173   22.8479 N   0  0  0  0  0  0  0  0  0  0  0  0
   12.0266   14.8497   21.4818 N   0  0  0  0  0  0  0  0  0  0  0  0
   12.0506   16.4964   23.1195 O   0  0  0  0  0  0  0  0  0  0  0  0
   10.9471   14.1041   24.1256 O   0  0  0  0  0  0  0  0  0  0  0  0
    9.2168   13.3227   25.6641 H   0  0  0  0  0  0  0  0  0  0  0  0
   15.9383   16.6453   22.8714 H   0  0  0  0  0  0  0  0  0  0  0  0
   14.3625   17.6088   23.0283 H   0  0  0  0  0  0  0  0  0  0  0  0
   14.6309   14.6718   22.2088 H   0  0  0  0  0  0  0  0  0  0  0  0
    7.9408    8.4890   24.2377 H   0  0  0  0  0  0  0  0  0  0  0  0
    6.9282    9.2318   22.9941 H   0  0  0  0  0  0  0  0  0  0  0  0
    9.2521    8.4256   22.2298 H   0  0  0  0  0  0  0  0  0  0  0  0
    8.8260   10.0827   21.7979 H   0  0  0  0  0  0  0  0  0  0  0  0
   10.5139    9.2505   24.2250 H   0  0  0  0  0  0  0  0  0  0  0  0
   11.1452    9.8973   22.7089 H   0  0  0  0  0  0  0  0  0  0  0  0
   10.8370   11.5852   24.6476 H   0  0  0  0  0  0  0  0  0  0  0  0
    4.3615   12.6204   25.8535 H   0  0  0  0  0  0  0  0  0  0  0  0
    4.5470   11.0569   26.6856 H   0  0  0  0  0  0  0  0  0  0  0  0
    5.1395   12.5292   27.4529 H   0  0  0  0  0  0  0  0  0  0  0  0
   12.6644   16.3281   19.3397 H   0  0  0  0  0  0  0  0  0  0  0  0
   12.7103   14.9613   18.1751 H   0  0  0  0  0  0  0  0  0  0  0  0
   11.1714   15.3902   18.9965 H   0  0  0  0  0  0  0  0  0  0  0  0
   10.3263   13.7450   20.9285 H   0  0  0  0  0  0  0  0  0  0  0  0
    9.9927   15.2575   21.8156 H   0  0  0  0  0  0  0  0  0  0  0  0
   12.1923   13.3975   19.9854 H   0  0  0  0  0  0  0  0  0  0  0  0
   13.6895   14.3305   20.3240 H   0  0  0  0  0  0  0  0  0  0  0  0
    9.9477   12.0258   21.9054 H   0  0  0  0  0  0  0  0  0  0  0  0
  1  2  1  0  0  0  0
  1 17  2  0  0  0  0
  2  3  2  0  0  0  0
  2 12  1  0  0  0  0
  3  9  1  0  0  0  0
  3 18  1  0  0  0  0
  4 13  1  0  0  0  0
  4 17  1  0  0  0  0
  4 18  2  0  0  0  0
  5  6  2  0  0  0  0
  6  7  1  0  0  0  0
  7 20  1  0  0  0  0
  7 21  2  0  0  0  0
  8 15  1  0  0  0  0
  8 19  1  0  0  0  0
  8 22  2  0  0  0  0
  9 10  1  0  0  0  0
 10 11  1  0  0  0  0
 11 12  1  0  0  0  0
 12 19  1  0  0  0  0
 14 16  1  0  0  0  0
 15 20  1  0  0  0  0
 16 20  1  0  0  0  0
  1 23  1  0  0  0  0
  5 24  1  0  0  0  0
  5 25  1  0  0  0  0
  6 26  1  0  0  0  0
  9 27  1  0  0  0  0
  9 28  1  0  0  0  0
 10 29  1  0  0  0  0
 10 30  1  0  0  0  0
 11 31  1  0  0  0  0
 11 32  1  0  0  0  0
 12 33  1  0  0  0  0
 13 34  1  0  0  0  0
 13 35  1  0  0  0  0
 13 36  1  0  0  0  0
 14 37  1  0  0  0  0
 14 38  1  0  0  0  0
 14 39  1  0  0  0  0
 15 40  1  0  0  0  0
 15 41  1  0  0  0  0
 16 42  1  0  0  0  0
 16 43  1  0  0  0  0
 19 44  1  0  0  0  0
M  END
> <Catalog ID>
Z2892464738

> <MW>
302.371

> <MW (desalted)>
302.371

> <ClogP>
0.659

> <logS>
-2.067

> <HBD>
1

> <HBA>
4

> <TPSA>
75.19

> <RotBonds>
5

> <ROCS_ShapeQuery>
A71EV2A-x0451_0A_A71EV2A-x0310_0A_A71EV2A-x0416_0A_peptide

> <ROCS_TanimotoCombo>
0.525 

> <ROCS_ShapeTanimoto>
0.346 

> <ROCS_ColorTanimoto>
0.179 

> <ROCS_RefTversky>
0.304 

> <ROCS_RefColorTversky>
0.198 

> <ROCS_RefTverskyCombo>
0.502 

> <ROCS_FitTversky>
1.649 

> <ROCS_FitColorTversky>
0.656 

> <ROCS_FitTverskyCombo>
2.305 

> <ROCS_ColorScore>
-6.036

> <ROCS_Overlap>
2114.301

> <ROCS_Rank>
299                 

$$$$
untitled-dbase-4930_7696
  -OEChem-11132309573D

 58 61  0     0  0  0  0  0  0999 V2000
   12.6664   15.7087   23.0234 C   0  0  0  0  0  0  0  0  0  0  0  0
   11.7477   14.7096   21.0246 C   0  0  0  0  0  0  0  0  0  0  0  0
    9.0631    9.4135   23.3070 C   0  0  0  0  0  0  0  0  0  0  0  0
   13.4977   16.5099   22.2408 C   0  0  0  0  0  0  0  0  0  0  0  0
   12.5790   15.5109   20.2420 C   0  0  0  0  0  0  0  0  0  0  0  0
    9.8951   10.4135   22.8048 C   0  0  0  0  0  0  0  0  0  0  0  0
    8.6518   12.1119   24.0287 C   0  0  0  0  0  0  0  0  0  0  0  0
   11.7914   14.8084   22.4153 C   0  0  0  0  0  0  0  0  0  0  0  0
    8.0357    9.7778   24.1642 C   0  0  0  0  0  0  0  0  0  0  0  0
   13.4540   16.4111   20.8501 C   0  0  0  0  0  0  0  0  0  0  0  0
    7.8288   11.1110   24.5240 C   0  0  0  0  0  0  0  0  0  0  0  0
    9.6903   11.7531   23.1634 C   0  0  0  0  0  0  0  0  0  0  0  0
   14.2134   15.8249   15.3230 C   0  0  0  0  0  0  0  0  0  0  0  0
   13.8606   16.6089   16.3462 C   0  0  0  0  0  0  0  0  0  0  0  0
   10.9127   13.9622   23.2407 C   0  0  0  0  0  0  0  0  0  0  0  0
   14.4241   16.3754   17.7027 C   0  0  0  0  0  0  0  0  0  0  0  0
    6.2348   12.3801   25.9594 C   0  0  0  0  0  0  0  0  0  0  0  0
    7.0392    8.8709   24.8083 C   0  0  0  0  0  0  0  0  0  0  0  0
    5.2860   13.6131   28.8061 C   0  0  0  0  0  0  0  0  0  0  0  0
    5.1615   12.1837   29.3021 C   0  0  0  0  0  0  0  0  0  0  0  0
    4.6362   13.5569   27.4305 C   0  0  0  0  0  0  0  0  0  0  0  0
    5.4395   11.3340   28.0661 C   0  0  0  0  0  0  0  0  0  0  0  0
    6.1866    9.8515   25.6207 C   0  0  0  0  0  0  0  0  0  0  0  0
    5.0347   12.1951   26.8701 C   0  0  0  0  0  0  0  0  0  0  0  0
   14.3424   17.2689   20.0136 C   0  0  0  0  0  0  0  0  0  0  0  0
    6.7275   11.2092   25.3998 N   0  0  0  0  0  0  0  0  0  0  0  0
   10.5339   12.7399   22.6505 N   0  0  0  0  0  0  0  0  0  0  0  0
   13.9417   17.2867   18.6297 N   0  0  0  0  0  0  0  0  0  0  0  0
   10.5276   14.3386   24.3457 O   0  0  0  0  0  0  0  0  0  0  0  0
   15.2228   15.4748   17.9397 O   0  0  0  0  0  0  0  0  0  0  0  0
    6.6836   13.5119   25.7769 O   0  0  0  0  0  0  0  0  0  0  0  0
   12.7081   15.7935   24.1061 H   0  0  0  0  0  0  0  0  0  0  0  0
   11.0700   14.0116   20.5399 H   0  0  0  0  0  0  0  0  0  0  0  0
    9.2201    8.3764   23.0296 H   0  0  0  0  0  0  0  0  0  0  0  0
   14.1761   17.2088   22.7229 H   0  0  0  0  0  0  0  0  0  0  0  0
   12.5380   15.4276   19.1591 H   0  0  0  0  0  0  0  0  0  0  0  0
   10.7047   10.1415   22.1317 H   0  0  0  0  0  0  0  0  0  0  0  0
    8.5127   13.1543   24.2909 H   0  0  0  0  0  0  0  0  0  0  0  0
   13.7973   16.0008   14.3365 H   0  0  0  0  0  0  0  0  0  0  0  0
   14.9120   15.0025   15.4307 H   0  0  0  0  0  0  0  0  0  0  0  0
   13.1585   17.4218   16.1955 H   0  0  0  0  0  0  0  0  0  0  0  0
    6.4371    8.3543   24.0545 H   0  0  0  0  0  0  0  0  0  0  0  0
    7.5348    8.1438   25.4589 H   0  0  0  0  0  0  0  0  0  0  0  0
    4.7933   14.3293   29.4698 H   0  0  0  0  0  0  0  0  0  0  0  0
    6.3418   13.8949   28.7175 H   0  0  0  0  0  0  0  0  0  0  0  0
    5.8527   11.9634   30.1207 H   0  0  0  0  0  0  0  0  0  0  0  0
    4.1419   11.9979   29.6606 H   0  0  0  0  0  0  0  0  0  0  0  0
    3.5456   13.5928   27.5421 H   0  0  0  0  0  0  0  0  0  0  0  0
    4.9365   14.4037   26.8056 H   0  0  0  0  0  0  0  0  0  0  0  0
    6.4992   11.0517   28.0337 H   0  0  0  0  0  0  0  0  0  0  0  0
    4.8597   10.4046   28.0992 H   0  0  0  0  0  0  0  0  0  0  0  0
    5.1382    9.8277   25.3034 H   0  0  0  0  0  0  0  0  0  0  0  0
    6.2235    9.6213   26.6912 H   0  0  0  0  0  0  0  0  0  0  0  0
    4.2516   11.7540   26.2816 H   0  0  0  0  0  0  0  0  0  0  0  0
   14.3403   18.3081   20.3712 H   0  0  0  0  0  0  0  0  0  0  0  0
   15.3848   16.9236   20.0484 H   0  0  0  0  0  0  0  0  0  0  0  0
   10.9298   12.5507   21.7229 H   0  0  0  0  0  0  0  0  0  0  0  0
   13.3031   18.0208   18.3311 H   0  0  0  0  0  0  0  0  0  0  0  0
  1  4  2  0  0  0  0
  1  8  1  0  0  0  0
  2  5  1  0  0  0  0
  2  8  2  0  0  0  0
  3  6  2  0  0  0  0
  3  9  1  0  0  0  0
  4 10  1  0  0  0  0
  5 10  2  0  0  0  0
  6 12  1  0  0  0  0
  7 11  1  0  0  0  0
  7 12  2  0  0  0  0
  8 15  1  0  0  0  0
  9 11  2  0  0  0  0
  9 18  1  0  0  0  0
 10 25  1  0  0  0  0
 11 26  1  0  0  0  0
 12 27  1  0  0  0  0
 13 14  2  0  0  0  0
 14 16  1  0  0  0  0
 15 27  1  0  0  0  0
 15 29  2  0  0  0  0
 16 28  1  0  0  0  0
 16 30  2  0  0  0  0
 17 24  1  0  0  0  0
 17 26  1  0  0  0  0
 17 31  2  0  0  0  0
 18 23  1  0  0  0  0
 19 20  1  0  0  0  0
 19 21  1  0  0  0  0
 20 22  1  0  0  0  0
 21 24  1  0  0  0  0
 22 24  1  0  0  0  0
 23 26  1  0  0  0  0
 25 28  1  0  0  0  0
  1 32  1  0  0  0  0
  2 33  1  0  0  0  0
  3 34  1  0  0  0  0
  4 35  1  0  0  0  0
  5 36  1  0  0  0  0
  6 37  1  0  0  0  0
  7 38  1  0  0  0  0
 13 39  1  0  0  0  0
 13 40  1  0  0  0  0
 14 41  1  0  0  0  0
 18 42  1  0  0  0  0
 18 43  1  0  0  0  0
 19 44  1  0  0  0  0
 19 45  1  0  0  0  0
 20 46  1  0  0  0  0
 20 47  1  0  0  0  0
 21 48  1  0  0  0  0
 21 49  1  0  0  0  0
 22 50  1  0  0  0  0
 22 51  1  0  0  0  0
 23 52  1  0  0  0  0
 23 53  1  0  0  0  0
 24 54  1  0  0  0  0
 25 55  1  0  0  0  0
 25 56  1  0  0  0  0
 27 57  1  0  0  0  0
 28 58  1  0  0  0  0
M  END
> <Catalog ID>
Z3672063257

> <MW>
417.5

> <MW (desalted)>
417.5

> <ClogP>
2.385

> <logS>
-6.212

> <HBD>
2

> <HBA>
3

> <TPSA>
78.51

> <RotBonds>
6

> <ROCS_ShapeQuery>
A71EV2A-x0451_0A_A71EV2A-x0310_0A_A71EV2A-x0416_0A_peptide

> <ROCS_TanimotoCombo>
0.525 

> <ROCS_ShapeTanimoto>
0.389 

> <ROCS_ColorTanimoto>
0.136 

> <ROCS_RefTversky>
0.348 

> <ROCS_RefColorTversky>
0.163 

> <ROCS_RefTverskyCombo>
0.512 

> <ROCS_FitTversky>
1.429 

> <ROCS_FitColorTversky>
0.451 

> <ROCS_FitTverskyCombo>
1.880 

> <ROCS_ColorScore>
-5.004

> <ROCS_Overlap>
2425.256

> <ROCS_Rank>
300                 

$$$$
untitled-dbase-3740_638
  -OEChem-11132309573D

 47 48  0     0  0  0  0  0  0999 V2000
    6.6312   12.3081   26.8854 C   0  0  0  0  0  0  0  0  0  0  0  0
    6.6898   10.9452   27.1609 C   0  0  0  0  0  0  0  0  0  0  0  0
    7.1030   12.7949   25.6652 C   0  0  0  0  0  0  0  0  0  0  0  0
    7.2284   10.0707   26.2203 C   0  0  0  0  0  0  0  0  0  0  0  0
    7.6537   11.9283   24.7080 C   0  0  0  0  0  0  0  0  0  0  0  0
    7.7283   10.5613   25.0091 C   0  0  0  0  0  0  0  0  0  0  0  0
   13.7917   16.8924   23.9592 C   0  0  0  0  0  0  0  0  0  0  0  0
   13.8902   16.0013   22.9673 C   0  0  0  0  0  0  0  0  0  0  0  0
   13.3498   14.6233   23.1444 C   0  0  0  0  0  0  0  0  0  0  0  0
   10.5656   13.0516   23.3011 C   0  0  0  0  0  0  0  0  0  0  0  0
    8.0953   12.4771   23.3780 C   0  0  0  0  0  0  0  0  0  0  0  0
    9.7694   10.8079   22.6351 C   0  0  0  0  0  0  0  0  0  0  0  0
    9.5954    9.7508   23.7438 C   0  0  0  0  0  0  0  0  0  0  0  0
   10.5473    9.9667   24.9350 C   0  0  0  0  0  0  0  0  0  0  0  0
    9.9329    8.3775   23.1296 C   0  0  0  0  0  0  0  0  0  0  0  0
   10.6402   15.8620   21.6612 C   0  0  0  0  0  0  0  0  0  0  0  0
   11.7517   12.9092   22.3798 C   0  0  0  0  0  0  0  0  0  0  0  0
   11.8058   15.0664   21.1805 C   0  0  0  0  0  0  0  0  0  0  0  0
    9.4996   12.1715   23.0933 N   0  0  0  0  0  0  0  0  0  0  0  0
   12.3406   14.2073   22.2508 N   0  0  0  0  0  0  0  0  0  0  0  0
   13.7709   13.9152   24.0606 O   0  0  0  0  0  0  0  0  0  0  0  0
   10.5860   13.9183   24.1790 O   0  0  0  0  0  0  0  0  0  0  0  0
    8.2109    9.6263   24.1343 O   0  0  0  0  0  0  0  0  0  0  0  0
    6.2088   12.9924   27.6154 H   0  0  0  0  0  0  0  0  0  0  0  0
    6.3124   10.5639   28.1051 H   0  0  0  0  0  0  0  0  0  0  0  0
    7.0293   13.8611   25.4638 H   0  0  0  0  0  0  0  0  0  0  0  0
    7.2657    9.0065   26.4388 H   0  0  0  0  0  0  0  0  0  0  0  0
   14.1702   17.9051   23.8751 H   0  0  0  0  0  0  0  0  0  0  0  0
   13.3126   16.6144   24.8923 H   0  0  0  0  0  0  0  0  0  0  0  0
   14.3292   16.2970   22.0225 H   0  0  0  0  0  0  0  0  0  0  0  0
    7.4728   12.0503   22.5818 H   0  0  0  0  0  0  0  0  0  0  0  0
    7.9315   13.5574   23.3364 H   0  0  0  0  0  0  0  0  0  0  0  0
   10.7863   10.7559   22.2295 H   0  0  0  0  0  0  0  0  0  0  0  0
    9.0821   10.6094   21.8033 H   0  0  0  0  0  0  0  0  0  0  0  0
   10.3736    9.1929   25.6748 H   0  0  0  0  0  0  0  0  0  0  0  0
   10.3564   10.9408   25.3717 H   0  0  0  0  0  0  0  0  0  0  0  0
   11.5727    9.9161   24.5853 H   0  0  0  0  0  0  0  0  0  0  0  0
    9.8189    7.6120   23.8885 H   0  0  0  0  0  0  0  0  0  0  0  0
   10.9558    8.3912   22.7714 H   0  0  0  0  0  0  0  0  0  0  0  0
    9.2568    8.1821   22.3052 H   0  0  0  0  0  0  0  0  0  0  0  0
   10.9515   16.4971   22.5037 H   0  0  0  0  0  0  0  0  0  0  0  0
   10.2664   16.4954   20.8433 H   0  0  0  0  0  0  0  0  0  0  0  0
    9.8423   15.1805   21.9912 H   0  0  0  0  0  0  0  0  0  0  0  0
   11.3945   12.5415   21.4227 H   0  0  0  0  0  0  0  0  0  0  0  0
   12.4455   12.2042   22.8277 H   0  0  0  0  0  0  0  0  0  0  0  0
   11.4865   14.4345   20.3387 H   0  0  0  0  0  0  0  0  0  0  0  0
   12.5956   15.7541   20.8438 H   0  0  0  0  0  0  0  0  0  0  0  0
  1  2  1  0  0  0  0
  1  3  2  0  0  0  0
  2  4  2  0  0  0  0
  3  5  1  0  0  0  0
  4  6  1  0  0  0  0
  5  6  2  0  0  0  0
  5 11  1  0  0  0  0
  6 23  1  0  0  0  0
  7  8  2  0  0  0  0
  8  9  1  0  0  0  0
  9 20  1  0  0  0  0
  9 21  2  0  0  0  0
 10 17  1  0  0  0  0
 10 19  1  0  0  0  0
 10 22  2  0  0  0  0
 11 19  1  0  0  0  0
 12 13  1  0  0  0  0
 12 19  1  0  0  0  0
 13 14  1  0  0  0  0
 13 15  1  0  0  0  0
 13 23  1  0  0  0  0
 16 18  1  0  0  0  0
 17 20  1  0  0  0  0
 18 20  1  0  0  0  0
  1 24  1  0  0  0  0
  2 25  1  0  0  0  0
  3 26  1  0  0  0  0
  4 27  1  0  0  0  0
  7 28  1  0  0  0  0
  7 29  1  0  0  0  0
  8 30  1  0  0  0  0
 11 31  1  0  0  0  0
 11 32  1  0  0  0  0
 12 33  1  0  0  0  0
 12 34  1  0  0  0  0
 14 35  1  0  0  0  0
 14 36  1  0  0  0  0
 14 37  1  0  0  0  0
 15 38  1  0  0  0  0
 15 39  1  0  0  0  0
 15 40  1  0  0  0  0
 16 41  1  0  0  0  0
 16 42  1  0  0  0  0
 16 43  1  0  0  0  0
 17 44  1  0  0  0  0
 17 45  1  0  0  0  0
 18 46  1  0  0  0  0
 18 47  1  0  0  0  0
M  END
> <Catalog ID>
Z2908861233

> <MW>
316.395

> <MW (desalted)>
316.395

> <ClogP>
2.733

> <logS>
-3.756

> <HBD>
0

> <HBA>
3

> <TPSA>
49.85

> <RotBonds>
4

> <ROCS_ShapeQuery>
A71EV2A-x0451_0A_A71EV2A-x0310_0A_A71EV2A-x0416_0A_peptide

> <ROCS_TanimotoCombo>
0.525 

> <ROCS_ShapeTanimoto>
0.351 

> <ROCS_ColorTanimoto>
0.174 

> <ROCS_RefTversky>
0.310 

> <ROCS_RefColorTversky>
0.188 

> <ROCS_RefTverskyCombo>
0.498 

> <ROCS_FitTversky>
1.618 

> <ROCS_FitColorTversky>
0.695 

> <ROCS_FitTverskyCombo>
2.314 

> <ROCS_ColorScore>
-5.728

> <ROCS_Overlap>
2150.655

> <ROCS_Rank>
301                 

$$$$
untitled-dbase-4889_9526
  -OEChem-11132309573D

 43 44  0     0  0  0  0  0  0999 V2000
    4.9402   11.6073   26.6413 B   0  0  0  0  0  0  0  0  0  0  0  0
   14.4379   16.2937   19.8770 C   0  0  0  0  0  0  0  0  0  0  0  0
   13.6498   16.8331   20.8936 C   0  0  0  0  0  0  0  0  0  0  0  0
   13.9967   15.1738   19.1721 C   0  0  0  0  0  0  0  0  0  0  0  0
   12.4205   16.2525   21.2055 C   0  0  0  0  0  0  0  0  0  0  0  0
   12.7673   14.5932   19.4841 C   0  0  0  0  0  0  0  0  0  0  0  0
    6.7698   10.4406   25.3332 C   0  0  0  0  0  0  0  0  0  0  0  0
    8.2315   12.7779   24.9055 C   0  0  0  0  0  0  0  0  0  0  0  0
    6.3064   11.6552   25.8385 C   0  0  0  0  0  0  0  0  0  0  0  0
    7.0371   12.8239   25.6246 C   0  0  0  0  0  0  0  0  0  0  0  0
   11.9792   15.1326   20.5007 C   0  0  0  0  0  0  0  0  0  0  0  0
    7.9642   10.3945   24.6141 C   0  0  0  0  0  0  0  0  0  0  0  0
    8.6950   11.5632   24.4002 C   0  0  0  0  0  0  0  0  0  0  0  0
    6.6098   14.1282   26.1258 C   0  0  0  0  0  0  0  0  0  0  0  0
   10.6822   13.7449   23.2056 C   0  0  0  0  0  0  0  0  0  0  0  0
    7.9772    8.8390   22.8152 C   0  0  0  0  0  0  0  0  0  0  0  0
   10.6562   14.5070   20.8361 C   0  0  0  0  0  0  0  0  0  0  0  0
   10.8547   12.4880   24.0315 C   0  0  0  0  0  0  0  0  0  0  0  0
   10.7831   13.4835   21.8481 N   0  0  0  0  0  0  0  0  0  0  0  0
    5.4265   14.4297   26.2769 O   0  0  0  0  0  0  0  0  0  0  0  0
   10.4783   14.8467   23.7080 O   0  0  0  0  0  0  0  0  0  0  0  0
    3.7926   11.1655   26.0272 O   0  0  0  0  0  0  0  0  0  0  0  0
    4.8964   12.0072   27.9556 O   0  0  0  0  0  0  0  0  0  0  0  0
    8.4074    9.2025   24.1255 O   0  0  0  0  0  0  0  0  0  0  0  0
    9.8738   11.5306   23.6933 O   0  0  0  0  0  0  0  0  0  0  0  0
   15.3945   16.7467   19.6333 H   0  0  0  0  0  0  0  0  0  0  0  0
   13.9928   17.7058   21.4417 H   0  0  0  0  0  0  0  0  0  0  0  0
   14.6095   14.7542   18.3798 H   0  0  0  0  0  0  0  0  0  0  0  0
   11.8132   16.6795   21.9993 H   0  0  0  0  0  0  0  0  0  0  0  0
   12.4317   13.7207   18.9297 H   0  0  0  0  0  0  0  0  0  0  0  0
    6.2199    9.5124   25.4850 H   0  0  0  0  0  0  0  0  0  0  0  0
    8.8069   13.6849   24.7347 H   0  0  0  0  0  0  0  0  0  0  0  0
    7.4058   14.8595   26.3727 H   0  0  0  0  0  0  0  0  0  0  0  0
    8.4016    7.8682   22.5478 H   0  0  0  0  0  0  0  0  0  0  0  0
    8.3010    9.5996   22.1004 H   0  0  0  0  0  0  0  0  0  0  0  0
    6.8867    8.7727   22.8047 H   0  0  0  0  0  0  0  0  0  0  0  0
    9.9548   15.2625   21.2066 H   0  0  0  0  0  0  0  0  0  0  0  0
   10.2028   14.0484   19.9511 H   0  0  0  0  0  0  0  0  0  0  0  0
   11.8416   12.0587   23.8335 H   0  0  0  0  0  0  0  0  0  0  0  0
   10.7750   12.7247   25.0970 H   0  0  0  0  0  0  0  0  0  0  0  0
   10.9542   12.5273   21.5507 H   0  0  0  0  0  0  0  0  0  0  0  0
    3.9255   10.9058   25.1004 H   0  0  0  0  0  0  0  0  0  0  0  0
    5.7562   12.3018   28.2988 H   0  0  0  0  0  0  0  0  0  0  0  0
  1  9  1  0  0  0  0
  1 22  1  0  0  0  0
  1 23  1  0  0  0  0
  2  3  1  0  0  0  0
  2  4  2  0  0  0  0
  3  5  2  0  0  0  0
  4  6  1  0  0  0  0
  5 11  1  0  0  0  0
  6 11  2  0  0  0  0
  7  9  2  0  0  0  0
  7 12  1  0  0  0  0
  8 10  2  0  0  0  0
  8 13  1  0  0  0  0
  9 10  1  0  0  0  0
 10 14  1  0  0  0  0
 11 17  1  0  0  0  0
 12 13  2  0  0  0  0
 12 24  1  0  0  0  0
 13 25  1  0  0  0  0
 14 20  2  0  0  0  0
 15 18  1  0  0  0  0
 15 19  1  0  0  0  0
 15 21  2  0  0  0  0
 16 24  1  0  0  0  0
 17 19  1  0  0  0  0
 18 25  1  0  0  0  0
  2 26  1  0  0  0  0
  3 27  1  0  0  0  0
  4 28  1  0  0  0  0
  5 29  1  0  0  0  0
  6 30  1  0  0  0  0
  7 31  1  0  0  0  0
  8 32  1  0  0  0  0
 14 33  1  0  0  0  0
 16 34  1  0  0  0  0
 16 35  1  0  0  0  0
 16 36  1  0  0  0  0
 17 37  1  0  0  0  0
 17 38  1  0  0  0  0
 18 39  1  0  0  0  0
 18 40  1  0  0  0  0
 19 41  1  0  0  0  0
 22 42  1  0  0  0  0
 23 43  1  0  0  0  0
M  END
> <Catalog ID>
Z5250151315

> <MW>
343.139

> <MW (desalted)>
343.139

> <ClogP>
1.545

> <logS>
-2.336

> <HBD>
3

> <HBA>
6

> <TPSA>
105.09

> <RotBonds>
8

> <ROCS_ShapeQuery>
A71EV2A-x0451_0A_A71EV2A-x0310_0A_A71EV2A-x0416_0A_peptide

> <ROCS_TanimotoCombo>
0.525 

> <ROCS_ShapeTanimoto>
0.353 

> <ROCS_ColorTanimoto>
0.171 

> <ROCS_RefTversky>
0.314 

> <ROCS_RefColorTversky>
0.186 

> <ROCS_RefTverskyCombo>
0.500 

> <ROCS_FitTversky>
1.543 

> <ROCS_FitColorTversky>
0.688 

> <ROCS_FitTverskyCombo>
2.231 

> <ROCS_ColorScore>
-5.664

> <ROCS_Overlap>
2184.644

> <ROCS_Rank>
302                 

$$$$
untitled-dbase-10328_13234
  -OEChem-11132309573D

 40 42  0     1  0  0  0  0  0999 V2000
   14.5323   16.3881   17.2452 B   0  0  0  0  0  0  0  0  0  0  0  0
    6.6425   12.1879   25.6541 C   0  0  0  0  0  0  0  0  0  0  0  0
   12.6786   15.1513   18.4499 C   0  0  0  0  0  0  0  0  0  0  0  0
    7.7864   12.7635   25.1041 C   0  0  0  0  0  0  0  0  0  0  0  0
   11.9403   14.7826   19.5744 C   0  0  0  0  0  0  0  0  0  0  0  0
   13.3547   16.1693   20.9578 C   0  0  0  0  0  0  0  0  0  0  0  0
    6.4166   10.8321   25.4576 C   0  0  0  0  0  0  0  0  0  0  0  0
   10.2359   10.8765   23.1600 C   0  0  0  0  0  0  0  0  0  0  0  0
   13.7550   16.0290   18.5793 C   0  0  0  0  0  0  0  0  0  0  0  0
    8.6533   11.9327   24.3760 C   0  0  0  0  0  0  0  0  0  0  0  0
   14.0930   16.5380   19.8332 C   0  0  0  0  0  0  0  0  0  0  0  0
    9.8779   12.1027   23.6775 C   0  0  0  0  0  0  0  0  0  0  0  0
   12.2783   15.2916   20.8283 C   0  0  0  0  0  0  0  0  0  0  0  0
    8.3045   10.5905   24.2570 C   0  0  0  0  0  0  0  0  0  0  0  0
   15.2064   17.4616   20.0389 C   0  0  0  0  0  0  0  0  0  0  0  0
   10.6443   13.3042   23.5098 C   0  0  0  0  0  0  0  0  0  0  0  0
   12.9533   13.0963   22.4921 C   0  0  0  0  0  0  0  0  0  0  0  0
   11.5206   13.5410   22.2486 C   0  0  2  0  0  0  0  0  0  0  0  0
    7.2150    9.9854   24.7668 N   0  0  0  0  0  0  0  0  0  0  0  0
    9.2745    9.9670   23.5172 N   0  0  0  0  0  0  0  0  0  0  0  0
   16.3704   17.1755   19.7614 O   0  0  0  0  0  0  0  0  0  0  0  0
   10.6274   14.2115   24.3818 O   0  0  0  0  0  0  0  0  0  0  0  0
   14.5996   15.4775   16.2178 O   0  0  0  0  0  0  0  0  0  0  0  0
   15.1429   17.6120   17.1091 O   0  0  0  0  0  0  0  0  0  0  0  0
   11.5540   14.9284   21.9327 O   0  0  0  0  0  0  0  0  0  0  0  0
    5.9422   12.7883   26.2247 H   0  0  0  0  0  0  0  0  0  0  0  0
   12.3874   14.7348   17.4872 H   0  0  0  0  0  0  0  0  0  0  0  0
    7.9924   13.8204   25.2387 H   0  0  0  0  0  0  0  0  0  0  0  0
   11.1028   14.0981   19.4674 H   0  0  0  0  0  0  0  0  0  0  0  0
   13.6124   16.5622   21.9388 H   0  0  0  0  0  0  0  0  0  0  0  0
    5.5299   10.3666   25.8798 H   0  0  0  0  0  0  0  0  0  0  0  0
   11.0873   10.5670   22.5694 H   0  0  0  0  0  0  0  0  0  0  0  0
   14.9648   18.4563   20.4649 H   0  0  0  0  0  0  0  0  0  0  0  0
   13.4044   13.6047   23.3488 H   0  0  0  0  0  0  0  0  0  0  0  0
   12.9944   12.0162   22.6691 H   0  0  0  0  0  0  0  0  0  0  0  0
   13.5781   13.2965   21.6138 H   0  0  0  0  0  0  0  0  0  0  0  0
   11.0795   13.0270   21.3905 H   0  0  0  0  0  0  0  0  0  0  0  0
    9.2797    8.9864   23.2732 H   0  0  0  0  0  0  0  0  0  0  0  0
   14.1383   14.6440   16.4091 H   0  0  0  0  0  0  0  0  0  0  0  0
   15.0393   18.1842   17.8874 H   0  0  0  0  0  0  0  0  0  0  0  0
  1  9  1  0  0  0  0
  1 23  1  0  0  0  0
  1 24  1  0  0  0  0
  2  4  2  0  0  0  0
  2  7  1  0  0  0  0
  3  5  2  0  0  0  0
  3  9  1  0  0  0  0
  4 10  1  0  0  0  0
  5 13  1  0  0  0  0
  6 11  1  0  0  0  0
  6 13  2  0  0  0  0
  7 19  2  0  0  0  0
  8 12  2  0  0  0  0
  8 20  1  0  0  0  0
  9 11  2  0  0  0  0
 10 12  1  0  0  0  0
 10 14  2  0  0  0  0
 11 15  1  0  0  0  0
 12 16  1  0  0  0  0
 13 25  1  0  0  0  0
 14 19  1  0  0  0  0
 14 20  1  0  0  0  0
 15 21  2  0  0  0  0
 16 18  1  0  0  0  0
 16 22  2  0  0  0  0
 17 18  1  0  0  0  0
 18 25  1  0  0  0  0
  2 26  1  0  0  0  0
  3 27  1  0  0  0  0
  4 28  1  0  0  0  0
  5 29  1  0  0  0  0
  6 30  1  0  0  0  0
  7 31  1  0  0  0  0
  8 32  1  0  0  0  0
 15 33  1  0  0  0  0
 17 34  1  0  0  0  0
 17 35  1  0  0  0  0
 17 36  1  0  0  0  0
 18 37  1  0  0  0  0
 20 38  1  0  0  0  0
 23 39  1  0  0  0  0
 24 40  1  0  0  0  0
M  END
> <Catalog ID>
Z7245257501

> <MW>
452.146

> <MW (desalted)>
338.122

> <ClogP>
1.891

> <logS>
-4.346

> <HBD>
3

> <HBA>
6

> <TPSA>
112.51

> <RotBonds>
7

> <ROCS_ShapeQuery>
A71EV2A-x0451_0A_A71EV2A-x0310_0A_A71EV2A-x0416_0A_peptide

> <ROCS_TanimotoCombo>
0.525 

> <ROCS_ShapeTanimoto>
0.345 

> <ROCS_ColorTanimoto>
0.179 

> <ROCS_RefTversky>
0.310 

> <ROCS_RefColorTversky>
0.198 

> <ROCS_RefTverskyCombo>
0.508 

> <ROCS_FitTversky>
1.491 

> <ROCS_FitColorTversky>
0.657 

> <ROCS_FitTverskyCombo>
2.147 

> <ROCS_ColorScore>
-6.045

> <ROCS_Overlap>
2155.412

> <ROCS_Rank>
303                 

$$$$
untitled-dbase-6853_81
  -OEChem-11132309573D

 59 62  0     1  0  0  0  0  0999 V2000
   10.2577   13.4574   23.3662 C   0  0  0  0  0  0  0  0  0  0  0  0
   14.1696   12.1220   28.3488 C   0  0  0  0  0  0  0  0  0  0  0  0
   13.6947   12.0275   27.1050 C   0  0  0  0  0  0  0  0  0  0  0  0
   14.5523   12.4540   25.9790 C   0  0  0  0  0  0  0  0  0  0  0  0
   14.8205   11.7075   22.4342 C   0  0  0  0  0  0  0  0  0  0  0  0
    8.7303    9.3819   24.2366 C   0  0  0  0  0  0  0  0  0  0  0  0
    7.5256   11.3790   25.1405 C   0  0  0  0  0  0  0  0  0  0  0  0
    8.4734    9.9410   22.8344 C   0  0  0  0  0  0  0  0  0  0  0  0
    7.4248   11.9958   23.7399 C   0  0  0  0  0  0  0  0  0  0  0  0
   13.4229   11.1685   22.1140 C   0  0  0  0  0  0  0  0  0  0  0  0
   10.0093   11.4301   24.9275 C   0  0  0  0  0  0  0  0  0  0  0  0
   14.8361   12.7505   23.5476 C   0  0  0  0  0  0  0  0  0  0  0  0
   12.6561   11.8797   24.4007 C   0  0  0  0  0  0  0  0  0  0  0  0
    8.8008   10.5290   25.2525 C   0  0  0  0  0  0  0  0  0  0  0  0
    8.5822   11.4876   22.8482 C   0  0  0  0  0  0  0  0  0  0  0  0
   12.3250   11.8834   22.9051 C   0  0  2  0  0  0  0  0  0  0  0  0
    9.9673   11.9456   23.4465 C   0  0  1  0  0  0  0  0  0  0  0  0
   11.3065   13.8634   19.9829 C   0  0  0  0  0  0  0  0  0  0  0  0
    8.8344   14.3510   20.2218 C   0  0  0  0  0  0  0  0  0  0  0  0
   10.0622   13.6961   20.8573 C   0  0  0  0  0  0  0  0  0  0  0  0
   10.5162   14.2816   24.3553 N   0  0  0  0  0  0  0  0  0  0  0  0
   10.7025   15.5146   23.7722 N   0  0  0  0  0  0  0  0  0  0  0  0
   10.5616   15.4451   22.4541 N   0  0  0  0  0  0  0  0  0  0  0  0
   10.2835   14.1582   22.2028 N   0  0  0  0  0  0  0  0  0  0  0  0
   14.0226   12.3409   24.6932 N   0  0  0  0  0  0  0  0  0  0  0  0
   11.0253   11.2515   22.6800 N   0  0  0  0  0  0  0  0  0  0  0  0
   15.6772   12.8808   26.2425 O   0  0  0  0  0  0  0  0  0  0  0  0
   13.5881   11.8251   29.2151 H   0  0  0  0  0  0  0  0  0  0  0  0
   15.1693   12.5063   28.5219 H   0  0  0  0  0  0  0  0  0  0  0  0
   12.7034   11.6492   26.8922 H   0  0  0  0  0  0  0  0  0  0  0  0
   15.4793   10.8659   22.7088 H   0  0  0  0  0  0  0  0  0  0  0  0
   15.2567   12.1458   21.5187 H   0  0  0  0  0  0  0  0  0  0  0  0
    7.9323    8.6800   24.5061 H   0  0  0  0  0  0  0  0  0  0  0  0
    9.6671    8.8119   24.2471 H   0  0  0  0  0  0  0  0  0  0  0  0
    7.5304   12.1746   25.8951 H   0  0  0  0  0  0  0  0  0  0  0  0
    6.6412   10.7622   25.3411 H   0  0  0  0  0  0  0  0  0  0  0  0
    9.1754    9.5011   22.1173 H   0  0  0  0  0  0  0  0  0  0  0  0
    7.4732    9.6431   22.4953 H   0  0  0  0  0  0  0  0  0  0  0  0
    6.4603   11.7269   23.2915 H   0  0  0  0  0  0  0  0  0  0  0  0
    7.4299   13.0895   23.8087 H   0  0  0  0  0  0  0  0  0  0  0  0
   13.2390   11.2653   21.0293 H   0  0  0  0  0  0  0  0  0  0  0  0
   13.4029   10.0840   22.3283 H   0  0  0  0  0  0  0  0  0  0  0  0
   10.0394   12.2682   25.6371 H   0  0  0  0  0  0  0  0  0  0  0  0
   10.9316   10.8617   25.1103 H   0  0  0  0  0  0  0  0  0  0  0  0
   15.8608   12.8994   23.9156 H   0  0  0  0  0  0  0  0  0  0  0  0
   14.5013   13.7018   23.1245 H   0  0  0  0  0  0  0  0  0  0  0  0
   11.9213   12.4905   24.9516 H   0  0  0  0  0  0  0  0  0  0  0  0
   12.5763   10.8598   24.8172 H   0  0  0  0  0  0  0  0  0  0  0  0
    8.8971   10.1278   26.2673 H   0  0  0  0  0  0  0  0  0  0  0  0
    8.4531   11.8756   21.8298 H   0  0  0  0  0  0  0  0  0  0  0  0
   12.2586   12.9290   22.5637 H   0  0  0  0  0  0  0  0  0  0  0  0
   11.5827   14.9163   19.8623 H   0  0  0  0  0  0  0  0  0  0  0  0
   11.1333   13.4482   18.9843 H   0  0  0  0  0  0  0  0  0  0  0  0
   12.1645   13.3414   20.4209 H   0  0  0  0  0  0  0  0  0  0  0  0
    8.9756   15.4330   20.1241 H   0  0  0  0  0  0  0  0  0  0  0  0
    7.9456   14.1815   20.8389 H   0  0  0  0  0  0  0  0  0  0  0  0
    8.6280   13.9502   19.2236 H   0  0  0  0  0  0  0  0  0  0  0  0
    9.8567   12.6201   20.9259 H   0  0  0  0  0  0  0  0  0  0  0  0
   11.0627   10.2799   22.9785 H   0  0  0  0  0  0  0  0  0  0  0  0
  1 17  1  0  0  0  0
  1 21  2  0  0  0  0
  1 24  1  0  0  0  0
  2  3  2  0  0  0  0
  3  4  1  0  0  0  0
  4 25  1  0  0  0  0
  4 27  2  0  0  0  0
  5 10  1  0  0  0  0
  5 12  1  0  0  0  0
  6  8  1  0  0  0  0
  6 14  1  0  0  0  0
  7  9  1  0  0  0  0
  7 14  1  0  0  0  0
  8 15  1  0  0  0  0
  9 15  1  0  0  0  0
 10 16  1  0  0  0  0
 11 14  1  0  0  0  0
 11 17  1  0  0  0  0
 12 25  1  0  0  0  0
 13 16  1  0  0  0  0
 13 25  1  0  0  0  0
 15 17  1  0  0  0  0
 16 26  1  0  0  0  0
 17 26  1  0  0  0  0
 18 20  1  0  0  0  0
 19 20  1  0  0  0  0
 20 24  1  0  0  0  0
 21 22  1  0  0  0  0
 22 23  2  0  0  0  0
 23 24  1  0  0  0  0
  2 28  1  0  0  0  0
  2 29  1  0  0  0  0
  3 30  1  0  0  0  0
  5 31  1  0  0  0  0
  5 32  1  0  0  0  0
  6 33  1  0  0  0  0
  6 34  1  0  0  0  0
  7 35  1  0  0  0  0
  7 36  1  0  0  0  0
  8 37  1  0  0  0  0
  8 38  1  0  0  0  0
  9 39  1  0  0  0  0
  9 40  1  0  0  0  0
 10 41  1  0  0  0  0
 10 42  1  0  0  0  0
 11 43  1  0  0  0  0
 11 44  1  0  0  0  0
 12 45  1  0  0  0  0
 12 46  1  0  0  0  0
 13 47  1  0  0  0  0
 13 48  1  0  0  0  0
 14 49  1  0  0  0  0
 15 50  1  0  0  0  0
 16 51  1  0  0  0  0
 18 52  1  0  0  0  0
 18 53  1  0  0  0  0
 18 54  1  0  0  0  0
 19 55  1  0  0  0  0
 19 56  1  0  0  0  0
 19 57  1  0  0  0  0
 20 58  1  0  0  0  0
 26 59  1  0  0  0  0
M  END
> <Catalog ID>
Z7888546283

> <MW>
372.508

> <MW (desalted)>
372.508

> <ClogP>
2.724

> <logS>
-3.149

> <HBD>
1

> <HBA>
5

> <TPSA>
75.94

> <RotBonds>
5

> <ROCS_ShapeQuery>
A71EV2A-x0451_0A_A71EV2A-x0310_0A_A71EV2A-x0416_0A_peptide

> <ROCS_TanimotoCombo>
0.525 

> <ROCS_ShapeTanimoto>
0.315 

> <ROCS_ColorTanimoto>
0.210 

> <ROCS_RefTversky>
0.292 

> <ROCS_RefColorTversky>
0.271 

> <ROCS_RefTverskyCombo>
0.562 

> <ROCS_FitTversky>
1.338 

> <ROCS_FitColorTversky>
0.482 

> <ROCS_FitTverskyCombo>
1.820 

> <ROCS_ColorScore>
-8.379

> <ROCS_Overlap>
2029.688

> <ROCS_Rank>
304                 

$$$$
untitled-dbase-4347_1143
  -OEChem-11132309573D

 51 54  0     1  0  0  0  0  0999 V2000
    5.2412   11.3510   25.8287 C   0  0  0  0  0  0  0  0  0  0  0  0
    5.9184   10.2496   26.3739 C   0  0  0  0  0  0  0  0  0  0  0  0
   11.9301   14.2210   19.2179 C   0  0  0  0  0  0  0  0  0  0  0  0
   11.7855   15.6079   19.2527 C   0  0  0  0  0  0  0  0  0  0  0  0
    5.8580   12.1648   24.8771 C   0  0  0  0  0  0  0  0  0  0  0  0
    7.2218    9.9446   25.9741 C   0  0  0  0  0  0  0  0  0  0  0  0
   12.1110   13.5086   20.4035 C   0  0  0  0  0  0  0  0  0  0  0  0
   11.8219   16.2824   20.4731 C   0  0  0  0  0  0  0  0  0  0  0  0
    7.1456   11.8477   24.4767 C   0  0  0  0  0  0  0  0  0  0  0  0
    7.8239   10.7447   25.0152 C   0  0  0  0  0  0  0  0  0  0  0  0
   12.1474   14.1832   21.6238 C   0  0  0  0  0  0  0  0  0  0  0  0
   12.0029   15.5701   21.6587 C   0  0  0  0  0  0  0  0  0  0  0  0
   11.0871   12.9363   23.5314 C   0  0  0  0  0  0  0  0  0  0  0  0
    8.9664    8.4918   23.2800 C   0  0  0  0  0  0  0  0  0  0  0  0
    8.0134   12.5955   23.5110 C   0  0  0  0  0  0  0  0  0  0  0  0
   13.4885   13.7808   23.7877 C   0  0  0  0  0  0  0  0  0  0  0  0
   13.5536   12.5151   22.9959 C   0  0  0  0  0  0  0  0  0  0  0  0
    9.2164   10.6599   24.4564 C   0  0  2  0  0  0  0  0  0  0  0  0
    9.0698   11.5250   23.1847 C   0  0  2  0  0  0  0  0  0  0  0  0
   12.3399   13.4115   22.8734 C   0  0  0  0  0  0  0  0  0  0  0  0
   10.7926   16.4345   23.5144 C   0  0  0  0  0  0  0  0  0  0  0  0
    9.6197    7.1451   23.1020 C   0  0  0  0  0  0  0  0  0  0  0  0
   10.3126   12.0966   22.7458 N   0  0  0  0  0  0  0  0  0  0  0  0
    9.6523    9.3244   24.1553 N   0  0  0  0  0  0  0  0  0  0  0  0
   10.8300   13.2980   24.6737 O   0  0  0  0  0  0  0  0  0  0  0  0
    7.9367    8.7976   22.6811 O   0  0  0  0  0  0  0  0  0  0  0  0
   12.0355   16.2467   22.8409 O   0  0  0  0  0  0  0  0  0  0  0  0
   10.7597    7.2670   21.7527 Cl  0  0  0  0  0  0  0  0  0  0  0  0
    4.2303   11.5763   26.1577 H   0  0  0  0  0  0  0  0  0  0  0  0
    5.4258    9.6328   27.1207 H   0  0  0  0  0  0  0  0  0  0  0  0
   11.9016   13.6958   18.2676 H   0  0  0  0  0  0  0  0  0  0  0  0
   11.6447   16.1624   18.3296 H   0  0  0  0  0  0  0  0  0  0  0  0
    5.3385   13.0245   24.4675 H   0  0  0  0  0  0  0  0  0  0  0  0
    7.7447    9.1010   26.4119 H   0  0  0  0  0  0  0  0  0  0  0  0
   12.2229   12.4279   20.3655 H   0  0  0  0  0  0  0  0  0  0  0  0
   11.7081   17.3631   20.4936 H   0  0  0  0  0  0  0  0  0  0  0  0
    7.4668   12.9055   22.6155 H   0  0  0  0  0  0  0  0  0  0  0  0
    8.4493   13.4689   24.0083 H   0  0  0  0  0  0  0  0  0  0  0  0
   13.3556   13.6967   24.8603 H   0  0  0  0  0  0  0  0  0  0  0  0
   14.1410   14.5940   23.4907 H   0  0  0  0  0  0  0  0  0  0  0  0
   14.2503   12.4764   22.1663 H   0  0  0  0  0  0  0  0  0  0  0  0
   13.4643   11.5791   23.5355 H   0  0  0  0  0  0  0  0  0  0  0  0
    9.9221   11.1045   25.1676 H   0  0  0  0  0  0  0  0  0  0  0  0
    8.6965   10.9127   22.3512 H   0  0  0  0  0  0  0  0  0  0  0  0
   10.9598   16.9875   24.4419 H   0  0  0  0  0  0  0  0  0  0  0  0
   10.3452   15.4616   23.7333 H   0  0  0  0  0  0  0  0  0  0  0  0
   10.1210   17.0051   22.8687 H   0  0  0  0  0  0  0  0  0  0  0  0
   10.1643    6.8216   23.9924 H   0  0  0  0  0  0  0  0  0  0  0  0
    8.8566    6.4003   22.8599 H   0  0  0  0  0  0  0  0  0  0  0  0
   10.6423   11.8730   21.8073 H   0  0  0  0  0  0  0  0  0  0  0  0
   10.4990    8.9737   24.6021 H   0  0  0  0  0  0  0  0  0  0  0  0
  1  2  1  0  0  0  0
  1  5  2  0  0  0  0
  2  6  2  0  0  0  0
  3  4  1  0  0  0  0
  3  7  2  0  0  0  0
  4  8  2  0  0  0  0
  5  9  1  0  0  0  0
  6 10  1  0  0  0  0
  7 11  1  0  0  0  0
  8 12  1  0  0  0  0
  9 10  2  0  0  0  0
  9 15  1  0  0  0  0
 10 18  1  0  0  0  0
 11 12  2  0  0  0  0
 11 20  1  0  0  0  0
 12 27  1  0  0  0  0
 13 20  1  0  0  0  0
 13 23  1  0  0  0  0
 13 25  2  0  0  0  0
 14 22  1  0  0  0  0
 14 24  1  0  0  0  0
 14 26  2  0  0  0  0
 15 19  1  0  0  0  0
 16 17  1  0  0  0  0
 16 20  1  0  0  0  0
 17 20  1  0  0  0  0
 18 19  1  0  0  0  0
 18 24  1  1  0  0  0
 19 23  1  6  0  0  0
 21 27  1  0  0  0  0
 22 28  1  0  0  0  0
  1 29  1  0  0  0  0
  2 30  1  0  0  0  0
  3 31  1  0  0  0  0
  4 32  1  0  0  0  0
  5 33  1  0  0  0  0
  6 34  1  0  0  0  0
  7 35  1  0  0  0  0
  8 36  1  0  0  0  0
 15 37  1  0  0  0  0
 15 38  1  0  0  0  0
 16 39  1  0  0  0  0
 16 40  1  0  0  0  0
 17 41  1  0  0  0  0
 17 42  1  0  0  0  0
 18 43  1  0  0  0  0
 19 44  1  0  0  0  0
 21 45  1  0  0  0  0
 21 46  1  0  0  0  0
 21 47  1  0  0  0  0
 22 48  1  0  0  0  0
 22 49  1  0  0  0  0
 23 50  1  0  0  0  0
 24 51  1  0  0  0  0
M  END
> <Catalog ID>
Z4439378650

> <MW>
398.883

> <MW (desalted)>
398.883

> <ClogP>
2.995

> <logS>
-4.648

> <HBD>
2

> <HBA>
3

> <TPSA>
67.43

> <RotBonds>
6

> <ROCS_ShapeQuery>
A71EV2A-x0451_0A_A71EV2A-x0310_0A_A71EV2A-x0416_0A_peptide

> <ROCS_TanimotoCombo>
0.525 

> <ROCS_ShapeTanimoto>
0.362 

> <ROCS_ColorTanimoto>
0.163 

> <ROCS_RefTversky>
0.325 

> <ROCS_RefColorTversky>
0.182 

> <ROCS_RefTverskyCombo>
0.507 

> <ROCS_FitTversky>
1.451 

> <ROCS_FitColorTversky>
0.604 

> <ROCS_FitTverskyCombo>
2.055 

> <ROCS_ColorScore>
-5.556

> <ROCS_Overlap>
2263.738

> <ROCS_Rank>
305                 

$$$$
untitled-dbase-7298_1930
  -OEChem-11132309573D

 49 51  0     1  0  0  0  0  0999 V2000
    7.1927    9.9053   25.1177 C   0  0  0  0  0  0  0  0  0  0  0  0
   13.5892   12.4831   23.9429 C   0  0  0  0  0  0  0  0  0  0  0  0
   11.9255   13.0894   25.5865 C   0  0  0  0  0  0  0  0  0  0  0  0
   14.3764   11.9201   24.9474 C   0  0  0  0  0  0  0  0  0  0  0  0
   12.7127   12.5265   26.5910 C   0  0  0  0  0  0  0  0  0  0  0  0
    6.3169   10.6541   25.8982 C   0  0  0  0  0  0  0  0  0  0  0  0
    7.4934   12.6986   25.2946 C   0  0  0  0  0  0  0  0  0  0  0  0
    8.2047   10.5655   24.4295 C   0  0  0  0  0  0  0  0  0  0  0  0
   12.3638   13.0678   24.2624 C   0  0  0  0  0  0  0  0  0  0  0  0
    8.3692   11.9545   24.5169 C   0  0  0  0  0  0  0  0  0  0  0  0
   13.9382   11.9418   26.2714 C   0  0  0  0  0  0  0  0  0  0  0  0
    6.4663   12.0417   25.9840 C   0  0  0  0  0  0  0  0  0  0  0  0
   15.5875   10.6606   30.6806 C   0  0  0  0  0  0  0  0  0  0  0  0
   15.7678   10.9012   29.3781 C   0  0  0  0  0  0  0  0  0  0  0  0
   14.8052   11.7557   28.6240 C   0  0  0  0  0  0  0  0  0  0  0  0
   10.0527   13.5904   23.5024 C   0  0  0  0  0  0  0  0  0  0  0  0
   10.0223   11.1597   23.0594 C   0  0  0  0  0  0  0  0  0  0  0  0
    9.2512    9.9312   23.5599 C   0  0  2  0  0  0  0  0  0  0  0  0
    8.6763    9.1062   22.4164 C   0  0  0  0  0  0  0  0  0  0  0  0
   11.5181   13.6727   23.1830 C   0  0  0  0  0  0  0  0  0  0  0  0
    9.4726   12.3530   23.7298 N   0  0  0  0  0  0  0  0  0  0  0  0
    6.1724   12.9501   28.4745 N   0  0  0  0  0  0  0  0  0  0  0  0
   14.7252   11.3786   27.2763 N   0  0  0  0  0  0  0  0  0  0  0  0
   14.1918   12.6614   29.1762 O   0  0  0  0  0  0  0  0  0  0  0  0
    9.4031   14.6426   23.5476 O   0  0  0  0  0  0  0  0  0  0  0  0
    5.3334   14.3343   26.4682 O   0  0  0  0  0  0  0  0  0  0  0  0
    4.1190   12.2195   27.1010 O   0  0  0  0  0  0  0  0  0  0  0  0
    5.3603   12.9688   26.9717 S   0  0  0  0  0  0  0  0  0  0  0  0
    7.0833    8.8272   25.0493 H   0  0  0  0  0  0  0  0  0  0  0  0
   13.9396   12.4637   22.9142 H   0  0  0  0  0  0  0  0  0  0  0  0
   10.9724   13.5436   25.8445 H   0  0  0  0  0  0  0  0  0  0  0  0
   15.3296   11.4668   24.6868 H   0  0  0  0  0  0  0  0  0  0  0  0
   12.3620   12.5498   27.6197 H   0  0  0  0  0  0  0  0  0  0  0  0
    5.5195   10.1508   26.4365 H   0  0  0  0  0  0  0  0  0  0  0  0
    7.5851   13.7780   25.3897 H   0  0  0  0  0  0  0  0  0  0  0  0
   16.2656   10.0450   31.2610 H   0  0  0  0  0  0  0  0  0  0  0  0
   14.7350   11.0879   31.1981 H   0  0  0  0  0  0  0  0  0  0  0  0
   16.6199   10.4747   28.8601 H   0  0  0  0  0  0  0  0  0  0  0  0
   11.0869   11.0862   23.3237 H   0  0  0  0  0  0  0  0  0  0  0  0
    9.9620   11.2909   21.9703 H   0  0  0  0  0  0  0  0  0  0  0  0
    9.9134    9.3075   24.1795 H   0  0  0  0  0  0  0  0  0  0  0  0
    8.0206    9.7245   21.8031 H   0  0  0  0  0  0  0  0  0  0  0  0
    8.1030    8.2680   22.8126 H   0  0  0  0  0  0  0  0  0  0  0  0
    9.4828    8.7198   21.7929 H   0  0  0  0  0  0  0  0  0  0  0  0
   11.7813   14.7212   23.0389 H   0  0  0  0  0  0  0  0  0  0  0  0
   11.6886   13.1731   22.2291 H   0  0  0  0  0  0  0  0  0  0  0  0
    6.6043   13.8237   28.7995 H   0  0  0  0  0  0  0  0  0  0  0  0
    5.7757   12.3773   29.2294 H   0  0  0  0  0  0  0  0  0  0  0  0
   15.3195   10.5898   26.9936 H   0  0  0  0  0  0  0  0  0  0  0  0
  1  6  2  0  0  0  0
  1  8  1  0  0  0  0
  2  4  2  0  0  0  0
  2  9  1  0  0  0  0
  3  5  1  0  0  0  0
  3  9  2  0  0  0  0
  4 11  1  0  0  0  0
  5 11  2  0  0  0  0
  6 12  1  0  0  0  0
  7 10  1  0  0  0  0
  7 12  2  0  0  0  0
  8 10  2  0  0  0  0
  8 18  1  0  0  0  0
  9 20  1  0  0  0  0
 10 21  1  0  0  0  0
 11 23  1  0  0  0  0
 12 28  1  0  0  0  0
 13 14  2  0  0  0  0
 14 15  1  0  0  0  0
 15 23  1  0  0  0  0
 15 24  2  0  0  0  0
 16 20  1  0  0  0  0
 16 21  1  0  0  0  0
 16 25  2  0  0  0  0
 17 18  1  0  0  0  0
 17 21  1  0  0  0  0
 18 19  1  0  0  0  0
 22 28  1  0  0  0  0
 26 28  2  0  0  0  0
 27 28  2  0  0  0  0
  1 29  1  0  0  0  0
  2 30  1  0  0  0  0
  3 31  1  0  0  0  0
  4 32  1  0  0  0  0
  5 33  1  0  0  0  0
  6 34  1  0  0  0  0
  7 35  1  0  0  0  0
 13 36  1  0  0  0  0
 13 37  1  0  0  0  0
 14 38  1  0  0  0  0
 17 39  1  0  0  0  0
 17 40  1  0  0  0  0
 18 41  1  0  0  0  0
 19 42  1  0  0  0  0
 19 43  1  0  0  0  0
 19 44  1  0  0  0  0
 20 45  1  0  0  0  0
 20 46  1  0  0  0  0
 22 47  1  0  0  0  0
 22 48  1  0  0  0  0
 23 49  1  0  0  0  0
M  END
> <Catalog ID>
Z4899546860

> <MW>
399.463

> <MW (desalted)>
399.463

> <ClogP>
1.086

> <logS>
-4.509

> <HBD>
2

> <HBA>
4

> <TPSA>
109.57

> <RotBonds>
5

> <ROCS_ShapeQuery>
A71EV2A-x0451_0A_A71EV2A-x0310_0A_A71EV2A-x0416_0A_peptide

> <ROCS_TanimotoCombo>
0.524 

> <ROCS_ShapeTanimoto>
0.365 

> <ROCS_ColorTanimoto>
0.159 

> <ROCS_RefTversky>
0.327 

> <ROCS_RefColorTversky>
0.187 

> <ROCS_RefTverskyCombo>
0.514 

> <ROCS_FitTversky>
1.474 

> <ROCS_FitColorTversky>
0.516 

> <ROCS_FitTverskyCombo>
1.990 

> <ROCS_ColorScore>
-5.731

> <ROCS_Overlap>
2274.498

> <ROCS_Rank>
306                 

$$$$
untitled-dbase-11138_4331
  -OEChem-11132309573D

 46 49  0     0  0  0  0  0  0999 V2000
   15.3053   11.2994   27.0932 C   0  0  0  0  0  0  0  0  0  0  0  0
   16.4865   12.0568   26.9798 C   0  0  0  0  0  0  0  0  0  0  0  0
    9.2701   10.4432   23.1588 C   0  0  0  0  0  0  0  0  0  0  0  0
   13.6413   15.7038   23.0856 C   0  0  0  0  0  0  0  0  0  0  0  0
   15.3701   14.9189   24.3602 C   0  0  0  0  0  0  0  0  0  0  0  0
   14.4120   11.9299   26.2620 C   0  0  0  0  0  0  0  0  0  0  0  0
    8.9879   11.8122   23.3438 C   0  0  0  0  0  0  0  0  0  0  0  0
   12.8382   14.6841   23.5469 C   0  0  0  0  0  0  0  0  0  0  0  0
    8.0366   11.8417   24.3391 C   0  0  0  0  0  0  0  0  0  0  0  0
   14.5669   13.8997   24.8222 C   0  0  0  0  0  0  0  0  0  0  0  0
    3.0581   12.9172   27.5114 C   0  0  0  0  0  0  0  0  0  0  0  0
    3.9280   12.4080   26.6365 C   0  0  0  0  0  0  0  0  0  0  0  0
   11.4283   14.5460   23.0995 C   0  0  0  0  0  0  0  0  0  0  0  0
    5.1345   13.1888   26.2930 C   0  0  0  0  0  0  0  0  0  0  0  0
    7.3139   12.9617   25.0003 C   0  0  0  0  0  0  0  0  0  0  0  0
    6.8891   10.0925   25.6809 C   0  0  0  0  0  0  0  0  0  0  0  0
    6.5774   11.2233   26.6529 C   0  0  0  0  0  0  0  0  0  0  0  0
    9.5839   12.9541   22.6305 C   0  0  0  0  0  0  0  0  0  0  0  0
   14.9217   15.8395   23.4839 N   0  0  0  0  0  0  0  0  0  0  0  0
   16.3585   13.0894   26.1424 N   0  0  0  0  0  0  0  0  0  0  0  0
    8.5587    9.6544   23.9698 N   0  0  0  0  0  0  0  0  0  0  0  0
   13.2866   13.7638   24.4235 N   0  0  0  0  0  0  0  0  0  0  0  0
   15.0863   12.9853   25.7220 N   0  0  0  0  0  0  0  0  0  0  0  0
    7.8287   10.5333   24.6747 N   0  0  0  0  0  0  0  0  0  0  0  0
    6.2829   12.4768   25.9418 N   0  0  0  0  0  0  0  0  0  0  0  0
   10.9317   13.2543   23.0673 N   0  0  0  0  0  0  0  0  0  0  0  0
   10.8017   15.5502   22.7718 O   0  0  0  0  0  0  0  0  0  0  0  0
    5.0513   14.4173   26.3285 O   0  0  0  0  0  0  0  0  0  0  0  0
   15.1264   10.4191   27.6928 H   0  0  0  0  0  0  0  0  0  0  0  0
   17.4356   11.8996   27.4721 H   0  0  0  0  0  0  0  0  0  0  0  0
    9.9646    9.9860   22.4683 H   0  0  0  0  0  0  0  0  0  0  0  0
   13.2886   16.4479   22.3809 H   0  0  0  0  0  0  0  0  0  0  0  0
   16.4014   15.0389   24.6728 H   0  0  0  0  0  0  0  0  0  0  0  0
   13.3798   11.7149   26.0187 H   0  0  0  0  0  0  0  0  0  0  0  0
    2.1549   12.3918   27.8031 H   0  0  0  0  0  0  0  0  0  0  0  0
    3.2413   13.8885   27.9584 H   0  0  0  0  0  0  0  0  0  0  0  0
    3.7803   11.4428   26.1700 H   0  0  0  0  0  0  0  0  0  0  0  0
    8.0396   13.5844   25.5308 H   0  0  0  0  0  0  0  0  0  0  0  0
    6.8045   13.5787   24.2522 H   0  0  0  0  0  0  0  0  0  0  0  0
    7.3480    9.2421   26.1967 H   0  0  0  0  0  0  0  0  0  0  0  0
    5.9778    9.7572   25.1756 H   0  0  0  0  0  0  0  0  0  0  0  0
    5.6847   10.9836   27.2440 H   0  0  0  0  0  0  0  0  0  0  0  0
    7.4065   11.3498   27.3560 H   0  0  0  0  0  0  0  0  0  0  0  0
    9.6370   12.7802   21.5396 H   0  0  0  0  0  0  0  0  0  0  0  0
    8.9989   13.8837   22.7589 H   0  0  0  0  0  0  0  0  0  0  0  0
   11.5271   12.4658   23.2923 H   0  0  0  0  0  0  0  0  0  0  0  0
  1  2  1  0  0  0  0
  1  6  2  0  0  0  0
  2 20  2  0  0  0  0
  3  7  1  0  0  0  0
  3 21  2  0  0  0  0
  4  8  1  0  0  0  0
  4 19  2  0  0  0  0
  5 10  2  0  0  0  0
  5 19  1  0  0  0  0
  6 23  1  0  0  0  0
  7  9  2  0  0  0  0
  7 18  1  0  0  0  0
  8 13  1  0  0  0  0
  8 22  2  0  0  0  0
  9 15  1  0  0  0  0
  9 24  1  0  0  0  0
 10 22  1  0  0  0  0
 10 23  1  0  0  0  0
 11 12  2  0  0  0  0
 12 14  1  0  0  0  0
 13 26  1  0  0  0  0
 13 27  2  0  0  0  0
 14 25  1  0  0  0  0
 14 28  2  0  0  0  0
 15 25  1  0  0  0  0
 16 17  1  0  0  0  0
 16 24  1  0  0  0  0
 17 25  1  0  0  0  0
 18 26  1  0  0  0  0
 20 23  1  0  0  0  0
 21 24  1  0  0  0  0
  1 29  1  0  0  0  0
  2 30  1  0  0  0  0
  3 31  1  0  0  0  0
  4 32  1  0  0  0  0
  5 33  1  0  0  0  0
  6 34  1  0  0  0  0
 11 35  1  0  0  0  0
 11 36  1  0  0  0  0
 12 37  1  0  0  0  0
 15 38  1  0  0  0  0
 15 39  1  0  0  0  0
 16 40  1  0  0  0  0
 16 41  1  0  0  0  0
 17 42  1  0  0  0  0
 17 43  1  0  0  0  0
 18 44  1  0  0  0  0
 18 45  1  0  0  0  0
 26 46  1  0  0  0  0
M  END
> <Catalog ID>
Z4942813260

> <MW>
378.388

> <MW (desalted)>
378.388

> <ClogP>
-0.512

> <logS>
-1.675

> <HBD>
1

> <HBA>
6

> <TPSA>
110.83

> <RotBonds>
5

> <ROCS_ShapeQuery>
A71EV2A-x0451_0A_A71EV2A-x0310_0A_A71EV2A-x0416_0A_peptide

> <ROCS_TanimotoCombo>
0.524 

> <ROCS_ShapeTanimoto>
0.334 

> <ROCS_ColorTanimoto>
0.191 

> <ROCS_RefTversky>
0.308 

> <ROCS_RefColorTversky>
0.228 

> <ROCS_RefTverskyCombo>
0.536 

> <ROCS_FitTversky>
1.332 

> <ROCS_FitColorTversky>
0.538 

> <ROCS_FitTverskyCombo>
1.871 

> <ROCS_ColorScore>
-7.002

> <ROCS_Overlap>
2144.888

> <ROCS_Rank>
307                 

$$$$
untitled-dbase-10786_16409
  -OEChem-11132309573D

 49 51  0     0  0  0  0  0  0999 V2000
    6.4129   11.7712   30.4098 C   0  0  0  0  0  0  0  0  0  0  0  0
   12.3523   13.2355   23.9189 C   0  0  0  0  0  0  0  0  0  0  0  0
    3.5551   12.5399   28.1519 C   0  0  0  0  0  0  0  0  0  0  0  0
    9.7672    9.7634   23.4814 C   0  0  0  0  0  0  0  0  0  0  0  0
    4.2903   12.2819   29.3089 C   0  0  0  0  0  0  0  0  0  0  0  0
   10.3068   10.9498   22.9847 C   0  0  0  0  0  0  0  0  0  0  0  0
    4.1903   12.5517   26.9101 C   0  0  0  0  0  0  0  0  0  0  0  0
    8.5998    9.7938   24.2444 C   0  0  0  0  0  0  0  0  0  0  0  0
    6.2959   12.0477   27.9823 C   0  0  0  0  0  0  0  0  0  0  0  0
    8.5119   12.1972   24.0142 C   0  0  0  0  0  0  0  0  0  0  0  0
    5.6606   12.0359   29.2241 C   0  0  0  0  0  0  0  0  0  0  0  0
    9.6792   12.1667   23.2511 C   0  0  0  0  0  0  0  0  0  0  0  0
    5.5607   12.3057   26.8253 C   0  0  0  0  0  0  0  0  0  0  0  0
    7.9722   11.0107   24.5108 C   0  0  0  0  0  0  0  0  0  0  0  0
   10.2482   13.4182   22.7271 C   0  0  0  0  0  0  0  0  0  0  0  0
   11.4689   13.9071   23.0206 C   0  0  0  0  0  0  0  0  0  0  0  0
   11.8483   15.2138   22.3711 C   0  0  0  0  0  0  0  0  0  0  0  0
   14.5132   15.8217   19.6028 C   0  0  0  0  0  0  0  0  0  0  0  0
   13.6073   15.3081   18.4818 C   0  0  0  0  0  0  0  0  0  0  0  0
   13.6609   16.7904   20.4207 C   0  0  0  0  0  0  0  0  0  0  0  0
   12.2575   15.9941   18.6851 C   0  0  0  0  0  0  0  0  0  0  0  0
   12.2194   16.3552   20.1682 C   0  0  0  0  0  0  0  0  0  0  0  0
    6.2438   12.3186   25.4893 C   0  0  0  0  0  0  0  0  0  0  0  0
    7.0240   11.5563   31.3727 N   0  0  0  0  0  0  0  0  0  0  0  0
   13.0730   12.6928   24.6489 N   0  0  0  0  0  0  0  0  0  0  0  0
   11.8794   15.1881   20.9788 N   0  0  0  0  0  0  0  0  0  0  0  0
   12.1032   16.2163   23.0368 O   0  0  0  0  0  0  0  0  0  0  0  0
    6.8332   11.0405   25.2553 O   0  0  0  0  0  0  0  0  0  0  0  0
    2.4883   12.7326   28.2176 H   0  0  0  0  0  0  0  0  0  0  0  0
   10.2557    8.8158   23.2737 H   0  0  0  0  0  0  0  0  0  0  0  0
    3.7810   12.2757   30.2696 H   0  0  0  0  0  0  0  0  0  0  0  0
   11.2176   10.9102   22.3916 H   0  0  0  0  0  0  0  0  0  0  0  0
    3.6089   12.7531   26.0142 H   0  0  0  0  0  0  0  0  0  0  0  0
    8.1843    8.8662   24.6288 H   0  0  0  0  0  0  0  0  0  0  0  0
    7.3648   11.8576   27.9099 H   0  0  0  0  0  0  0  0  0  0  0  0
    8.0155   13.1417   24.2273 H   0  0  0  0  0  0  0  0  0  0  0  0
    9.5702   13.9554   22.0674 H   0  0  0  0  0  0  0  0  0  0  0  0
   14.8958   15.0067   20.2248 H   0  0  0  0  0  0  0  0  0  0  0  0
   15.3765   16.3430   19.1740 H   0  0  0  0  0  0  0  0  0  0  0  0
   14.0296   15.5799   17.5080 H   0  0  0  0  0  0  0  0  0  0  0  0
   13.5072   14.2186   18.5047 H   0  0  0  0  0  0  0  0  0  0  0  0
   13.9179   16.6929   21.4878 H   0  0  0  0  0  0  0  0  0  0  0  0
   13.8396   17.8365   20.1338 H   0  0  0  0  0  0  0  0  0  0  0  0
   12.1418   16.8732   18.0353 H   0  0  0  0  0  0  0  0  0  0  0  0
   11.4491   15.2893   18.4326 H   0  0  0  0  0  0  0  0  0  0  0  0
   11.5178   17.1282   20.3773 H   0  0  0  0  0  0  0  0  0  0  0  0
    5.5306   12.5353   24.6867 H   0  0  0  0  0  0  0  0  0  0  0  0
    7.0255   13.0853   25.4610 H   0  0  0  0  0  0  0  0  0  0  0  0
   11.6543   14.3140   20.5031 H   0  0  0  0  0  0  0  0  0  0  0  0
  1 11  1  0  0  0  0
  1 24  3  0  0  0  0
  2 16  1  0  0  0  0
  2 25  3  0  0  0  0
  3  5  1  0  0  0  0
  3  7  2  0  0  0  0
  4  6  2  0  0  0  0
  4  8  1  0  0  0  0
  5 11  2  0  0  0  0
  6 12  1  0  0  0  0
  7 13  1  0  0  0  0
  8 14  2  0  0  0  0
  9 11  1  0  0  0  0
  9 13  2  0  0  0  0
 10 12  2  0  0  0  0
 10 14  1  0  0  0  0
 12 15  1  4  0  0  0
 13 23  1  0  0  0  0
 14 28  1  0  0  0  0
 15 16  2  0  0  0  0
 16 17  1  0  0  0  0
 17 26  1  0  0  0  0
 17 27  2  0  0  0  0
 18 19  1  0  0  0  0
 18 20  1  0  0  0  0
 19 21  1  0  0  0  0
 20 22  1  0  0  0  0
 21 22  1  0  0  0  0
 22 26  1  0  0  0  0
 23 28  1  0  0  0  0
  3 29  1  0  0  0  0
  4 30  1  0  0  0  0
  5 31  1  0  0  0  0
  6 32  1  0  0  0  0
  7 33  1  0  0  0  0
  8 34  1  0  0  0  0
  9 35  1  0  0  0  0
 10 36  1  0  0  0  0
 15 37  1  0  0  0  0
 18 38  1  0  0  0  0
 18 39  1  0  0  0  0
 19 40  1  0  0  0  0
 19 41  1  0  0  0  0
 20 42  1  0  0  0  0
 20 43  1  0  0  0  0
 21 44  1  0  0  0  0
 21 45  1  0  0  0  0
 22 46  1  0  0  0  0
 23 47  1  0  0  0  0
 23 48  1  0  0  0  0
 26 49  1  0  0  0  0
M  END
> <Catalog ID>
Z449743952

> <MW>
371.432

> <MW (desalted)>
371.432

> <ClogP>
3.818

> <logS>
-5.669

> <HBD>
1

> <HBA>
4

> <TPSA>
85.91

> <RotBonds>
6

> <ROCS_ShapeQuery>
A71EV2A-x0451_0A_A71EV2A-x0310_0A_A71EV2A-x0416_0A_peptide

> <ROCS_TanimotoCombo>
0.524 

> <ROCS_ShapeTanimoto>
0.365 

> <ROCS_ColorTanimoto>
0.159 

> <ROCS_RefTversky>
0.327 

> <ROCS_RefColorTversky>
0.178 

> <ROCS_RefTverskyCombo>
0.505 

> <ROCS_FitTversky>
1.475 

> <ROCS_FitColorTversky>
0.592 

> <ROCS_FitTverskyCombo>
2.068 

> <ROCS_ColorScore>
-5.442

> <ROCS_Overlap>
2275.231

> <ROCS_Rank>
308                 

$$$$
untitled-dbase-737_8526
  -OEChem-11132309573D

 44 46  0     0  0  0  0  0  0999 V2000
    8.2447    9.4796   23.9825 C   0  0  0  0  0  0  0  0  0  0  0  0
   11.5045   14.3751   20.9619 C   0  0  0  0  0  0  0  0  0  0  0  0
    9.2369   10.2016   23.3193 C   0  0  0  0  0  0  0  0  0  0  0  0
   12.4241   14.8842   20.0449 C   0  0  0  0  0  0  0  0  0  0  0  0
    7.3263   10.1423   24.7968 C   0  0  0  0  0  0  0  0  0  0  0  0
    8.3925   12.2490   24.2848 C   0  0  0  0  0  0  0  0  0  0  0  0
   14.1695   14.7270   21.7081 C   0  0  0  0  0  0  0  0  0  0  0  0
   11.9174   14.0420   22.2520 C   0  0  0  0  0  0  0  0  0  0  0  0
    9.3108   11.5863   23.4705 C   0  0  0  0  0  0  0  0  0  0  0  0
   13.7566   15.0601   20.4180 C   0  0  0  0  0  0  0  0  0  0  0  0
   13.2499   14.2180   22.6250 C   0  0  0  0  0  0  0  0  0  0  0  0
    7.4002   11.5270   24.9480 C   0  0  0  0  0  0  0  0  0  0  0  0
   10.9408   13.5132   23.1939 C   0  0  0  0  0  0  0  0  0  0  0  0
   15.0685   13.1913   26.2989 C   0  0  0  0  0  0  0  0  0  0  0  0
   14.3084   11.9705   26.7233 C   0  0  0  0  0  0  0  0  0  0  0  0
   14.6203   12.1900   25.2643 C   0  0  0  0  0  0  0  0  0  0  0  0
   14.1628   15.8789   18.2224 C   0  0  0  0  0  0  0  0  0  0  0  0
   13.5147   12.5428   24.2922 C   0  0  0  0  0  0  0  0  0  0  0  0
   10.3191   12.3203   22.7962 N   0  0  0  0  0  0  0  0  0  0  0  0
   10.6669   14.1049   24.2461 O   0  0  0  0  0  0  0  0  0  0  0  0
    6.1908   13.7387   25.5362 O   0  0  0  0  0  0  0  0  0  0  0  0
    5.0699   11.5216   26.0751 O   0  0  0  0  0  0  0  0  0  0  0  0
   14.6534   15.5582   19.5232 O   0  0  0  0  0  0  0  0  0  0  0  0
   13.6732   13.8988   23.8807 O   0  0  0  0  0  0  0  0  0  0  0  0
    6.8620   12.4031   27.4337 F   0  0  0  0  0  0  0  0  0  0  0  0
    6.2511   12.3558   25.9681 S   0  0  0  0  0  0  0  0  0  0  0  0
    8.1866    8.4016   23.8646 H   0  0  0  0  0  0  0  0  0  0  0  0
   10.4690   14.2423   20.6590 H   0  0  0  0  0  0  0  0  0  0  0  0
    9.9467    9.6745   22.6868 H   0  0  0  0  0  0  0  0  0  0  0  0
   12.0955   15.1419   19.0418 H   0  0  0  0  0  0  0  0  0  0  0  0
    6.5576    9.5702   25.3093 H   0  0  0  0  0  0  0  0  0  0  0  0
    8.4493   13.3289   24.4031 H   0  0  0  0  0  0  0  0  0  0  0  0
   15.2076   14.8670   21.9993 H   0  0  0  0  0  0  0  0  0  0  0  0
   14.5582   14.1451   26.3525 H   0  0  0  0  0  0  0  0  0  0  0  0
   16.1251   13.2347   26.5331 H   0  0  0  0  0  0  0  0  0  0  0  0
   14.8533   11.1912   27.2416 H   0  0  0  0  0  0  0  0  0  0  0  0
   13.2876   12.1038   27.0594 H   0  0  0  0  0  0  0  0  0  0  0  0
   15.3775   11.5620   24.8113 H   0  0  0  0  0  0  0  0  0  0  0  0
   14.9802   16.2658   17.6091 H   0  0  0  0  0  0  0  0  0  0  0  0
   13.3697   16.6263   18.3052 H   0  0  0  0  0  0  0  0  0  0  0  0
   13.7610   14.9737   17.7609 H   0  0  0  0  0  0  0  0  0  0  0  0
   12.5356   12.4309   24.7675 H   0  0  0  0  0  0  0  0  0  0  0  0
   13.5600   11.8988   23.4089 H   0  0  0  0  0  0  0  0  0  0  0  0
   10.6320   11.9319   21.9100 H   0  0  0  0  0  0  0  0  0  0  0  0
  1  3  2  0  0  0  0
  1  5  1  0  0  0  0
  2  4  2  0  0  0  0
  2  8  1  0  0  0  0
  3  9  1  0  0  0  0
  4 10  1  0  0  0  0
  5 12  2  0  0  0  0
  6  9  2  0  0  0  0
  6 12  1  0  0  0  0
  7 10  2  0  0  0  0
  7 11  1  0  0  0  0
  8 11  2  0  0  0  0
  8 13  1  0  0  0  0
  9 19  1  0  0  0  0
 10 23  1  0  0  0  0
 11 24  1  0  0  0  0
 12 26  1  0  0  0  0
 13 19  1  0  0  0  0
 13 20  2  0  0  0  0
 14 15  1  0  0  0  0
 14 16  1  0  0  0  0
 15 16  1  0  0  0  0
 16 18  1  0  0  0  0
 17 23  1  0  0  0  0
 18 24  1  0  0  0  0
 21 26  2  0  0  0  0
 22 26  2  0  0  0  0
 25 26  1  0  0  0  0
  1 27  1  0  0  0  0
  2 28  1  0  0  0  0
  3 29  1  0  0  0  0
  4 30  1  0  0  0  0
  5 31  1  0  0  0  0
  6 32  1  0  0  0  0
  7 33  1  0  0  0  0
 14 34  1  0  0  0  0
 14 35  1  0  0  0  0
 15 36  1  0  0  0  0
 15 37  1  0  0  0  0
 16 38  1  0  0  0  0
 17 39  1  0  0  0  0
 17 40  1  0  0  0  0
 17 41  1  0  0  0  0
 18 42  1  0  0  0  0
 18 43  1  0  0  0  0
 19 44  1  0  0  0  0
M  END
> <Catalog ID>
Z2149310865

> <MW>
379.403

> <MW (desalted)>
379.403

> <ClogP>
4.491

> <logS>
-4.679

> <HBD>
1

> <HBA>
5

> <TPSA>
81.7

> <RotBonds>
7

> <ROCS_ShapeQuery>
A71EV2A-x0451_0A_A71EV2A-x0310_0A_A71EV2A-x0416_0A_peptide

> <ROCS_TanimotoCombo>
0.524 

> <ROCS_ShapeTanimoto>
0.363 

> <ROCS_ColorTanimoto>
0.161 

> <ROCS_RefTversky>
0.322 

> <ROCS_RefColorTversky>
0.172 

> <ROCS_RefTverskyCombo>
0.494 

> <ROCS_FitTversky>
1.540 

> <ROCS_FitColorTversky>
0.717 

> <ROCS_FitTverskyCombo>
2.257 

> <ROCS_ColorScore>
-5.222

> <ROCS_Overlap>
2241.396

> <ROCS_Rank>
309                 

$$$$
untitled-dbase-1916_3790
  -OEChem-11132309573D

 51 53  0     0  0  0  0  0  0999 V2000
    9.4213    9.7715   23.3357 C   0  0  0  0  0  0  0  0  0  0  0  0
    8.2597    9.7674   24.1079 C   0  0  0  0  0  0  0  0  0  0  0  0
   10.1208   10.9614   23.1344 C   0  0  0  0  0  0  0  0  0  0  0  0
    7.7974   10.9532   24.6786 C   0  0  0  0  0  0  0  0  0  0  0  0
    9.6585   12.1473   23.7052 C   0  0  0  0  0  0  0  0  0  0  0  0
    8.4968   12.1432   24.4773 C   0  0  0  0  0  0  0  0  0  0  0  0
   12.9986   14.7586   23.0129 C   0  0  0  0  0  0  0  0  0  0  0  0
   14.3650   15.6056   24.3149 C   0  0  0  0  0  0  0  0  0  0  0  0
    3.6331   12.6575   27.2600 C   0  0  0  0  0  0  0  0  0  0  0  0
    4.4202   13.0419   26.2506 C   0  0  0  0  0  0  0  0  0  0  0  0
   10.4226   13.4002   23.4739 C   0  0  0  0  0  0  0  0  0  0  0  0
    5.8996   12.9494   26.3723 C   0  0  0  0  0  0  0  0  0  0  0  0
   10.6045   15.6243   19.3956 C   0  0  0  0  0  0  0  0  0  0  0  0
    9.9908   15.8900   20.7633 C   0  0  0  0  0  0  0  0  0  0  0  0
   11.4391   14.3503   19.3987 C   0  0  0  0  0  0  0  0  0  0  0  0
   11.0465   15.9090   21.8714 C   0  0  0  0  0  0  0  0  0  0  0  0
   12.5069   14.3853   20.4950 C   0  0  0  0  0  0  0  0  0  0  0  0
   11.9221   14.6280   21.9099 C   0  0  0  0  0  0  0  0  0  0  0  0
   15.2588   16.4376   25.1317 C   0  0  0  0  0  0  0  0  0  0  0  0
    7.9791   13.3985   25.0996 C   0  0  0  0  0  0  0  0  0  0  0  0
   13.5198   15.9645   23.3819 N   0  0  0  0  0  0  0  0  0  0  0  0
   13.4765   13.6949   23.6656 N   0  0  0  0  0  0  0  0  0  0  0  0
   11.1068   13.4742   22.2728 N   0  0  0  0  0  0  0  0  0  0  0  0
    6.5447   13.3927   25.2272 N   0  0  0  0  0  0  0  0  0  0  0  0
   10.4252   14.2701   24.3410 O   0  0  0  0  0  0  0  0  0  0  0  0
    6.4538   12.5231   27.3804 O   0  0  0  0  0  0  0  0  0  0  0  0
   14.4019   14.2673   24.5474 O   0  0  0  0  0  0  0  0  0  0  0  0
    9.7819    8.8482   22.8912 H   0  0  0  0  0  0  0  0  0  0  0  0
    7.7153    8.8405   24.2640 H   0  0  0  0  0  0  0  0  0  0  0  0
   11.0241   10.9517   22.5298 H   0  0  0  0  0  0  0  0  0  0  0  0
    6.8915   10.9389   25.2789 H   0  0  0  0  0  0  0  0  0  0  0  0
    2.5547   12.7290   27.1642 H   0  0  0  0  0  0  0  0  0  0  0  0
    4.0268   12.2676   28.1922 H   0  0  0  0  0  0  0  0  0  0  0  0
    3.9857   13.4262   25.3341 H   0  0  0  0  0  0  0  0  0  0  0  0
    9.8118   15.5453   18.6431 H   0  0  0  0  0  0  0  0  0  0  0  0
   11.2353   16.4738   19.1068 H   0  0  0  0  0  0  0  0  0  0  0  0
    9.4621   16.8500   20.7471 H   0  0  0  0  0  0  0  0  0  0  0  0
    9.2398   15.1215   20.9837 H   0  0  0  0  0  0  0  0  0  0  0  0
   10.7869   13.4806   19.5410 H   0  0  0  0  0  0  0  0  0  0  0  0
   11.9228   14.2278   18.4227 H   0  0  0  0  0  0  0  0  0  0  0  0
   11.6926   16.7857   21.7217 H   0  0  0  0  0  0  0  0  0  0  0  0
   10.5548   16.0647   22.8409 H   0  0  0  0  0  0  0  0  0  0  0  0
   13.0778   13.4472   20.4749 H   0  0  0  0  0  0  0  0  0  0  0  0
   13.2296   15.1784   20.2568 H   0  0  0  0  0  0  0  0  0  0  0  0
   14.7655   16.7658   26.0642 H   0  0  0  0  0  0  0  0  0  0  0  0
   16.1843   15.9044   25.4189 H   0  0  0  0  0  0  0  0  0  0  0  0
   15.5917   17.3471   24.5975 H   0  0  0  0  0  0  0  0  0  0  0  0
    8.4008   13.5434   26.1032 H   0  0  0  0  0  0  0  0  0  0  0  0
    8.2533   14.2817   24.5079 H   0  0  0  0  0  0  0  0  0  0  0  0
   11.1101   12.6900   21.6308 H   0  0  0  0  0  0  0  0  0  0  0  0
    5.9961   13.7003   24.4266 H   0  0  0  0  0  0  0  0  0  0  0  0
  1  2  1  0  0  0  0
  1  3  2  0  0  0  0
  2  4  2  0  0  0  0
  3  5  1  0  0  0  0
  4  6  1  0  0  0  0
  5  6  2  0  0  0  0
  5 11  1  0  0  0  0
  6 20  1  0  0  0  0
  7 18  1  0  0  0  0
  7 21  1  0  0  0  0
  7 22  2  0  0  0  0
  8 19  1  0  0  0  0
  8 21  2  0  0  0  0
  8 27  1  0  0  0  0
  9 10  2  0  0  0  0
 10 12  1  0  0  0  0
 11 23  1  0  0  0  0
 11 25  2  0  0  0  0
 12 24  1  0  0  0  0
 12 26  2  0  0  0  0
 13 14  1  0  0  0  0
 13 15  1  0  0  0  0
 14 16  1  0  0  0  0
 15 17  1  0  0  0  0
 16 18  1  0  0  0  0
 17 18  1  0  0  0  0
 18 23  1  0  0  0  0
 20 24  1  0  0  0  0
 22 27  1  0  0  0  0
  1 28  1  0  0  0  0
  2 29  1  0  0  0  0
  3 30  1  0  0  0  0
  4 31  1  0  0  0  0
  9 32  1  0  0  0  0
  9 33  1  0  0  0  0
 10 34  1  0  0  0  0
 13 35  1  0  0  0  0
 13 36  1  0  0  0  0
 14 37  1  0  0  0  0
 14 38  1  0  0  0  0
 15 39  1  0  0  0  0
 15 40  1  0  0  0  0
 16 41  1  0  0  0  0
 16 42  1  0  0  0  0
 17 43  1  0  0  0  0
 17 44  1  0  0  0  0
 19 45  1  0  0  0  0
 19 46  1  0  0  0  0
 19 47  1  0  0  0  0
 20 48  1  0  0  0  0
 20 49  1  0  0  0  0
 23 50  1  0  0  0  0
 24 51  1  0  0  0  0
M  END
> <Catalog ID>
Z4899905051

> <MW>
368.43

> <MW (desalted)>
368.43

> <ClogP>
1.174

> <logS>
-4.026

> <HBD>
2

> <HBA>
4

> <TPSA>
97.12

> <RotBonds>
6

> <ROCS_ShapeQuery>
A71EV2A-x0451_0A_A71EV2A-x0310_0A_A71EV2A-x0416_0A_peptide

> <ROCS_TanimotoCombo>
0.524 

> <ROCS_ShapeTanimoto>
0.348 

> <ROCS_ColorTanimoto>
0.176 

> <ROCS_RefTversky>
0.315 

> <ROCS_RefColorTversky>
0.204 

> <ROCS_RefTverskyCombo>
0.518 

> <ROCS_FitTversky>
1.441 

> <ROCS_FitColorTversky>
0.563 

> <ROCS_FitTverskyCombo>
2.004 

> <ROCS_ColorScore>
-6.246

> <ROCS_Overlap>
2187.986

> <ROCS_Rank>
310                 

$$$$
untitled-dbase-2511_7313
  -OEChem-11132309573D

 49 51  0     0  0  0  0  0  0999 V2000
   15.7614   14.1027   25.9598 C   0  0  0  0  0  0  0  0  0  0  0  0
   14.1348   12.4186   25.3639 C   0  0  0  0  0  0  0  0  0  0  0  0
   16.2839   13.2532   26.9349 C   0  0  0  0  0  0  0  0  0  0  0  0
   14.6573   11.5690   26.3390 C   0  0  0  0  0  0  0  0  0  0  0  0
   14.6869   13.6855   25.1743 C   0  0  0  0  0  0  0  0  0  0  0  0
   15.7319   11.9863   27.1245 C   0  0  0  0  0  0  0  0  0  0  0  0
    7.0464   10.2294   24.7802 C   0  0  0  0  0  0  0  0  0  0  0  0
    9.0875   10.7459   24.1969 C   0  0  0  0  0  0  0  0  0  0  0  0
    5.7765   10.4862   25.3642 C   0  0  0  0  0  0  0  0  0  0  0  0
    5.5337   11.6908   25.9177 C   0  0  0  0  0  0  0  0  0  0  0  0
    7.7452   12.4987   25.3803 C   0  0  0  0  0  0  0  0  0  0  0  0
    6.5440   12.7503   25.9361 C   0  0  0  0  0  0  0  0  0  0  0  0
   14.1348   14.5827   24.1444 C   0  0  0  0  0  0  0  0  0  0  0  0
   13.5398   14.1751   23.0165 C   0  0  0  0  0  0  0  0  0  0  0  0
   10.4926   13.8455   23.1580 C   0  0  0  0  0  0  0  0  0  0  0  0
   16.2925   11.0776   28.1657 C   0  0  0  0  0  0  0  0  0  0  0  0
   10.3368   11.5079   24.0098 C   0  0  0  0  0  0  0  0  0  0  0  0
   10.3189   14.6310   21.8833 C   0  0  0  0  0  0  0  0  0  0  0  0
    6.1799   14.0522   26.5739 C   0  0  0  0  0  0  0  0  0  0  0  0
    7.5705    9.1823   24.1795 N   0  0  0  0  0  0  0  0  0  0  0  0
    8.8602    9.5100   23.8114 N   0  0  0  0  0  0  0  0  0  0  0  0
    7.9795   11.2521   24.8142 N   0  0  0  0  0  0  0  0  0  0  0  0
   10.2420   12.4967   22.9574 N   0  0  0  0  0  0  0  0  0  0  0  0
   11.5969   14.6835   21.1583 N   0  0  0  0  0  0  0  0  0  0  0  0
   10.8179   14.3553   24.2270 O   0  0  0  0  0  0  0  0  0  0  0  0
   12.4679   16.5149   22.7466 O   0  0  0  0  0  0  0  0  0  0  0  0
   13.9692   15.6362   20.9362 O   0  0  0  0  0  0  0  0  0  0  0  0
    4.9164   14.0242   27.0473 F   0  0  0  0  0  0  0  0  0  0  0  0
    7.0002   14.3342   27.6079 F   0  0  0  0  0  0  0  0  0  0  0  0
    6.2660   15.0704   25.6920 F   0  0  0  0  0  0  0  0  0  0  0  0
   12.9510   15.4039   21.9456 S   0  0  0  0  0  0  0  0  0  0  0  0
   16.2022   15.0875   25.8238 H   0  0  0  0  0  0  0  0  0  0  0  0
   13.2973   12.0790   24.7592 H   0  0  0  0  0  0  0  0  0  0  0  0
   17.1215   13.5863   27.5419 H   0  0  0  0  0  0  0  0  0  0  0  0
   14.2212   10.5835   26.4803 H   0  0  0  0  0  0  0  0  0  0  0  0
    5.0183    9.7113   25.3593 H   0  0  0  0  0  0  0  0  0  0  0  0
    4.5676   11.8972   26.3676 H   0  0  0  0  0  0  0  0  0  0  0  0
    8.5462   13.2279   25.3527 H   0  0  0  0  0  0  0  0  0  0  0  0
   14.2195   15.6464   24.3576 H   0  0  0  0  0  0  0  0  0  0  0  0
   13.4005   13.1363   22.7464 H   0  0  0  0  0  0  0  0  0  0  0  0
   15.7818   11.2334   29.1238 H   0  0  0  0  0  0  0  0  0  0  0  0
   16.1790   10.0242   27.8783 H   0  0  0  0  0  0  0  0  0  0  0  0
   17.3664   11.2530   28.3113 H   0  0  0  0  0  0  0  0  0  0  0  0
   10.6316   12.0479   24.9276 H   0  0  0  0  0  0  0  0  0  0  0  0
   11.1910   10.8559   23.7537 H   0  0  0  0  0  0  0  0  0  0  0  0
    9.5667   14.1481   21.2526 H   0  0  0  0  0  0  0  0  0  0  0  0
    9.9962   15.6499   22.1165 H   0  0  0  0  0  0  0  0  0  0  0  0
    9.9792   12.1877   22.0270 H   0  0  0  0  0  0  0  0  0  0  0  0
   11.8003   13.8313   20.6151 H   0  0  0  0  0  0  0  0  0  0  0  0
  1  3  2  0  0  0  0
  1  5  1  0  0  0  0
  2  4  1  0  0  0  0
  2  5  2  0  0  0  0
  3  6  1  0  0  0  0
  4  6  2  0  0  0  0
  5 13  1  4  0  0  0
  6 16  1  0  0  0  0
  7  9  1  0  0  0  0
  7 20  2  0  0  0  0
  7 22  1  0  0  0  0
  8 17  1  0  0  0  0
  8 21  2  0  0  0  0
  8 22  1  0  0  0  0
  9 10  2  0  0  0  0
 10 12  1  0  0  0  0
 11 12  2  0  0  0  0
 11 22  1  0  0  0  0
 12 19  1  0  0  0  0
 13 14  2  0  0  0  0
 14 31  1  0  0  0  0
 15 18  1  0  0  0  0
 15 23  1  0  0  0  0
 15 25  2  0  0  0  0
 17 23  1  0  0  0  0
 18 24  1  0  0  0  0
 19 28  1  0  0  0  0
 19 29  1  0  0  0  0
 19 30  1  0  0  0  0
 20 21  1  0  0  0  0
 24 31  1  0  0  0  0
 26 31  2  0  0  0  0
 27 31  2  0  0  0  0
  1 32  1  0  0  0  0
  2 33  1  0  0  0  0
  3 34  1  0  0  0  0
  4 35  1  0  0  0  0
  9 36  1  0  0  0  0
 10 37  1  0  0  0  0
 11 38  1  0  0  0  0
 13 39  1  0  0  0  0
 14 40  1  0  0  0  0
 16 41  1  0  0  0  0
 16 42  1  0  0  0  0
 16 43  1  0  0  0  0
 17 44  1  0  0  0  0
 17 45  1  0  0  0  0
 18 46  1  0  0  0  0
 18 47  1  0  0  0  0
 23 48  1  0  0  0  0
 24 49  1  0  0  0  0
M  END
> <Catalog ID>
Z154336466

> <MW>
453.438

> <MW (desalted)>
453.438

> <ClogP>
2.103

> <logS>
-4.96

> <HBD>
2

> <HBA>
5

> <TPSA>
105.46

> <RotBonds>
7

> <ROCS_ShapeQuery>
A71EV2A-x0451_0A_A71EV2A-x0310_0A_A71EV2A-x0416_0A_peptide

> <ROCS_TanimotoCombo>
0.524 

> <ROCS_ShapeTanimoto>
0.369 

> <ROCS_ColorTanimoto>
0.156 

> <ROCS_RefTversky>
0.335 

> <ROCS_RefColorTversky>
0.185 

> <ROCS_RefTverskyCombo>
0.519 

> <ROCS_FitTversky>
1.379 

> <ROCS_FitColorTversky>
0.497 

> <ROCS_FitTverskyCombo>
1.876 

> <ROCS_ColorScore>
-5.657

> <ROCS_Overlap>
2330.816

> <ROCS_Rank>
311                 

$$$$
untitled-dbase-11302_6079
  -OEChem-11132309573D

 51 53  0     1  0  0  0  0  0999 V2000
   12.8351   16.0228   22.8778 C   0  0  0  0  0  0  0  0  0  0  0  0
   10.2624   10.5803   22.8204 C   0  0  0  0  0  0  0  0  0  0  0  0
    9.4641    9.5535   23.3304 C   0  0  0  0  0  0  0  0  0  0  0  0
   13.7268   16.5831   20.2217 C   0  0  0  0  0  0  0  0  0  0  0  0
    8.8528   12.2613   23.8774 C   0  0  0  0  0  0  0  0  0  0  0  0
   12.7482   15.5925   19.9605 C   0  0  0  0  0  0  0  0  0  0  0  0
    9.9585   11.9260   23.0922 C   0  0  0  0  0  0  0  0  0  0  0  0
    8.3780    9.9104   24.1027 C   0  0  0  0  0  0  0  0  0  0  0  0
    8.0804   11.2292   24.3692 C   0  0  0  0  0  0  0  0  0  0  0  0
   14.2400   16.9844   19.0081 C   0  0  0  0  0  0  0  0  0  0  0  0
   12.6934   15.4184   18.5952 C   0  0  0  0  0  0  0  0  0  0  0  0
   11.9311   14.8704   20.9481 C   0  0  0  0  0  0  0  0  0  0  0  0
   11.9700   15.0548   22.2827 C   0  0  0  0  0  0  0  0  0  0  0  0
   11.0369   14.2020   23.1156 C   0  0  0  0  0  0  0  0  0  0  0  0
    6.6190    9.9845   25.3329 C   0  0  0  0  0  0  0  0  0  0  0  0
   15.2814   17.9879   18.7064 C   0  0  0  0  0  0  0  0  0  0  0  0
   11.8539   14.5163   17.7755 C   0  0  0  0  0  0  0  0  0  0  0  0
   14.4055   15.0931   16.0177 C   0  0  0  0  0  0  0  0  0  0  0  0
   11.9221   17.9421   13.8600 C   0  0  0  0  0  0  0  0  0  0  0  0
   12.6243   16.8837   15.8372 C   0  0  0  0  0  0  0  0  0  0  0  0
   13.8581   16.3952   16.6067 C   0  0  1  0  0  0  0  0  0  0  0  0
   13.5358   16.8087   23.3658 N   0  0  0  0  0  0  0  0  0  0  0  0
   13.6048   16.2695   18.0265 N   0  0  0  0  0  0  0  0  0  0  0  0
   10.7703   12.9350   22.5717 N   0  0  0  0  0  0  0  0  0  0  0  0
   10.5779   14.6323   24.1708 O   0  0  0  0  0  0  0  0  0  0  0  0
    7.4932    9.0519   24.6811 O   0  0  0  0  0  0  0  0  0  0  0  0
    6.9714   11.3631   25.1483 O   0  0  0  0  0  0  0  0  0  0  0  0
   13.0367   17.5311   14.6390 O   0  0  0  0  0  0  0  0  0  0  0  0
    6.6104    9.7140   26.6621 F   0  0  0  0  0  0  0  0  0  0  0  0
    5.3586    9.7940   24.8688 F   0  0  0  0  0  0  0  0  0  0  0  0
   11.1254   10.3261   22.2092 H   0  0  0  0  0  0  0  0  0  0  0  0
    9.6946    8.5148   23.1224 H   0  0  0  0  0  0  0  0  0  0  0  0
   14.0281   16.9657   21.1879 H   0  0  0  0  0  0  0  0  0  0  0  0
    8.6066   13.2948   24.0968 H   0  0  0  0  0  0  0  0  0  0  0  0
   11.2472   14.1547   20.4970 H   0  0  0  0  0  0  0  0  0  0  0  0
   16.2822   17.5273   18.6895 H   0  0  0  0  0  0  0  0  0  0  0  0
   15.1173   18.4715   17.7289 H   0  0  0  0  0  0  0  0  0  0  0  0
   15.2982   18.8015   19.4510 H   0  0  0  0  0  0  0  0  0  0  0  0
   10.9093   15.0064   17.4935 H   0  0  0  0  0  0  0  0  0  0  0  0
   12.3657   14.2095   16.8491 H   0  0  0  0  0  0  0  0  0  0  0  0
   11.6059   13.5867   18.3127 H   0  0  0  0  0  0  0  0  0  0  0  0
   13.6658   14.2886   16.0919 H   0  0  0  0  0  0  0  0  0  0  0  0
   14.6745   15.2036   14.9618 H   0  0  0  0  0  0  0  0  0  0  0  0
   15.3035   14.7748   16.5578 H   0  0  0  0  0  0  0  0  0  0  0  0
   12.2742   18.4341   12.9500 H   0  0  0  0  0  0  0  0  0  0  0  0
   11.3030   18.6292   14.4422 H   0  0  0  0  0  0  0  0  0  0  0  0
   11.3327   17.0624   13.5910 H   0  0  0  0  0  0  0  0  0  0  0  0
   12.0210   17.5848   16.4226 H   0  0  0  0  0  0  0  0  0  0  0  0
   11.9913   16.0351   15.5567 H   0  0  0  0  0  0  0  0  0  0  0  0
   14.6399   17.1597   16.5041 H   0  0  0  0  0  0  0  0  0  0  0  0
   11.2303   12.7245   21.6792 H   0  0  0  0  0  0  0  0  0  0  0  0
  1 13  1  0  0  0  0
  1 22  3  0  0  0  0
  2  3  2  0  0  0  0
  2  7  1  0  0  0  0
  3  8  1  0  0  0  0
  4  6  1  0  0  0  0
  4 10  2  0  0  0  0
  5  7  2  0  0  0  0
  5  9  1  0  0  0  0
  6 11  2  0  0  0  0
  6 12  1  4  0  0  0
  7 24  1  0  0  0  0
  8  9  2  0  0  0  0
  8 26  1  0  0  0  0
  9 27  1  0  0  0  0
 10 16  1  0  0  0  0
 10 23  1  0  0  0  0
 11 17  1  0  0  0  0
 11 23  1  0  0  0  0
 12 13  2  0  0  0  0
 13 14  1  0  0  0  0
 14 24  1  0  0  0  0
 14 25  2  0  0  0  0
 15 26  1  0  0  0  0
 15 27  1  0  0  0  0
 15 29  1  0  0  0  0
 15 30  1  0  0  0  0
 18 21  1  0  0  0  0
 19 28  1  0  0  0  0
 20 21  1  0  0  0  0
 20 28  1  0  0  0  0
 21 23  1  0  0  0  0
  2 31  1  0  0  0  0
  3 32  1  0  0  0  0
  4 33  1  0  0  0  0
  5 34  1  0  0  0  0
 12 35  1  0  0  0  0
 16 36  1  0  0  0  0
 16 37  1  0  0  0  0
 16 38  1  0  0  0  0
 17 39  1  0  0  0  0
 17 40  1  0  0  0  0
 17 41  1  0  0  0  0
 18 42  1  0  0  0  0
 18 43  1  0  0  0  0
 18 44  1  0  0  0  0
 19 45  1  0  0  0  0
 19 46  1  0  0  0  0
 19 47  1  0  0  0  0
 20 48  1  0  0  0  0
 20 49  1  0  0  0  0
 21 50  1  0  0  0  0
 24 51  1  0  0  0  0
M  END
> <Catalog ID>
Z193002112

> <MW>
417.406

> <MW (desalted)>
417.406

> <ClogP>
4.936

> <logS>
-4.663

> <HBD>
1

> <HBA>
5

> <TPSA>
85.51

> <RotBonds>
6

> <ROCS_ShapeQuery>
A71EV2A-x0451_0A_A71EV2A-x0310_0A_A71EV2A-x0416_0A_peptide

> <ROCS_TanimotoCombo>
0.524 

> <ROCS_ShapeTanimoto>
0.343 

> <ROCS_ColorTanimoto>
0.182 

> <ROCS_RefTversky>
0.316 

> <ROCS_RefColorTversky>
0.205 

> <ROCS_RefTverskyCombo>
0.521 

> <ROCS_FitTversky>
1.322 

> <ROCS_FitColorTversky>
0.616 

> <ROCS_FitTverskyCombo>
1.937 

> <ROCS_ColorScore>
-6.259

> <ROCS_Overlap>
2201.834

> <ROCS_Rank>
312                 

$$$$
untitled-dbase-8861_1842
  -OEChem-11132309573D

 46 49  0     1  0  0  0  0  0999 V2000
    5.4522   14.9347   25.6443 C   0  0  0  0  0  0  0  0  0  0  0  0
    6.3271   15.1253   24.5749 C   0  0  0  0  0  0  0  0  0  0  0  0
    5.4280   13.7125   26.3163 C   0  0  0  0  0  0  0  0  0  0  0  0
   13.5434   16.6984   18.3681 C   0  0  0  0  0  0  0  0  0  0  0  0
   14.6310   16.3179   19.1690 C   0  0  0  0  0  0  0  0  0  0  0  0
    7.1777   14.0938   24.1773 C   0  0  0  0  0  0  0  0  0  0  0  0
    6.2786   12.6811   25.9187 C   0  0  0  0  0  0  0  0  0  0  0  0
   12.2570   16.2357   18.6500 C   0  0  0  0  0  0  0  0  0  0  0  0
   14.4480   15.4707   20.2646 C   0  0  0  0  0  0  0  0  0  0  0  0
    9.6983   10.6296   23.6630 C   0  0  0  0  0  0  0  0  0  0  0  0
    7.1535   12.8717   24.8492 C   0  0  0  0  0  0  0  0  0  0  0  0
    9.3023   11.9272   23.8513 C   0  0  0  0  0  0  0  0  0  0  0  0
   12.0823   15.4066   19.7458 C   0  0  0  0  0  0  0  0  0  0  0  0
   13.1658   15.0283   20.5518 C   0  0  0  0  0  0  0  0  0  0  0  0
    8.0312   11.8069   24.4390 C   0  0  0  0  0  0  0  0  0  0  0  0
   10.0891   13.1351   23.4919 C   0  0  0  0  0  0  0  0  0  0  0  0
   13.2403   15.5326   23.5737 C   0  0  0  0  0  0  0  0  0  0  0  0
   10.8132   14.7597   20.2101 C   0  0  0  0  0  0  0  0  0  0  0  0
   12.7141   14.0850   21.6309 C   0  0  2  0  0  0  0  0  0  0  0  0
   11.1966   14.3741   21.6499 C   0  0  2  0  0  0  0  0  0  0  0  0
   13.9391   15.5350   24.9093 C   0  0  0  0  0  0  0  0  0  0  0  0
    7.6666   10.5321   24.6027 N   0  0  0  0  0  0  0  0  0  0  0  0
   10.4195   13.2736   22.1485 N   0  0  0  0  0  0  0  0  0  0  0  0
   13.3251   14.3147   22.9108 N   0  0  0  0  0  0  0  0  0  0  0  0
   10.4189   13.9213   24.3760 O   0  0  0  0  0  0  0  0  0  0  0  0
   12.6483   16.5236   23.1495 O   0  0  0  0  0  0  0  0  0  0  0  0
    8.7305    9.7876   24.1075 O   0  0  0  0  0  0  0  0  0  0  0  0
   12.7682   15.0296   26.1374 Cl  0  0  0  0  0  0  0  0  0  0  0  0
    4.7905   15.7381   25.9547 H   0  0  0  0  0  0  0  0  0  0  0  0
    6.3470   16.0772   24.0523 H   0  0  0  0  0  0  0  0  0  0  0  0
    4.7476   13.5648   27.1498 H   0  0  0  0  0  0  0  0  0  0  0  0
   13.7070   17.3524   17.5159 H   0  0  0  0  0  0  0  0  0  0  0  0
   15.6270   16.6803   18.9287 H   0  0  0  0  0  0  0  0  0  0  0  0
    7.8541   14.2579   23.3416 H   0  0  0  0  0  0  0  0  0  0  0  0
    6.2476   11.7342   26.4529 H   0  0  0  0  0  0  0  0  0  0  0  0
   11.4197   16.5189   18.0213 H   0  0  0  0  0  0  0  0  0  0  0  0
   15.2962   15.1681   20.8694 H   0  0  0  0  0  0  0  0  0  0  0  0
   10.5794   10.1577   23.2534 H   0  0  0  0  0  0  0  0  0  0  0  0
    9.9646   15.4499   20.1923 H   0  0  0  0  0  0  0  0  0  0  0  0
   10.5992   13.8823   19.5899 H   0  0  0  0  0  0  0  0  0  0  0  0
   12.9245   13.0537   21.3248 H   0  0  0  0  0  0  0  0  0  0  0  0
   10.9824   15.2299   22.3063 H   0  0  0  0  0  0  0  0  0  0  0  0
   14.7928   14.8533   24.9377 H   0  0  0  0  0  0  0  0  0  0  0  0
   14.2830   16.5476   25.1376 H   0  0  0  0  0  0  0  0  0  0  0  0
   10.1605   12.5433   21.4872 H   0  0  0  0  0  0  0  0  0  0  0  0
   13.8415   13.5533   23.3502 H   0  0  0  0  0  0  0  0  0  0  0  0
  1  2  1  0  0  0  0
  1  3  2  0  0  0  0
  2  6  2  0  0  0  0
  3  7  1  0  0  0  0
  4  5  1  0  0  0  0
  4  8  2  0  0  0  0
  5  9  2  0  0  0  0
  6 11  1  0  0  0  0
  7 11  2  0  0  0  0
  8 13  1  0  0  0  0
  9 14  1  0  0  0  0
 10 12  2  0  0  0  0
 10 27  1  0  0  0  0
 11 15  1  0  0  0  0
 12 15  1  0  0  0  0
 12 16  1  0  0  0  0
 13 14  2  0  0  0  0
 13 18  1  0  0  0  0
 14 19  1  0  0  0  0
 15 22  2  0  0  0  0
 16 23  1  0  0  0  0
 16 25  2  0  0  0  0
 17 21  1  0  0  0  0
 17 24  1  0  0  0  0
 17 26  2  0  0  0  0
 18 20  1  0  0  0  0
 19 20  1  0  0  0  0
 19 24  1  1  0  0  0
 20 23  1  6  0  0  0
 21 28  1  0  0  0  0
 22 27  1  0  0  0  0
  1 29  1  0  0  0  0
  2 30  1  0  0  0  0
  3 31  1  0  0  0  0
  4 32  1  0  0  0  0
  5 33  1  0  0  0  0
  6 34  1  0  0  0  0
  7 35  1  0  0  0  0
  8 36  1  0  0  0  0
  9 37  1  0  0  0  0
 10 38  1  0  0  0  0
 18 39  1  0  0  0  0
 18 40  1  0  0  0  0
 19 41  1  0  0  0  0
 20 42  1  0  0  0  0
 21 43  1  0  0  0  0
 21 44  1  0  0  0  0
 23 45  1  0  0  0  0
 24 46  1  0  0  0  0
M  END
> <Catalog ID>
Z4439378230

> <MW>
395.839

> <MW (desalted)>
395.839

> <ClogP>
3.144

> <logS>
-5.143

> <HBD>
2

> <HBA>
3

> <TPSA>
84.23

> <RotBonds>
5

> <ROCS_ShapeQuery>
A71EV2A-x0451_0A_A71EV2A-x0310_0A_A71EV2A-x0416_0A_peptide

> <ROCS_TanimotoCombo>
0.524 

> <ROCS_ShapeTanimoto>
0.333 

> <ROCS_ColorTanimoto>
0.191 

> <ROCS_RefTversky>
0.307 

> <ROCS_RefColorTversky>
0.213 

> <ROCS_RefTverskyCombo>
0.520 

> <ROCS_FitTversky>
1.352 

> <ROCS_FitColorTversky>
0.643 

> <ROCS_FitTverskyCombo>
1.994 

> <ROCS_ColorScore>
-6.523

> <ROCS_Overlap>
2134.427

> <ROCS_Rank>
313                 

$$$$
untitled-dbase-10734_964
  -OEChem-11132309573D

 42 44  0     0  0  0  0  0  0999 V2000
    8.1339   13.0377   25.3205 C   0  0  0  0  0  0  0  0  0  0  0  0
    6.6765   10.6721   25.4900 C   0  0  0  0  0  0  0  0  0  0  0  0
    8.5652   11.9328   24.5700 C   0  0  0  0  0  0  0  0  0  0  0  0
    7.8137   10.7448   24.6761 C   0  0  0  0  0  0  0  0  0  0  0  0
    7.0062   12.9577   26.1468 C   0  0  0  0  0  0  0  0  0  0  0  0
    6.2777   11.7775   26.2314 C   0  0  0  0  0  0  0  0  0  0  0  0
   13.3467   16.1674   18.2678 C   0  0  0  0  0  0  0  0  0  0  0  0
   12.6799   16.5644   19.3537 C   0  0  0  0  0  0  0  0  0  0  0  0
   13.2612   16.2982   20.6845 C   0  0  0  0  0  0  0  0  0  0  0  0
   10.5826   13.0613   23.5957 C   0  0  0  0  0  0  0  0  0  0  0  0
   11.2281   13.4558   21.2259 C   0  0  0  0  0  0  0  0  0  0  0  0
   12.9663   13.6221   23.0809 C   0  0  0  0  0  0  0  0  0  0  0  0
   11.2283   14.9829   21.1521 C   0  0  0  0  0  0  0  0  0  0  0  0
   12.9075   15.1426   22.9360 C   0  0  0  0  0  0  0  0  0  0  0  0
    9.8202   10.8010   22.7992 C   0  0  0  0  0  0  0  0  0  0  0  0
    9.4627    9.5414   23.5588 C   0  0  0  0  0  0  0  0  0  0  0  0
   11.6893   12.9294   22.5900 C   0  0  0  0  0  0  0  0  0  0  0  0
    9.6900   11.9797   23.6693 N   0  0  0  0  0  0  0  0  0  0  0  0
   12.5268   15.5131   21.5681 N   0  0  0  0  0  0  0  0  0  0  0  0
   14.3620   16.7923   20.9344 O   0  0  0  0  0  0  0  0  0  0  0  0
   10.5458   14.0827   24.2842 O   0  0  0  0  0  0  0  0  0  0  0  0
    8.1077    9.5898   23.9928 O   0  0  0  0  0  0  0  0  0  0  0  0
    6.6527   14.0333   26.8663 F   0  0  0  0  0  0  0  0  0  0  0  0
    4.7596   11.6636   27.3508 Br  0  0  0  0  0  0  0  0  0  0  0  0
    8.6645   13.9824   25.3271 H   0  0  0  0  0  0  0  0  0  0  0  0
    6.1058    9.7467   25.5300 H   0  0  0  0  0  0  0  0  0  0  0  0
   12.9711   16.3345   17.2639 H   0  0  0  0  0  0  0  0  0  0  0  0
   14.2994   15.6585   18.3700 H   0  0  0  0  0  0  0  0  0  0  0  0
   11.7277   17.0749   19.2925 H   0  0  0  0  0  0  0  0  0  0  0  0
   10.2260   13.0827   20.9863 H   0  0  0  0  0  0  0  0  0  0  0  0
   11.9062   13.0653   20.4573 H   0  0  0  0  0  0  0  0  0  0  0  0
   13.8127   13.2447   22.4945 H   0  0  0  0  0  0  0  0  0  0  0  0
   13.1629   13.3662   24.1280 H   0  0  0  0  0  0  0  0  0  0  0  0
   10.9844   15.2989   20.1328 H   0  0  0  0  0  0  0  0  0  0  0  0
   10.4660   15.4075   21.8156 H   0  0  0  0  0  0  0  0  0  0  0  0
   12.1488   15.5640   23.6060 H   0  0  0  0  0  0  0  0  0  0  0  0
   13.8576   15.5832   23.2395 H   0  0  0  0  0  0  0  0  0  0  0  0
   10.8604   10.7733   22.4526 H   0  0  0  0  0  0  0  0  0  0  0  0
    9.1672   10.8823   21.9270 H   0  0  0  0  0  0  0  0  0  0  0  0
    9.6310    8.6368   22.9605 H   0  0  0  0  0  0  0  0  0  0  0  0
   10.0893    9.4599   24.4532 H   0  0  0  0  0  0  0  0  0  0  0  0
   11.8789   11.8527   22.5062 H   0  0  0  0  0  0  0  0  0  0  0  0
  1  3  2  0  0  0  0
  1  5  1  0  0  0  0
  2  4  2  0  0  0  0
  2  6  1  0  0  0  0
  3  4  1  0  0  0  0
  3 18  1  0  0  0  0
  4 22  1  0  0  0  0
  5  6  2  0  0  0  0
  5 23  1  0  0  0  0
  6 24  1  0  0  0  0
  7  8  2  0  0  0  0
  8  9  1  0  0  0  0
  9 19  1  0  0  0  0
  9 20  2  0  0  0  0
 10 17  1  0  0  0  0
 10 18  1  0  0  0  0
 10 21  2  0  0  0  0
 11 13  1  0  0  0  0
 11 17  1  0  0  0  0
 12 14  1  0  0  0  0
 12 17  1  0  0  0  0
 13 19  1  0  0  0  0
 14 19  1  0  0  0  0
 15 16  1  0  0  0  0
 15 18  1  0  0  0  0
 16 22  1  0  0  0  0
  1 25  1  0  0  0  0
  2 26  1  0  0  0  0
  7 27  1  0  0  0  0
  7 28  1  0  0  0  0
  8 29  1  0  0  0  0
 11 30  1  0  0  0  0
 11 31  1  0  0  0  0
 12 32  1  0  0  0  0
 12 33  1  0  0  0  0
 13 34  1  0  0  0  0
 13 35  1  0  0  0  0
 14 36  1  0  0  0  0
 14 37  1  0  0  0  0
 15 38  1  0  0  0  0
 15 39  1  0  0  0  0
 16 40  1  0  0  0  0
 16 41  1  0  0  0  0
 17 42  1  0  0  0  0
M  END
> <Catalog ID>
Z4342738078

> <MW>
397.239

> <MW (desalted)>
397.239

> <ClogP>
1.999

> <logS>
-4.765

> <HBD>
0

> <HBA>
3

> <TPSA>
49.85

> <RotBonds>
2

> <ROCS_ShapeQuery>
A71EV2A-x0451_0A_A71EV2A-x0310_0A_A71EV2A-x0416_0A_peptide

> <ROCS_TanimotoCombo>
0.524 

> <ROCS_ShapeTanimoto>
0.381 

> <ROCS_ColorTanimoto>
0.143 

> <ROCS_RefTversky>
0.331 

> <ROCS_RefColorTversky>
0.163 

> <ROCS_RefTverskyCombo>
0.494 

> <ROCS_FitTversky>
1.661 

> <ROCS_FitColorTversky>
0.541 

> <ROCS_FitTverskyCombo>
2.202 

> <ROCS_ColorScore>
-4.975

> <ROCS_Overlap>
2297.743

> <ROCS_Rank>
314                 

$$$$
untitled-dbase-2065_110
  -OEChem-11132309573D

 51 55  0     1  0  0  0  0  0999 V2000
   14.7600   14.8847   22.3180 C   0  0  0  0  0  0  0  0  0  0  0  0
   13.4874   14.4062   22.6870 C   0  0  0  0  0  0  0  0  0  0  0  0
   10.1021   14.3633   21.0077 C   0  0  0  0  0  0  0  0  0  0  0  0
   14.9712   15.5091   21.0775 C   0  0  0  0  0  0  0  0  0  0  0  0
   10.4377   15.0017   19.8021 C   0  0  0  0  0  0  0  0  0  0  0  0
   12.3990   14.5497   21.8064 C   0  0  0  0  0  0  0  0  0  0  0  0
   12.6710   15.1781   20.5893 C   0  0  0  0  0  0  0  0  0  0  0  0
   11.0690   14.1355   22.0066 C   0  0  0  0  0  0  0  0  0  0  0  0
   13.9003   15.6498   20.2119 C   0  0  0  0  0  0  0  0  0  0  0  0
   11.7460   15.4089   19.6059 C   0  0  0  0  0  0  0  0  0  0  0  0
    6.4411    6.6043   25.6917 C   0  0  0  0  0  0  0  0  0  0  0  0
    6.3635    6.7736   24.3682 C   0  0  0  0  0  0  0  0  0  0  0  0
   10.6478   13.4551   23.2583 C   0  0  0  0  0  0  0  0  0  0  0  0
    7.3248    7.6647   23.6656 C   0  0  0  0  0  0  0  0  0  0  0  0
   13.8507   16.2692   18.8468 C   0  0  0  0  0  0  0  0  0  0  0  0
   12.3640   16.1023   18.4282 C   0  0  0  0  0  0  0  0  0  0  0  0
    6.3551   12.1332   25.1404 C   0  0  0  0  0  0  0  0  0  0  0  0
    7.2614   12.4713   23.9295 C   0  0  0  0  0  0  0  0  0  0  0  0
    7.5688   11.4126   25.7797 C   0  0  0  0  0  0  0  0  0  0  0  0
    9.6024    9.8731   23.9345 C   0  0  0  0  0  0  0  0  0  0  0  0
    9.6488   11.4006   24.2262 C   0  0  2  0  0  0  0  0  0  0  0  0
    8.0907   10.0217   23.6039 C   0  0  2  0  0  0  0  0  0  0  0  0
    8.1439   11.3270   24.3765 C   0  0  0  0  0  0  0  0  0  0  0  0
   10.1305   12.1895   23.0939 N   0  0  0  0  0  0  0  0  0  0  0  0
    7.2511    8.9592   24.1356 N   0  0  0  0  0  0  0  0  0  0  0  0
   10.7608   14.0455   24.3294 O   0  0  0  0  0  0  0  0  0  0  0  0
    8.0727    7.2618   22.7805 O   0  0  0  0  0  0  0  0  0  0  0  0
   15.5934   14.7684   23.0064 H   0  0  0  0  0  0  0  0  0  0  0  0
   13.3654   13.9291   23.6558 H   0  0  0  0  0  0  0  0  0  0  0  0
    9.0737   14.0433   21.1619 H   0  0  0  0  0  0  0  0  0  0  0  0
   15.9581   15.8720   20.8094 H   0  0  0  0  0  0  0  0  0  0  0  0
    9.6805   15.1692   19.0431 H   0  0  0  0  0  0  0  0  0  0  0  0
    5.7355    5.9534   26.1974 H   0  0  0  0  0  0  0  0  0  0  0  0
    7.1920    7.0956   26.3006 H   0  0  0  0  0  0  0  0  0  0  0  0
    5.5969    6.2628   23.7957 H   0  0  0  0  0  0  0  0  0  0  0  0
   14.1276   17.3278   18.8835 H   0  0  0  0  0  0  0  0  0  0  0  0
   14.5119   15.7432   18.1505 H   0  0  0  0  0  0  0  0  0  0  0  0
   12.2812   15.4921   17.5230 H   0  0  0  0  0  0  0  0  0  0  0  0
   11.8972   17.0773   18.2548 H   0  0  0  0  0  0  0  0  0  0  0  0
    5.9675   12.9911   25.6959 H   0  0  0  0  0  0  0  0  0  0  0  0
    5.5236   11.4630   24.8941 H   0  0  0  0  0  0  0  0  0  0  0  0
    6.7848   12.3774   22.9501 H   0  0  0  0  0  0  0  0  0  0  0  0
    7.7246   13.4619   24.0051 H   0  0  0  0  0  0  0  0  0  0  0  0
    8.1371   12.0581   26.4605 H   0  0  0  0  0  0  0  0  0  0  0  0
    7.3429   10.4795   26.3014 H   0  0  0  0  0  0  0  0  0  0  0  0
   10.2271    9.5185   23.1088 H   0  0  0  0  0  0  0  0  0  0  0  0
    9.8193    9.2605   24.8186 H   0  0  0  0  0  0  0  0  0  0  0  0
   10.2024   11.6579   25.1354 H   0  0  0  0  0  0  0  0  0  0  0  0
    7.9106   10.1559   22.5298 H   0  0  0  0  0  0  0  0  0  0  0  0
   10.0044   11.7816   22.1815 H   0  0  0  0  0  0  0  0  0  0  0  0
    6.5820    9.2158   24.8493 H   0  0  0  0  0  0  0  0  0  0  0  0
  1  2  2  0  0  0  0
  1  4  1  0  0  0  0
  2  6  1  0  0  0  0
  3  5  2  0  0  0  0
  3  8  1  0  0  0  0
  4  9  2  0  0  0  0
  5 10  1  0  0  0  0
  6  7  1  0  0  0  0
  6  8  2  0  0  0  0
  7  9  1  0  0  0  0
  7 10  2  0  0  0  0
  8 13  1  0  0  0  0
  9 15  1  0  0  0  0
 10 16  1  0  0  0  0
 11 12  2  0  0  0  0
 12 14  1  0  0  0  0
 13 24  1  0  0  0  0
 13 26  2  0  0  0  0
 14 25  1  0  0  0  0
 14 27  2  0  0  0  0
 15 16  1  0  0  0  0
 17 18  1  0  0  0  0
 17 19  1  0  0  0  0
 18 23  1  0  0  0  0
 19 23  1  0  0  0  0
 20 21  1  0  0  0  0
 20 22  1  0  0  0  0
 21 23  1  0  0  0  0
 21 24  1  0  0  0  0
 22 23  1  0  0  0  0
 22 25  1  0  0  0  0
  1 28  1  0  0  0  0
  2 29  1  0  0  0  0
  3 30  1  0  0  0  0
  4 31  1  0  0  0  0
  5 32  1  0  0  0  0
 11 33  1  0  0  0  0
 11 34  1  0  0  0  0
 12 35  1  0  0  0  0
 15 36  1  0  0  0  0
 15 37  1  0  0  0  0
 16 38  1  0  0  0  0
 16 39  1  0  0  0  0
 17 40  1  0  0  0  0
 17 41  1  0  0  0  0
 18 42  1  0  0  0  0
 18 43  1  0  0  0  0
 19 44  1  0  0  0  0
 19 45  1  0  0  0  0
 20 46  1  0  0  0  0
 20 47  1  0  0  0  0
 21 48  1  0  0  0  0
 22 49  1  0  0  0  0
 24 50  1  0  0  0  0
 25 51  1  0  0  0  0
M  END
> <Catalog ID>
Z4425283227

> <MW>
360.449

> <MW (desalted)>
360.449

> <ClogP>
3.997

> <logS>
-6.904

> <HBD>
2

> <HBA>
2

> <TPSA>
58.2

> <RotBonds>
4

> <ROCS_ShapeQuery>
A71EV2A-x0451_0A_A71EV2A-x0310_0A_A71EV2A-x0416_0A_peptide

> <ROCS_TanimotoCombo>
0.524 

> <ROCS_ShapeTanimoto>
0.344 

> <ROCS_ColorTanimoto>
0.180 

> <ROCS_RefTversky>
0.313 

> <ROCS_RefColorTversky>
0.208 

> <ROCS_RefTverskyCombo>
0.521 

> <ROCS_FitTversky>
1.406 

> <ROCS_FitColorTversky>
0.572 

> <ROCS_FitTverskyCombo>
1.978 

> <ROCS_ColorScore>
-6.377

> <ROCS_Overlap>
2176.018

> <ROCS_Rank>
315                 

$$$$
untitled-dbase-10422_14016
  -OEChem-11132309573D

 47 49  0     0  0  0  0  0  0999 V2000
    8.0400    9.6425   23.7688 C   0  0  0  0  0  0  0  0  0  0  0  0
    9.3120   10.1898   23.6014 C   0  0  0  0  0  0  0  0  0  0  0  0
    6.9955   10.4370   24.2415 C   0  0  0  0  0  0  0  0  0  0  0  0
   12.2534   15.4411   18.3623 C   0  0  0  0  0  0  0  0  0  0  0  0
   13.3473   16.2215   18.0050 C   0  0  0  0  0  0  0  0  0  0  0  0
    8.4951   12.3263   24.3794 C   0  0  0  0  0  0  0  0  0  0  0  0
    9.5396   11.5316   23.9066 C   0  0  0  0  0  0  0  0  0  0  0  0
    7.2231   11.7789   24.5468 C   0  0  0  0  0  0  0  0  0  0  0  0
   12.0372   15.1276   19.6995 C   0  0  0  0  0  0  0  0  0  0  0  0
   12.9370   15.6151   20.6336 C   0  0  0  0  0  0  0  0  0  0  0  0
   14.1883   16.6603   19.0149 C   0  0  0  0  0  0  0  0  0  0  0  0
   12.7906   15.3341   22.0841 C   0  0  0  0  0  0  0  0  0  0  0  0
   11.2284   13.3934   23.9898 C   0  0  0  0  0  0  0  0  0  0  0  0
    5.9402   11.1282   27.3186 C   0  0  0  0  0  0  0  0  0  0  0  0
    5.3812   13.4881   27.7338 C   0  0  0  0  0  0  0  0  0  0  0  0
    4.4719   10.7940   27.5361 C   0  0  0  0  0  0  0  0  0  0  0  0
    3.9355   13.0583   27.9348 C   0  0  0  0  0  0  0  0  0  0  0  0
   12.6957   13.5973   23.6811 C   0  0  0  0  0  0  0  0  0  0  0  0
   14.0109   16.3761   20.3246 N   0  0  0  0  0  0  0  0  0  0  0  0
    6.0693   12.5283   26.8254 N   0  0  0  0  0  0  0  0  0  0  0  0
   10.8117   12.0793   23.7389 N   0  0  0  0  0  0  0  0  0  0  0  0
   12.6555   16.2088   22.9256 O   0  0  0  0  0  0  0  0  0  0  0  0
   10.5440   14.3241   24.4041 O   0  0  0  0  0  0  0  0  0  0  0  0
    6.2212   14.1626   24.8430 O   0  0  0  0  0  0  0  0  0  0  0  0
    4.6562   12.1930   24.7027 O   0  0  0  0  0  0  0  0  0  0  0  0
    3.8810   11.7244   28.4471 O   0  0  0  0  0  0  0  0  0  0  0  0
   12.8271   13.9914   22.3309 O   0  0  0  0  0  0  0  0  0  0  0  0
    5.9010   12.7839   25.1459 S   0  0  0  0  0  0  0  0  0  0  0  0
   10.6820   14.1612   20.1362 Cl  0  0  0  0  0  0  0  0  0  0  0  0
   15.5627   17.6263   18.6675 Cl  0  0  0  0  0  0  0  0  0  0  0  0
    7.8623    8.5978   23.5307 H   0  0  0  0  0  0  0  0  0  0  0  0
   10.1180    9.5610   23.2317 H   0  0  0  0  0  0  0  0  0  0  0  0
    6.0085   10.0006   24.3688 H   0  0  0  0  0  0  0  0  0  0  0  0
   11.5793   15.0849   17.5877 H   0  0  0  0  0  0  0  0  0  0  0  0
   13.5239   16.4710   16.9641 H   0  0  0  0  0  0  0  0  0  0  0  0
    8.6718   13.3729   24.6175 H   0  0  0  0  0  0  0  0  0  0  0  0
    6.4982   11.0302   28.2621 H   0  0  0  0  0  0  0  0  0  0  0  0
    6.3705   10.4335   26.5837 H   0  0  0  0  0  0  0  0  0  0  0  0
    5.4078   14.4969   27.2988 H   0  0  0  0  0  0  0  0  0  0  0  0
    5.9113   13.5082   28.6981 H   0  0  0  0  0  0  0  0  0  0  0  0
    3.9119   10.8049   26.5933 H   0  0  0  0  0  0  0  0  0  0  0  0
    4.3755    9.7941   27.9705 H   0  0  0  0  0  0  0  0  0  0  0  0
    3.4470   13.7150   28.6613 H   0  0  0  0  0  0  0  0  0  0  0  0
    3.3654   13.1105   26.9996 H   0  0  0  0  0  0  0  0  0  0  0  0
   13.1137   14.3704   24.3329 H   0  0  0  0  0  0  0  0  0  0  0  0
   13.2556   12.6710   23.8413 H   0  0  0  0  0  0  0  0  0  0  0  0
   11.5331   11.4391   23.3875 H   0  0  0  0  0  0  0  0  0  0  0  0
  1  2  2  0  0  0  0
  1  3  1  0  0  0  0
  2  7  1  0  0  0  0
  3  8  2  0  0  0  0
  4  5  2  0  0  0  0
  4  9  1  0  0  0  0
  5 11  1  0  0  0  0
  6  7  2  0  0  0  0
  6  8  1  0  0  0  0
  7 21  1  0  0  0  0
  8 28  1  0  0  0  0
  9 10  2  0  0  0  0
  9 29  1  0  0  0  0
 10 12  1  0  0  0  0
 10 19  1  0  0  0  0
 11 19  2  0  0  0  0
 11 30  1  0  0  0  0
 12 22  2  0  0  0  0
 12 27  1  0  0  0  0
 13 18  1  0  0  0  0
 13 21  1  0  0  0  0
 13 23  2  0  0  0  0
 14 16  1  0  0  0  0
 14 20  1  0  0  0  0
 15 17  1  0  0  0  0
 15 20  1  0  0  0  0
 16 26  1  0  0  0  0
 17 26  1  0  0  0  0
 18 27  1  0  0  0  0
 20 28  1  0  0  0  0
 24 28  2  0  0  0  0
 25 28  2  0  0  0  0
  1 31  1  0  0  0  0
  2 32  1  0  0  0  0
  3 33  1  0  0  0  0
  4 34  1  0  0  0  0
  5 35  1  0  0  0  0
  6 36  1  0  0  0  0
 14 37  1  0  0  0  0
 14 38  1  0  0  0  0
 15 39  1  0  0  0  0
 15 40  1  0  0  0  0
 16 41  1  0  0  0  0
 16 42  1  0  0  0  0
 17 43  1  0  0  0  0
 17 44  1  0  0  0  0
 18 45  1  0  0  0  0
 18 46  1  0  0  0  0
 21 47  1  0  0  0  0
M  END
> <Catalog ID>
Z16552109

> <MW>
474.315

> <MW (desalted)>
474.315

> <ClogP>
1.594

> <logS>
-5.273

> <HBD>
1

> <HBA>
6

> <TPSA>
114.9

> <RotBonds>
6

> <ROCS_ShapeQuery>
A71EV2A-x0451_0A_A71EV2A-x0310_0A_A71EV2A-x0416_0A_peptide

> <ROCS_TanimotoCombo>
0.524 

> <ROCS_ShapeTanimoto>
0.349 

> <ROCS_ColorTanimoto>
0.175 

> <ROCS_RefTversky>
0.318 

> <ROCS_RefColorTversky>
0.203 

> <ROCS_RefTverskyCombo>
0.522 

> <ROCS_FitTversky>
1.373 

> <ROCS_FitColorTversky>
0.561 

> <ROCS_FitTverskyCombo>
1.934 

> <ROCS_ColorScore>
-6.224

> <ROCS_Overlap>
2216.496

> <ROCS_Rank>
316                 

$$$$
untitled-dbase-5383_1585
  -OEChem-11132309573D

 52 54  0     0  0  0  0  0  0999 V2000
   11.6520   14.2195   20.7154 C   0  0  0  0  0  0  0  0  0  0  0  0
    6.6660   10.8928   27.6210 C   0  0  0  0  0  0  0  0  0  0  0  0
    5.7399   12.7819   26.4332 C   0  0  0  0  0  0  0  0  0  0  0  0
   12.9937   11.4858   24.0577 C   0  0  0  0  0  0  0  0  0  0  0  0
   13.3652   10.9317   25.2827 C   0  0  0  0  0  0  0  0  0  0  0  0
    5.8065   11.1439   28.6905 C   0  0  0  0  0  0  0  0  0  0  0  0
    4.8803   13.0329   27.5027 C   0  0  0  0  0  0  0  0  0  0  0  0
   14.5133   13.3269   24.4296 C   0  0  0  0  0  0  0  0  0  0  0  0
    7.4639   10.2482   24.7259 C   0  0  0  0  0  0  0  0  0  0  0  0
    6.6327   11.7118   26.4923 C   0  0  0  0  0  0  0  0  0  0  0  0
    7.5174   11.4533   25.3911 C   0  0  0  0  0  0  0  0  0  0  0  0
   13.5678   12.6833   23.6311 C   0  0  0  0  0  0  0  0  0  0  0  0
    8.5107   12.3198   24.8500 C   0  0  0  0  0  0  0  0  0  0  0  0
   14.3107   11.5752   26.0812 C   0  0  0  0  0  0  0  0  0  0  0  0
   14.8848   12.7728   25.6546 C   0  0  0  0  0  0  0  0  0  0  0  0
    4.9136   12.2139   28.6313 C   0  0  0  0  0  0  0  0  0  0  0  0
    9.1788   11.7437   23.7918 C   0  0  0  0  0  0  0  0  0  0  0  0
   13.1778   13.2661   22.3377 C   0  0  0  0  0  0  0  0  0  0  0  0
   11.9349   13.6631   22.0000 C   0  0  0  0  0  0  0  0  0  0  0  0
    8.8134   13.6482   25.3229 C   0  0  0  0  0  0  0  0  0  0  0  0
   10.8519   13.4697   23.0399 C   0  0  0  0  0  0  0  0  0  0  0  0
   11.2350   14.6762   27.8985 C   0  0  0  0  0  0  0  0  0  0  0  0
   17.1764   13.0640   26.2197 C   0  0  0  0  0  0  0  0  0  0  0  0
   10.1673   14.9032   26.8496 C   0  0  0  0  0  0  0  0  0  0  0  0
   11.4171   14.6713   19.6726 N   0  0  0  0  0  0  0  0  0  0  0  0
   10.1884   12.2138   22.9958 N   0  0  0  0  0  0  0  0  0  0  0  0
    8.2733   14.6915   24.9105 O   0  0  0  0  0  0  0  0  0  0  0  0
   10.5968   14.3625   23.8444 O   0  0  0  0  0  0  0  0  0  0  0  0
   14.6647   11.0237   27.2753 O   0  0  0  0  0  0  0  0  0  0  0  0
   15.8085   13.4104   26.4268 O   0  0  0  0  0  0  0  0  0  0  0  0
    9.7799   13.6403   26.2976 O   0  0  0  0  0  0  0  0  0  0  0  0
    8.6081   10.1648   23.4545 S   0  0  0  0  0  0  0  0  0  0  0  0
    3.8536   12.5252   29.9508 Cl  0  0  0  0  0  0  0  0  0  0  0  0
    7.3559   10.0543   27.6832 H   0  0  0  0  0  0  0  0  0  0  0  0
    5.7020   13.4294   25.5603 H   0  0  0  0  0  0  0  0  0  0  0  0
   12.2563   10.9721   23.4456 H   0  0  0  0  0  0  0  0  0  0  0  0
   12.9140    9.9986   25.6092 H   0  0  0  0  0  0  0  0  0  0  0  0
    5.8434   10.4974   29.5635 H   0  0  0  0  0  0  0  0  0  0  0  0
    4.1908   13.8710   27.4431 H   0  0  0  0  0  0  0  0  0  0  0  0
   14.9664   14.2609   24.1044 H   0  0  0  0  0  0  0  0  0  0  0  0
    6.8128    9.4057   24.9171 H   0  0  0  0  0  0  0  0  0  0  0  0
   14.0118   13.3743   21.6478 H   0  0  0  0  0  0  0  0  0  0  0  0
   10.8594   14.0426   28.7068 H   0  0  0  0  0  0  0  0  0  0  0  0
   12.1159   14.1997   27.4559 H   0  0  0  0  0  0  0  0  0  0  0  0
   11.5681   15.6293   28.3226 H   0  0  0  0  0  0  0  0  0  0  0  0
   17.8066   13.6440   26.8983 H   0  0  0  0  0  0  0  0  0  0  0  0
   17.4526   13.2707   25.1827 H   0  0  0  0  0  0  0  0  0  0  0  0
   17.3083   11.9989   26.4245 H   0  0  0  0  0  0  0  0  0  0  0  0
   10.5493   15.5375   26.0442 H   0  0  0  0  0  0  0  0  0  0  0  0
    9.2877   15.3786   27.2937 H   0  0  0  0  0  0  0  0  0  0  0  0
   10.5147   11.5623   22.2572 H   0  0  0  0  0  0  0  0  0  0  0  0
   15.3268   11.5780   27.7175 H   0  0  0  0  0  0  0  0  0  0  0  0
  1 19  1  0  0  0  0
  1 25  3  0  0  0  0
  2  6  2  0  0  0  0
  2 10  1  0  0  0  0
  3  7  1  0  0  0  0
  3 10  2  0  0  0  0
  4  5  2  0  0  0  0
  4 12  1  0  0  0  0
  5 14  1  0  0  0  0
  6 16  1  0  0  0  0
  7 16  2  0  0  0  0
  8 12  2  0  0  0  0
  8 15  1  0  0  0  0
  9 11  2  0  0  0  0
  9 32  1  0  0  0  0
 10 11  1  0  0  0  0
 11 13  1  0  0  0  0
 12 18  1  4  0  0  0
 13 17  2  0  0  0  0
 13 20  1  0  0  0  0
 14 15  2  0  0  0  0
 14 29  1  0  0  0  0
 15 30  1  0  0  0  0
 16 33  1  0  0  0  0
 17 26  1  0  0  0  0
 17 32  1  0  0  0  0
 18 19  2  0  0  0  0
 19 21  1  0  0  0  0
 20 27  2  0  0  0  0
 20 31  1  0  0  0  0
 21 26  1  0  0  0  0
 21 28  2  0  0  0  0
 22 24  1  0  0  0  0
 23 30  1  0  0  0  0
 24 31  1  0  0  0  0
  2 34  1  0  0  0  0
  3 35  1  0  0  0  0
  4 36  1  0  0  0  0
  5 37  1  0  0  0  0
  6 38  1  0  0  0  0
  7 39  1  0  0  0  0
  8 40  1  0  0  0  0
  9 41  1  0  0  0  0
 18 42  1  0  0  0  0
 22 43  1  0  0  0  0
 22 44  1  0  0  0  0
 22 45  1  0  0  0  0
 23 46  1  0  0  0  0
 23 47  1  0  0  0  0
 23 48  1  0  0  0  0
 24 49  1  0  0  0  0
 24 50  1  0  0  0  0
 26 51  1  0  0  0  0
 29 52  1  0  0  0  0
M  END
> <Catalog ID>
Z56830539

> <MW>
482.936

> <MW (desalted)>
482.936

> <ClogP>
5.478

> <logS>
-7.49

> <HBD>
2

> <HBA>
5

> <TPSA>
108.65

> <RotBonds>
8

> <ROCS_ShapeQuery>
A71EV2A-x0451_0A_A71EV2A-x0310_0A_A71EV2A-x0416_0A_peptide

> <ROCS_TanimotoCombo>
0.524 

> <ROCS_ShapeTanimoto>
0.353 

> <ROCS_ColorTanimoto>
0.171 

> <ROCS_RefTversky>
0.327 

> <ROCS_RefColorTversky>
0.198 

> <ROCS_RefTverskyCombo>
0.525 

> <ROCS_FitTversky>
1.296 

> <ROCS_FitColorTversky>
0.548 

> <ROCS_FitTverskyCombo>
1.844 

> <ROCS_ColorScore>
-6.076

> <ROCS_Overlap>
2278.830

> <ROCS_Rank>
317                 

$$$$
untitled-dbase-9865_12244
  -OEChem-11132309573D

 46 48  0     0  0  0  0  0  0999 V2000
   12.3688   15.1523   19.0272 C   0  0  0  0  0  0  0  0  0  0  0  0
   13.7592   16.1435   20.7363 C   0  0  0  0  0  0  0  0  0  0  0  0
    9.8580   10.4022   22.7167 C   0  0  0  0  0  0  0  0  0  0  0  0
    9.2926    9.2295   23.2173 C   0  0  0  0  0  0  0  0  0  0  0  0
   13.0114   15.9223   18.0578 C   0  0  0  0  0  0  0  0  0  0  0  0
   14.4019   16.9135   19.7669 C   0  0  0  0  0  0  0  0  0  0  0  0
    8.3572   11.7101   24.0857 C   0  0  0  0  0  0  0  0  0  0  0  0
   12.7427   15.2629   20.3665 C   0  0  0  0  0  0  0  0  0  0  0  0
    7.7918   10.5374   24.5863 C   0  0  0  0  0  0  0  0  0  0  0  0
    9.3903   11.6426   23.1509 C   0  0  0  0  0  0  0  0  0  0  0  0
    8.2595    9.2970   24.1521 C   0  0  0  0  0  0  0  0  0  0  0  0
   14.0280   16.8028   18.4276 C   0  0  0  0  0  0  0  0  0  0  0  0
   12.0647   14.4494   21.3906 C   0  0  0  0  0  0  0  0  0  0  0  0
   11.8716   14.8267   22.6605 C   0  0  0  0  0  0  0  0  0  0  0  0
    5.3478   10.6550   25.1131 C   0  0  0  0  0  0  0  0  0  0  0  0
    7.0066   11.0625   26.8978 C   0  0  0  0  0  0  0  0  0  0  0  0
    4.8841   12.1015   24.9850 C   0  0  0  0  0  0  0  0  0  0  0  0
    6.7698   12.5663   26.9879 C   0  0  0  0  0  0  0  0  0  0  0  0
    6.7590   10.6075   25.5213 N   0  0  0  0  0  0  0  0  0  0  0  0
    9.9694   12.8426   22.6380 N   0  0  0  0  0  0  0  0  0  0  0  0
    4.1962   12.4107   27.5040 O   0  0  0  0  0  0  0  0  0  0  0  0
    5.0592   14.4070   26.2284 O   0  0  0  0  0  0  0  0  0  0  0  0
   12.0121   12.7909   24.2511 O   0  0  0  0  0  0  0  0  0  0  0  0
   10.2081   14.4963   24.5986 O   0  0  0  0  0  0  0  0  0  0  0  0
    7.7237    8.1638   24.6275 F   0  0  0  0  0  0  0  0  0  0  0  0
    5.0954   12.9878   26.5235 S   0  0  0  0  0  0  0  0  0  0  0  0
   11.0374   13.7142   23.6977 S   0  0  0  0  0  0  0  0  0  0  0  0
   14.8207   17.7524   17.2315 Cl  0  0  0  0  0  0  0  0  0  0  0  0
   11.5777   14.4704   18.7242 H   0  0  0  0  0  0  0  0  0  0  0  0
   14.0614   16.2402   21.7764 H   0  0  0  0  0  0  0  0  0  0  0  0
   10.6623   10.3387   21.9883 H   0  0  0  0  0  0  0  0  0  0  0  0
    9.6568    8.2635   22.8799 H   0  0  0  0  0  0  0  0  0  0  0  0
   12.7097   15.8250   17.0180 H   0  0  0  0  0  0  0  0  0  0  0  0
   15.1923   17.5956   20.0698 H   0  0  0  0  0  0  0  0  0  0  0  0
    7.9926   12.6777   24.4236 H   0  0  0  0  0  0  0  0  0  0  0  0
   11.6922   13.4853   21.0500 H   0  0  0  0  0  0  0  0  0  0  0  0
   12.1944   15.7770   23.0658 H   0  0  0  0  0  0  0  0  0  0  0  0
    4.7376   10.1242   25.8539 H   0  0  0  0  0  0  0  0  0  0  0  0
    5.2109   10.1307   24.1597 H   0  0  0  0  0  0  0  0  0  0  0  0
    8.0337   10.8228   27.1980 H   0  0  0  0  0  0  0  0  0  0  0  0
    6.3418   10.5274   27.5863 H   0  0  0  0  0  0  0  0  0  0  0  0
    5.4432   12.6380   24.2119 H   0  0  0  0  0  0  0  0  0  0  0  0
    3.8202   12.1462   24.7330 H   0  0  0  0  0  0  0  0  0  0  0  0
    6.9146   12.9182   28.0142 H   0  0  0  0  0  0  0  0  0  0  0  0
    7.4475   13.1257   26.3352 H   0  0  0  0  0  0  0  0  0  0  0  0
    9.2905   13.4516   22.1491 H   0  0  0  0  0  0  0  0  0  0  0  0
  1  5  2  0  0  0  0
  1  8  1  0  0  0  0
  2  6  1  0  0  0  0
  2  8  2  0  0  0  0
  3  4  2  0  0  0  0
  3 10  1  0  0  0  0
  4 11  1  0  0  0  0
  5 12  1  0  0  0  0
  6 12  2  0  0  0  0
  7  9  1  0  0  0  0
  7 10  2  0  0  0  0
  8 13  1  0  0  0  0
  9 11  2  0  0  0  0
  9 19  1  0  0  0  0
 10 20  1  0  0  0  0
 11 25  1  0  0  0  0
 12 28  1  0  0  0  0
 13 14  2  0  0  0  0
 14 27  1  4  0  0  0
 15 17  1  0  0  0  0
 15 19  1  0  0  0  0
 16 18  1  0  0  0  0
 16 19  1  0  0  0  0
 17 26  1  0  0  0  0
 18 26  1  0  0  0  0
 20 27  1  0  0  0  0
 21 26  2  0  0  0  0
 22 26  2  0  0  0  0
 23 27  2  0  0  0  0
 24 27  2  0  0  0  0
  1 29  1  0  0  0  0
  2 30  1  0  0  0  0
  3 31  1  0  0  0  0
  4 32  1  0  0  0  0
  5 33  1  0  0  0  0
  6 34  1  0  0  0  0
  7 35  1  0  0  0  0
 13 36  1  0  0  0  0
 14 37  1  0  0  0  0
 15 38  1  0  0  0  0
 15 39  1  0  0  0  0
 16 40  1  0  0  0  0
 16 41  1  0  0  0  0
 17 42  1  0  0  0  0
 17 43  1  0  0  0  0
 18 44  1  0  0  0  0
 18 45  1  0  0  0  0
 20 46  1  0  0  0  0
M  END
> <Catalog ID>
Z1037383982

> <MW>
444.928

> <MW (desalted)>
444.928

> <ClogP>
2.657

> <logS>
-4.98

> <HBD>
1

> <HBA>
5

> <TPSA>
83.55

> <RotBonds>
4

> <ROCS_ShapeQuery>
A71EV2A-x0451_0A_A71EV2A-x0310_0A_A71EV2A-x0416_0A_peptide

> <ROCS_TanimotoCombo>
0.524 

> <ROCS_ShapeTanimoto>
0.375 

> <ROCS_ColorTanimoto>
0.149 

> <ROCS_RefTversky>
0.332 

> <ROCS_RefColorTversky>
0.169 

> <ROCS_RefTverskyCombo>
0.500 

> <ROCS_FitTversky>
1.532 

> <ROCS_FitColorTversky>
0.560 

> <ROCS_FitTverskyCombo>
2.092 

> <ROCS_ColorScore>
-5.150

> <ROCS_Overlap>
2307.401

> <ROCS_Rank>
318                 

$$$$
untitled-dbase-9579_321
  -OEChem-11132309573D

 43 45  0     1  0  0  0  0  0999 V2000
    6.6564   13.0387   25.4552 C   0  0  0  0  0  0  0  0  0  0  0  0
    8.0147   12.8812   25.1782 C   0  0  0  0  0  0  0  0  0  0  0  0
   13.7565   16.3751   20.4320 C   0  0  0  0  0  0  0  0  0  0  0  0
   12.1621   14.8866   19.3932 C   0  0  0  0  0  0  0  0  0  0  0  0
   14.0463   16.9335   19.1871 C   0  0  0  0  0  0  0  0  0  0  0  0
   12.4519   15.4450   18.1482 C   0  0  0  0  0  0  0  0  0  0  0  0
    5.7661   12.0016   25.1882 C   0  0  0  0  0  0  0  0  0  0  0  0
    8.4976   11.6842   24.6272 C   0  0  0  0  0  0  0  0  0  0  0  0
   12.8144   15.3516   20.5350 C   0  0  0  0  0  0  0  0  0  0  0  0
    7.5905   10.6519   24.3488 C   0  0  0  0  0  0  0  0  0  0  0  0
   13.3940   16.4685   18.0452 C   0  0  0  0  0  0  0  0  0  0  0  0
    6.2321   10.8079   24.6396 C   0  0  0  0  0  0  0  0  0  0  0  0
   10.7231   13.6492   23.3068 C   0  0  0  0  0  0  0  0  0  0  0  0
   10.3110   10.0544   24.1067 C   0  0  0  0  0  0  0  0  0  0  0  0
    9.2528    9.4065   23.2241 C   0  0  0  0  0  0  0  0  0  0  0  0
    9.9690   11.5237   24.3497 C   0  0  1  0  0  0  0  0  0  0  0  0
   12.5017   14.7477   21.8796 C   0  0  0  0  0  0  0  0  0  0  0  0
   11.0610   14.2450   21.9518 C   0  0  0  0  0  0  0  0  0  0  0  0
   10.3435   12.3201   23.1988 N   0  0  0  0  0  0  0  0  0  0  0  0
   10.7837   14.2839   24.3565 O   0  0  0  0  0  0  0  0  0  0  0  0
   15.0742   17.7659   16.5639 O   0  0  0  0  0  0  0  0  0  0  0  0
   13.3978   16.1983   15.4707 O   0  0  0  0  0  0  0  0  0  0  0  0
    7.9561    9.4381   23.8263 O   0  0  0  0  0  0  0  0  0  0  0  0
   12.7583   18.3865   16.2695 F   0  0  0  0  0  0  0  0  0  0  0  0
   13.7550   17.1687   16.4872 S   0  0  0  0  0  0  0  0  0  0  0  0
    5.0894    9.5488   24.3281 Cl  0  0  0  0  0  0  0  0  0  0  0  0
    6.2945   13.9690   25.8833 H   0  0  0  0  0  0  0  0  0  0  0  0
    8.6981   13.6973   25.4002 H   0  0  0  0  0  0  0  0  0  0  0  0
   14.2700   16.7436   21.3160 H   0  0  0  0  0  0  0  0  0  0  0  0
   11.4269   14.0893   19.4638 H   0  0  0  0  0  0  0  0  0  0  0  0
   14.7824   17.7301   19.1178 H   0  0  0  0  0  0  0  0  0  0  0  0
   11.9381   15.0748   17.2650 H   0  0  0  0  0  0  0  0  0  0  0  0
    4.7118   12.1388   25.4145 H   0  0  0  0  0  0  0  0  0  0  0  0
   10.3250    9.5344   25.0740 H   0  0  0  0  0  0  0  0  0  0  0  0
   11.3098    9.9461   23.6688 H   0  0  0  0  0  0  0  0  0  0  0  0
    9.1991    9.8777   22.2354 H   0  0  0  0  0  0  0  0  0  0  0  0
    9.5075    8.3533   23.0646 H   0  0  0  0  0  0  0  0  0  0  0  0
   10.5546   11.8902   25.1886 H   0  0  0  0  0  0  0  0  0  0  0  0
   13.2013   13.9267   22.0837 H   0  0  0  0  0  0  0  0  0  0  0  0
   12.6846   15.4912   22.6663 H   0  0  0  0  0  0  0  0  0  0  0  0
   10.8882   13.4765   21.1880 H   0  0  0  0  0  0  0  0  0  0  0  0
   10.3617   15.0674   21.7557 H   0  0  0  0  0  0  0  0  0  0  0  0
   10.2872   11.8873   22.2822 H   0  0  0  0  0  0  0  0  0  0  0  0
  1  2  2  0  0  0  0
  1  7  1  0  0  0  0
  2  8  1  0  0  0  0
  3  5  2  0  0  0  0
  3  9  1  0  0  0  0
  4  6  1  0  0  0  0
  4  9  2  0  0  0  0
  5 11  1  0  0  0  0
  6 11  2  0  0  0  0
  7 12  2  0  0  0  0
  8 10  2  0  0  0  0
  8 16  1  0  0  0  0
  9 17  1  0  0  0  0
 10 12  1  0  0  0  0
 10 23  1  0  0  0  0
 11 25  1  0  0  0  0
 12 26  1  0  0  0  0
 13 18  1  0  0  0  0
 13 19  1  0  0  0  0
 13 20  2  0  0  0  0
 14 15  1  0  0  0  0
 14 16  1  0  0  0  0
 15 23  1  0  0  0  0
 16 19  1  0  0  0  0
 17 18  1  0  0  0  0
 21 25  2  0  0  0  0
 22 25  2  0  0  0  0
 24 25  1  0  0  0  0
  1 27  1  0  0  0  0
  2 28  1  0  0  0  0
  3 29  1  0  0  0  0
  4 30  1  0  0  0  0
  5 31  1  0  0  0  0
  6 32  1  0  0  0  0
  7 33  1  0  0  0  0
 14 34  1  0  0  0  0
 14 35  1  0  0  0  0
 15 36  1  0  0  0  0
 15 37  1  0  0  0  0
 16 38  1  0  0  0  0
 17 39  1  0  0  0  0
 17 40  1  0  0  0  0
 18 41  1  0  0  0  0
 18 42  1  0  0  0  0
 19 43  1  0  0  0  0
M  END
> <Catalog ID>
Z3292075322

> <MW>
397.848

> <MW (desalted)>
397.848

> <ClogP>
3.927

> <logS>
-4.843

> <HBD>
1

> <HBA>
4

> <TPSA>
72.47

> <RotBonds>
5

> <ROCS_ShapeQuery>
A71EV2A-x0451_0A_A71EV2A-x0310_0A_A71EV2A-x0416_0A_peptide

> <ROCS_TanimotoCombo>
0.524 

> <ROCS_ShapeTanimoto>
0.335 

> <ROCS_ColorTanimoto>
0.189 

> <ROCS_RefTversky>
0.303 

> <ROCS_RefColorTversky>
0.197 

> <ROCS_RefTverskyCombo>
0.500 

> <ROCS_FitTversky>
1.460 

> <ROCS_FitColorTversky>
0.821 

> <ROCS_FitTverskyCombo>
2.281 

> <ROCS_ColorScore>
-5.983

> <ROCS_Overlap>
2108.513

> <ROCS_Rank>
319                 

$$$$
untitled-dbase-2889_12922
  -OEChem-11132309573D

 47 49  0     1  0  0  0  0  0999 V2000
    7.0120   12.6706   26.4324 C   0  0  0  0  0  0  0  0  0  0  0  0
    7.9189   11.8516   27.1235 C   0  0  0  0  0  0  0  0  0  0  0  0
    7.0134   12.7157   25.0367 C   0  0  0  0  0  0  0  0  0  0  0  0
    8.8397   11.0644   26.4289 C   0  0  0  0  0  0  0  0  0  0  0  0
   14.0876   15.2778   20.6449 C   0  0  0  0  0  0  0  0  0  0  0  0
   12.2326   16.4601   19.6457 C   0  0  0  0  0  0  0  0  0  0  0  0
   14.6144   15.0327   19.3768 C   0  0  0  0  0  0  0  0  0  0  0  0
   12.7594   16.2149   18.3776 C   0  0  0  0  0  0  0  0  0  0  0  0
    7.9377   11.9413   24.3562 C   0  0  0  0  0  0  0  0  0  0  0  0
    8.8397   11.1194   25.0443 C   0  0  0  0  0  0  0  0  0  0  0  0
   12.8967   15.9915   20.7794 C   0  0  0  0  0  0  0  0  0  0  0  0
   13.9503   15.5012   18.2432 C   0  0  0  0  0  0  0  0  0  0  0  0
   10.7285   13.1714   23.6123 C   0  0  0  0  0  0  0  0  0  0  0  0
   11.8523   14.0994   23.2672 C   0  0  0  0  0  0  0  0  0  0  0  0
   10.0910    7.9505   23.5855 C   0  0  0  0  0  0  0  0  0  0  0  0
    8.1103   11.8034   22.8751 C   0  0  0  0  0  0  0  0  0  0  0  0
    9.7068   10.3524   24.0880 C   0  0  2  0  0  0  0  0  0  0  0  0
    9.5109   11.1628   22.7838 C   0  0  2  0  0  0  0  0  0  0  0  0
   12.3295   16.2564   22.1440 C   0  0  0  0  0  0  0  0  0  0  0  0
    9.3948    6.6152   23.5183 C   0  0  0  0  0  0  0  0  0  0  0  0
   10.5269   12.1911   22.6617 N   0  0  0  0  0  0  0  0  0  0  0  0
   11.4317   15.2081   22.5689 N   0  0  0  0  0  0  0  0  0  0  0  0
    9.2467    8.9935   23.9453 N   0  0  0  0  0  0  0  0  0  0  0  0
   10.1379   13.3549   24.6647 O   0  0  0  0  0  0  0  0  0  0  0  0
   12.9756   13.8001   23.6391 O   0  0  0  0  0  0  0  0  0  0  0  0
   11.2933    8.0675   23.3548 O   0  0  0  0  0  0  0  0  0  0  0  0
   14.4575   15.2682   17.0255 F   0  0  0  0  0  0  0  0  0  0  0  0
    8.7850    6.4015   21.8698 Cl  0  0  0  0  0  0  0  0  0  0  0  0
    6.3078   13.2818   26.9910 H   0  0  0  0  0  0  0  0  0  0  0  0
    7.9083   11.8374   28.2098 H   0  0  0  0  0  0  0  0  0  0  0  0
    6.3083   13.3456   24.5056 H   0  0  0  0  0  0  0  0  0  0  0  0
    9.5355   10.4317   26.9677 H   0  0  0  0  0  0  0  0  0  0  0  0
   14.6118   14.9081   21.5222 H   0  0  0  0  0  0  0  0  0  0  0  0
   11.3043   17.0173   19.7408 H   0  0  0  0  0  0  0  0  0  0  0  0
   15.5418   14.4777   19.2720 H   0  0  0  0  0  0  0  0  0  0  0  0
   12.2424   16.5792   17.4949 H   0  0  0  0  0  0  0  0  0  0  0  0
    7.3461   11.1578   22.4251 H   0  0  0  0  0  0  0  0  0  0  0  0
    8.0798   12.7961   22.4061 H   0  0  0  0  0  0  0  0  0  0  0  0
   10.7276   10.3448   24.4325 H   0  0  0  0  0  0  0  0  0  0  0  0
    9.5762   10.5427   21.9142 H   0  0  0  0  0  0  0  0  0  0  0  0
   13.1311   16.3355   22.8866 H   0  0  0  0  0  0  0  0  0  0  0  0
   11.7747   17.2003   22.1626 H   0  0  0  0  0  0  0  0  0  0  0  0
   10.0606    5.7820   23.7562 H   0  0  0  0  0  0  0  0  0  0  0  0
    8.5523    6.6093   24.2153 H   0  0  0  0  0  0  0  0  0  0  0  0
   11.1209   12.1897   21.8333 H   0  0  0  0  0  0  0  0  0  0  0  0
   10.4451   15.2930   22.3421 H   0  0  0  0  0  0  0  0  0  0  0  0
    8.2623    8.7897   24.1152 H   0  0  0  0  0  0  0  0  0  0  0  0
  1  2  1  0  0  0  0
  1  3  2  0  0  0  0
  2  4  2  0  0  0  0
  3  9  1  0  0  0  0
  4 10  1  0  0  0  0
  5  7  2  0  0  0  0
  5 11  1  0  0  0  0
  6  8  1  0  0  0  0
  6 11  2  0  0  0  0
  7 12  1  0  0  0  0
  8 12  2  0  0  0  0
  9 10  2  0  0  0  0
  9 16  1  0  0  0  0
 10 17  1  0  0  0  0
 11 19  1  0  0  0  0
 12 27  1  0  0  0  0
 13 14  1  0  0  0  0
 13 21  1  0  0  0  0
 13 24  2  0  0  0  0
 14 22  1  0  0  0  0
 14 25  2  0  0  0  0
 15 20  1  0  0  0  0
 15 23  1  0  0  0  0
 15 26  2  0  0  0  0
 16 18  1  0  0  0  0
 17 18  1  0  0  0  0
 17 23  1  1  0  0  0
 18 21  1  6  0  0  0
 19 22  1  0  0  0  0
 20 28  1  0  0  0  0
  1 29  1  0  0  0  0
  2 30  1  0  0  0  0
  3 31  1  0  0  0  0
  4 32  1  0  0  0  0
  5 33  1  0  0  0  0
  6 34  1  0  0  0  0
  7 35  1  0  0  0  0
  8 36  1  0  0  0  0
 16 37  1  0  0  0  0
 16 38  1  0  0  0  0
 17 39  1  0  0  0  0
 18 40  1  0  0  0  0
 19 41  1  0  0  0  0
 19 42  1  0  0  0  0
 20 43  1  0  0  0  0
 20 44  1  0  0  0  0
 21 45  1  0  0  0  0
 22 46  1  0  0  0  0
 23 47  1  0  0  0  0
M  END
> <Catalog ID>
Z4439378890

> <MW>
403.835

> <MW (desalted)>
403.835

> <ClogP>
2.364

> <logS>
-4.935

> <HBD>
3

> <HBA>
3

> <TPSA>
87.3

> <RotBonds>
6

> <ROCS_ShapeQuery>
A71EV2A-x0451_0A_A71EV2A-x0310_0A_A71EV2A-x0416_0A_peptide

> <ROCS_TanimotoCombo>
0.524 

> <ROCS_ShapeTanimoto>
0.330 

> <ROCS_ColorTanimoto>
0.194 

> <ROCS_RefTversky>
0.304 

> <ROCS_RefColorTversky>
0.216 

> <ROCS_RefTverskyCombo>
0.520 

> <ROCS_FitTversky>
1.361 

> <ROCS_FitColorTversky>
0.651 

> <ROCS_FitTverskyCombo>
2.012 

> <ROCS_ColorScore>
-6.607

> <ROCS_Overlap>
2112.490

> <ROCS_Rank>
320                 

$$$$
untitled-dbase-10425_14549
  -OEChem-11132309573D

 53 55  0     1  0  0  0  0  0999 V2000
   13.6507   16.3473   18.3131 C   0  0  0  0  0  0  0  0  0  0  0  0
   13.6116   17.1435   19.4577 C   0  0  0  0  0  0  0  0  0  0  0  0
   13.1953   15.0298   18.3641 C   0  0  0  0  0  0  0  0  0  0  0  0
    3.7965   11.5511   28.0923 C   0  0  0  0  0  0  0  0  0  0  0  0
    4.6639   11.7728   29.1619 C   0  0  0  0  0  0  0  0  0  0  0  0
   13.1174   16.6222   20.6533 C   0  0  0  0  0  0  0  0  0  0  0  0
   12.7011   14.5085   19.5598 C   0  0  0  0  0  0  0  0  0  0  0  0
    4.1929   11.8741   26.7944 C   0  0  0  0  0  0  0  0  0  0  0  0
    5.9276   12.3174   28.9337 C   0  0  0  0  0  0  0  0  0  0  0  0
   12.6621   15.3047   20.7044 C   0  0  0  0  0  0  0  0  0  0  0  0
    5.4566   12.4187   26.5663 C   0  0  0  0  0  0  0  0  0  0  0  0
    8.9089   11.4411   23.8052 C   0  0  0  0  0  0  0  0  0  0  0  0
    6.3240   12.6404   27.6359 C   0  0  0  0  0  0  0  0  0  0  0  0
    8.3972   10.4450   24.6582 C   0  0  0  0  0  0  0  0  0  0  0  0
    7.9940   12.4626   23.8826 C   0  0  0  0  0  0  0  0  0  0  0  0
   12.1400   14.7536   21.9670 C   0  0  0  0  0  0  0  0  0  0  0  0
   12.6628   13.7062   22.6166 C   0  0  0  0  0  0  0  0  0  0  0  0
    8.9786    9.1242   24.9560 C   0  0  0  0  0  0  0  0  0  0  0  0
    7.9511   13.7835   23.2271 C   0  0  0  0  0  0  0  0  0  0  0  0
   12.4406   10.6007   23.5169 C   0  0  0  0  0  0  0  0  0  0  0  0
    5.8448   12.7551   25.1519 C   0  0  0  0  0  0  0  0  0  0  0  0
   10.1701   11.3996   22.9917 C   0  0  0  0  0  0  0  0  0  0  0  0
    7.2465   10.8016   25.2353 N   0  0  0  0  0  0  0  0  0  0  0  0
    7.0277   12.0332   24.7440 N   0  0  0  0  0  0  0  0  0  0  0  0
   11.3806   11.5937   23.8320 N   0  0  2  0  0  0  0  0  0  0  0  0
   10.7074   14.0511   24.2686 O   0  0  0  0  0  0  0  0  0  0  0  0
   12.9041   13.2221   25.1412 O   0  0  0  0  0  0  0  0  0  0  0  0
   11.8937   13.2299   24.0971 S   0  0  0  0  0  0  0  0  0  0  0  0
    7.8951   13.3123   27.3925 Cl  0  0  0  0  0  0  0  0  0  0  0  0
   14.0343   16.7535   17.3818 H   0  0  0  0  0  0  0  0  0  0  0  0
   13.9650   18.1698   19.4179 H   0  0  0  0  0  0  0  0  0  0  0  0
   13.2245   14.4101   17.4727 H   0  0  0  0  0  0  0  0  0  0  0  0
    2.8128   11.1262   28.2700 H   0  0  0  0  0  0  0  0  0  0  0  0
    4.3554   11.5201   30.1721 H   0  0  0  0  0  0  0  0  0  0  0  0
   13.0934   17.2552   21.5373 H   0  0  0  0  0  0  0  0  0  0  0  0
   12.3498   13.4797   19.5836 H   0  0  0  0  0  0  0  0  0  0  0  0
    3.5094   11.6969   25.9681 H   0  0  0  0  0  0  0  0  0  0  0  0
    6.5921   12.4828   29.7780 H   0  0  0  0  0  0  0  0  0  0  0  0
   11.2768   15.2711   22.3809 H   0  0  0  0  0  0  0  0  0  0  0  0
   13.5310   13.1556   22.2783 H   0  0  0  0  0  0  0  0  0  0  0  0
    9.6573    9.1727   25.8244 H   0  0  0  0  0  0  0  0  0  0  0  0
    8.2042    8.3694   25.1803 H   0  0  0  0  0  0  0  0  0  0  0  0
    9.5554    8.7218   24.1044 H   0  0  0  0  0  0  0  0  0  0  0  0
    7.4180   13.7325   22.2632 H   0  0  0  0  0  0  0  0  0  0  0  0
    7.4432   14.5395   23.8505 H   0  0  0  0  0  0  0  0  0  0  0  0
    8.9616   14.1815   23.0297 H   0  0  0  0  0  0  0  0  0  0  0  0
   13.3150   10.7806   24.1597 H   0  0  0  0  0  0  0  0  0  0  0  0
   12.0567    9.5855   23.6959 H   0  0  0  0  0  0  0  0  0  0  0  0
   12.7346   10.7007   22.4617 H   0  0  0  0  0  0  0  0  0  0  0  0
    5.0365   12.5132   24.4511 H   0  0  0  0  0  0  0  0  0  0  0  0
    6.0427   13.8281   25.0399 H   0  0  0  0  0  0  0  0  0  0  0  0
   10.2668   10.4367   22.4783 H   0  0  0  0  0  0  0  0  0  0  0  0
   10.1677   12.1793   22.2228 H   0  0  0  0  0  0  0  0  0  0  0  0
  1  2  1  0  0  0  0
  1  3  2  0  0  0  0
  2  6  2  0  0  0  0
  3  7  1  0  0  0  0
  4  5  1  0  0  0  0
  4  8  2  0  0  0  0
  5  9  2  0  0  0  0
  6 10  1  0  0  0  0
  7 10  2  0  0  0  0
  8 11  1  0  0  0  0
  9 13  1  0  0  0  0
 10 16  1  0  0  0  0
 11 13  2  0  0  0  0
 11 21  1  0  0  0  0
 12 14  1  0  0  0  0
 12 15  2  0  0  0  0
 12 22  1  0  0  0  0
 13 29  1  0  0  0  0
 14 18  1  0  0  0  0
 14 23  2  0  0  0  0
 15 19  1  0  0  0  0
 15 24  1  0  0  0  0
 16 17  2  0  0  0  0
 17 28  1  4  0  0  0
 20 25  1  0  0  0  0
 21 24  1  0  0  0  0
 22 25  1  0  0  0  0
 23 24  1  0  0  0  0
 25 28  1  0  0  0  0
 26 28  2  0  0  0  0
 27 28  2  0  0  0  0
  1 30  1  0  0  0  0
  2 31  1  0  0  0  0
  3 32  1  0  0  0  0
  4 33  1  0  0  0  0
  5 34  1  0  0  0  0
  6 35  1  0  0  0  0
  7 36  1  0  0  0  0
  8 37  1  0  0  0  0
  9 38  1  0  0  0  0
 16 39  1  0  0  0  0
 17 40  1  0  0  0  0
 18 41  1  0  0  0  0
 18 42  1  0  0  0  0
 18 43  1  0  0  0  0
 19 44  1  0  0  0  0
 19 45  1  0  0  0  0
 19 46  1  0  0  0  0
 20 47  1  0  0  0  0
 20 48  1  0  0  0  0
 20 49  1  0  0  0  0
 21 50  1  0  0  0  0
 21 51  1  0  0  0  0
 22 52  1  0  0  0  0
 22 53  1  0  0  0  0
M  END
> <Catalog ID>
Z65606046

> <MW>
429.963

> <MW (desalted)>
429.963

> <ClogP>
4.498

> <logS>
-4.57

> <HBD>
0

> <HBA>
3

> <TPSA>
55.2

> <RotBonds>
6

> <ROCS_ShapeQuery>
A71EV2A-x0451_0A_A71EV2A-x0310_0A_A71EV2A-x0416_0A_peptide

> <ROCS_TanimotoCombo>
0.524 

> <ROCS_ShapeTanimoto>
0.337 

> <ROCS_ColorTanimoto>
0.187 

> <ROCS_RefTversky>
0.309 

> <ROCS_RefColorTversky>
0.195 

> <ROCS_RefTverskyCombo>
0.504 

> <ROCS_FitTversky>
1.371 

> <ROCS_FitColorTversky>
0.815 

> <ROCS_FitTverskyCombo>
2.186 

> <ROCS_ColorScore>
-5.944

> <ROCS_Overlap>
2147.468

> <ROCS_Rank>
321                 

$$$$
untitled-dbase-6820_3931
  -OEChem-11132309573D

 53 55  0     1  0  0  0  0  0999 V2000
    6.7379   13.0765   25.4595 C   0  0  0  0  0  0  0  0  0  0  0  0
    6.0149   11.9211   25.7401 C   0  0  0  0  0  0  0  0  0  0  0  0
    7.9471   12.9927   24.7673 C   0  0  0  0  0  0  0  0  0  0  0  0
    6.5075   10.6808   25.3408 C   0  0  0  0  0  0  0  0  0  0  0  0
    8.4450   11.7522   24.3363 C   0  0  0  0  0  0  0  0  0  0  0  0
    7.7247   10.5934   24.6573 C   0  0  0  0  0  0  0  0  0  0  0  0
   14.4197   17.5161   21.5985 C   0  0  0  0  0  0  0  0  0  0  0  0
   14.0180   16.2489   21.7421 C   0  0  0  0  0  0  0  0  0  0  0  0
   12.6318   15.9523   22.2034 C   0  0  0  0  0  0  0  0  0  0  0  0
   10.4094   13.9498   22.8563 C   0  0  0  0  0  0  0  0  0  0  0  0
   10.4185    9.0611   25.1383 C   0  0  0  0  0  0  0  0  0  0  0  0
    9.5527    7.8135   23.1513 C   0  0  0  0  0  0  0  0  0  0  0  0
    9.8992   10.2864   22.9409 C   0  0  0  0  0  0  0  0  0  0  0  0
   10.1147    7.8248   25.9925 C   0  0  0  0  0  0  0  0  0  0  0  0
    9.2777    6.6174   24.0692 C   0  0  0  0  0  0  0  0  0  0  0  0
    9.7543   11.6603   23.5935 C   0  0  1  0  0  0  0  0  0  0  0  0
    9.4938    9.1594   23.9056 C   0  0  0  0  0  0  0  0  0  0  0  0
    9.9742    5.4216   26.0394 C   0  0  0  0  0  0  0  0  0  0  0  0
   12.3740   14.7409   20.0720 C   0  0  0  0  0  0  0  0  0  0  0  0
   10.4475   14.8036   21.6146 C   0  0  0  0  0  0  0  0  0  0  0  0
   10.2138    6.5945   25.1989 N   0  0  0  0  0  0  0  0  0  0  0  0
    9.9013   12.6871   22.5868 N   0  0  0  0  0  0  0  0  0  0  0  0
   11.8332   15.2093   21.3373 N   0  0  0  0  0  0  0  0  0  0  0  0
   12.2446   16.3830   23.2908 O   0  0  0  0  0  0  0  0  0  0  0  0
   10.7878   14.3410   23.9573 O   0  0  0  0  0  0  0  0  0  0  0  0
    8.1272    9.3251   24.3320 O   0  0  0  0  0  0  0  0  0  0  0  0
    6.3621   14.0440   25.7794 H   0  0  0  0  0  0  0  0  0  0  0  0
    5.0732   11.9852   26.2769 H   0  0  0  0  0  0  0  0  0  0  0  0
    8.4968   13.9092   24.5670 H   0  0  0  0  0  0  0  0  0  0  0  0
    5.9435    9.7817   25.5755 H   0  0  0  0  0  0  0  0  0  0  0  0
   15.4179   17.7788   21.2660 H   0  0  0  0  0  0  0  0  0  0  0  0
   13.7343   18.3297   21.8121 H   0  0  0  0  0  0  0  0  0  0  0  0
   14.6914   15.4406   21.4853 H   0  0  0  0  0  0  0  0  0  0  0  0
   10.3109    9.9408   25.7831 H   0  0  0  0  0  0  0  0  0  0  0  0
   11.4666    9.0268   24.8134 H   0  0  0  0  0  0  0  0  0  0  0  0
   10.5383    7.6877   22.6838 H   0  0  0  0  0  0  0  0  0  0  0  0
    8.8070    7.8029   22.3463 H   0  0  0  0  0  0  0  0  0  0  0  0
    9.2431   10.2392   22.0593 H   0  0  0  0  0  0  0  0  0  0  0  0
   10.9279   10.1456   22.5859 H   0  0  0  0  0  0  0  0  0  0  0  0
   10.8428    7.7941   26.8124 H   0  0  0  0  0  0  0  0  0  0  0  0
    9.1204    7.9207   26.4482 H   0  0  0  0  0  0  0  0  0  0  0  0
    8.2377    6.6451   24.4198 H   0  0  0  0  0  0  0  0  0  0  0  0
    9.3926    5.7022   23.4755 H   0  0  0  0  0  0  0  0  0  0  0  0
   10.5684   11.8138   24.3105 H   0  0  0  0  0  0  0  0  0  0  0  0
   10.0524    4.5101   25.4286 H   0  0  0  0  0  0  0  0  0  0  0  0
   10.7228    5.3886   26.8447 H   0  0  0  0  0  0  0  0  0  0  0  0
    8.9671    5.4841   26.4773 H   0  0  0  0  0  0  0  0  0  0  0  0
   12.8266   13.7480   20.2113 H   0  0  0  0  0  0  0  0  0  0  0  0
   11.5649   14.6740   19.3299 H   0  0  0  0  0  0  0  0  0  0  0  0
   13.1398   15.4463   19.7171 H   0  0  0  0  0  0  0  0  0  0  0  0
   10.0619   14.2341   20.7638 H   0  0  0  0  0  0  0  0  0  0  0  0
    9.8339   15.6974   21.7601 H   0  0  0  0  0  0  0  0  0  0  0  0
    9.6186   12.4737   21.6347 H   0  0  0  0  0  0  0  0  0  0  0  0
  1  2  1  0  0  0  0
  1  3  2  0  0  0  0
  2  4  2  0  0  0  0
  3  5  1  0  0  0  0
  4  6  1  0  0  0  0
  5  6  2  0  0  0  0
  5 16  1  0  0  0  0
  6 26  1  0  0  0  0
  7  8  2  0  0  0  0
  8  9  1  0  0  0  0
  9 23  1  0  0  0  0
  9 24  2  0  0  0  0
 10 20  1  0  0  0  0
 10 22  1  0  0  0  0
 10 25  2  0  0  0  0
 11 14  1  0  0  0  0
 11 17  1  0  0  0  0
 12 15  1  0  0  0  0
 12 17  1  0  0  0  0
 13 16  1  0  0  0  0
 13 17  1  0  0  0  0
 14 21  1  0  0  0  0
 15 21  1  0  0  0  0
 16 22  1  0  0  0  0
 17 26  1  0  0  0  0
 18 21  1  0  0  0  0
 19 23  1  0  0  0  0
 20 23  1  0  0  0  0
  1 27  1  0  0  0  0
  2 28  1  0  0  0  0
  3 29  1  0  0  0  0
  4 30  1  0  0  0  0
  7 31  1  0  0  0  0
  7 32  1  0  0  0  0
  8 33  1  0  0  0  0
 11 34  1  0  0  0  0
 11 35  1  0  0  0  0
 12 36  1  0  0  0  0
 12 37  1  0  0  0  0
 13 38  1  0  0  0  0
 13 39  1  0  0  0  0
 14 40  1  0  0  0  0
 14 41  1  0  0  0  0
 15 42  1  0  0  0  0
 15 43  1  0  0  0  0
 16 44  1  0  0  0  0
 18 45  1  0  0  0  0
 18 46  1  0  0  0  0
 18 47  1  0  0  0  0
 19 48  1  0  0  0  0
 19 49  1  0  0  0  0
 19 50  1  0  0  0  0
 20 51  1  0  0  0  0
 20 52  1  0  0  0  0
 22 53  1  0  0  0  0
M  END
> <Catalog ID>
Z2699318720

> <MW>
357.447

> <MW (desalted)>
357.447

> <ClogP>
0.994

> <logS>
-3.165

> <HBD>
1

> <HBA>
4

> <TPSA>
61.88

> <RotBonds>
4

> <ROCS_ShapeQuery>
A71EV2A-x0451_0A_A71EV2A-x0310_0A_A71EV2A-x0416_0A_peptide

> <ROCS_TanimotoCombo>
0.524 

> <ROCS_ShapeTanimoto>
0.349 

> <ROCS_ColorTanimoto>
0.175 

> <ROCS_RefTversky>
0.313 

> <ROCS_RefColorTversky>
0.198 

> <ROCS_RefTverskyCombo>
0.511 

> <ROCS_FitTversky>
1.488 

> <ROCS_FitColorTversky>
0.597 

> <ROCS_FitTverskyCombo>
2.085 

> <ROCS_ColorScore>
-6.058

> <ROCS_Overlap>
2177.702

> <ROCS_Rank>
322                 

$$$$
untitled-dbase-5167_292
  -OEChem-11132309573D

 38 39  0     0  0  0  0  0  0999 V2000
   13.3656   13.6950   22.6067 C   0  0  0  0  0  0  0  0  0  0  0  0
    7.2858   10.1483   24.8099 C   0  0  0  0  0  0  0  0  0  0  0  0
   13.2174   15.7291   18.0773 C   0  0  0  0  0  0  0  0  0  0  0  0
    8.2706    9.4536   24.1077 C   0  0  0  0  0  0  0  0  0  0  0  0
   14.2375   16.5761   18.5104 C   0  0  0  0  0  0  0  0  0  0  0  0
   13.5296   16.2586   20.7985 C   0  0  0  0  0  0  0  0  0  0  0  0
    8.3533   12.2391   24.2387 C   0  0  0  0  0  0  0  0  0  0  0  0
   12.5095   15.4116   20.3653 C   0  0  0  0  0  0  0  0  0  0  0  0
    7.3271   11.5411   24.8754 C   0  0  0  0  0  0  0  0  0  0  0  0
    9.3381   11.5444   23.5364 C   0  0  0  0  0  0  0  0  0  0  0  0
   12.3533   15.1469   19.0048 C   0  0  0  0  0  0  0  0  0  0  0  0
    9.2968   10.1516   23.4709 C   0  0  0  0  0  0  0  0  0  0  0  0
   14.3936   16.8409   19.8710 C   0  0  0  0  0  0  0  0  0  0  0  0
   11.6197   14.8157   21.3530 C   0  0  0  0  0  0  0  0  0  0  0  0
   11.9923   14.0182   22.3848 C   0  0  0  0  0  0  0  0  0  0  0  0
   10.8969   13.5082   23.2967 C   0  0  0  0  0  0  0  0  0  0  0  0
   10.1132   14.9302   18.2361 C   0  0  0  0  0  0  0  0  0  0  0  0
    6.2738   12.2835   25.6259 C   0  0  0  0  0  0  0  0  0  0  0  0
   14.4803   13.4304   22.7915 N   0  0  0  0  0  0  0  0  0  0  0  0
   10.3680   12.2843   22.9016 N   0  0  0  0  0  0  0  0  0  0  0  0
   10.5510   14.1617   24.2778 O   0  0  0  0  0  0  0  0  0  0  0  0
   11.3638   14.3240   18.5541 O   0  0  0  0  0  0  0  0  0  0  0  0
    5.3343   11.4729   26.1972 F   0  0  0  0  0  0  0  0  0  0  0  0
    6.7639   13.0389   26.6530 F   0  0  0  0  0  0  0  0  0  0  0  0
    5.5769   13.1500   24.8344 F   0  0  0  0  0  0  0  0  0  0  0  0
   10.4959    9.2514   22.6127 Cl  0  0  0  0  0  0  0  0  0  0  0  0
   15.7763   17.9885   20.4569 Br  0  0  0  0  0  0  0  0  0  0  0  0
    6.4903    9.5959   25.3029 H   0  0  0  0  0  0  0  0  0  0  0  0
   13.1011   15.5271   17.0158 H   0  0  0  0  0  0  0  0  0  0  0  0
    8.2229    8.3684   24.0655 H   0  0  0  0  0  0  0  0  0  0  0  0
   14.9020   17.0212   17.7745 H   0  0  0  0  0  0  0  0  0  0  0  0
   13.6515   16.4650   21.8602 H   0  0  0  0  0  0  0  0  0  0  0  0
    8.3827   13.3254   24.2925 H   0  0  0  0  0  0  0  0  0  0  0  0
   10.5672   15.0795   21.2169 H   0  0  0  0  0  0  0  0  0  0  0  0
    9.4142   14.1650   17.8897 H   0  0  0  0  0  0  0  0  0  0  0  0
   10.2599   15.6838   17.4584 H   0  0  0  0  0  0  0  0  0  0  0  0
    9.7117   15.4081   19.1328 H   0  0  0  0  0  0  0  0  0  0  0  0
   10.7652   11.8728   22.0612 H   0  0  0  0  0  0  0  0  0  0  0  0
  1 15  1  0  0  0  0
  1 19  3  0  0  0  0
  2  4  2  0  0  0  0
  2  9  1  0  0  0  0
  3  5  2  0  0  0  0
  3 11  1  0  0  0  0
  4 12  1  0  0  0  0
  5 13  1  0  0  0  0
  6  8  1  0  0  0  0
  6 13  2  0  0  0  0
  7  9  2  0  0  0  0
  7 10  1  0  0  0  0
  8 11  2  0  0  0  0
  8 14  1  4  0  0  0
  9 18  1  0  0  0  0
 10 12  2  0  0  0  0
 10 20  1  0  0  0  0
 11 22  1  0  0  0  0
 12 26  1  0  0  0  0
 13 27  1  0  0  0  0
 14 15  2  0  0  0  0
 15 16  1  0  0  0  0
 16 20  1  0  0  0  0
 16 21  2  0  0  0  0
 17 22  1  0  0  0  0
 18 23  1  0  0  0  0
 18 24  1  0  0  0  0
 18 25  1  0  0  0  0
  2 28  1  0  0  0  0
  3 29  1  0  0  0  0
  4 30  1  0  0  0  0
  5 31  1  0  0  0  0
  6 32  1  0  0  0  0
  7 33  1  0  0  0  0
 14 34  1  0  0  0  0
 17 35  1  0  0  0  0
 17 36  1  0  0  0  0
 17 37  1  0  0  0  0
 20 38  1  0  0  0  0
M  END
> <Catalog ID>
Z44308271

> <MW>
459.644

> <MW (desalted)>
459.644

> <ClogP>
5.196

> <logS>
-6.93

> <HBD>
1

> <HBA>
3

> <TPSA>
62.12

> <RotBonds>
5

> <ROCS_ShapeQuery>
A71EV2A-x0451_0A_A71EV2A-x0310_0A_A71EV2A-x0416_0A_peptide

> <ROCS_TanimotoCombo>
0.524 

> <ROCS_ShapeTanimoto>
0.367 

> <ROCS_ColorTanimoto>
0.157 

> <ROCS_RefTversky>
0.326 

> <ROCS_RefColorTversky>
0.172 

> <ROCS_RefTverskyCombo>
0.498 

> <ROCS_FitTversky>
1.516 

> <ROCS_FitColorTversky>
0.637 

> <ROCS_FitTverskyCombo>
2.153 

> <ROCS_ColorScore>
-5.243

> <ROCS_Overlap>
2269.701

> <ROCS_Rank>
323                 

$$$$
untitled-dbase-7817_13974
  -OEChem-11132309573D

 56 58  0     1  0  0  0  0  0999 V2000
    7.5406    7.5713   24.3769 C   0  0  0  0  0  0  0  0  0  0  0  0
    8.7724    7.4307   23.7366 C   0  0  0  0  0  0  0  0  0  0  0  0
    7.0749    8.8384   24.7285 C   0  0  0  0  0  0  0  0  0  0  0  0
    9.5377    8.5577   23.4360 C   0  0  0  0  0  0  0  0  0  0  0  0
    7.8456    9.9651   24.4408 C   0  0  0  0  0  0  0  0  0  0  0  0
    9.0666    9.8262   23.7750 C   0  0  0  0  0  0  0  0  0  0  0  0
   13.6793   11.9693   30.4580 C   0  0  0  0  0  0  0  0  0  0  0  0
   14.4339   11.6654   29.3976 C   0  0  0  0  0  0  0  0  0  0  0  0
   14.2381   12.3762   28.1059 C   0  0  0  0  0  0  0  0  0  0  0  0
   10.1809   13.1860   23.4558 C   0  0  0  0  0  0  0  0  0  0  0  0
   12.8846   12.1930   23.6797 C   0  0  0  0  0  0  0  0  0  0  0  0
   11.5073   14.5590   19.5188 C   0  0  0  0  0  0  0  0  0  0  0  0
   11.0111   13.1361   19.7691 C   0  0  0  0  0  0  0  0  0  0  0  0
   11.3648   15.4666   20.7391 C   0  0  0  0  0  0  0  0  0  0  0  0
   10.0330   13.0493   20.9338 C   0  0  0  0  0  0  0  0  0  0  0  0
    8.3470   12.2011   24.8055 C   0  0  0  0  0  0  0  0  0  0  0  0
    9.1324   12.1254   23.5102 C   0  0  2  0  0  0  0  0  0  0  0  0
   11.5389   14.7206   22.0667 C   0  0  2  0  0  0  0  0  0  0  0  0
   13.0580   11.7424   25.1190 C   0  0  0  0  0  0  0  0  0  0  0  0
   12.9801   14.2480   22.2795 C   0  0  0  0  0  0  0  0  0  0  0  0
   14.4502   12.0396   25.6590 C   0  0  0  0  0  0  0  0  0  0  0  0
   10.5854   13.5995   22.1816 N   0  0  0  0  0  0  0  0  0  0  0  0
   14.5550   11.5750   27.0207 N   0  0  0  0  0  0  0  0  0  0  0  0
   13.0815   13.5699   23.5261 N   0  0  0  0  0  0  0  0  0  0  0  0
   13.8440   13.5363   28.0438 O   0  0  0  0  0  0  0  0  0  0  0  0
   10.6380   13.6412   24.5074 O   0  0  0  0  0  0  0  0  0  0  0  0
   12.6049   11.4244   22.7637 O   0  0  0  0  0  0  0  0  0  0  0  0
    7.3447   11.1805   24.8299 O   0  0  0  0  0  0  0  0  0  0  0  0
    9.8537   10.8964   23.4353 O   0  0  0  0  0  0  0  0  0  0  0  0
    6.9453    6.6920   24.6058 H   0  0  0  0  0  0  0  0  0  0  0  0
    9.1340    6.4423   23.4680 H   0  0  0  0  0  0  0  0  0  0  0  0
    6.1186    8.9379   25.2348 H   0  0  0  0  0  0  0  0  0  0  0  0
   10.4917    8.4398   22.9294 H   0  0  0  0  0  0  0  0  0  0  0  0
   13.8272   11.4456   31.3967 H   0  0  0  0  0  0  0  0  0  0  0  0
   12.9084   12.7314   30.4276 H   0  0  0  0  0  0  0  0  0  0  0  0
   15.1950   10.8962   29.4705 H   0  0  0  0  0  0  0  0  0  0  0  0
   12.5656   14.5302   19.1922 H   0  0  0  0  0  0  0  0  0  0  0  0
   10.9512   14.9970   18.6673 H   0  0  0  0  0  0  0  0  0  0  0  0
   10.5295   12.7483   18.8555 H   0  0  0  0  0  0  0  0  0  0  0  0
   11.8736   12.4777   19.9624 H   0  0  0  0  0  0  0  0  0  0  0  0
   12.0857   16.2908   20.6671 H   0  0  0  0  0  0  0  0  0  0  0  0
   10.3671   15.9268   20.7200 H   0  0  0  0  0  0  0  0  0  0  0  0
    9.1038   13.5676   20.6659 H   0  0  0  0  0  0  0  0  0  0  0  0
    9.7614   12.0036   21.1308 H   0  0  0  0  0  0  0  0  0  0  0  0
    8.9900   12.0806   25.6895 H   0  0  0  0  0  0  0  0  0  0  0  0
    7.8417   13.1702   24.9003 H   0  0  0  0  0  0  0  0  0  0  0  0
    8.4917   12.2217   22.6269 H   0  0  0  0  0  0  0  0  0  0  0  0
   11.3333   15.4519   22.8589 H   0  0  0  0  0  0  0  0  0  0  0  0
   12.3013   12.2471   25.7324 H   0  0  0  0  0  0  0  0  0  0  0  0
   12.8569   10.6650   25.1705 H   0  0  0  0  0  0  0  0  0  0  0  0
   13.2212   13.5804   21.4557 H   0  0  0  0  0  0  0  0  0  0  0  0
   13.6106   15.1340   22.2691 H   0  0  0  0  0  0  0  0  0  0  0  0
   14.6538   13.1154   25.6270 H   0  0  0  0  0  0  0  0  0  0  0  0
   15.2135   11.5455   25.0483 H   0  0  0  0  0  0  0  0  0  0  0  0
   14.9050   10.6321   27.1719 H   0  0  0  0  0  0  0  0  0  0  0  0
   13.3121   14.1218   24.3600 H   0  0  0  0  0  0  0  0  0  0  0  0
  1  2  1  0  0  0  0
  1  3  2  0  0  0  0
  2  4  2  0  0  0  0
  3  5  1  0  0  0  0
  4  6  1  0  0  0  0
  5  6  2  0  0  0  0
  5 28  1  0  0  0  0
  6 29  1  0  0  0  0
  7  8  2  0  0  0  0
  8  9  1  0  0  0  0
  9 23  1  0  0  0  0
  9 25  2  0  0  0  0
 10 17  1  0  0  0  0
 10 22  1  0  0  0  0
 10 26  2  0  0  0  0
 11 19  1  0  0  0  0
 11 24  1  0  0  0  0
 11 27  2  0  0  0  0
 12 13  1  0  0  0  0
 12 14  1  0  0  0  0
 13 15  1  0  0  0  0
 14 18  1  0  0  0  0
 15 22  1  0  0  0  0
 16 17  1  0  0  0  0
 16 28  1  0  0  0  0
 17 29  1  0  0  0  0
 18 20  1  0  0  0  0
 18 22  1  0  0  0  0
 19 21  1  0  0  0  0
 20 24  1  0  0  0  0
 21 23  1  0  0  0  0
  1 30  1  0  0  0  0
  2 31  1  0  0  0  0
  3 32  1  0  0  0  0
  4 33  1  0  0  0  0
  7 34  1  0  0  0  0
  7 35  1  0  0  0  0
  8 36  1  0  0  0  0
 12 37  1  0  0  0  0
 12 38  1  0  0  0  0
 13 39  1  0  0  0  0
 13 40  1  0  0  0  0
 14 41  1  0  0  0  0
 14 42  1  0  0  0  0
 15 43  1  0  0  0  0
 15 44  1  0  0  0  0
 16 45  1  0  0  0  0
 16 46  1  0  0  0  0
 17 47  1  0  0  0  0
 18 48  1  0  0  0  0
 19 49  1  0  0  0  0
 19 50  1  0  0  0  0
 20 51  1  0  0  0  0
 20 52  1  0  0  0  0
 21 53  1  0  0  0  0
 21 54  1  0  0  0  0
 23 55  1  0  0  0  0
 24 56  1  0  0  0  0
M  END
> <Catalog ID>
Z4425283808

> <MW>
401.456

> <MW (desalted)>
401.456

> <ClogP>
1.931

> <logS>
-4.286

> <HBD>
2

> <HBA>
5

> <TPSA>
96.97

> <RotBonds>
7

> <ROCS_ShapeQuery>
A71EV2A-x0451_0A_A71EV2A-x0310_0A_A71EV2A-x0416_0A_peptide

> <ROCS_TanimotoCombo>
0.524 

> <ROCS_ShapeTanimoto>
0.389 

> <ROCS_ColorTanimoto>
0.135 

> <ROCS_RefTversky>
0.344 

> <ROCS_RefColorTversky>
0.166 

> <ROCS_RefTverskyCombo>
0.510 

> <ROCS_FitTversky>
1.506 

> <ROCS_FitColorTversky>
0.422 

> <ROCS_FitTverskyCombo>
1.928 

> <ROCS_ColorScore>
-5.086

> <ROCS_Overlap>
2392.500

> <ROCS_Rank>
324                 

$$$$
untitled-dbase-10846_2789
  -OEChem-11132309573D

 43 46  0     0  0  0  0  0  0999 V2000
   12.7020   11.7417   23.7258 C   0  0  0  0  0  0  0  0  0  0  0  0
    9.8994   10.6798   22.7193 C   0  0  0  0  0  0  0  0  0  0  0  0
    9.0166   12.7959   23.5382 C   0  0  0  0  0  0  0  0  0  0  0  0
   13.7358   11.6396   24.6243 C   0  0  0  0  0  0  0  0  0  0  0  0
    9.0590    9.9683   23.5790 C   0  0  0  0  0  0  0  0  0  0  0  0
    9.8784   12.0855   22.6991 C   0  0  0  0  0  0  0  0  0  0  0  0
    8.1971   12.0695   24.3776 C   0  0  0  0  0  0  0  0  0  0  0  0
    8.2176   10.6936   24.3973 C   0  0  0  0  0  0  0  0  0  0  0  0
   12.6458   13.1121   23.4083 C   0  0  0  0  0  0  0  0  0  0  0  0
   12.0755   15.0650   19.8021 C   0  0  0  0  0  0  0  0  0  0  0  0
   11.3624   15.5123   20.8405 C   0  0  0  0  0  0  0  0  0  0  0  0
   11.7245   15.1106   22.2315 C   0  0  0  0  0  0  0  0  0  0  0  0
    9.5332    7.7327   22.3745 C   0  0  0  0  0  0  0  0  0  0  0  0
    8.0873    7.7177   22.7611 C   0  0  0  0  0  0  0  0  0  0  0  0
    6.7550   11.3807   25.8362 C   0  0  0  0  0  0  0  0  0  0  0  0
    9.0792    8.4807   23.6024 C   0  0  0  0  0  0  0  0  0  0  0  0
   15.3117   13.3047   25.6364 C   0  0  0  0  0  0  0  0  0  0  0  0
   10.7849   12.8246   21.7721 C   0  0  0  0  0  0  0  0  0  0  0  0
   13.5702   13.8291   24.0529 N   0  0  0  0  0  0  0  0  0  0  0  0
   14.2170   12.9057   24.7844 N   0  0  0  0  0  0  0  0  0  0  0  0
   11.6835   13.7057   22.4730 N   0  0  0  0  0  0  0  0  0  0  0  0
   12.0217   15.9864   23.0443 O   0  0  0  0  0  0  0  0  0  0  0  0
    7.2978   12.5857   25.2588 O   0  0  0  0  0  0  0  0  0  0  0  0
    7.3339   10.1762   25.2936 O   0  0  0  0  0  0  0  0  0  0  0  0
   12.0831   10.9359   23.3583 H   0  0  0  0  0  0  0  0  0  0  0  0
   10.5773   10.1432   22.0585 H   0  0  0  0  0  0  0  0  0  0  0  0
    8.9905   13.8803   23.5321 H   0  0  0  0  0  0  0  0  0  0  0  0
   14.1577   10.7937   25.1493 H   0  0  0  0  0  0  0  0  0  0  0  0
   11.8224   15.3785   18.7947 H   0  0  0  0  0  0  0  0  0  0  0  0
   12.9106   14.3831   19.9186 H   0  0  0  0  0  0  0  0  0  0  0  0
   10.5450   16.2061   20.6816 H   0  0  0  0  0  0  0  0  0  0  0  0
   10.1051    6.8246   22.5257 H   0  0  0  0  0  0  0  0  0  0  0  0
    9.8115    8.2915   21.4892 H   0  0  0  0  0  0  0  0  0  0  0  0
    7.3940    8.2684   22.1364 H   0  0  0  0  0  0  0  0  0  0  0  0
    7.6837    6.7998   23.1716 H   0  0  0  0  0  0  0  0  0  0  0  0
    6.9295   11.3989   26.9182 H   0  0  0  0  0  0  0  0  0  0  0  0
    5.6743   11.3618   25.6544 H   0  0  0  0  0  0  0  0  0  0  0  0
    9.3381    8.0361   24.5564 H   0  0  0  0  0  0  0  0  0  0  0  0
   16.2334   13.2439   25.0518 H   0  0  0  0  0  0  0  0  0  0  0  0
   15.1471   14.3278   25.9855 H   0  0  0  0  0  0  0  0  0  0  0  0
   15.3603   12.6351   26.4997 H   0  0  0  0  0  0  0  0  0  0  0  0
   11.3971   12.1298   21.1809 H   0  0  0  0  0  0  0  0  0  0  0  0
   10.2174   13.4355   21.0572 H   0  0  0  0  0  0  0  0  0  0  0  0
  1  4  2  0  0  0  0
  1  9  1  0  0  0  0
  2  5  1  0  0  0  0
  2  6  2  0  0  0  0
  3  6  1  0  0  0  0
  3  7  2  0  0  0  0
  4 20  1  0  0  0  0
  5  8  2  0  0  0  0
  5 16  1  0  0  0  0
  6 18  1  0  0  0  0
  7  8  1  0  0  0  0
  7 23  1  0  0  0  0
  8 24  1  0  0  0  0
  9 19  2  0  0  0  0
  9 21  1  0  0  0  0
 10 11  2  0  0  0  0
 11 12  1  0  0  0  0
 12 21  1  0  0  0  0
 12 22  2  0  0  0  0
 13 14  1  0  0  0  0
 13 16  1  0  0  0  0
 14 16  1  0  0  0  0
 15 23  1  0  0  0  0
 15 24  1  0  0  0  0
 17 20  1  0  0  0  0
 18 21  1  0  0  0  0
 19 20  1  0  0  0  0
  1 25  1  0  0  0  0
  2 26  1  0  0  0  0
  3 27  1  0  0  0  0
  4 28  1  0  0  0  0
 10 29  1  0  0  0  0
 10 30  1  0  0  0  0
 11 31  1  0  0  0  0
 13 32  1  0  0  0  0
 13 33  1  0  0  0  0
 14 34  1  0  0  0  0
 14 35  1  0  0  0  0
 15 36  1  0  0  0  0
 15 37  1  0  0  0  0
 16 38  1  0  0  0  0
 17 39  1  0  0  0  0
 17 40  1  0  0  0  0
 17 41  1  0  0  0  0
 18 42  1  0  0  0  0
 18 43  1  0  0  0  0
M  END
> <Catalog ID>
Z4407921019

> <MW>
325.362

> <MW (desalted)>
325.362

> <ClogP>
3.063

> <logS>
-4.478

> <HBD>
0

> <HBA>
4

> <TPSA>
56.59

> <RotBonds>
5

> <ROCS_ShapeQuery>
A71EV2A-x0451_0A_A71EV2A-x0310_0A_A71EV2A-x0416_0A_peptide

> <ROCS_TanimotoCombo>
0.524 

> <ROCS_ShapeTanimoto>
0.376 

> <ROCS_ColorTanimoto>
0.148 

> <ROCS_RefTversky>
0.329 

> <ROCS_RefColorTversky>
0.168 

> <ROCS_RefTverskyCombo>
0.497 

> <ROCS_FitTversky>
1.613 

> <ROCS_FitColorTversky>
0.555 

> <ROCS_FitTverskyCombo>
2.168 

> <ROCS_ColorScore>
-5.116

> <ROCS_Overlap>
2286.367

> <ROCS_Rank>
325                 

$$$$
untitled-dbase-11190_8925
  -OEChem-11132309573D

 48 50  0     1  0  0  0  0  0999 V2000
   12.7313   16.8710   19.3374 B   0  0  0  0  0  0  0  0  0  0  0  0
   12.3774   16.0581   21.7103 C   0  0  0  0  0  0  0  0  0  0  0  0
   11.8594   15.1975   22.6781 C   0  0  0  0  0  0  0  0  0  0  0  0
   10.7828   13.8998   20.9478 C   0  0  0  0  0  0  0  0  0  0  0  0
    5.0461   12.0541   28.7239 C   0  0  0  0  0  0  0  0  0  0  0  0
   12.0981   15.8396   20.3612 C   0  0  0  0  0  0  0  0  0  0  0  0
   11.0621   14.1183   22.2968 C   0  0  0  0  0  0  0  0  0  0  0  0
   11.3008   14.7604   19.9800 C   0  0  0  0  0  0  0  0  0  0  0  0
    6.7435   11.9070   25.5521 C   0  0  0  0  0  0  0  0  0  0  0  0
    5.8212   11.9898   26.6981 C   0  0  0  0  0  0  0  0  0  0  0  0
    8.3927   11.4083   24.4072 C   0  0  0  0  0  0  0  0  0  0  0  0
   10.9690   14.4745   18.5860 C   0  0  0  0  0  0  0  0  0  0  0  0
   10.5111   13.2018   23.3281 C   0  0  0  0  0  0  0  0  0  0  0  0
    9.1241    8.3835   24.0764 C   0  0  0  0  0  0  0  0  0  0  0  0
   10.9632    9.0671   22.5235 C   0  0  0  0  0  0  0  0  0  0  0  0
    8.5957    9.5360   21.9269 C   0  0  0  0  0  0  0  0  0  0  0  0
    9.6926   10.9052   23.7881 C   0  0  1  0  0  0  0  0  0  0  0  0
    9.5957    9.4860   23.1076 C   0  0  0  0  0  0  0  0  0  0  0  0
    4.0228   12.1575   27.9063 N   0  0  0  0  0  0  0  0  0  0  0  0
    7.9170   11.2132   25.6110 N   0  0  0  0  0  0  0  0  0  0  0  0
    6.4817   12.5080   24.3876 N   0  0  0  0  0  0  0  0  0  0  0  0
    4.5159   12.1167   26.6174 N   0  0  0  0  0  0  0  0  0  0  0  0
    6.1984   11.9463   28.0060 N   0  0  0  0  0  0  0  0  0  0  0  0
   10.2634   11.9255   22.8923 N   0  0  0  0  0  0  0  0  0  0  0  0
    9.9753   14.9387   18.0282 O   0  0  0  0  0  0  0  0  0  0  0  0
   10.2989   13.6300   24.4596 O   0  0  0  0  0  0  0  0  0  0  0  0
    7.5979   12.1710   23.6116 O   0  0  0  0  0  0  0  0  0  0  0  0
   13.9752   16.6376   18.8012 O   0  0  0  0  0  0  0  0  0  0  0  0
   12.0396   18.0039   18.9807 O   0  0  0  0  0  0  0  0  0  0  0  0
   12.9958   16.8897   22.0439 H   0  0  0  0  0  0  0  0  0  0  0  0
   12.0818   15.3774   23.7270 H   0  0  0  0  0  0  0  0  0  0  0  0
   10.1612   13.0564   20.6536 H   0  0  0  0  0  0  0  0  0  0  0  0
    5.0171   12.0510   29.8035 H   0  0  0  0  0  0  0  0  0  0  0  0
   11.6583   13.8078   18.0297 H   0  0  0  0  0  0  0  0  0  0  0  0
    8.1556    8.6231   24.5252 H   0  0  0  0  0  0  0  0  0  0  0  0
    9.0389    7.4131   23.5764 H   0  0  0  0  0  0  0  0  0  0  0  0
    9.8337    8.2612   24.9035 H   0  0  0  0  0  0  0  0  0  0  0  0
   11.3537    9.8134   21.8238 H   0  0  0  0  0  0  0  0  0  0  0  0
   11.7125    8.9516   23.3155 H   0  0  0  0  0  0  0  0  0  0  0  0
   10.8905    8.1093   21.9961 H   0  0  0  0  0  0  0  0  0  0  0  0
    8.8672   10.3012   21.1924 H   0  0  0  0  0  0  0  0  0  0  0  0
    7.5840    9.7753   22.2753 H   0  0  0  0  0  0  0  0  0  0  0  0
    8.5462    8.5708   21.4106 H   0  0  0  0  0  0  0  0  0  0  0  0
   10.4172   10.8123   24.6098 H   0  0  0  0  0  0  0  0  0  0  0  0
    7.1371   11.8534   28.3724 H   0  0  0  0  0  0  0  0  0  0  0  0
   10.3952   11.6419   21.9398 H   0  0  0  0  0  0  0  0  0  0  0  0
   14.3825   15.8129   19.1141 H   0  0  0  0  0  0  0  0  0  0  0  0
   11.1722   18.0790   19.4119 H   0  0  0  0  0  0  0  0  0  0  0  0
  1  6  1  0  0  0  0
  1 28  1  0  0  0  0
  1 29  1  0  0  0  0
  2  3  2  0  0  0  0
  2  6  1  0  0  0  0
  3  7  1  0  0  0  0
  4  7  2  0  0  0  0
  4  8  1  0  0  0  0
  5 19  2  0  0  0  0
  5 23  1  0  0  0  0
  6  8  2  0  0  0  0
  7 13  1  0  0  0  0
  8 12  1  0  0  0  0
  9 10  1  0  0  0  0
  9 20  1  0  0  0  0
  9 21  2  0  0  0  0
 10 22  2  0  0  0  0
 10 23  1  0  0  0  0
 11 17  1  0  0  0  0
 11 20  2  0  0  0  0
 11 27  1  0  0  0  0
 12 25  2  0  0  0  0
 13 24  1  0  0  0  0
 13 26  2  0  0  0  0
 14 18  1  0  0  0  0
 15 18  1  0  0  0  0
 16 18  1  0  0  0  0
 17 18  1  0  0  0  0
 17 24  1  0  0  0  0
 19 22  1  0  0  0  0
 21 27  1  0  0  0  0
  2 30  1  0  0  0  0
  3 31  1  0  0  0  0
  4 32  1  0  0  0  0
  5 33  1  0  0  0  0
 12 34  1  0  0  0  0
 14 35  1  0  0  0  0
 14 36  1  0  0  0  0
 14 37  1  0  0  0  0
 15 38  1  0  0  0  0
 15 39  1  0  0  0  0
 15 40  1  0  0  0  0
 16 41  1  0  0  0  0
 16 42  1  0  0  0  0
 16 43  1  0  0  0  0
 17 44  1  0  0  0  0
 23 45  1  0  0  0  0
 24 46  1  0  0  0  0
 28 47  1  0  0  0  0
 29 48  1  0  0  0  0
M  END
> <Catalog ID>
Z7158435627

> <MW>
398.181

> <MW (desalted)>
398.181

> <ClogP>
0.632

> <logS>
-3.135

> <HBD>
4

> <HBA>
8

> <TPSA>
167.12

> <RotBonds>
7

> <ROCS_ShapeQuery>
A71EV2A-x0451_0A_A71EV2A-x0310_0A_A71EV2A-x0416_0A_peptide

> <ROCS_TanimotoCombo>
0.524 

> <ROCS_ShapeTanimoto>
0.377 

> <ROCS_ColorTanimoto>
0.147 

> <ROCS_RefTversky>
0.337 

> <ROCS_RefColorTversky>
0.184 

> <ROCS_RefTverskyCombo>
0.520 

> <ROCS_FitTversky>
1.455 

> <ROCS_FitColorTversky>
0.425 

> <ROCS_FitTverskyCombo>
1.880 

> <ROCS_ColorScore>
-5.641

> <ROCS_Overlap>
2345.397

> <ROCS_Rank>
326                 

$$$$
untitled-dbase-9785_2552
  -OEChem-11132309573D

 56 60  0     1  0  0  0  0  0999 V2000
   13.2066   11.1388   23.9743 C   0  0  0  0  0  0  0  0  0  0  0  0
   12.2784   12.9861   25.2243 C   0  0  0  0  0  0  0  0  0  0  0  0
   13.9457   10.7534   25.0926 C   0  0  0  0  0  0  0  0  0  0  0  0
   13.0175   12.6007   26.3427 C   0  0  0  0  0  0  0  0  0  0  0  0
   12.3729   12.2552   24.0401 C   0  0  0  0  0  0  0  0  0  0  0  0
   13.8512   11.4843   26.2769 C   0  0  0  0  0  0  0  0  0  0  0  0
   11.2966   14.1613   22.7625 C   0  0  0  0  0  0  0  0  0  0  0  0
    7.2421    9.7057   25.1810 C   0  0  0  0  0  0  0  0  0  0  0  0
    7.7178    8.1657   23.5021 C   0  0  0  0  0  0  0  0  0  0  0  0
   15.3348    9.7030   29.8955 C   0  0  0  0  0  0  0  0  0  0  0  0
   15.5430   10.9874   29.5893 C   0  0  0  0  0  0  0  0  0  0  0  0
   14.6233   11.7047   28.6593 C   0  0  0  0  0  0  0  0  0  0  0  0
   13.7755   13.9128   20.7128 C   0  0  0  0  0  0  0  0  0  0  0  0
   13.6600   15.2964   20.1537 C   0  0  0  0  0  0  0  0  0  0  0  0
    8.0591   11.7453   23.6374 C   0  0  0  0  0  0  0  0  0  0  0  0
    9.6272   10.8967   24.8599 C   0  0  0  0  0  0  0  0  0  0  0  0
    9.5157   12.1369   23.9524 C   0  0  0  0  0  0  0  0  0  0  0  0
    8.3248   10.3466   24.2372 C   0  0  0  0  0  0  0  0  0  0  0  0
   12.4035   14.5420   20.5499 C   0  0  0  0  0  0  0  0  0  0  0  0
   11.5251   14.0241   19.4447 C   0  0  0  0  0  0  0  0  0  0  0  0
   11.5708   12.6734   22.8262 C   0  0  2  0  0  0  0  0  0  0  0  0
   10.6689   14.8992   23.6490 N   0  0  0  0  0  0  0  0  0  0  0  0
   10.6760   16.1780   23.1396 N   0  0  0  0  0  0  0  0  0  0  0  0
   11.2960   16.2208   21.9666 N   0  0  0  0  0  0  0  0  0  0  0  0
   11.6829   14.9590   21.7330 N   0  0  0  0  0  0  0  0  0  0  0  0
    6.9796    8.4570   24.6511 N   0  0  0  0  0  0  0  0  0  0  0  0
    8.5296    9.2791   23.2335 N   0  0  0  0  0  0  0  0  0  0  0  0
   14.5901   11.0989   27.3957 N   0  0  0  0  0  0  0  0  0  0  0  0
   10.3285   11.9168   22.7570 N   0  0  0  0  0  0  0  0  0  0  0  0
    6.7166   10.1771   26.1822 O   0  0  0  0  0  0  0  0  0  0  0  0
    7.6680    7.1321   22.8488 O   0  0  0  0  0  0  0  0  0  0  0  0
   14.0022   12.6975   29.0201 O   0  0  0  0  0  0  0  0  0  0  0  0
   13.2881   10.5647   23.0550 H   0  0  0  0  0  0  0  0  0  0  0  0
   11.6319   13.8577   25.2843 H   0  0  0  0  0  0  0  0  0  0  0  0
   14.5919    9.8814   25.0301 H   0  0  0  0  0  0  0  0  0  0  0  0
   12.9371   13.1782   27.2603 H   0  0  0  0  0  0  0  0  0  0  0  0
   15.9815    9.1494   30.5670 H   0  0  0  0  0  0  0  0  0  0  0  0
   14.4910    9.1731   29.4660 H   0  0  0  0  0  0  0  0  0  0  0  0
   16.3861   11.5180   30.0185 H   0  0  0  0  0  0  0  0  0  0  0  0
   14.0644   13.1182   20.0348 H   0  0  0  0  0  0  0  0  0  0  0  0
   14.1800   13.8068   21.7125 H   0  0  0  0  0  0  0  0  0  0  0  0
   13.9868   16.1198   20.7782 H   0  0  0  0  0  0  0  0  0  0  0  0
   13.8716   15.4328   19.0998 H   0  0  0  0  0  0  0  0  0  0  0  0
    7.2985   12.3477   24.1608 H   0  0  0  0  0  0  0  0  0  0  0  0
    7.7795   11.7264   22.5681 H   0  0  0  0  0  0  0  0  0  0  0  0
   10.5085   10.2503   24.6950 H   0  0  0  0  0  0  0  0  0  0  0  0
    9.5807   11.1127   25.9400 H   0  0  0  0  0  0  0  0  0  0  0  0
    9.6495   13.0986   24.4426 H   0  0  0  0  0  0  0  0  0  0  0  0
   10.5641   14.5529   19.4265 H   0  0  0  0  0  0  0  0  0  0  0  0
   11.3194   12.9545   19.5752 H   0  0  0  0  0  0  0  0  0  0  0  0
   12.0036   14.1593   18.4669 H   0  0  0  0  0  0  0  0  0  0  0  0
   12.1167   12.3882   21.9174 H   0  0  0  0  0  0  0  0  0  0  0  0
    6.3129    7.8103   25.0582 H   0  0  0  0  0  0  0  0  0  0  0  0
    9.1662    9.3165   22.4461 H   0  0  0  0  0  0  0  0  0  0  0  0
   15.1833   10.2684   27.2790 H   0  0  0  0  0  0  0  0  0  0  0  0
    9.8014   12.2101   21.9353 H   0  0  0  0  0  0  0  0  0  0  0  0
  1  3  2  0  0  0  0
  1  5  1  0  0  0  0
  2  4  1  0  0  0  0
  2  5  2  0  0  0  0
  3  6  1  0  0  0  0
  4  6  2  0  0  0  0
  5 21  1  0  0  0  0
  6 28  1  0  0  0  0
  7 21  1  0  0  0  0
  7 22  2  0  0  0  0
  7 25  1  0  0  0  0
  8 18  1  0  0  0  0
  8 26  1  0  0  0  0
  8 30  2  0  0  0  0
  9 26  1  0  0  0  0
  9 27  1  0  0  0  0
  9 31  2  0  0  0  0
 10 11  2  0  0  0  0
 11 12  1  0  0  0  0
 12 28  1  0  0  0  0
 12 32  2  0  0  0  0
 13 14  1  0  0  0  0
 13 19  1  0  0  0  0
 14 19  1  0  0  0  0
 15 17  1  0  0  0  0
 15 18  1  0  0  0  0
 16 17  1  0  0  0  0
 16 18  1  0  0  0  0
 17 29  1  0  0  0  0
 18 27  1  0  0  0  0
 19 20  1  0  0  0  0
 19 25  1  0  0  0  0
 21 29  1  0  0  0  0
 22 23  1  0  0  0  0
 23 24  2  0  0  0  0
 24 25  1  0  0  0  0
  1 33  1  0  0  0  0
  2 34  1  0  0  0  0
  3 35  1  0  0  0  0
  4 36  1  0  0  0  0
 10 37  1  0  0  0  0
 10 38  1  0  0  0  0
 11 39  1  0  0  0  0
 13 40  1  0  0  0  0
 13 41  1  0  0  0  0
 14 42  1  0  0  0  0
 14 43  1  0  0  0  0
 15 44  1  0  0  0  0
 15 45  1  0  0  0  0
 16 46  1  0  0  0  0
 16 47  1  0  0  0  0
 17 48  1  0  0  0  0
 20 49  1  0  0  0  0
 20 50  1  0  0  0  0
 20 51  1  0  0  0  0
 21 52  1  0  0  0  0
 26 53  1  0  0  0  0
 27 54  1  0  0  0  0
 28 55  1  0  0  0  0
 29 56  1  0  0  0  0
M  END
> <Catalog ID>
Z7759191004

> <MW>
436.467

> <MW (desalted)>
436.467

> <ClogP>
-1.785

> <logS>
-2.922

> <HBD>
4

> <HBA>
7

> <TPSA>
142.93

> <RotBonds>
7

> <ROCS_ShapeQuery>
A71EV2A-x0451_0A_A71EV2A-x0310_0A_A71EV2A-x0416_0A_peptide

> <ROCS_TanimotoCombo>
0.524 

> <ROCS_ShapeTanimoto>
0.360 

> <ROCS_ColorTanimoto>
0.164 

> <ROCS_RefTversky>
0.332 

> <ROCS_RefColorTversky>
0.220 

> <ROCS_RefTverskyCombo>
0.551 

> <ROCS_FitTversky>
1.313 

> <ROCS_FitColorTversky>
0.390 

> <ROCS_FitTverskyCombo>
1.703 

> <ROCS_ColorScore>
-6.800

> <ROCS_Overlap>
2311.297

> <ROCS_Rank>
327                 

$$$$
untitled-dbase-570_4632
  -OEChem-11132309573D

 54 56  0     0  0  0  0  0  0999 V2000
   11.1774   13.1134   25.7538 C   0  0  0  0  0  0  0  0  0  0  0  0
    4.0765   12.5705   28.7167 C   0  0  0  0  0  0  0  0  0  0  0  0
    3.8161   12.7465   27.3577 C   0  0  0  0  0  0  0  0  0  0  0  0
    5.3259   12.1114   29.1337 C   0  0  0  0  0  0  0  0  0  0  0  0
    4.8051   12.4632   26.4157 C   0  0  0  0  0  0  0  0  0  0  0  0
    6.3148   11.8280   28.1917 C   0  0  0  0  0  0  0  0  0  0  0  0
   11.6460   14.7087   19.8455 C   0  0  0  0  0  0  0  0  0  0  0  0
   13.3503   15.4886   21.3700 C   0  0  0  0  0  0  0  0  0  0  0  0
   12.3261   15.3016   18.7818 C   0  0  0  0  0  0  0  0  0  0  0  0
   14.0305   16.0815   20.3063 C   0  0  0  0  0  0  0  0  0  0  0  0
    8.7577   11.9640   24.5182 C   0  0  0  0  0  0  0  0  0  0  0  0
    8.2949   10.6276   24.4345 C   0  0  0  0  0  0  0  0  0  0  0  0
    6.0545   12.0039   26.8327 C   0  0  0  0  0  0  0  0  0  0  0  0
   12.1580   14.8023   21.1397 C   0  0  0  0  0  0  0  0  0  0  0  0
   13.5184   15.9879   19.0122 C   0  0  0  0  0  0  0  0  0  0  0  0
    7.9605   12.6190   25.4307 C   0  0  0  0  0  0  0  0  0  0  0  0
    7.2288   10.5066   25.2984 C   0  0  0  0  0  0  0  0  0  0  0  0
    9.8324   12.5497   23.8117 C   0  0  0  0  0  0  0  0  0  0  0  0
   10.9816   13.1083   24.3392 C   0  0  0  0  0  0  0  0  0  0  0  0
    8.8050    9.5602   23.6188 C   0  0  0  0  0  0  0  0  0  0  0  0
   12.0126   13.6816   23.3906 C   0  0  0  0  0  0  0  0  0  0  0  0
    8.0032   14.0256   25.8958 C   0  0  0  0  0  0  0  0  0  0  0  0
    6.3812    9.3297   25.5990 C   0  0  0  0  0  0  0  0  0  0  0  0
    9.7791    9.0200   20.6440 C   0  0  0  0  0  0  0  0  0  0  0  0
   10.4699    8.9803   21.9905 C   0  0  0  0  0  0  0  0  0  0  0  0
   11.3413   13.1191   26.9027 N   0  0  0  0  0  0  0  0  0  0  0  0
    7.0344   11.7234   25.8982 N   0  0  0  0  0  0  0  0  0  0  0  0
   11.4667   14.1992   22.2211 N   0  0  0  0  0  0  0  0  0  0  0  0
    8.3502    8.3983   23.5907 O   0  0  0  0  0  0  0  0  0  0  0  0
   13.2056   13.6602   23.6832 O   0  0  0  0  0  0  0  0  0  0  0  0
    9.8730    9.9575   22.8498 O   0  0  0  0  0  0  0  0  0  0  0  0
   14.3577   16.7194   17.6994 Cl  0  0  0  0  0  0  0  0  0  0  0  0
    3.3075   12.7927   29.4506 H   0  0  0  0  0  0  0  0  0  0  0  0
    2.8439   13.1053   27.0329 H   0  0  0  0  0  0  0  0  0  0  0  0
    5.5283   11.9760   30.1923 H   0  0  0  0  0  0  0  0  0  0  0  0
    4.5893   12.6054   25.3596 H   0  0  0  0  0  0  0  0  0  0  0  0
    7.2846   11.4715   28.5306 H   0  0  0  0  0  0  0  0  0  0  0  0
   10.7176   14.1766   19.6548 H   0  0  0  0  0  0  0  0  0  0  0  0
   13.7583   15.5677   22.3744 H   0  0  0  0  0  0  0  0  0  0  0  0
   11.9158   15.2207   17.7786 H   0  0  0  0  0  0  0  0  0  0  0  0
   14.9584   16.6133   20.5002 H   0  0  0  0  0  0  0  0  0  0  0  0
    9.7467   12.5432   22.7031 H   0  0  0  0  0  0  0  0  0  0  0  0
    7.3711   14.6662   25.2631 H   0  0  0  0  0  0  0  0  0  0  0  0
    7.6529   14.1221   26.9353 H   0  0  0  0  0  0  0  0  0  0  0  0
    9.0269   14.4309   25.8751 H   0  0  0  0  0  0  0  0  0  0  0  0
    6.7997    8.7481   26.4342 H   0  0  0  0  0  0  0  0  0  0  0  0
    5.3551    9.6238   25.8707 H   0  0  0  0  0  0  0  0  0  0  0  0
    6.2904    8.6589   24.7299 H   0  0  0  0  0  0  0  0  0  0  0  0
    8.7143    8.7921   20.7449 H   0  0  0  0  0  0  0  0  0  0  0  0
    9.8873   10.0076   20.1836 H   0  0  0  0  0  0  0  0  0  0  0  0
   10.2315    8.2973   19.9569 H   0  0  0  0  0  0  0  0  0  0  0  0
   11.5343    9.2091   21.8826 H   0  0  0  0  0  0  0  0  0  0  0  0
   10.3601    7.9933   22.4494 H   0  0  0  0  0  0  0  0  0  0  0  0
   10.4560   14.1382   22.1310 H   0  0  0  0  0  0  0  0  0  0  0  0
  1 19  1  0  0  0  0
  1 26  3  0  0  0  0
  2  3  1  0  0  0  0
  2  4  2  0  0  0  0
  3  5  2  0  0  0  0
  4  6  1  0  0  0  0
  5 13  1  0  0  0  0
  6 13  2  0  0  0  0
  7  9  2  0  0  0  0
  7 14  1  0  0  0  0
  8 10  1  0  0  0  0
  8 14  2  0  0  0  0
  9 15  1  0  0  0  0
 10 15  2  0  0  0  0
 11 12  1  0  0  0  0
 11 16  2  0  0  0  0
 11 18  1  4  0  0  0
 12 17  2  0  0  0  0
 12 20  1  0  0  0  0
 13 27  1  0  0  0  0
 14 28  1  0  0  0  0
 15 32  1  0  0  0  0
 16 22  1  0  0  0  0
 16 27  1  0  0  0  0
 17 23  1  0  0  0  0
 17 27  1  0  0  0  0
 18 19  2  0  0  0  0
 19 21  1  0  0  0  0
 20 29  2  0  0  0  0
 20 31  1  0  0  0  0
 21 28  1  0  0  0  0
 21 30  2  0  0  0  0
 24 25  1  0  0  0  0
 25 31  1  0  0  0  0
  2 33  1  0  0  0  0
  3 34  1  0  0  0  0
  4 35  1  0  0  0  0
  5 36  1  0  0  0  0
  6 37  1  0  0  0  0
  7 38  1  0  0  0  0
  8 39  1  0  0  0  0
  9 40  1  0  0  0  0
 10 41  1  0  0  0  0
 18 42  1  0  0  0  0
 22 43  1  0  0  0  0
 22 44  1  0  0  0  0
 22 45  1  0  0  0  0
 23 46  1  0  0  0  0
 23 47  1  0  0  0  0
 23 48  1  0  0  0  0
 24 49  1  0  0  0  0
 24 50  1  0  0  0  0
 24 51  1  0  0  0  0
 25 52  1  0  0  0  0
 25 53  1  0  0  0  0
 28 54  1  0  0  0  0
M  END
> <Catalog ID>
Z56824651

> <MW>
447.913

> <MW (desalted)>
447.913

> <ClogP>
6.709

> <logS>
-5.99

> <HBD>
1

> <HBA>
3

> <TPSA>
84.12

> <RotBonds>
7

> <ROCS_ShapeQuery>
A71EV2A-x0451_0A_A71EV2A-x0310_0A_A71EV2A-x0416_0A_peptide

> <ROCS_TanimotoCombo>
0.524 

> <ROCS_ShapeTanimoto>
0.404 

> <ROCS_ColorTanimoto>
0.119 

> <ROCS_RefTversky>
0.359 

> <ROCS_RefColorTversky>
0.135 

> <ROCS_RefTverskyCombo>
0.495 

> <ROCS_FitTversky>
1.445 

> <ROCS_FitColorTversky>
0.501 

> <ROCS_FitTverskyCombo>
1.946 

> <ROCS_ColorScore>
-4.126

> <ROCS_Overlap>
2504.802

> <ROCS_Rank>
328                 

$$$$
untitled-dbase-9033_9654
  -OEChem-11132309573D

 52 54  0     0  0  0  0  0  0999 V2000
   13.8079   12.0381   27.2584 C   0  0  0  0  0  0  0  0  0  0  0  0
   15.3655   12.5656   25.4885 C   0  0  0  0  0  0  0  0  0  0  0  0
   14.8449   11.4779   28.0042 C   0  0  0  0  0  0  0  0  0  0  0  0
   16.4027   12.0055   26.2343 C   0  0  0  0  0  0  0  0  0  0  0  0
    7.6506   12.9591   24.7656 C   0  0  0  0  0  0  0  0  0  0  0  0
    6.6360   13.1341   25.7129 C   0  0  0  0  0  0  0  0  0  0  0  0
    6.3685   10.7557   25.8652 C   0  0  0  0  0  0  0  0  0  0  0  0
   14.0681   12.5819   26.0005 C   0  0  0  0  0  0  0  0  0  0  0  0
    7.3795   10.5661   24.9049 C   0  0  0  0  0  0  0  0  0  0  0  0
   16.1423   11.4616   27.4922 C   0  0  0  0  0  0  0  0  0  0  0  0
    8.0375   11.6788   24.3304 C   0  0  0  0  0  0  0  0  0  0  0  0
    5.9922   12.0339   26.2604 C   0  0  0  0  0  0  0  0  0  0  0  0
   12.9729   13.1736   25.2126 C   0  0  0  0  0  0  0  0  0  0  0  0
   13.1207   14.1633   24.3233 C   0  0  0  0  0  0  0  0  0  0  0  0
    9.6307   12.5333   22.5954 C   0  0  0  0  0  0  0  0  0  0  0  0
    7.7496    9.1474   24.5587 C   0  0  0  0  0  0  0  0  0  0  0  0
    8.4757    9.0780   23.2302 C   0  0  0  0  0  0  0  0  0  0  0  0
    9.5975   10.1010   23.2133 C   0  0  0  0  0  0  0  0  0  0  0  0
   17.2511   10.8645   28.2911 C   0  0  0  0  0  0  0  0  0  0  0  0
    4.6888   13.5449   27.5541 C   0  0  0  0  0  0  0  0  0  0  0  0
   11.0753   12.3801   22.1729 C   0  0  0  0  0  0  0  0  0  0  0  0
    9.0968   11.4802   23.3614 N   0  0  0  0  0  0  0  0  0  0  0  0
   11.6205   13.6983   22.0740 N   0  0  0  0  0  0  0  0  0  0  0  0
    9.0250   13.5435   22.2315 O   0  0  0  0  0  0  0  0  0  0  0  0
   10.5417   14.3760   24.3167 O   0  0  0  0  0  0  0  0  0  0  0  0
   11.9169   16.0770   23.0842 O   0  0  0  0  0  0  0  0  0  0  0  0
    5.0111   12.2039   27.1862 O   0  0  0  0  0  0  0  0  0  0  0  0
   11.6956   14.7023   23.4974 S   0  0  0  0  0  0  0  0  0  0  0  0
   12.8017   12.0432   27.6707 H   0  0  0  0  0  0  0  0  0  0  0  0
   15.5842   12.9860   24.5098 H   0  0  0  0  0  0  0  0  0  0  0  0
   14.6331   11.0569   28.9834 H   0  0  0  0  0  0  0  0  0  0  0  0
   17.4106   11.9968   25.8279 H   0  0  0  0  0  0  0  0  0  0  0  0
    8.1416   13.8627   24.4218 H   0  0  0  0  0  0  0  0  0  0  0  0
    6.3662   14.1392   26.0270 H   0  0  0  0  0  0  0  0  0  0  0  0
    5.8737    9.8935   26.3077 H   0  0  0  0  0  0  0  0  0  0  0  0
   11.9896   12.7382   25.3793 H   0  0  0  0  0  0  0  0  0  0  0  0
   14.0683   14.6309   24.0892 H   0  0  0  0  0  0  0  0  0  0  0  0
    8.3887    8.7504   25.3569 H   0  0  0  0  0  0  0  0  0  0  0  0
    6.8514    8.5205   24.5052 H   0  0  0  0  0  0  0  0  0  0  0  0
    8.8800    8.0706   23.0804 H   0  0  0  0  0  0  0  0  0  0  0  0
    7.7830    9.2725   22.4014 H   0  0  0  0  0  0  0  0  0  0  0  0
   10.3136    9.9216   24.0246 H   0  0  0  0  0  0  0  0  0  0  0  0
   10.1361    9.9867   22.2689 H   0  0  0  0  0  0  0  0  0  0  0  0
   17.3533    9.7963   28.0641 H   0  0  0  0  0  0  0  0  0  0  0  0
   18.2076   11.3587   28.0769 H   0  0  0  0  0  0  0  0  0  0  0  0
   17.0706   10.9756   29.3683 H   0  0  0  0  0  0  0  0  0  0  0  0
    3.8904   13.5369   28.3002 H   0  0  0  0  0  0  0  0  0  0  0  0
    4.3689   14.0997   26.6685 H   0  0  0  0  0  0  0  0  0  0  0  0
    5.5763   14.0202   27.9785 H   0  0  0  0  0  0  0  0  0  0  0  0
   11.0908   11.8713   21.2154 H   0  0  0  0  0  0  0  0  0  0  0  0
   11.5847   11.7953   22.9308 H   0  0  0  0  0  0  0  0  0  0  0  0
   12.4613   13.7972   21.4568 H   0  0  0  0  0  0  0  0  0  0  0  0
  1  3  2  0  0  0  0
  1  8  1  0  0  0  0
  2  4  1  0  0  0  0
  2  8  2  0  0  0  0
  3 10  1  0  0  0  0
  4 10  2  0  0  0  0
  5  6  2  0  0  0  0
  5 11  1  0  0  0  0
  6 12  1  0  0  0  0
  7  9  1  0  0  0  0
  7 12  2  0  0  0  0
  8 13  1  0  0  0  0
  9 11  2  0  0  0  0
  9 16  1  0  0  0  0
 10 19  1  0  0  0  0
 11 22  1  0  0  0  0
 12 27  1  0  0  0  0
 13 14  2  0  0  0  0
 14 28  1  4  0  0  0
 15 21  1  0  0  0  0
 15 22  1  0  0  0  0
 15 24  2  0  0  0  0
 16 17  1  0  0  0  0
 17 18  1  0  0  0  0
 18 22  1  0  0  0  0
 20 27  1  0  0  0  0
 21 23  1  0  0  0  0
 23 28  1  0  0  0  0
 25 28  2  0  0  0  0
 26 28  2  0  0  0  0
  1 29  1  0  0  0  0
  2 30  1  0  0  0  0
  3 31  1  0  0  0  0
  4 32  1  0  0  0  0
  5 33  1  0  0  0  0
  6 34  1  0  0  0  0
  7 35  1  0  0  0  0
 13 36  1  0  0  0  0
 14 37  1  0  0  0  0
 16 38  1  0  0  0  0
 16 39  1  0  0  0  0
 17 40  1  0  0  0  0
 17 41  1  0  0  0  0
 18 42  1  0  0  0  0
 18 43  1  0  0  0  0
 19 44  1  0  0  0  0
 19 45  1  0  0  0  0
 19 46  1  0  0  0  0
 20 47  1  0  0  0  0
 20 48  1  0  0  0  0
 20 49  1  0  0  0  0
 21 50  1  0  0  0  0
 21 51  1  0  0  0  0
 23 52  1  0  0  0  0
M  END
> <Catalog ID>
Z245536012

> <MW>
400.491

> <MW (desalted)>
400.491

> <ClogP>
3.76

> <logS>
-5.16

> <HBD>
1

> <HBA>
4

> <TPSA>
75.71

> <RotBonds>
5

> <ROCS_ShapeQuery>
A71EV2A-x0451_0A_A71EV2A-x0310_0A_A71EV2A-x0416_0A_peptide

> <ROCS_TanimotoCombo>
0.524 

> <ROCS_ShapeTanimoto>
0.371 

> <ROCS_ColorTanimoto>
0.152 

> <ROCS_RefTversky>
0.330 

> <ROCS_RefColorTversky>
0.172 

> <ROCS_RefTverskyCombo>
0.502 

> <ROCS_FitTversky>
1.501 

> <ROCS_FitColorTversky>
0.572 

> <ROCS_FitTverskyCombo>
2.072 

> <ROCS_ColorScore>
-5.255

> <ROCS_Overlap>
2297.052

> <ROCS_Rank>
329                 

$$$$
untitled-dbase-7089_1437
  -OEChem-11132309573D

 48 50  0     0  0  0  0  0  0999 V2000
    3.9732   12.3571   28.9943 C   0  0  0  0  0  0  0  0  0  0  0  0
    3.6001   12.5707   27.6673 C   0  0  0  0  0  0  0  0  0  0  0  0
    5.3133   12.1422   29.3161 C   0  0  0  0  0  0  0  0  0  0  0  0
    4.5672   12.5692   26.6621 C   0  0  0  0  0  0  0  0  0  0  0  0
    6.2804   12.1408   28.3109 C   0  0  0  0  0  0  0  0  0  0  0  0
    9.1761    9.3583   22.8954 C   0  0  0  0  0  0  0  0  0  0  0  0
    8.2237    9.5570   23.8949 C   0  0  0  0  0  0  0  0  0  0  0  0
    8.7831   11.9064   23.9609 C   0  0  0  0  0  0  0  0  0  0  0  0
    5.9073   12.3543   26.9839 C   0  0  0  0  0  0  0  0  0  0  0  0
    9.9321   10.4336   22.4287 C   0  0  0  0  0  0  0  0  0  0  0  0
    9.7356   11.7077   22.9614 C   0  0  0  0  0  0  0  0  0  0  0  0
    8.0272   10.8310   24.4276 C   0  0  0  0  0  0  0  0  0  0  0  0
   14.9034   16.6812   18.7773 C   0  0  0  0  0  0  0  0  0  0  0  0
   14.3846   15.5122   19.1591 C   0  0  0  0  0  0  0  0  0  0  0  0
   12.9186   15.3653   19.2065 C   0  0  0  0  0  0  0  0  0  0  0  0
   10.8658   13.9392   23.2207 C   0  0  0  0  0  0  0  0  0  0  0  0
   12.8907   14.3280   21.5866 C   0  0  0  0  0  0  0  0  0  0  0  0
   11.0935   15.3192   20.9926 C   0  0  0  0  0  0  0  0  0  0  0  0
   11.6825   14.9014   22.3536 C   0  0  0  0  0  0  0  0  0  0  0  0
   10.9452   10.1912   21.3573 C   0  0  0  0  0  0  0  0  0  0  0  0
    6.9481   12.3524   25.9030 C   0  0  0  0  0  0  0  0  0  0  0  0
   12.4045   15.0561   20.4323 N   0  0  0  0  0  0  0  0  0  0  0  0
   10.4925   12.8112   22.5012 N   0  0  0  0  0  0  0  0  0  0  0  0
   12.2539   15.5193   18.1849 O   0  0  0  0  0  0  0  0  0  0  0  0
   10.6199   14.2046   24.3929 O   0  0  0  0  0  0  0  0  0  0  0  0
    7.0976   11.0246   25.4028 O   0  0  0  0  0  0  0  0  0  0  0  0
    3.2202   12.3596   29.7770 H   0  0  0  0  0  0  0  0  0  0  0  0
    2.5568   12.7391   27.4167 H   0  0  0  0  0  0  0  0  0  0  0  0
    5.6042   11.9770   30.3492 H   0  0  0  0  0  0  0  0  0  0  0  0
    4.2673   12.7363   25.6309 H   0  0  0  0  0  0  0  0  0  0  0  0
    7.3221   11.9724   28.5709 H   0  0  0  0  0  0  0  0  0  0  0  0
    9.3216    8.3617   22.4868 H   0  0  0  0  0  0  0  0  0  0  0  0
    7.6378    8.7154   24.2544 H   0  0  0  0  0  0  0  0  0  0  0  0
    8.6252   12.8976   24.3801 H   0  0  0  0  0  0  0  0  0  0  0  0
   15.9736   16.8500   18.7226 H   0  0  0  0  0  0  0  0  0  0  0  0
   14.2501   17.5043   18.5076 H   0  0  0  0  0  0  0  0  0  0  0  0
   15.0032   14.6683   19.4352 H   0  0  0  0  0  0  0  0  0  0  0  0
   13.8639   14.6620   21.9550 H   0  0  0  0  0  0  0  0  0  0  0  0
   12.8907   13.2449   21.4341 H   0  0  0  0  0  0  0  0  0  0  0  0
   10.3214   14.6638   20.5790 H   0  0  0  0  0  0  0  0  0  0  0  0
   10.7822   16.3643   20.9231 H   0  0  0  0  0  0  0  0  0  0  0  0
   11.9673   15.7831   22.9477 H   0  0  0  0  0  0  0  0  0  0  0  0
   10.4897   10.3196   20.3689 H   0  0  0  0  0  0  0  0  0  0  0  0
   11.7894   10.8855   21.4468 H   0  0  0  0  0  0  0  0  0  0  0  0
   11.3568    9.1768   21.4244 H   0  0  0  0  0  0  0  0  0  0  0  0
    6.6587   13.0139   25.0794 H   0  0  0  0  0  0  0  0  0  0  0  0
    7.9113   12.7004   26.2916 H   0  0  0  0  0  0  0  0  0  0  0  0
   10.7922   12.7595   21.5297 H   0  0  0  0  0  0  0  0  0  0  0  0
  1  2  1  0  0  0  0
  1  3  2  0  0  0  0
  2  4  2  0  0  0  0
  3  5  1  0  0  0  0
  4  9  1  0  0  0  0
  5  9  2  0  0  0  0
  6  7  2  0  0  0  0
  6 10  1  0  0  0  0
  7 12  1  0  0  0  0
  8 11  1  0  0  0  0
  8 12  2  0  0  0  0
  9 21  1  0  0  0  0
 10 11  2  0  0  0  0
 10 20  1  0  0  0  0
 11 23  1  0  0  0  0
 12 26  1  0  0  0  0
 13 14  2  0  0  0  0
 14 15  1  0  0  0  0
 15 22  1  0  0  0  0
 15 24  2  0  0  0  0
 16 19  1  0  0  0  0
 16 23  1  0  0  0  0
 16 25  2  0  0  0  0
 17 19  1  0  0  0  0
 17 22  1  0  0  0  0
 18 19  1  0  0  0  0
 18 22  1  0  0  0  0
 21 26  1  0  0  0  0
  1 27  1  0  0  0  0
  2 28  1  0  0  0  0
  3 29  1  0  0  0  0
  4 30  1  0  0  0  0
  5 31  1  0  0  0  0
  6 32  1  0  0  0  0
  7 33  1  0  0  0  0
  8 34  1  0  0  0  0
 13 35  1  0  0  0  0
 13 36  1  0  0  0  0
 14 37  1  0  0  0  0
 17 38  1  0  0  0  0
 17 39  1  0  0  0  0
 18 40  1  0  0  0  0
 18 41  1  0  0  0  0
 19 42  1  0  0  0  0
 20 43  1  0  0  0  0
 20 44  1  0  0  0  0
 20 45  1  0  0  0  0
 21 46  1  0  0  0  0
 21 47  1  0  0  0  0
 23 48  1  0  0  0  0
M  END
> <Catalog ID>
Z4899196632

> <MW>
350.411

> <MW (desalted)>
350.411

> <ClogP>
3.329

> <logS>
-4.905

> <HBD>
1

> <HBA>
3

> <TPSA>
58.64

> <RotBonds>
6

> <ROCS_ShapeQuery>
A71EV2A-x0451_0A_A71EV2A-x0310_0A_A71EV2A-x0416_0A_peptide

> <ROCS_TanimotoCombo>
0.523 

> <ROCS_ShapeTanimoto>
0.365 

> <ROCS_ColorTanimoto>
0.159 

> <ROCS_RefTversky>
0.324 

> <ROCS_RefColorTversky>
0.178 

> <ROCS_RefTverskyCombo>
0.502 

> <ROCS_FitTversky>
1.532 

> <ROCS_FitColorTversky>
0.592 

> <ROCS_FitTverskyCombo>
2.125 

> <ROCS_ColorScore>
-5.439

> <ROCS_Overlap>
2251.014

> <ROCS_Rank>
330                 

$$$$
untitled-dbase-4576_592
  -OEChem-11132309573D

 42 44  0     1  0  0  0  0  0999 V2000
    6.3525   11.5639   25.5431 C   0  0  0  0  0  0  0  0  0  0  0  0
    6.9866   12.8130   25.4745 C   0  0  0  0  0  0  0  0  0  0  0  0
   13.8890   16.0317   20.7097 C   0  0  0  0  0  0  0  0  0  0  0  0
   11.9568   15.2173   19.5095 C   0  0  0  0  0  0  0  0  0  0  0  0
    6.8474   10.4751   24.8216 C   0  0  0  0  0  0  0  0  0  0  0  0
   14.1867   16.8880   19.6496 C   0  0  0  0  0  0  0  0  0  0  0  0
   12.2544   16.0736   18.4494 C   0  0  0  0  0  0  0  0  0  0  0  0
    8.1272   12.9888   24.6889 C   0  0  0  0  0  0  0  0  0  0  0  0
   12.7741   15.1964   20.6397 C   0  0  0  0  0  0  0  0  0  0  0  0
    7.9905   10.6500   24.0551 C   0  0  0  0  0  0  0  0  0  0  0  0
   13.3694   16.9090   18.5194 C   0  0  0  0  0  0  0  0  0  0  0  0
    8.6271   11.8896   24.0075 C   0  0  0  0  0  0  0  0  0  0  0  0
   12.4596   14.2918   21.7592 C   0  0  0  0  0  0  0  0  0  0  0  0
   11.2283   13.8784   22.0837 C   0  0  0  0  0  0  0  0  0  0  0  0
    8.9769    8.3618   23.8215 C   0  0  0  0  0  0  0  0  0  0  0  0
    9.9495   10.4086   22.7320 C   0  0  0  0  0  0  0  0  0  0  0  0
    8.6651    9.6606   23.1507 C   0  0  2  0  0  0  0  0  0  0  0  0
   13.6869   17.8264   17.3874 C   0  0  0  0  0  0  0  0  0  0  0  0
    9.7251   11.8502   23.0890 N   0  0  2  0  0  0  0  0  0  0  0  0
    8.0127    7.3986   23.6402 N   0  0  0  0  0  0  0  0  0  0  0  0
   10.0138    8.1877   24.4570 O   0  0  0  0  0  0  0  0  0  0  0  0
   12.2598   11.9372   23.4399 O   0  0  0  0  0  0  0  0  0  0  0  0
   10.7944   13.6086   24.6154 O   0  0  0  0  0  0  0  0  0  0  0  0
   11.0866   12.8017   23.4378 S   0  0  0  0  0  0  0  0  0  0  0  0
    5.4770   11.4396   26.1745 H   0  0  0  0  0  0  0  0  0  0  0  0
    6.5906   13.6485   26.0450 H   0  0  0  0  0  0  0  0  0  0  0  0
   14.5356   16.0264   21.5840 H   0  0  0  0  0  0  0  0  0  0  0  0
   11.0841   14.5724   19.4403 H   0  0  0  0  0  0  0  0  0  0  0  0
    6.3498    9.5112   24.8721 H   0  0  0  0  0  0  0  0  0  0  0  0
   15.0570   17.5357   19.7130 H   0  0  0  0  0  0  0  0  0  0  0  0
   11.6124   16.0836   17.5725 H   0  0  0  0  0  0  0  0  0  0  0  0
    8.5956   13.9648   24.6248 H   0  0  0  0  0  0  0  0  0  0  0  0
   13.3165   13.9411   22.3311 H   0  0  0  0  0  0  0  0  0  0  0  0
   10.3321   14.1672   21.5500 H   0  0  0  0  0  0  0  0  0  0  0  0
   10.8493   10.0316   23.2314 H   0  0  0  0  0  0  0  0  0  0  0  0
   10.0860   10.3219   21.6454 H   0  0  0  0  0  0  0  0  0  0  0  0
    8.0427    9.4506   22.2561 H   0  0  0  0  0  0  0  0  0  0  0  0
   14.3463   17.3287   16.6658 H   0  0  0  0  0  0  0  0  0  0  0  0
   12.7756   18.1441   16.8643 H   0  0  0  0  0  0  0  0  0  0  0  0
   14.1843   18.7388   17.7414 H   0  0  0  0  0  0  0  0  0  0  0  0
    8.1493    6.4870   24.0643 H   0  0  0  0  0  0  0  0  0  0  0  0
    7.1699    7.5628   23.0993 H   0  0  0  0  0  0  0  0  0  0  0  0
  1  2  1  0  0  0  0
  1  5  2  0  0  0  0
  2  8  2  0  0  0  0
  3  6  2  0  0  0  0
  3  9  1  0  0  0  0
  4  7  1  0  0  0  0
  4  9  2  0  0  0  0
  5 10  1  0  0  0  0
  6 11  1  0  0  0  0
  7 11  2  0  0  0  0
  8 12  1  0  0  0  0
  9 13  1  4  0  0  0
 10 12  2  0  0  0  0
 10 17  1  0  0  0  0
 11 18  1  0  0  0  0
 12 19  1  0  0  0  0
 13 14  2  0  0  0  0
 14 24  1  0  0  0  0
 15 17  1  0  0  0  0
 15 20  1  0  0  0  0
 15 21  2  0  0  0  0
 16 17  1  0  0  0  0
 16 19  1  0  0  0  0
 19 24  1  0  0  0  0
 22 24  2  0  0  0  0
 23 24  2  0  0  0  0
  1 25  1  0  0  0  0
  2 26  1  0  0  0  0
  3 27  1  0  0  0  0
  4 28  1  0  0  0  0
  5 29  1  0  0  0  0
  6 30  1  0  0  0  0
  7 31  1  0  0  0  0
  8 32  1  0  0  0  0
 13 33  1  0  0  0  0
 14 34  1  0  0  0  0
 16 35  1  0  0  0  0
 16 36  1  0  0  0  0
 17 37  1  0  0  0  0
 18 38  1  0  0  0  0
 18 39  1  0  0  0  0
 18 40  1  0  0  0  0
 20 41  1  0  0  0  0
 20 42  1  0  0  0  0
M  END
> <Catalog ID>
Z1203166806

> <MW>
342.412

> <MW (desalted)>
342.412

> <ClogP>
2.501

> <logS>
-4.51

> <HBD>
1

> <HBA>
3

> <TPSA>
80.47

> <RotBonds>
3

> <ROCS_ShapeQuery>
A71EV2A-x0451_0A_A71EV2A-x0310_0A_A71EV2A-x0416_0A_peptide

> <ROCS_TanimotoCombo>
0.523 

> <ROCS_ShapeTanimoto>
0.366 

> <ROCS_ColorTanimoto>
0.157 

> <ROCS_RefTversky>
0.321 

> <ROCS_RefColorTversky>
0.177 

> <ROCS_RefTverskyCombo>
0.498 

> <ROCS_FitTversky>
1.625 

> <ROCS_FitColorTversky>
0.586 

> <ROCS_FitTverskyCombo>
2.211 

> <ROCS_ColorScore>
-5.395

> <ROCS_Overlap>
2230.961

> <ROCS_Rank>
331                 

$$$$
untitled-dbase-6713_3198
  -OEChem-11132309573D

 40 42  0     1  0  0  0  0  0999 V2000
    6.0918   11.7572   25.6164 C   0  0  0  0  0  0  0  0  0  0  0  0
    6.2381   10.3861   25.4055 C   0  0  0  0  0  0  0  0  0  0  0  0
    8.0405   12.1751   24.2507 C   0  0  0  0  0  0  0  0  0  0  0  0
    8.1868   10.8041   24.0399 C   0  0  0  0  0  0  0  0  0  0  0  0
    6.9930   12.6517   25.0389 C   0  0  0  0  0  0  0  0  0  0  0  0
    7.2856    9.9096   24.6173 C   0  0  0  0  0  0  0  0  0  0  0  0
   10.9193   13.1035   23.7916 C   0  0  0  0  0  0  0  0  0  0  0  0
    5.2146   16.9620   26.6466 C   0  0  0  0  0  0  0  0  0  0  0  0
    6.0532   16.1598   25.9833 C   0  0  0  0  0  0  0  0  0  0  0  0
    9.2968   10.3230   23.2062 C   0  0  0  0  0  0  0  0  0  0  0  0
    5.8645   14.6802   26.0047 C   0  0  0  0  0  0  0  0  0  0  0  0
   12.9523   10.5000   23.6884 C   0  0  0  0  0  0  0  0  0  0  0  0
   12.4795   11.3950   24.8297 C   0  0  0  0  0  0  0  0  0  0  0  0
   11.6992    9.7412   23.2882 C   0  0  0  0  0  0  0  0  0  0  0  0
   11.0311   11.7478   24.4628 C   0  0  2  0  0  0  0  0  0  0  0  0
   10.7202   14.2768   24.3465 N   0  0  0  0  0  0  0  0  0  0  0  0
   10.6984   15.1799   23.3078 N   0  0  0  0  0  0  0  0  0  0  0  0
   10.8813   14.5711   22.1425 N   0  0  0  0  0  0  0  0  0  0  0  0
   11.0190   13.2732   22.4475 N   0  0  0  0  0  0  0  0  0  0  0  0
   10.5899   10.6253   23.6165 N   0  0  0  0  0  0  0  0  0  0  0  0
    6.8460   14.0228   25.2500 N   0  0  0  0  0  0  0  0  0  0  0  0
    9.0024    9.6963   22.1903 O   0  0  0  0  0  0  0  0  0  0  0  0
    4.9419   14.1663   26.6262 O   0  0  0  0  0  0  0  0  0  0  0  0
    7.4119    8.5664   24.4238 O   0  0  0  0  0  0  0  0  0  0  0  0
    5.2716   12.1174   26.2322 H   0  0  0  0  0  0  0  0  0  0  0  0
    5.5325    9.6947   25.8582 H   0  0  0  0  0  0  0  0  0  0  0  0
    8.7440   12.8727   23.8008 H   0  0  0  0  0  0  0  0  0  0  0  0
    5.3202   18.0410   26.6540 H   0  0  0  0  0  0  0  0  0  0  0  0
    4.3880   16.5379   27.2073 H   0  0  0  0  0  0  0  0  0  0  0  0
    6.8795   16.5829   25.4223 H   0  0  0  0  0  0  0  0  0  0  0  0
   13.3032   11.1142   22.8508 H   0  0  0  0  0  0  0  0  0  0  0  0
   13.7662    9.8356   23.9922 H   0  0  0  0  0  0  0  0  0  0  0  0
   12.4859   10.8176   25.7628 H   0  0  0  0  0  0  0  0  0  0  0  0
   13.1302   12.2652   24.9635 H   0  0  0  0  0  0  0  0  0  0  0  0
   11.6784    9.4748   22.2272 H   0  0  0  0  0  0  0  0  0  0  0  0
   11.5812    8.8259   23.8790 H   0  0  0  0  0  0  0  0  0  0  0  0
   10.3989   11.7744   25.3985 H   0  0  0  0  0  0  0  0  0  0  0  0
   11.1719   12.5953   21.7098 H   0  0  0  0  0  0  0  0  0  0  0  0
    7.5434   14.6253   24.7962 H   0  0  0  0  0  0  0  0  0  0  0  0
    8.1785    8.3804   23.8595 H   0  0  0  0  0  0  0  0  0  0  0  0
  1  2  2  0  0  0  0
  1  5  1  0  0  0  0
  2  6  1  0  0  0  0
  3  4  1  0  0  0  0
  3  5  2  0  0  0  0
  4  6  2  0  0  0  0
  4 10  1  0  0  0  0
  5 21  1  0  0  0  0
  6 24  1  0  0  0  0
  7 15  1  1  0  0  0
  7 16  2  0  0  0  0
  7 19  1  0  0  0  0
  8  9  2  0  0  0  0
  9 11  1  0  0  0  0
 10 20  1  0  0  0  0
 10 22  2  0  0  0  0
 11 21  1  0  0  0  0
 11 23  2  0  0  0  0
 12 13  1  0  0  0  0
 12 14  1  0  0  0  0
 13 15  1  0  0  0  0
 14 20  1  0  0  0  0
 15 20  1  0  0  0  0
 16 17  1  0  0  0  0
 17 18  2  0  0  0  0
 18 19  1  0  0  0  0
  1 25  1  0  0  0  0
  2 26  1  0  0  0  0
  3 27  1  0  0  0  0
  8 28  1  0  0  0  0
  8 29  1  0  0  0  0
  9 30  1  0  0  0  0
 12 31  1  0  0  0  0
 12 32  1  0  0  0  0
 13 33  1  0  0  0  0
 13 34  1  0  0  0  0
 14 35  1  0  0  0  0
 14 36  1  0  0  0  0
 15 37  1  0  0  0  0
 19 38  1  0  0  0  0
 21 39  1  0  0  0  0
 24 40  1  0  0  0  0
M  END
> <Catalog ID>
Z3756059513

> <MW>
328.326

> <MW (desalted)>
328.326

> <ClogP>
0.102

> <logS>
-2.574

> <HBD>
3

> <HBA>
6

> <TPSA>
124.1

> <RotBonds>
4

> <ROCS_ShapeQuery>
A71EV2A-x0451_0A_A71EV2A-x0310_0A_A71EV2A-x0416_0A_peptide

> <ROCS_TanimotoCombo>
0.523 

> <ROCS_ShapeTanimoto>
0.336 

> <ROCS_ColorTanimoto>
0.188 

> <ROCS_RefTversky>
0.302 

> <ROCS_RefColorTversky>
0.237 

> <ROCS_RefTverskyCombo>
0.540 

> <ROCS_FitTversky>
1.491 

> <ROCS_FitColorTversky>
0.472 

> <ROCS_FitTverskyCombo>
1.964 

> <ROCS_ColorScore>
-7.323

> <ROCS_Overlap>
2100.740

> <ROCS_Rank>
332                 

$$$$
untitled-dbase-2859_2823
  -OEChem-11132309573D

 49 52  0     1  0  0  0  0  0999 V2000
    7.2057    7.7220   23.9934 C   0  0  0  0  0  0  0  0  0  0  0  0
    8.5382    7.8897   23.6288 C   0  0  0  0  0  0  0  0  0  0  0  0
   13.1246   16.8258   17.9396 C   0  0  0  0  0  0  0  0  0  0  0  0
   14.1300   17.1314   18.8694 C   0  0  0  0  0  0  0  0  0  0  0  0
    6.9773   12.4002   25.3105 C   0  0  0  0  0  0  0  0  0  0  0  0
    6.4801    8.7991   24.5033 C   0  0  0  0  0  0  0  0  0  0  0  0
    9.1504    9.1351   23.7727 C   0  0  0  0  0  0  0  0  0  0  0  0
    6.3651   11.1548   25.1665 C   0  0  0  0  0  0  0  0  0  0  0  0
   12.1252   15.9024   18.2511 C   0  0  0  0  0  0  0  0  0  0  0  0
   14.1499   16.5197   20.1252 C   0  0  0  0  0  0  0  0  0  0  0  0
    8.3099   12.5679   24.9459 C   0  0  0  0  0  0  0  0  0  0  0  0
    7.0802   10.0597   24.6550 C   0  0  0  0  0  0  0  0  0  0  0  0
    8.4354   10.2302   24.2843 C   0  0  0  0  0  0  0  0  0  0  0  0
   12.1449   15.3103   19.5032 C   0  0  0  0  0  0  0  0  0  0  0  0
   13.1449   15.6171   20.4373 C   0  0  0  0  0  0  0  0  0  0  0  0
    9.0355   11.4909   24.4360 C   0  0  0  0  0  0  0  0  0  0  0  0
   10.7273   13.1531   23.5688 C   0  0  0  0  0  0  0  0  0  0  0  0
   13.6123   14.8887   24.0774 C   0  0  0  0  0  0  0  0  0  0  0  0
   11.2096   14.2687   20.0371 C   0  0  0  0  0  0  0  0  0  0  0  0
   12.9677   14.7985   21.6850 C   0  0  2  0  0  0  0  0  0  0  0  0
   11.4871   14.3791   21.5468 C   0  0  2  0  0  0  0  0  0  0  0  0
   10.4722   11.7416   24.0615 C   0  0  0  0  0  0  0  0  0  0  0  0
   13.8329   15.8449   25.2216 C   0  0  0  0  0  0  0  0  0  0  0  0
   13.2151   15.5176   22.9040 N   0  0  0  0  0  0  0  0  0  0  0  0
   11.1768   13.1665   22.2518 N   0  0  0  0  0  0  0  0  0  0  0  0
   10.5503   14.1542   24.2582 O   0  0  0  0  0  0  0  0  0  0  0  0
   13.7916   13.6782   24.1997 O   0  0  0  0  0  0  0  0  0  0  0  0
   12.7255   15.3954   26.5280 Cl  0  0  0  0  0  0  0  0  0  0  0  0
    6.7297    6.7522   23.8812 H   0  0  0  0  0  0  0  0  0  0  0  0
    9.1023    7.0506   23.2319 H   0  0  0  0  0  0  0  0  0  0  0  0
   13.1302   17.3067   16.9651 H   0  0  0  0  0  0  0  0  0  0  0  0
   14.9055   17.8457   18.6059 H   0  0  0  0  0  0  0  0  0  0  0  0
    6.4130   13.2390   25.7075 H   0  0  0  0  0  0  0  0  0  0  0  0
    5.4397    8.6450   24.7818 H   0  0  0  0  0  0  0  0  0  0  0  0
   10.1929    9.2260   23.4767 H   0  0  0  0  0  0  0  0  0  0  0  0
    5.3224   11.0468   25.4580 H   0  0  0  0  0  0  0  0  0  0  0  0
   11.3571   15.6563   17.5258 H   0  0  0  0  0  0  0  0  0  0  0  0
   14.9396   16.7492   20.8327 H   0  0  0  0  0  0  0  0  0  0  0  0
    8.7756   13.5430   25.0628 H   0  0  0  0  0  0  0  0  0  0  0  0
   10.1640   14.4909   19.8043 H   0  0  0  0  0  0  0  0  0  0  0  0
   11.4850   13.2869   19.6365 H   0  0  0  0  0  0  0  0  0  0  0  0
   13.6374   13.9315   21.6503 H   0  0  0  0  0  0  0  0  0  0  0  0
   10.8325   15.1583   21.9633 H   0  0  0  0  0  0  0  0  0  0  0  0
   11.1172   11.5475   24.9280 H   0  0  0  0  0  0  0  0  0  0  0  0
   10.7798   11.0364   23.2791 H   0  0  0  0  0  0  0  0  0  0  0  0
   14.8562   15.8136   25.6037 H   0  0  0  0  0  0  0  0  0  0  0  0
   13.6052   16.8628   24.8935 H   0  0  0  0  0  0  0  0  0  0  0  0
   13.0943   16.5299   22.9081 H   0  0  0  0  0  0  0  0  0  0  0  0
   11.2908   12.2775   21.7665 H   0  0  0  0  0  0  0  0  0  0  0  0
  1  2  1  0  0  0  0
  1  6  2  0  0  0  0
  2  7  2  0  0  0  0
  3  4  1  0  0  0  0
  3  9  2  0  0  0  0
  4 10  2  0  0  0  0
  5  8  1  0  0  0  0
  5 11  2  0  0  0  0
  6 12  1  0  0  0  0
  7 13  1  0  0  0  0
  8 12  2  0  0  0  0
  9 14  1  0  0  0  0
 10 15  1  0  0  0  0
 11 16  1  0  0  0  0
 12 13  1  0  0  0  0
 13 16  2  0  0  0  0
 14 15  2  0  0  0  0
 14 19  1  0  0  0  0
 15 20  1  0  0  0  0
 16 22  1  0  0  0  0
 17 22  1  0  0  0  0
 17 25  1  0  0  0  0
 17 26  2  0  0  0  0
 18 23  1  0  0  0  0
 18 24  1  0  0  0  0
 18 27  2  0  0  0  0
 19 21  1  0  0  0  0
 20 21  1  0  0  0  0
 20 24  1  1  0  0  0
 21 25  1  6  0  0  0
 23 28  1  0  0  0  0
  1 29  1  0  0  0  0
  2 30  1  0  0  0  0
  3 31  1  0  0  0  0
  4 32  1  0  0  0  0
  5 33  1  0  0  0  0
  6 34  1  0  0  0  0
  7 35  1  0  0  0  0
  8 36  1  0  0  0  0
  9 37  1  0  0  0  0
 10 38  1  0  0  0  0
 11 39  1  0  0  0  0
 19 40  1  0  0  0  0
 19 41  1  0  0  0  0
 20 42  1  0  0  0  0
 21 43  1  0  0  0  0
 22 44  1  0  0  0  0
 22 45  1  0  0  0  0
 23 46  1  0  0  0  0
 23 47  1  0  0  0  0
 24 48  1  0  0  0  0
 25 49  1  0  0  0  0
M  END
> <Catalog ID>
Z4439378572

> <MW>
392.878

> <MW (desalted)>
392.878

> <ClogP>
3.906

> <logS>
-5.996

> <HBD>
2

> <HBA>
2

> <TPSA>
58.2

> <RotBonds>
5

> <ROCS_ShapeQuery>
A71EV2A-x0451_0A_A71EV2A-x0310_0A_A71EV2A-x0416_0A_peptide

> <ROCS_TanimotoCombo>
0.523 

> <ROCS_ShapeTanimoto>
0.359 

> <ROCS_ColorTanimoto>
0.164 

> <ROCS_RefTversky>
0.324 

> <ROCS_RefColorTversky>
0.184 

> <ROCS_RefTverskyCombo>
0.507 

> <ROCS_FitTversky>
1.438 

> <ROCS_FitColorTversky>
0.609 

> <ROCS_FitTverskyCombo>
2.047 

> <ROCS_ColorScore>
-5.604

> <ROCS_Overlap>
2251.881

> <ROCS_Rank>
333                 

$$$$
untitled-dbase-7845_4682
  -OEChem-11132309573D

 49 51  0     1  0  0  0  0  0999 V2000
   12.4164   14.4496   20.8294 C   0  0  0  0  0  0  0  0  0  0  0  0
   11.9970   13.7537   21.9631 C   0  0  0  0  0  0  0  0  0  0  0  0
    6.1677   11.1145   25.9574 C   0  0  0  0  0  0  0  0  0  0  0  0
    6.8208   10.1635   25.1725 C   0  0  0  0  0  0  0  0  0  0  0  0
   11.6317   15.4816   20.3146 C   0  0  0  0  0  0  0  0  0  0  0  0
    7.7268   12.7828   25.2079 C   0  0  0  0  0  0  0  0  0  0  0  0
   10.0082   15.1215   22.0672 C   0  0  0  0  0  0  0  0  0  0  0  0
    6.6165   12.4251   25.9691 C   0  0  0  0  0  0  0  0  0  0  0  0
   10.7929   14.0896   22.5820 C   0  0  0  0  0  0  0  0  0  0  0  0
    7.9511   10.4870   24.3920 C   0  0  0  0  0  0  0  0  0  0  0  0
    8.4194   11.8300   24.4385 C   0  0  0  0  0  0  0  0  0  0  0  0
   10.4276   15.8175   20.9334 C   0  0  0  0  0  0  0  0  0  0  0  0
    8.5980   19.5732   19.9258 C   0  0  0  0  0  0  0  0  0  0  0  0
    7.8935   18.4461   20.0670 C   0  0  0  0  0  0  0  0  0  0  0  0
   10.3493   13.3503   23.7849 C   0  0  0  0  0  0  0  0  0  0  0  0
    5.9163   13.4255   26.7586 C   0  0  0  0  0  0  0  0  0  0  0  0
    8.4153   17.3243   20.9005 C   0  0  0  0  0  0  0  0  0  0  0  0
    9.8218   11.3202   22.5030 C   0  0  0  0  0  0  0  0  0  0  0  0
    9.8503    9.8766   22.9664 C   0  0  0  0  0  0  0  0  0  0  0  0
    8.1879    8.1299   23.6150 C   0  0  0  0  0  0  0  0  0  0  0  0
    5.2412   14.0112   28.9705 C   0  0  0  0  0  0  0  0  0  0  0  0
    9.5534   12.2030   23.6370 N   0  0  0  0  0  0  0  0  0  0  0  0
    8.5820    9.5304   23.5932 N   0  0  3  0  0  0  0  0  0  0  0  0
    9.6430   16.8499   20.4184 N   0  0  0  0  0  0  0  0  0  0  0  0
   10.6188   13.8682   24.8703 O   0  0  0  0  0  0  0  0  0  0  0  0
    5.3936   14.4456   26.2909 O   0  0  0  0  0  0  0  0  0  0  0  0
    7.7955   16.9153   21.8752 O   0  0  0  0  0  0  0  0  0  0  0  0
    5.9046   13.1002   28.0875 O   0  0  0  0  0  0  0  0  0  0  0  0
   13.3541   14.1884   20.3476 H   0  0  0  0  0  0  0  0  0  0  0  0
   12.6163   12.9508   22.3546 H   0  0  0  0  0  0  0  0  0  0  0  0
    5.3051   10.8164   26.5483 H   0  0  0  0  0  0  0  0  0  0  0  0
    6.4235    9.1517   25.1949 H   0  0  0  0  0  0  0  0  0  0  0  0
   11.9680   16.0170   19.4300 H   0  0  0  0  0  0  0  0  0  0  0  0
    7.9989   13.8313   25.2042 H   0  0  0  0  0  0  0  0  0  0  0  0
    9.0684   15.3829   22.5493 H   0  0  0  0  0  0  0  0  0  0  0  0
    8.2510   20.4090   19.3285 H   0  0  0  0  0  0  0  0  0  0  0  0
    9.5585   19.6778   20.4195 H   0  0  0  0  0  0  0  0  0  0  0  0
    6.9331   18.3408   19.5741 H   0  0  0  0  0  0  0  0  0  0  0  0
   10.7818   11.5461   22.0381 H   0  0  0  0  0  0  0  0  0  0  0  0
    9.0421   11.4833   21.7536 H   0  0  0  0  0  0  0  0  0  0  0  0
   10.0374    9.2327   22.0976 H   0  0  0  0  0  0  0  0  0  0  0  0
   10.6753    9.7092   23.6722 H   0  0  0  0  0  0  0  0  0  0  0  0
    8.8147    7.5611   22.9124 H   0  0  0  0  0  0  0  0  0  0  0  0
    8.3184    7.7281   24.6306 H   0  0  0  0  0  0  0  0  0  0  0  0
    7.1322    8.0415   23.3186 H   0  0  0  0  0  0  0  0  0  0  0  0
    5.3038   13.6372   29.9953 H   0  0  0  0  0  0  0  0  0  0  0  0
    4.1949   14.1129   28.6717 H   0  0  0  0  0  0  0  0  0  0  0  0
    5.7317   14.9856   28.9100 H   0  0  0  0  0  0  0  0  0  0  0  0
   10.0105   17.3206   19.5826 H   0  0  0  0  0  0  0  0  0  0  0  0
  1  2  2  0  0  0  0
  1  5  1  0  0  0  0
  2  9  1  0  0  0  0
  3  4  2  0  0  0  0
  3  8  1  0  0  0  0
  4 10  1  0  0  0  0
  5 12  2  0  0  0  0
  6  8  2  0  0  0  0
  6 11  1  0  0  0  0
  7  9  2  0  0  0  0
  7 12  1  0  0  0  0
  8 16  1  0  0  0  0
  9 15  1  0  0  0  0
 10 11  2  0  0  0  0
 10 23  1  0  0  0  0
 11 22  1  0  0  0  0
 12 24  1  0  0  0  0
 13 14  2  0  0  0  0
 14 17  1  0  0  0  0
 15 22  1  0  0  0  0
 15 25  2  0  0  0  0
 16 26  2  0  0  0  0
 16 28  1  0  0  0  0
 17 24  1  0  0  0  0
 17 27  2  0  0  0  0
 18 19  1  0  0  0  0
 18 22  1  0  0  0  0
 19 23  1  0  0  0  0
 20 23  1  0  0  0  0
 21 28  1  0  0  0  0
  1 29  1  0  0  0  0
  2 30  1  0  0  0  0
  3 31  1  0  0  0  0
  4 32  1  0  0  0  0
  5 33  1  0  0  0  0
  6 34  1  0  0  0  0
  7 35  1  0  0  0  0
 13 36  1  0  0  0  0
 13 37  1  0  0  0  0
 14 38  1  0  0  0  0
 18 39  1  0  0  0  0
 18 40  1  0  0  0  0
 19 41  1  0  0  0  0
 19 42  1  0  0  0  0
 20 43  1  0  0  0  0
 20 44  1  0  0  0  0
 20 45  1  0  0  0  0
 21 46  1  0  0  0  0
 21 47  1  0  0  0  0
 21 48  1  0  0  0  0
 24 49  1  0  0  0  0
M  END
> <Catalog ID>
Z3755879994

> <MW>
379.409

> <MW (desalted)>
379.409

> <ClogP>
2.802

> <logS>
-4.945

> <HBD>
1

> <HBA>
4

> <TPSA>
78.95

> <RotBonds>
5

> <ROCS_ShapeQuery>
A71EV2A-x0451_0A_A71EV2A-x0310_0A_A71EV2A-x0416_0A_peptide

> <ROCS_TanimotoCombo>
0.523 

> <ROCS_ShapeTanimoto>
0.371 

> <ROCS_ColorTanimoto>
0.152 

> <ROCS_RefTversky>
0.332 

> <ROCS_RefColorTversky>
0.172 

> <ROCS_RefTverskyCombo>
0.504 

> <ROCS_FitTversky>
1.468 

> <ROCS_FitColorTversky>
0.571 

> <ROCS_FitTverskyCombo>
2.039 

> <ROCS_ColorScore>
-5.252

> <ROCS_Overlap>
2307.564

> <ROCS_Rank>
334                 

$$$$
untitled-dbase-11482_1631
  -OEChem-11132309573D

 43 46  0     0  0  0  0  0  0999 V2000
   10.6664   16.2043   22.0140 C   0  0  0  0  0  0  0  0  0  0  0  0
    9.7266    9.2407   23.6382 C   0  0  0  0  0  0  0  0  0  0  0  0
    6.7385   13.0192   25.0500 C   0  0  0  0  0  0  0  0  0  0  0  0
    7.8556   12.9426   24.2307 C   0  0  0  0  0  0  0  0  0  0  0  0
   15.2439   18.7237   18.2867 C   0  0  0  0  0  0  0  0  0  0  0  0
   14.9310   18.7427   20.6823 C   0  0  0  0  0  0  0  0  0  0  0  0
    8.6000    9.3513   24.4570 C   0  0  0  0  0  0  0  0  0  0  0  0
   10.2408   10.3670   23.0079 C   0  0  0  0  0  0  0  0  0  0  0  0
   15.9692   19.9121   18.3719 C   0  0  0  0  0  0  0  0  0  0  0  0
   15.6564   19.9311   20.7675 C   0  0  0  0  0  0  0  0  0  0  0  0
   13.6085   16.0928   18.3170 C   0  0  0  0  0  0  0  0  0  0  0  0
   12.8726   15.0329   18.8986 C   0  0  0  0  0  0  0  0  0  0  0  0
    6.2958   11.8508   25.6362 C   0  0  0  0  0  0  0  0  0  0  0  0
    8.4935   11.7124   24.0218 C   0  0  0  0  0  0  0  0  0  0  0  0
   14.7248   18.1390   19.4419 C   0  0  0  0  0  0  0  0  0  0  0  0
    7.9660   10.5732   24.6651 C   0  0  0  0  0  0  0  0  0  0  0  0
    9.6266   11.6015   23.1982 C   0  0  0  0  0  0  0  0  0  0  0  0
   16.1754   20.5158   19.6124 C   0  0  0  0  0  0  0  0  0  0  0  0
   13.9781   16.9159   19.3552 C   0  0  0  0  0  0  0  0  0  0  0  0
   12.8451   15.2839   20.2508 C   0  0  0  0  0  0  0  0  0  0  0  0
   12.2008   14.4728   21.2956 C   0  0  0  0  0  0  0  0  0  0  0  0
   11.2108   14.8876   22.1107 C   0  0  0  0  0  0  0  0  0  0  0  0
   10.6907   13.8828   23.1165 C   0  0  0  0  0  0  0  0  0  0  0  0
   10.2203   17.2731   21.9387 N   0  0  0  0  0  0  0  0  0  0  0  0
    6.8821   10.6444   25.4607 N   0  0  0  0  0  0  0  0  0  0  0  0
   10.1766   12.7109   22.5448 N   0  0  0  0  0  0  0  0  0  0  0  0
   10.7385   14.1268   24.3196 O   0  0  0  0  0  0  0  0  0  0  0  0
   13.5168   16.4298   20.5373 O   0  0  0  0  0  0  0  0  0  0  0  0
   17.0722   21.9808   19.7183 Cl  0  0  0  0  0  0  0  0  0  0  0  0
   10.1995    8.2734   23.4958 H   0  0  0  0  0  0  0  0  0  0  0  0
    6.2327   13.9620   25.2220 H   0  0  0  0  0  0  0  0  0  0  0  0
    8.2125   13.8576   23.7644 H   0  0  0  0  0  0  0  0  0  0  0  0
   15.0916   18.2651   17.3127 H   0  0  0  0  0  0  0  0  0  0  0  0
   14.5328   18.2989   21.5918 H   0  0  0  0  0  0  0  0  0  0  0  0
    8.2165    8.4539   24.9397 H   0  0  0  0  0  0  0  0  0  0  0  0
   11.1178   10.2707   22.3730 H   0  0  0  0  0  0  0  0  0  0  0  0
   16.3675   20.3567   17.4633 H   0  0  0  0  0  0  0  0  0  0  0  0
   15.8088   20.3908   21.7406 H   0  0  0  0  0  0  0  0  0  0  0  0
   13.8382   16.2343   17.2703 H   0  0  0  0  0  0  0  0  0  0  0  0
   12.4217   14.1939   18.3869 H   0  0  0  0  0  0  0  0  0  0  0  0
    5.4273   11.8495   26.2869 H   0  0  0  0  0  0  0  0  0  0  0  0
   12.5901   13.4586   21.3514 H   0  0  0  0  0  0  0  0  0  0  0  0
   10.2070   12.6598   21.5225 H   0  0  0  0  0  0  0  0  0  0  0  0
  1 22  1  0  0  0  0
  1 24  3  0  0  0  0
  2  7  1  0  0  0  0
  2  8  2  0  0  0  0
  3  4  2  0  0  0  0
  3 13  1  0  0  0  0
  4 14  1  0  0  0  0
  5  9  2  0  0  0  0
  5 15  1  0  0  0  0
  6 10  1  0  0  0  0
  6 15  2  0  0  0  0
  7 16  2  0  0  0  0
  8 17  1  0  0  0  0
  9 18  1  0  0  0  0
 10 18  2  0  0  0  0
 11 12  1  0  0  0  0
 11 19  2  0  0  0  0
 12 20  2  0  0  0  0
 13 25  2  0  0  0  0
 14 16  1  0  0  0  0
 14 17  2  0  0  0  0
 15 19  1  0  0  0  0
 16 25  1  0  0  0  0
 17 26  1  0  0  0  0
 18 29  1  0  0  0  0
 19 28  1  0  0  0  0
 20 21  1  4  0  0  0
 20 28  1  0  0  0  0
 21 22  2  0  0  0  0
 22 23  1  0  0  0  0
 23 26  1  0  0  0  0
 23 27  2  0  0  0  0
  2 30  1  0  0  0  0
  3 31  1  0  0  0  0
  4 32  1  0  0  0  0
  5 33  1  0  0  0  0
  6 34  1  0  0  0  0
  7 35  1  0  0  0  0
  8 36  1  0  0  0  0
  9 37  1  0  0  0  0
 10 38  1  0  0  0  0
 11 39  1  0  0  0  0
 12 40  1  0  0  0  0
 13 41  1  0  0  0  0
 21 42  1  0  0  0  0
 26 43  1  0  0  0  0
M  END
> <Catalog ID>
Z46080218

> <MW>
399.829

> <MW (desalted)>
399.829

> <ClogP>
5.482

> <logS>
-7.18

> <HBD>
1

> <HBA>
3

> <TPSA>
78.92

> <RotBonds>
4

> <ROCS_ShapeQuery>
A71EV2A-x0451_0A_A71EV2A-x0310_0A_A71EV2A-x0416_0A_peptide

> <ROCS_TanimotoCombo>
0.523 

> <ROCS_ShapeTanimoto>
0.346 

> <ROCS_ColorTanimoto>
0.177 

> <ROCS_RefTversky>
0.317 

> <ROCS_RefColorTversky>
0.200 

> <ROCS_RefTverskyCombo>
0.518 

> <ROCS_FitTversky>
1.350 

> <ROCS_FitColorTversky>
0.604 

> <ROCS_FitTverskyCombo>
1.954 

> <ROCS_ColorScore>
-6.128

> <ROCS_Overlap>
2210.454

> <ROCS_Rank>
335                 

$$$$
untitled-dbase-560_1571
  -OEChem-11132309573D

 45 46  0     0  0  0  0  0  0999 V2000
   12.3830   17.3085   21.0085 C   0  0  0  0  0  0  0  0  0  0  0  0
   13.6326   17.5380   21.5840 C   0  0  0  0  0  0  0  0  0  0  0  0
   11.8152   16.0353   21.0588 C   0  0  0  0  0  0  0  0  0  0  0  0
   14.3146   16.4944   22.2097 C   0  0  0  0  0  0  0  0  0  0  0  0
    8.5744   12.5087   24.5348 C   0  0  0  0  0  0  0  0  0  0  0  0
    8.8382   10.3670   23.5348 C   0  0  0  0  0  0  0  0  0  0  0  0
    7.2483   10.6397   25.1706 C   0  0  0  0  0  0  0  0  0  0  0  0
   12.4971   14.9918   21.6845 C   0  0  0  0  0  0  0  0  0  0  0  0
   13.7469   15.2213   22.2600 C   0  0  0  0  0  0  0  0  0  0  0  0
    9.2285   11.6939   23.6175 C   0  0  0  0  0  0  0  0  0  0  0  0
    7.5642   11.9793   25.3301 C   0  0  0  0  0  0  0  0  0  0  0  0
   10.7561   13.5050   22.7621 C   0  0  0  0  0  0  0  0  0  0  0  0
   14.2597   12.8912   26.3679 C   0  0  0  0  0  0  0  0  0  0  0  0
   14.1726   11.4709   24.2878 C   0  0  0  0  0  0  0  0  0  0  0  0
   11.8693   13.6372   21.7273 C   0  0  0  0  0  0  0  0  0  0  0  0
   14.4962   14.1195   22.9347 C   0  0  0  0  0  0  0  0  0  0  0  0
   14.5822   12.8091   24.8837 C   0  0  0  0  0  0  0  0  0  0  0  0
    7.8615    9.8169   24.2904 N   0  0  0  0  0  0  0  0  0  0  0  0
   10.2597   12.2042   22.7933 N   0  0  0  0  0  0  0  0  0  0  0  0
   10.3900   14.4564   23.4448 O   0  0  0  0  0  0  0  0  0  0  0  0
    4.6045   11.8705   26.7639 O   0  0  0  0  0  0  0  0  0  0  0  0
    5.0110   14.3699   26.6094 O   0  0  0  0  0  0  0  0  0  0  0  0
    6.9085   12.7505   26.2322 O   0  0  0  0  0  0  0  0  0  0  0  0
   13.9036   13.8534   24.1992 O   0  0  0  0  0  0  0  0  0  0  0  0
    4.9032   12.9788   24.6477 F   0  0  0  0  0  0  0  0  0  0  0  0
    5.2893   13.0112   26.1886 S   0  0  0  0  0  0  0  0  0  0  0  0
   11.8528   18.1210   20.5208 H   0  0  0  0  0  0  0  0  0  0  0  0
   14.0743   18.5295   21.5442 H   0  0  0  0  0  0  0  0  0  0  0  0
   10.8417   15.8665   20.6060 H   0  0  0  0  0  0  0  0  0  0  0  0
   15.2876   16.6833   22.6556 H   0  0  0  0  0  0  0  0  0  0  0  0
    8.8482   13.5562   24.6329 H   0  0  0  0  0  0  0  0  0  0  0  0
    9.3127    9.6818   22.8384 H   0  0  0  0  0  0  0  0  0  0  0  0
    6.4690   10.1735   25.7655 H   0  0  0  0  0  0  0  0  0  0  0  0
   13.1914   12.7416   26.5511 H   0  0  0  0  0  0  0  0  0  0  0  0
   14.8198   12.1304   26.9221 H   0  0  0  0  0  0  0  0  0  0  0  0
   14.5539   13.8618   26.7824 H   0  0  0  0  0  0  0  0  0  0  0  0
   13.1022   11.2874   24.4214 H   0  0  0  0  0  0  0  0  0  0  0  0
   14.7294   10.6559   24.7627 H   0  0  0  0  0  0  0  0  0  0  0  0
   14.4044   11.4284   23.2179 H   0  0  0  0  0  0  0  0  0  0  0  0
   11.4518   13.3795   20.7407 H   0  0  0  0  0  0  0  0  0  0  0  0
   12.6319   12.8720   21.9433 H   0  0  0  0  0  0  0  0  0  0  0  0
   14.4772   13.1995   22.3360 H   0  0  0  0  0  0  0  0  0  0  0  0
   15.5484   14.3933   23.0870 H   0  0  0  0  0  0  0  0  0  0  0  0
   15.6559   12.9625   24.7340 H   0  0  0  0  0  0  0  0  0  0  0  0
   10.6883   11.5437   22.1483 H   0  0  0  0  0  0  0  0  0  0  0  0
  1  2  1  0  0  0  0
  1  3  2  0  0  0  0
  2  4  2  0  0  0  0
  3  8  1  0  0  0  0
  4  9  1  0  0  0  0
  5 10  2  0  0  0  0
  5 11  1  0  0  0  0
  6 10  1  0  0  0  0
  6 18  2  0  0  0  0
  7 11  2  0  0  0  0
  7 18  1  0  0  0  0
  8  9  2  0  0  0  0
  8 15  1  0  0  0  0
  9 16  1  0  0  0  0
 10 19  1  0  0  0  0
 11 23  1  0  0  0  0
 12 15  1  0  0  0  0
 12 19  1  0  0  0  0
 12 20  2  0  0  0  0
 13 17  1  0  0  0  0
 14 17  1  0  0  0  0
 16 24  1  0  0  0  0
 17 24  1  0  0  0  0
 21 26  2  0  0  0  0
 22 26  2  0  0  0  0
 23 26  1  0  0  0  0
 25 26  1  0  0  0  0
  1 27  1  0  0  0  0
  2 28  1  0  0  0  0
  3 29  1  0  0  0  0
  4 30  1  0  0  0  0
  5 31  1  0  0  0  0
  6 32  1  0  0  0  0
  7 33  1  0  0  0  0
 13 34  1  0  0  0  0
 13 35  1  0  0  0  0
 13 36  1  0  0  0  0
 14 37  1  0  0  0  0
 14 38  1  0  0  0  0
 14 39  1  0  0  0  0
 15 40  1  0  0  0  0
 15 41  1  0  0  0  0
 16 42  1  0  0  0  0
 16 43  1  0  0  0  0
 17 44  1  0  0  0  0
 19 45  1  0  0  0  0
M  END
> <Catalog ID>
Z4401863221

> <MW>
382.407

> <MW (desalted)>
382.407

> <ClogP>
0.9

> <logS>
-2.796

> <HBD>
1

> <HBA>
5

> <TPSA>
94.59

> <RotBonds>
8

> <ROCS_ShapeQuery>
A71EV2A-x0451_0A_A71EV2A-x0310_0A_A71EV2A-x0416_0A_peptide

> <ROCS_TanimotoCombo>
0.523 

> <ROCS_ShapeTanimoto>
0.322 

> <ROCS_ColorTanimoto>
0.201 

> <ROCS_RefTversky>
0.294 

> <ROCS_RefColorTversky>
0.222 

> <ROCS_RefTverskyCombo>
0.517 

> <ROCS_FitTversky>
1.420 

> <ROCS_FitColorTversky>
0.671 

> <ROCS_FitTverskyCombo>
2.091 

> <ROCS_ColorScore>
-6.801

> <ROCS_Overlap>
2046.909

> <ROCS_Rank>
336                 

$$$$
untitled-dbase-8759_8659
  -OEChem-11132309573D

 39 41  0     0  0  0  0  0  0999 V2000
    6.7863   12.1897   26.0164 C   0  0  0  0  0  0  0  0  0  0  0  0
    9.2230    9.7840   23.2226 C   0  0  0  0  0  0  0  0  0  0  0  0
    8.4948   11.9682   24.5599 C   0  0  0  0  0  0  0  0  0  0  0  0
    7.8203   12.8762   25.4158 C   0  0  0  0  0  0  0  0  0  0  0  0
    9.5868   12.0173   23.6947 C   0  0  0  0  0  0  0  0  0  0  0  0
    7.8410   10.7470   24.6689 C   0  0  0  0  0  0  0  0  0  0  0  0
   14.8692   13.1583   26.0176 C   0  0  0  0  0  0  0  0  0  0  0  0
   13.7129   12.6894   25.5386 C   0  0  0  0  0  0  0  0  0  0  0  0
   10.3808   13.2038   23.4596 C   0  0  0  0  0  0  0  0  0  0  0  0
   13.4546   12.6767   24.0740 C   0  0  0  0  0  0  0  0  0  0  0  0
    5.5961    8.6810   25.0513 C   0  0  0  0  0  0  0  0  0  0  0  0
    4.5359    9.7157   25.2635 C   0  0  0  0  0  0  0  0  0  0  0  0
    5.8738    9.8639   25.9493 C   0  0  0  0  0  0  0  0  0  0  0  0
   11.8143   14.4536   21.8168 C   0  0  0  0  0  0  0  0  0  0  0  0
   13.2802   14.1989   22.1252 C   0  0  0  0  0  0  0  0  0  0  0  0
    9.9522   10.9040   23.0179 N   0  0  0  0  0  0  0  0  0  0  0  0
    8.1539    9.6085   24.0257 N   0  0  0  0  0  0  0  0  0  0  0  0
    6.8078   10.8985   25.5551 N   0  0  0  0  0  0  0  0  0  0  0  0
   10.9757   13.3393   22.1961 N   0  0  0  0  0  0  0  0  0  0  0  0
   13.5011   13.9504   23.5241 N   0  0  0  0  0  0  0  0  0  0  0  0
   10.5399   14.0544   24.3584 O   0  0  0  0  0  0  0  0  0  0  0  0
   13.2268   11.6436   23.4527 O   0  0  0  0  0  0  0  0  0  0  0  0
    8.2428   14.6804   25.6912 Br  0  0  0  0  0  0  0  0  0  0  0  0
    6.0387   12.5107   26.7302 H   0  0  0  0  0  0  0  0  0  0  0  0
    9.5415    8.9096   22.6653 H   0  0  0  0  0  0  0  0  0  0  0  0
   15.0499   13.1653   27.0874 H   0  0  0  0  0  0  0  0  0  0  0  0
   15.6554   13.5406   25.3759 H   0  0  0  0  0  0  0  0  0  0  0  0
   12.9523   12.3153   26.2153 H   0  0  0  0  0  0  0  0  0  0  0  0
    5.4595    7.7146   25.5213 H   0  0  0  0  0  0  0  0  0  0  0  0
    6.0775    8.6434   24.0818 H   0  0  0  0  0  0  0  0  0  0  0  0
    4.3038   10.3760   24.4367 H   0  0  0  0  0  0  0  0  0  0  0  0
    3.6836    9.4485   25.8764 H   0  0  0  0  0  0  0  0  0  0  0  0
    5.9002    9.6719   27.0161 H   0  0  0  0  0  0  0  0  0  0  0  0
   11.6562   14.6332   20.7487 H   0  0  0  0  0  0  0  0  0  0  0  0
   11.4593   15.3266   22.3733 H   0  0  0  0  0  0  0  0  0  0  0  0
   13.6338   13.3169   21.5825 H   0  0  0  0  0  0  0  0  0  0  0  0
   13.9020   15.0539   21.8407 H   0  0  0  0  0  0  0  0  0  0  0  0
   10.8691   12.5906   21.5194 H   0  0  0  0  0  0  0  0  0  0  0  0
   13.6674   14.7528   24.1301 H   0  0  0  0  0  0  0  0  0  0  0  0
  1  4  2  0  0  0  0
  1 18  1  0  0  0  0
  2 16  1  0  0  0  0
  2 17  2  0  0  0  0
  3  4  1  0  0  0  0
  3  5  1  0  0  0  0
  3  6  2  0  0  0  0
  4 23  1  0  0  0  0
  5  9  1  0  0  0  0
  5 16  2  0  0  0  0
  6 17  1  0  0  0  0
  6 18  1  0  0  0  0
  7  8  2  0  0  0  0
  8 10  1  0  0  0  0
  9 19  1  0  0  0  0
  9 21  2  0  0  0  0
 10 20  1  0  0  0  0
 10 22  2  0  0  0  0
 11 12  1  0  0  0  0
 11 13  1  0  0  0  0
 12 13  1  0  0  0  0
 13 18  1  0  0  0  0
 14 15  1  0  0  0  0
 14 19  1  0  0  0  0
 15 20  1  0  0  0  0
  1 24  1  0  0  0  0
  2 25  1  0  0  0  0
  7 26  1  0  0  0  0
  7 27  1  0  0  0  0
  8 28  1  0  0  0  0
 11 29  1  0  0  0  0
 11 30  1  0  0  0  0
 12 31  1  0  0  0  0
 12 32  1  0  0  0  0
 13 33  1  0  0  0  0
 14 34  1  0  0  0  0
 14 35  1  0  0  0  0
 15 36  1  0  0  0  0
 15 37  1  0  0  0  0
 19 38  1  0  0  0  0
 20 39  1  0  0  0  0
M  END
> <Catalog ID>
Z4328307840

> <MW>
378.224

> <MW (desalted)>
378.224

> <ClogP>
1.573

> <logS>
-4.232

> <HBD>
2

> <HBA>
4

> <TPSA>
88.91

> <RotBonds>
6

> <ROCS_ShapeQuery>
A71EV2A-x0451_0A_A71EV2A-x0310_0A_A71EV2A-x0416_0A_peptide

> <ROCS_TanimotoCombo>
0.523 

> <ROCS_ShapeTanimoto>
0.346 

> <ROCS_ColorTanimoto>
0.177 

> <ROCS_RefTversky>
0.307 

> <ROCS_RefColorTversky>
0.205 

> <ROCS_RefTverskyCombo>
0.512 

> <ROCS_FitTversky>
1.589 

> <ROCS_FitColorTversky>
0.565 

> <ROCS_FitTverskyCombo>
2.154 

> <ROCS_ColorScore>
-6.275

> <ROCS_Overlap>
2131.053

> <ROCS_Rank>
337                 

$$$$
untitled-dbase-6625_772
  -OEChem-11132309573D

 40 42  0     1  0  0  0  0  0999 V2000
   13.3490   15.5360   18.3468 C   0  0  0  0  0  0  0  0  0  0  0  0
    6.2497    9.8008   25.5498 C   0  0  0  0  0  0  0  0  0  0  0  0
   14.0575   16.0181   20.3718 C   0  0  0  0  0  0  0  0  0  0  0  0
   13.1833   15.1966   19.7030 C   0  0  0  0  0  0  0  0  0  0  0  0
    6.6357   11.1135   25.6756 C   0  0  0  0  0  0  0  0  0  0  0  0
    7.9378   10.0139   24.2483 C   0  0  0  0  0  0  0  0  0  0  0  0
    9.7854   11.0104   23.0792 C   0  0  0  0  0  0  0  0  0  0  0  0
    8.4919   12.3841   24.5920 C   0  0  0  0  0  0  0  0  0  0  0  0
    9.0296    9.9205   23.3286 C   0  0  0  0  0  0  0  0  0  0  0  0
    9.5144   12.2844   23.7271 C   0  0  0  0  0  0  0  0  0  0  0  0
    6.0572   12.1348   26.4906 C   0  0  0  0  0  0  0  0  0  0  0  0
   10.3313   13.4674   23.4593 C   0  0  0  0  0  0  0  0  0  0  0  0
   10.9802   15.8190   21.7603 C   0  0  0  0  0  0  0  0  0  0  0  0
   15.6745   17.7833   19.6313 C   0  0  0  0  0  0  0  0  0  0  0  0
   12.2525   14.1642   20.2926 C   0  0  0  0  0  0  0  0  0  0  0  0
   11.7685   14.5099   21.7127 C   0  0  2  0  0  0  0  0  0  0  0  0
    7.0558    9.1273   24.6688 N   0  0  0  0  0  0  0  0  0  0  0  0
   14.2570   16.4982   18.1633 N   0  0  0  0  0  0  0  0  0  0  0  0
   14.6696   16.7705   19.4130 N   0  0  0  0  0  0  0  0  0  0  0  0
    7.7168   11.2549   24.8438 N   0  0  0  0  0  0  0  0  0  0  0  0
   10.9189   13.4493   22.2049 N   0  0  0  0  0  0  0  0  0  0  0  0
    5.0713   11.9599   27.2359 O   0  0  0  0  0  0  0  0  0  0  0  0
   10.4503   14.3623   24.2981 O   0  0  0  0  0  0  0  0  0  0  0  0
    9.3549    8.2752   22.5132 Br  0  0  0  0  0  0  0  0  0  0  0  0
   12.8466   15.1243   17.4829 H   0  0  0  0  0  0  0  0  0  0  0  0
    5.4312    9.3020   26.0491 H   0  0  0  0  0  0  0  0  0  0  0  0
   14.2894   16.1295   21.4224 H   0  0  0  0  0  0  0  0  0  0  0  0
   10.6196   10.9673   22.3850 H   0  0  0  0  0  0  0  0  0  0  0  0
    8.2323   13.3004   25.1098 H   0  0  0  0  0  0  0  0  0  0  0  0
    6.5105   13.1627   26.4657 H   0  0  0  0  0  0  0  0  0  0  0  0
   10.1118   15.7768   21.0927 H   0  0  0  0  0  0  0  0  0  0  0  0
   11.5970   16.6724   21.4571 H   0  0  0  0  0  0  0  0  0  0  0  0
   10.6020   16.0162   22.7686 H   0  0  0  0  0  0  0  0  0  0  0  0
   16.6543   17.3000   19.5930 H   0  0  0  0  0  0  0  0  0  0  0  0
   15.5950   18.5486   18.8543 H   0  0  0  0  0  0  0  0  0  0  0  0
   15.5137   18.2471   20.6086 H   0  0  0  0  0  0  0  0  0  0  0  0
   11.3924   14.0159   19.6258 H   0  0  0  0  0  0  0  0  0  0  0  0
   12.7869   13.2040   20.3010 H   0  0  0  0  0  0  0  0  0  0  0  0
   12.6245   14.5953   22.3921 H   0  0  0  0  0  0  0  0  0  0  0  0
   10.7440   12.6512   21.6012 H   0  0  0  0  0  0  0  0  0  0  0  0
  1  4  1  0  0  0  0
  1 18  2  0  0  0  0
  2  5  2  0  0  0  0
  2 17  1  0  0  0  0
  3  4  2  0  0  0  0
  3 19  1  0  0  0  0
  4 15  1  0  0  0  0
  5 11  1  0  0  0  0
  5 20  1  0  0  0  0
  6  9  1  0  0  0  0
  6 17  2  0  0  0  0
  6 20  1  0  0  0  0
  7  9  2  0  0  0  0
  7 10  1  0  0  0  0
  8 10  2  0  0  0  0
  8 20  1  0  0  0  0
  9 24  1  0  0  0  0
 10 12  1  0  0  0  0
 11 22  2  0  0  0  0
 12 21  1  0  0  0  0
 12 23  2  0  0  0  0
 13 16  1  0  0  0  0
 14 19  1  0  0  0  0
 15 16  1  0  0  0  0
 16 21  1  0  0  0  0
 18 19  1  0  0  0  0
  1 25  1  0  0  0  0
  2 26  1  0  0  0  0
  3 27  1  0  0  0  0
  7 28  1  0  0  0  0
  8 29  1  0  0  0  0
 11 30  1  0  0  0  0
 13 31  1  0  0  0  0
 13 32  1  0  0  0  0
 13 33  1  0  0  0  0
 14 34  1  0  0  0  0
 14 35  1  0  0  0  0
 14 36  1  0  0  0  0
 15 37  1  0  0  0  0
 15 38  1  0  0  0  0
 16 39  1  0  0  0  0
 21 40  1  0  0  0  0
M  END
> <Catalog ID>
Z2714250941

> <MW>
390.235

> <MW (desalted)>
390.235

> <ClogP>
1.637

> <logS>
-2.656

> <HBD>
1

> <HBA>
4

> <TPSA>
81.29

> <RotBonds>
5

> <ROCS_ShapeQuery>
A71EV2A-x0451_0A_A71EV2A-x0310_0A_A71EV2A-x0416_0A_peptide

> <ROCS_TanimotoCombo>
0.523 

> <ROCS_ShapeTanimoto>
0.367 

> <ROCS_ColorTanimoto>
0.156 

> <ROCS_RefTversky>
0.322 

> <ROCS_RefColorTversky>
0.184 

> <ROCS_RefTverskyCombo>
0.507 

> <ROCS_FitTversky>
1.601 

> <ROCS_FitColorTversky>
0.508 

> <ROCS_FitTverskyCombo>
2.108 

> <ROCS_ColorScore>
-5.640

> <ROCS_Overlap>
2240.857

> <ROCS_Rank>
338                 

$$$$
untitled-dbase-952_3841
  -OEChem-11132309573D

 50 52  0     0  0  0  0  0  0999 V2000
   13.3947   11.1248   24.4903 C   0  0  0  0  0  0  0  0  0  0  0  0
   14.3389   13.2376   23.7962 C   0  0  0  0  0  0  0  0  0  0  0  0
   12.1671   11.4925   23.9395 C   0  0  0  0  0  0  0  0  0  0  0  0
   13.1113   13.6053   23.2454 C   0  0  0  0  0  0  0  0  0  0  0  0
    8.1440   11.8010   24.0307 C   0  0  0  0  0  0  0  0  0  0  0  0
   14.4806   11.9974   24.4187 C   0  0  0  0  0  0  0  0  0  0  0  0
   12.0254   12.7327   23.3170 C   0  0  0  0  0  0  0  0  0  0  0  0
    7.7407   10.6389   24.7300 C   0  0  0  0  0  0  0  0  0  0  0  0
    9.1039   11.3595   23.1541 C   0  0  0  0  0  0  0  0  0  0  0  0
   10.0073   15.8105   20.6533 C   0  0  0  0  0  0  0  0  0  0  0  0
    9.5563   14.8828   21.5036 C   0  0  0  0  0  0  0  0  0  0  0  0
   10.3695   14.4922   22.6924 C   0  0  0  0  0  0  0  0  0  0  0  0
    7.5945   13.1537   24.2944 C   0  0  0  0  0  0  0  0  0  0  0  0
    6.6859   10.6305   25.7763 C   0  0  0  0  0  0  0  0  0  0  0  0
    6.2880   13.0666   25.1063 C   0  0  0  0  0  0  0  0  0  0  0  0
    6.3910   12.0605   26.2683 C   0  0  0  0  0  0  0  0  0  0  0  0
   10.0924    9.0967   22.6865 C   0  0  0  0  0  0  0  0  0  0  0  0
   15.7931   11.6043   25.0077 C   0  0  0  0  0  0  0  0  0  0  0  0
    9.9169   12.0783   22.1556 C   0  0  0  0  0  0  0  0  0  0  0  0
   15.9440   12.0182   26.4730 C   0  0  0  0  0  0  0  0  0  0  0  0
    8.3865    9.5428   24.3253 N   0  0  0  0  0  0  0  0  0  0  0  0
    9.2093   10.0141   23.3689 N   0  0  0  0  0  0  0  0  0  0  0  0
   10.7369   13.1188   22.7385 N   0  0  0  0  0  0  0  0  0  0  0  0
   10.6552   15.3527   23.5255 O   0  0  0  0  0  0  0  0  0  0  0  0
   14.9467   11.3750   27.2562 O   0  0  0  0  0  0  0  0  0  0  0  0
   13.4955   10.1575   24.9754 H   0  0  0  0  0  0  0  0  0  0  0  0
   15.1795   13.9240   23.7366 H   0  0  0  0  0  0  0  0  0  0  0  0
   11.3277   10.8044   24.0008 H   0  0  0  0  0  0  0  0  0  0  0  0
   13.0116   14.5746   22.7635 H   0  0  0  0  0  0  0  0  0  0  0  0
    9.4019   16.1077   19.8034 H   0  0  0  0  0  0  0  0  0  0  0  0
   10.9741   16.2877   20.7699 H   0  0  0  0  0  0  0  0  0  0  0  0
    8.5766   14.4420   21.3596 H   0  0  0  0  0  0  0  0  0  0  0  0
    8.3340   13.7321   24.8611 H   0  0  0  0  0  0  0  0  0  0  0  0
    7.4082   13.6878   23.3562 H   0  0  0  0  0  0  0  0  0  0  0  0
    5.7713   10.1977   25.3533 H   0  0  0  0  0  0  0  0  0  0  0  0
    6.9849   10.0051   26.6247 H   0  0  0  0  0  0  0  0  0  0  0  0
    6.0341   14.0594   25.4939 H   0  0  0  0  0  0  0  0  0  0  0  0
    5.4669   12.7614   24.4449 H   0  0  0  0  0  0  0  0  0  0  0  0
    5.4602   12.0616   26.8467 H   0  0  0  0  0  0  0  0  0  0  0  0
    7.1900   12.3846   26.9476 H   0  0  0  0  0  0  0  0  0  0  0  0
   11.0315    9.0544   23.2444 H   0  0  0  0  0  0  0  0  0  0  0  0
    9.6279    8.1075   22.6443 H   0  0  0  0  0  0  0  0  0  0  0  0
   10.2674    9.4538   21.6678 H   0  0  0  0  0  0  0  0  0  0  0  0
   15.9338   10.5152   24.9245 H   0  0  0  0  0  0  0  0  0  0  0  0
   16.6096   12.0630   24.4291 H   0  0  0  0  0  0  0  0  0  0  0  0
   10.6018   11.3998   21.6152 H   0  0  0  0  0  0  0  0  0  0  0  0
    9.2970   12.5634   21.3802 H   0  0  0  0  0  0  0  0  0  0  0  0
   16.9219   11.7062   26.8538 H   0  0  0  0  0  0  0  0  0  0  0  0
   15.8469   13.1017   26.5980 H   0  0  0  0  0  0  0  0  0  0  0  0
   15.0833   10.4196   27.1530 H   0  0  0  0  0  0  0  0  0  0  0  0
  1  3  2  0  0  0  0
  1  6  1  0  0  0  0
  2  4  1  0  0  0  0
  2  6  2  0  0  0  0
  3  7  1  0  0  0  0
  4  7  2  0  0  0  0
  5  8  1  0  0  0  0
  5  9  2  0  0  0  0
  5 13  1  0  0  0  0
  6 18  1  0  0  0  0
  7 23  1  0  0  0  0
  8 14  1  0  0  0  0
  8 21  2  0  0  0  0
  9 19  1  0  0  0  0
  9 22  1  0  0  0  0
 10 11  2  0  0  0  0
 11 12  1  0  0  0  0
 12 23  1  0  0  0  0
 12 24  2  0  0  0  0
 13 15  1  0  0  0  0
 14 16  1  0  0  0  0
 15 16  1  0  0  0  0
 17 22  1  0  0  0  0
 18 20  1  0  0  0  0
 19 23  1  0  0  0  0
 20 25  1  0  0  0  0
 21 22  1  0  0  0  0
  1 26  1  0  0  0  0
  2 27  1  0  0  0  0
  3 28  1  0  0  0  0
  4 29  1  0  0  0  0
 10 30  1  0  0  0  0
 10 31  1  0  0  0  0
 11 32  1  0  0  0  0
 13 33  1  0  0  0  0
 13 34  1  0  0  0  0
 14 35  1  0  0  0  0
 14 36  1  0  0  0  0
 15 37  1  0  0  0  0
 15 38  1  0  0  0  0
 16 39  1  0  0  0  0
 16 40  1  0  0  0  0
 17 41  1  0  0  0  0
 17 42  1  0  0  0  0
 17 43  1  0  0  0  0
 18 44  1  0  0  0  0
 18 45  1  0  0  0  0
 19 46  1  0  0  0  0
 19 47  1  0  0  0  0
 20 48  1  0  0  0  0
 20 49  1  0  0  0  0
 25 50  1  0  0  0  0
M  END
> <Catalog ID>
Z4323394631

> <MW>
339.431

> <MW (desalted)>
339.431

> <ClogP>
2.458

> <logS>
-3.158

> <HBD>
1

> <HBA>
3

> <TPSA>
58.36

> <RotBonds>
6

> <ROCS_ShapeQuery>
A71EV2A-x0451_0A_A71EV2A-x0310_0A_A71EV2A-x0416_0A_peptide

> <ROCS_TanimotoCombo>
0.523 

> <ROCS_ShapeTanimoto>
0.372 

> <ROCS_ColorTanimoto>
0.151 

> <ROCS_RefTversky>
0.326 

> <ROCS_RefColorTversky>
0.171 

> <ROCS_RefTverskyCombo>
0.498 

> <ROCS_FitTversky>
1.594 

> <ROCS_FitColorTversky>
0.568 

> <ROCS_FitTverskyCombo>
2.162 

> <ROCS_ColorScore>
-5.226

> <ROCS_Overlap>
2268.957

> <ROCS_Rank>
339                 

$$$$
untitled-dbase-11314_615
  -OEChem-11132309573D

 50 53  0     0  0  0  0  0  0999 V2000
   12.3628   15.5552   21.2827 C   0  0  0  0  0  0  0  0  0  0  0  0
   14.7458   13.0048   24.5491 C   0  0  0  0  0  0  0  0  0  0  0  0
   13.1174   14.4522   25.5933 C   0  0  0  0  0  0  0  0  0  0  0  0
   14.9380   12.3452   25.7630 C   0  0  0  0  0  0  0  0  0  0  0  0
   13.3096   13.7926   26.8072 C   0  0  0  0  0  0  0  0  0  0  0  0
   10.0756   10.6482   22.6682 C   0  0  0  0  0  0  0  0  0  0  0  0
    9.0693    9.7616   23.0521 C   0  0  0  0  0  0  0  0  0  0  0  0
    9.0993   12.3691   24.0580 C   0  0  0  0  0  0  0  0  0  0  0  0
   13.8355   14.0584   24.4642 C   0  0  0  0  0  0  0  0  0  0  0  0
   14.2199   12.7391   26.8920 C   0  0  0  0  0  0  0  0  0  0  0  0
   10.0873   11.9517   23.1660 C   0  0  0  0  0  0  0  0  0  0  0  0
    8.0725   10.1827   23.9327 C   0  0  0  0  0  0  0  0  0  0  0  0
    8.1002   11.4791   24.4527 C   0  0  0  0  0  0  0  0  0  0  0  0
   13.6329   14.7540   23.1837 C   0  0  0  0  0  0  0  0  0  0  0  0
   12.4617   14.8571   22.5246 C   0  0  0  0  0  0  0  0  0  0  0  0
   11.2639   14.1786   23.1543 C   0  0  0  0  0  0  0  0  0  0  0  0
   14.7941   10.6593   28.0752 C   0  0  0  0  0  0  0  0  0  0  0  0
   13.6545   12.4923   29.2950 C   0  0  0  0  0  0  0  0  0  0  0  0
   15.4392   10.2677   29.3997 C   0  0  0  0  0  0  0  0  0  0  0  0
   14.3601   12.0024   30.5547 C   0  0  0  0  0  0  0  0  0  0  0  0
    5.9671    9.8988   24.8664 C   0  0  0  0  0  0  0  0  0  0  0  0
    6.4197   10.8747   25.9350 C   0  0  0  0  0  0  0  0  0  0  0  0
   12.2778   16.1206   20.2728 N   0  0  0  0  0  0  0  0  0  0  0  0
   14.4125   12.0778   28.1093 N   0  0  0  0  0  0  0  0  0  0  0  0
   11.0861   12.8404   22.7666 N   0  0  0  0  0  0  0  0  0  0  0  0
   10.5390   14.7943   23.9320 O   0  0  0  0  0  0  0  0  0  0  0  0
    7.0991    9.2736   24.2553 O   0  0  0  0  0  0  0  0  0  0  0  0
    7.1696   11.9409   25.3463 O   0  0  0  0  0  0  0  0  0  0  0  0
   14.5776   10.5934   30.4902 O   0  0  0  0  0  0  0  0  0  0  0  0
   15.3132   12.6866   23.6777 H   0  0  0  0  0  0  0  0  0  0  0  0
   12.4042   15.2715   25.5424 H   0  0  0  0  0  0  0  0  0  0  0  0
   15.6501   11.5258   25.8182 H   0  0  0  0  0  0  0  0  0  0  0  0
   12.7442   14.1078   27.6805 H   0  0  0  0  0  0  0  0  0  0  0  0
   10.8491   10.3110   21.9826 H   0  0  0  0  0  0  0  0  0  0  0  0
    9.0745    8.7446   22.6693 H   0  0  0  0  0  0  0  0  0  0  0  0
    9.0989   13.3882   24.4380 H   0  0  0  0  0  0  0  0  0  0  0  0
   14.5394   15.2164   22.7994 H   0  0  0  0  0  0  0  0  0  0  0  0
   15.4941   10.4603   27.2515 H   0  0  0  0  0  0  0  0  0  0  0  0
   13.8936   10.0495   27.9082 H   0  0  0  0  0  0  0  0  0  0  0  0
   12.6440   12.0593   29.2453 H   0  0  0  0  0  0  0  0  0  0  0  0
   13.5498   13.5858   29.3333 H   0  0  0  0  0  0  0  0  0  0  0  0
   15.6105    9.1866   29.4226 H   0  0  0  0  0  0  0  0  0  0  0  0
   16.4110   10.7576   29.5347 H   0  0  0  0  0  0  0  0  0  0  0  0
   15.3152   12.5195   30.7079 H   0  0  0  0  0  0  0  0  0  0  0  0
   13.7341   12.2027   31.4301 H   0  0  0  0  0  0  0  0  0  0  0  0
    5.3173    9.1182   25.2809 H   0  0  0  0  0  0  0  0  0  0  0  0
    5.4131   10.4239   24.0821 H   0  0  0  0  0  0  0  0  0  0  0  0
    5.5682   11.3033   26.4779 H   0  0  0  0  0  0  0  0  0  0  0  0
    7.0684   10.3717   26.6588 H   0  0  0  0  0  0  0  0  0  0  0  0
   11.7783   12.4694   22.1062 H   0  0  0  0  0  0  0  0  0  0  0  0
  1 15  1  0  0  0  0
  1 23  3  0  0  0  0
  2  4  2  0  0  0  0
  2  9  1  0  0  0  0
  3  5  1  0  0  0  0
  3  9  2  0  0  0  0
  4 10  1  0  0  0  0
  5 10  2  0  0  0  0
  6  7  2  0  0  0  0
  6 11  1  0  0  0  0
  7 12  1  0  0  0  0
  8 11  2  0  0  0  0
  8 13  1  0  0  0  0
  9 14  1  4  0  0  0
 10 24  1  0  0  0  0
 11 25  1  0  0  0  0
 12 13  2  0  0  0  0
 12 27  1  0  0  0  0
 13 28  1  0  0  0  0
 14 15  2  0  0  0  0
 15 16  1  0  0  0  0
 16 25  1  0  0  0  0
 16 26  2  0  0  0  0
 17 19  1  0  0  0  0
 17 24  1  0  0  0  0
 18 20  1  0  0  0  0
 18 24  1  0  0  0  0
 19 29  1  0  0  0  0
 20 29  1  0  0  0  0
 21 22  1  0  0  0  0
 21 27  1  0  0  0  0
 22 28  1  0  0  0  0
  2 30  1  0  0  0  0
  3 31  1  0  0  0  0
  4 32  1  0  0  0  0
  5 33  1  0  0  0  0
  6 34  1  0  0  0  0
  7 35  1  0  0  0  0
  8 36  1  0  0  0  0
 14 37  1  0  0  0  0
 17 38  1  0  0  0  0
 17 39  1  0  0  0  0
 18 40  1  0  0  0  0
 18 41  1  0  0  0  0
 19 42  1  0  0  0  0
 19 43  1  0  0  0  0
 20 44  1  0  0  0  0
 20 45  1  0  0  0  0
 21 46  1  0  0  0  0
 21 47  1  0  0  0  0
 22 48  1  0  0  0  0
 22 49  1  0  0  0  0
 25 50  1  0  0  0  0
M  END
> <Catalog ID>
Z44390852

> <MW>
391.42

> <MW (desalted)>
391.42

> <ClogP>
2.459

> <logS>
-5.026

> <HBD>
1

> <HBA>
6

> <TPSA>
83.82

> <RotBonds>
4

> <ROCS_ShapeQuery>
A71EV2A-x0451_0A_A71EV2A-x0310_0A_A71EV2A-x0416_0A_peptide

> <ROCS_TanimotoCombo>
0.523 

> <ROCS_ShapeTanimoto>
0.367 

> <ROCS_ColorTanimoto>
0.156 

> <ROCS_RefTversky>
0.331 

> <ROCS_RefColorTversky>
0.184 

> <ROCS_RefTverskyCombo>
0.515 

> <ROCS_FitTversky>
1.419 

> <ROCS_FitColorTversky>
0.508 

> <ROCS_FitTverskyCombo>
1.928 

> <ROCS_ColorScore>
-5.640

> <ROCS_Overlap>
2303.427

> <ROCS_Rank>
340                 

$$$$
untitled-dbase-9638_650
  -OEChem-11132309573D

 44 47  0     0  0  0  0  0  0999 V2000
   12.9802   13.6541   27.4665 C   0  0  0  0  0  0  0  0  0  0  0  0
   13.8320   16.7005   18.2643 C   0  0  0  0  0  0  0  0  0  0  0  0
   14.6511   16.6363   19.3915 C   0  0  0  0  0  0  0  0  0  0  0  0
   12.5517   16.1479   18.3002 C   0  0  0  0  0  0  0  0  0  0  0  0
   10.7045   11.1653   22.8408 C   0  0  0  0  0  0  0  0  0  0  0  0
   14.1901   16.0195   20.5545 C   0  0  0  0  0  0  0  0  0  0  0  0
   12.0906   15.5311   19.4632 C   0  0  0  0  0  0  0  0  0  0  0  0
    9.8333   10.1291   23.1782 C   0  0  0  0  0  0  0  0  0  0  0  0
    9.3583   12.7204   24.1118 C   0  0  0  0  0  0  0  0  0  0  0  0
   12.8172   15.1775   23.0247 C   0  0  0  0  0  0  0  0  0  0  0  0
   10.4702   12.4578   23.3111 C   0  0  0  0  0  0  0  0  0  0  0  0
   12.1258   14.3212   23.8464 C   0  0  0  0  0  0  0  0  0  0  0  0
   12.9098   15.4669   20.5904 C   0  0  0  0  0  0  0  0  0  0  0  0
    8.7284   10.3882   23.9898 C   0  0  0  0  0  0  0  0  0  0  0  0
    8.4791   11.6876   24.4384 C   0  0  0  0  0  0  0  0  0  0  0  0
   11.3724   13.5209   22.9666 C   0  0  0  0  0  0  0  0  0  0  0  0
   12.1969   14.2976   25.2539 C   0  0  0  0  0  0  0  0  0  0  0  0
   13.0510   13.5491   26.0447 C   0  0  0  0  0  0  0  0  0  0  0  0
   14.0555   12.6529   25.3752 C   0  0  0  0  0  0  0  0  0  0  0  0
    7.0452    9.6258   25.3939 C   0  0  0  0  0  0  0  0  0  0  0  0
    6.4002   10.9831   25.1920 C   0  0  0  0  0  0  0  0  0  0  0  0
   12.9257   13.7380   28.6228 N   0  0  0  0  0  0  0  0  0  0  0  0
   11.5668   13.8405   21.6844 N   0  0  0  0  0  0  0  0  0  0  0  0
   12.4501   14.8511   21.7524 N   0  0  0  0  0  0  0  0  0  0  0  0
   13.5155   11.6651   24.5827 N   0  0  0  0  0  0  0  0  0  0  0  0
   15.2681   12.7913   25.5216 O   0  0  0  0  0  0  0  0  0  0  0  0
    7.9208    9.3262   24.3034 O   0  0  0  0  0  0  0  0  0  0  0  0
    7.3939   12.0115   25.2103 O   0  0  0  0  0  0  0  0  0  0  0  0
   14.1897   17.1822   17.3592 H   0  0  0  0  0  0  0  0  0  0  0  0
   15.6475   17.0676   19.3642 H   0  0  0  0  0  0  0  0  0  0  0  0
   11.9138   16.1996   17.4225 H   0  0  0  0  0  0  0  0  0  0  0  0
   11.5654   10.9483   22.2126 H   0  0  0  0  0  0  0  0  0  0  0  0
   14.8385   15.9770   21.4263 H   0  0  0  0  0  0  0  0  0  0  0  0
   11.0903   15.1052   19.4778 H   0  0  0  0  0  0  0  0  0  0  0  0
   10.0275    9.1236   22.8151 H   0  0  0  0  0  0  0  0  0  0  0  0
    9.1648   13.7277   24.4753 H   0  0  0  0  0  0  0  0  0  0  0  0
   13.5221   15.9721   23.2345 H   0  0  0  0  0  0  0  0  0  0  0  0
   11.4689   14.9443   25.7944 H   0  0  0  0  0  0  0  0  0  0  0  0
    7.6216    9.5873   26.3265 H   0  0  0  0  0  0  0  0  0  0  0  0
    6.2810    8.8434   25.4317 H   0  0  0  0  0  0  0  0  0  0  0  0
    5.8585   11.0358   24.2395 H   0  0  0  0  0  0  0  0  0  0  0  0
    5.6915   11.1910   25.9994 H   0  0  0  0  0  0  0  0  0  0  0  0
   12.5194   11.5318   24.4448 H   0  0  0  0  0  0  0  0  0  0  0  0
   14.1206   11.0145   24.0921 H   0  0  0  0  0  0  0  0  0  0  0  0
  1 18  1  0  0  0  0
  1 22  3  0  0  0  0
  2  3  1  0  0  0  0
  2  4  2  0  0  0  0
  3  6  2  0  0  0  0
  4  7  1  0  0  0  0
  5  8  2  0  0  0  0
  5 11  1  0  0  0  0
  6 13  1  0  0  0  0
  7 13  2  0  0  0  0
  8 14  1  0  0  0  0
  9 11  2  0  0  0  0
  9 15  1  0  0  0  0
 10 12  2  0  0  0  0
 10 24  1  0  0  0  0
 11 16  1  0  0  0  0
 12 16  1  0  0  0  0
 12 17  1  4  0  0  0
 13 24  1  0  0  0  0
 14 15  2  0  0  0  0
 14 27  1  0  0  0  0
 15 28  1  0  0  0  0
 16 23  2  0  0  0  0
 17 18  2  0  0  0  0
 18 19  1  0  0  0  0
 19 25  1  0  0  0  0
 19 26  2  0  0  0  0
 20 21  1  0  0  0  0
 20 27  1  0  0  0  0
 21 28  1  0  0  0  0
 23 24  1  0  0  0  0
  2 29  1  0  0  0  0
  3 30  1  0  0  0  0
  4 31  1  0  0  0  0
  5 32  1  0  0  0  0
  6 33  1  0  0  0  0
  7 34  1  0  0  0  0
  8 35  1  0  0  0  0
  9 36  1  0  0  0  0
 10 37  1  0  0  0  0
 17 38  1  0  0  0  0
 20 39  1  0  0  0  0
 20 40  1  0  0  0  0
 21 41  1  0  0  0  0
 21 42  1  0  0  0  0
 25 43  1  0  0  0  0
 25 44  1  0  0  0  0
M  END
> <Catalog ID>
Z56862042

> <MW>
372.377

> <MW (desalted)>
372.377

> <ClogP>
3.001

> <logS>
-5.02

> <HBD>
1

> <HBA>
5

> <TPSA>
103.16

> <RotBonds>
4

> <ROCS_ShapeQuery>
A71EV2A-x0451_0A_A71EV2A-x0310_0A_A71EV2A-x0416_0A_peptide

> <ROCS_TanimotoCombo>
0.523 

> <ROCS_ShapeTanimoto>
0.383 

> <ROCS_ColorTanimoto>
0.140 

> <ROCS_RefTversky>
0.341 

> <ROCS_RefColorTversky>
0.168 

> <ROCS_RefTverskyCombo>
0.508 

> <ROCS_FitTversky>
1.477 

> <ROCS_FitColorTversky>
0.463 

> <ROCS_FitTverskyCombo>
1.940 

> <ROCS_ColorScore>
-5.134

> <ROCS_Overlap>
2370.993

> <ROCS_Rank>
341                 

$$$$
untitled-dbase-7064_7883
  -OEChem-11132309573D

 60 63  0     0  0  0  0  0  0999 V2000
   13.2479   14.1475   23.0425 C   0  0  0  0  0  0  0  0  0  0  0  0
    3.8508   12.6170   28.4428 C   0  0  0  0  0  0  0  0  0  0  0  0
    4.3008   13.3887   27.3715 C   0  0  0  0  0  0  0  0  0  0  0  0
    4.6115   11.5381   28.8932 C   0  0  0  0  0  0  0  0  0  0  0  0
    5.5114   13.0813   26.7505 C   0  0  0  0  0  0  0  0  0  0  0  0
    5.8221   11.2307   28.2722 C   0  0  0  0  0  0  0  0  0  0  0  0
   13.5464   16.1060   20.7885 C   0  0  0  0  0  0  0  0  0  0  0  0
   12.4505   15.2818   20.4327 C   0  0  0  0  0  0  0  0  0  0  0  0
    6.2721   12.0023   27.2009 C   0  0  0  0  0  0  0  0  0  0  0  0
   14.0899   16.5944   19.6209 C   0  0  0  0  0  0  0  0  0  0  0  0
   12.3577   15.2915   19.0584 C   0  0  0  0  0  0  0  0  0  0  0  0
   11.5624   14.5440   21.3446 C   0  0  0  0  0  0  0  0  0  0  0  0
   11.9169   14.0316   22.5392 C   0  0  0  0  0  0  0  0  0  0  0  0
   10.8427   13.3068   23.3100 C   0  0  0  0  0  0  0  0  0  0  0  0
   13.8063   15.2457   16.1806 C   0  0  0  0  0  0  0  0  0  0  0  0
   14.9648   16.1160   16.5553 C   0  0  0  0  0  0  0  0  0  0  0  0
    7.9968   12.2299   23.4932 C   0  0  0  0  0  0  0  0  0  0  0  0
    9.7397   10.7211   24.4984 C   0  0  0  0  0  0  0  0  0  0  0  0
    6.9286   11.3947   24.2043 C   0  0  0  0  0  0  0  0  0  0  0  0
    8.6091    9.9394   25.1728 C   0  0  0  0  0  0  0  0  0  0  0  0
   13.6092   16.3681   17.1725 C   0  0  0  0  0  0  0  0  0  0  0  0
    9.2540   11.4040   23.2189 C   0  0  0  0  0  0  0  0  0  0  0  0
   15.2429   17.4968   19.4194 C   0  0  0  0  0  0  0  0  0  0  0  0
   11.4028   14.6087   18.1567 C   0  0  0  0  0  0  0  0  0  0  0  0
    7.5751   11.6708   26.5328 C   0  0  0  0  0  0  0  0  0  0  0  0
   14.3288   14.2393   23.4548 N   0  0  0  0  0  0  0  0  0  0  0  0
   13.3594   16.0924   18.5756 N   0  0  0  0  0  0  0  0  0  0  0  0
    7.3994   10.7321   25.4273 N   0  0  0  0  0  0  0  0  0  0  0  0
   10.2908   12.2241   22.6433 N   0  0  0  0  0  0  0  0  0  0  0  0
   10.5044   13.6632   24.4377 O   0  0  0  0  0  0  0  0  0  0  0  0
    2.9088   12.8573   28.9271 H   0  0  0  0  0  0  0  0  0  0  0  0
    3.7091   14.2295   27.0214 H   0  0  0  0  0  0  0  0  0  0  0  0
    4.2621   10.9377   29.7280 H   0  0  0  0  0  0  0  0  0  0  0  0
    5.8540   13.6880   25.9164 H   0  0  0  0  0  0  0  0  0  0  0  0
    6.4081   10.3881   28.6299 H   0  0  0  0  0  0  0  0  0  0  0  0
   13.9043   16.3237   21.7861 H   0  0  0  0  0  0  0  0  0  0  0  0
   10.5538   14.4207   20.9559 H   0  0  0  0  0  0  0  0  0  0  0  0
   13.3817   15.3688   15.1916 H   0  0  0  0  0  0  0  0  0  0  0  0
   13.8025   14.2261   16.5458 H   0  0  0  0  0  0  0  0  0  0  0  0
   15.7410   15.6824   17.1741 H   0  0  0  0  0  0  0  0  0  0  0  0
   15.3225   16.8264   15.8200 H   0  0  0  0  0  0  0  0  0  0  0  0
    7.5939   12.5903   22.5413 H   0  0  0  0  0  0  0  0  0  0  0  0
    8.2377   13.1144   24.0886 H   0  0  0  0  0  0  0  0  0  0  0  0
   10.1543   11.4546   25.1943 H   0  0  0  0  0  0  0  0  0  0  0  0
   10.5513   10.0312   24.2466 H   0  0  0  0  0  0  0  0  0  0  0  0
    6.0439   12.0316   24.4226 H   0  0  0  0  0  0  0  0  0  0  0  0
    6.5675   10.6284   23.4877 H   0  0  0  0  0  0  0  0  0  0  0  0
    8.3540    9.0822   24.5159 H   0  0  0  0  0  0  0  0  0  0  0  0
    8.9827    9.4850   26.1158 H   0  0  0  0  0  0  0  0  0  0  0  0
   13.0672   17.2397   16.8227 H   0  0  0  0  0  0  0  0  0  0  0  0
    9.0282   10.6391   22.4611 H   0  0  0  0  0  0  0  0  0  0  0  0
   16.1792   16.9252   19.3176 H   0  0  0  0  0  0  0  0  0  0  0  0
   15.1273   18.1174   18.5153 H   0  0  0  0  0  0  0  0  0  0  0  0
   15.3673   18.2001   20.2597 H   0  0  0  0  0  0  0  0  0  0  0  0
   10.5221   15.2408   17.9653 H   0  0  0  0  0  0  0  0  0  0  0  0
   11.8609   14.3630   17.1852 H   0  0  0  0  0  0  0  0  0  0  0  0
   11.0495   13.6549   18.5807 H   0  0  0  0  0  0  0  0  0  0  0  0
    8.0463   12.5762   26.1348 H   0  0  0  0  0  0  0  0  0  0  0  0
    8.2783   11.2236   27.2432 H   0  0  0  0  0  0  0  0  0  0  0  0
   10.6296   12.0000   21.7136 H   0  0  0  0  0  0  0  0  0  0  0  0
  1 13  1  0  0  0  0
  1 26  3  0  0  0  0
  2  3  1  0  0  0  0
  2  4  2  0  0  0  0
  3  5  2  0  0  0  0
  4  6  1  0  0  0  0
  5  9  1  0  0  0  0
  6  9  2  0  0  0  0
  7  8  1  0  0  0  0
  7 10  2  0  0  0  0
  8 11  2  0  0  0  0
  8 12  1  4  0  0  0
  9 25  1  0  0  0  0
 10 23  1  0  0  0  0
 10 27  1  0  0  0  0
 11 24  1  0  0  0  0
 11 27  1  0  0  0  0
 12 13  2  0  0  0  0
 13 14  1  0  0  0  0
 14 29  1  0  0  0  0
 14 30  2  0  0  0  0
 15 16  1  0  0  0  0
 15 21  1  0  0  0  0
 16 21  1  0  0  0  0
 17 19  1  0  0  0  0
 17 22  1  0  0  0  0
 18 20  1  0  0  0  0
 18 22  1  0  0  0  0
 19 28  1  0  0  0  0
 20 28  1  0  0  0  0
 21 27  1  0  0  0  0
 22 29  1  0  0  0  0
 25 28  1  0  0  0  0
  2 31  1  0  0  0  0
  3 32  1  0  0  0  0
  4 33  1  0  0  0  0
  5 34  1  0  0  0  0
  6 35  1  0  0  0  0
  7 36  1  0  0  0  0
 12 37  1  0  0  0  0
 15 38  1  0  0  0  0
 15 39  1  0  0  0  0
 16 40  1  0  0  0  0
 16 41  1  0  0  0  0
 17 42  1  0  0  0  0
 17 43  1  0  0  0  0
 18 44  1  0  0  0  0
 18 45  1  0  0  0  0
 19 46  1  0  0  0  0
 19 47  1  0  0  0  0
 20 48  1  0  0  0  0
 20 49  1  0  0  0  0
 21 50  1  0  0  0  0
 22 51  1  0  0  0  0
 23 52  1  0  0  0  0
 23 53  1  0  0  0  0
 23 54  1  0  0  0  0
 24 55  1  0  0  0  0
 24 56  1  0  0  0  0
 24 57  1  0  0  0  0
 25 58  1  0  0  0  0
 25 59  1  0  0  0  0
 29 60  1  0  0  0  0
M  END
> <Catalog ID>
Z244531058

> <MW>
402.532

> <MW (desalted)>
402.532

> <ClogP>
3.726

> <logS>
-3.47

> <HBD>
1

> <HBA>
3

> <TPSA>
61.06

> <RotBonds>
6

> <ROCS_ShapeQuery>
A71EV2A-x0451_0A_A71EV2A-x0310_0A_A71EV2A-x0416_0A_peptide

> <ROCS_TanimotoCombo>
0.523 

> <ROCS_ShapeTanimoto>
0.322 

> <ROCS_ColorTanimoto>
0.201 

> <ROCS_RefTversky>
0.301 

> <ROCS_RefColorTversky>
0.212 

> <ROCS_RefTverskyCombo>
0.513 

> <ROCS_FitTversky>
1.284 

> <ROCS_FitColorTversky>
0.786 

> <ROCS_FitTverskyCombo>
2.070 

> <ROCS_ColorScore>
-6.471

> <ROCS_Overlap>
2094.725

> <ROCS_Rank>
342                 

$$$$
untitled-dbase-8866_6598
  -OEChem-11132309573D

 42 44  0     0  0  0  0  0  0999 V2000
   13.0377   16.6847   21.0458 C   0  0  0  0  0  0  0  0  0  0  0  0
   12.6162   17.2398   22.2540 C   0  0  0  0  0  0  0  0  0  0  0  0
   12.3984   15.5542   20.5369 C   0  0  0  0  0  0  0  0  0  0  0  0
   11.5553   16.6643   22.9534 C   0  0  0  0  0  0  0  0  0  0  0  0
   11.3376   14.9787   21.2363 C   0  0  0  0  0  0  0  0  0  0  0  0
   10.1353   10.4459   22.9133 C   0  0  0  0  0  0  0  0  0  0  0  0
    8.9907    9.9869   23.5696 C   0  0  0  0  0  0  0  0  0  0  0  0
   10.9160   15.5338   22.4445 C   0  0  0  0  0  0  0  0  0  0  0  0
   10.5767   11.7697   23.0856 C   0  0  0  0  0  0  0  0  0  0  0  0
    8.3195   10.8759   24.3838 C   0  0  0  0  0  0  0  0  0  0  0  0
    8.7515   12.1716   24.5524 C   0  0  0  0  0  0  0  0  0  0  0  0
    9.8784   12.6498   23.9159 C   0  0  0  0  0  0  0  0  0  0  0  0
   13.6437   12.6114   24.7861 C   0  0  0  0  0  0  0  0  0  0  0  0
    6.9638   11.8827   25.7367 C   0  0  0  0  0  0  0  0  0  0  0  0
   11.8063   12.2208   22.3668 C   0  0  0  0  0  0  0  0  0  0  0  0
    9.7749   14.9142   23.1965 C   0  0  0  0  0  0  0  0  0  0  0  0
   13.9195   12.4080   26.2540 C   0  0  0  0  0  0  0  0  0  0  0  0
   13.0513   11.3952   22.7096 C   0  0  0  0  0  0  0  0  0  0  0  0
   13.3621   11.4306   24.1135 N   0  0  0  0  0  0  0  0  0  0  0  0
   13.6587   13.7284   24.2719 O   0  0  0  0  0  0  0  0  0  0  0  0
    7.1931   10.6094   25.0993 O   0  0  0  0  0  0  0  0  0  0  0  0
    7.9495   12.8786   25.3944 O   0  0  0  0  0  0  0  0  0  0  0  0
   10.2887   13.9309   24.0964 O   0  0  0  0  0  0  0  0  0  0  0  0
   15.0451   13.6709   26.7766 Cl  0  0  0  0  0  0  0  0  0  0  0  0
   13.8629   17.1337   20.5007 H   0  0  0  0  0  0  0  0  0  0  0  0
   13.1131   18.1207   22.6499 H   0  0  0  0  0  0  0  0  0  0  0  0
   12.7257   15.1224   19.5958 H   0  0  0  0  0  0  0  0  0  0  0  0
   11.2338   17.1035   23.8941 H   0  0  0  0  0  0  0  0  0  0  0  0
   10.8455   14.0980   20.8322 H   0  0  0  0  0  0  0  0  0  0  0  0
   10.6842    9.7672   22.2650 H   0  0  0  0  0  0  0  0  0  0  0  0
    8.6468    8.9672   23.4390 H   0  0  0  0  0  0  0  0  0  0  0  0
    5.9755   12.2508   25.4395 H   0  0  0  0  0  0  0  0  0  0  0  0
    6.9726   11.7385   26.8232 H   0  0  0  0  0  0  0  0  0  0  0  0
   12.0049   13.2763   22.6146 H   0  0  0  0  0  0  0  0  0  0  0  0
   11.6441   12.2040   21.2763 H   0  0  0  0  0  0  0  0  0  0  0  0
    9.2263   15.6701   23.7687 H   0  0  0  0  0  0  0  0  0  0  0  0
    9.0700   14.4368   22.5072 H   0  0  0  0  0  0  0  0  0  0  0  0
   13.0149   12.4710   26.8639 H   0  0  0  0  0  0  0  0  0  0  0  0
   14.3840   11.4297   26.4042 H   0  0  0  0  0  0  0  0  0  0  0  0
   12.8968   10.3439   22.4469 H   0  0  0  0  0  0  0  0  0  0  0  0
   13.9310   11.7569   22.1672 H   0  0  0  0  0  0  0  0  0  0  0  0
   13.3761   10.5556   24.6339 H   0  0  0  0  0  0  0  0  0  0  0  0
  1  2  1  0  0  0  0
  1  3  2  0  0  0  0
  2  4  2  0  0  0  0
  3  5  1  0  0  0  0
  4  8  1  0  0  0  0
  5  8  2  0  0  0  0
  6  7  2  0  0  0  0
  6  9  1  0  0  0  0
  7 10  1  0  0  0  0
  8 16  1  0  0  0  0
  9 12  2  0  0  0  0
  9 15  1  0  0  0  0
 10 11  2  0  0  0  0
 10 21  1  0  0  0  0
 11 12  1  0  0  0  0
 11 22  1  0  0  0  0
 12 23  1  0  0  0  0
 13 17  1  0  0  0  0
 13 19  1  0  0  0  0
 13 20  2  0  0  0  0
 14 21  1  0  0  0  0
 14 22  1  0  0  0  0
 15 18  1  0  0  0  0
 16 23  1  0  0  0  0
 17 24  1  0  0  0  0
 18 19  1  0  0  0  0
  1 25  1  0  0  0  0
  2 26  1  0  0  0  0
  3 27  1  0  0  0  0
  4 28  1  0  0  0  0
  5 29  1  0  0  0  0
  6 30  1  0  0  0  0
  7 31  1  0  0  0  0
 14 32  1  0  0  0  0
 14 33  1  0  0  0  0
 15 34  1  0  0  0  0
 15 35  1  0  0  0  0
 16 36  1  0  0  0  0
 16 37  1  0  0  0  0
 17 38  1  0  0  0  0
 17 39  1  0  0  0  0
 18 40  1  0  0  0  0
 18 41  1  0  0  0  0
 19 42  1  0  0  0  0
M  END
> <Catalog ID>
Z6465983343

> <MW>
347.793

> <MW (desalted)>
347.793

> <ClogP>
3.357

> <logS>
-4.313

> <HBD>
1

> <HBA>
4

> <TPSA>
56.79

> <RotBonds>
7

> <ROCS_ShapeQuery>
A71EV2A-x0451_0A_A71EV2A-x0310_0A_A71EV2A-x0416_0A_peptide

> <ROCS_TanimotoCombo>
0.523 

> <ROCS_ShapeTanimoto>
0.332 

> <ROCS_ColorTanimoto>
0.191 

> <ROCS_RefTversky>
0.299 

> <ROCS_RefColorTversky>
0.208 

> <ROCS_RefTverskyCombo>
0.508 

> <ROCS_FitTversky>
1.502 

> <ROCS_FitColorTversky>
0.690 

> <ROCS_FitTverskyCombo>
2.192 

> <ROCS_ColorScore>
-6.361

> <ROCS_Overlap>
2079.407

> <ROCS_Rank>
343                 

$$$$
untitled-dbase-10545_4716
  -OEChem-11132309573D

 35 36  0     1  0  0  0  0  0999 V2000
    8.2231   12.2942   24.2037 C   0  0  0  0  0  0  0  0  0  0  0  0
    9.1431   10.1925   23.5769 C   0  0  0  0  0  0  0  0  0  0  0  0
    7.1684   10.2339   24.7503 C   0  0  0  0  0  0  0  0  0  0  0  0
    9.2341   11.5750   23.5760 C   0  0  0  0  0  0  0  0  0  0  0  0
    7.1669   11.6184   24.8046 C   0  0  0  0  0  0  0  0  0  0  0  0
   10.8836   13.4544   23.3085 C   0  0  0  0  0  0  0  0  0  0  0  0
   11.9984   13.8011   22.4179 C   0  0  2  0  0  0  0  0  0  0  0  0
   12.4402   15.2352   22.2349 C   0  0  1  0  0  0  0  0  0  0  0  0
   11.7561   14.5072   21.0908 C   0  0  0  0  0  0  0  0  0  0  0  0
   12.6225   14.0997   19.9239 C   0  0  0  0  0  0  0  0  0  0  0  0
   10.3546   14.8887   20.6832 C   0  0  0  0  0  0  0  0  0  0  0  0
   11.8045   16.3690   22.9659 C   0  0  0  0  0  0  0  0  0  0  0  0
    8.1327    9.5009   24.1499 N   0  0  0  0  0  0  0  0  0  0  0  0
   10.3211   12.2346   22.9547 N   0  0  0  0  0  0  0  0  0  0  0  0
   10.5572   14.2005   24.2260 O   0  0  0  0  0  0  0  0  0  0  0  0
    6.7315   12.8879   27.8090 O   0  0  0  0  0  0  0  0  0  0  0  0
    4.3675   12.2070   27.1894 O   0  0  0  0  0  0  0  0  0  0  0  0
    6.1668   12.2936   25.4230 O   0  0  0  0  0  0  0  0  0  0  0  0
   12.2732   16.4262   24.2424 F   0  0  0  0  0  0  0  0  0  0  0  0
   10.4615   16.1715   23.0623 F   0  0  0  0  0  0  0  0  0  0  0  0
    6.1506   10.5975   27.3483 F   0  0  0  0  0  0  0  0  0  0  0  0
    5.8028   12.1109   27.0123 S   0  0  0  0  0  0  0  0  0  0  0  0
    8.2542   13.3806   24.2268 H   0  0  0  0  0  0  0  0  0  0  0  0
    9.9026    9.5768   23.1038 H   0  0  0  0  0  0  0  0  0  0  0  0
    6.3696    9.6550   25.2034 H   0  0  0  0  0  0  0  0  0  0  0  0
   12.7969   13.0641   22.4381 H   0  0  0  0  0  0  0  0  0  0  0  0
   13.5092   15.4066   22.1448 H   0  0  0  0  0  0  0  0  0  0  0  0
   12.3590   14.6716   19.0281 H   0  0  0  0  0  0  0  0  0  0  0  0
   12.4949   13.0355   19.7003 H   0  0  0  0  0  0  0  0  0  0  0  0
   13.6797   14.2788   20.1457 H   0  0  0  0  0  0  0  0  0  0  0  0
   10.3564   15.3857   19.7072 H   0  0  0  0  0  0  0  0  0  0  0  0
    9.9110   15.5730   21.4142 H   0  0  0  0  0  0  0  0  0  0  0  0
    9.7159   14.0016   20.6138 H   0  0  0  0  0  0  0  0  0  0  0  0
   11.9773   17.3451   22.4904 H   0  0  0  0  0  0  0  0  0  0  0  0
   10.7288   11.7482   22.1590 H   0  0  0  0  0  0  0  0  0  0  0  0
  1  4  2  0  0  0  0
  1  5  1  0  0  0  0
  2  4  1  0  0  0  0
  2 13  2  0  0  0  0
  3  5  2  0  0  0  0
  3 13  1  0  0  0  0
  4 14  1  0  0  0  0
  5 18  1  0  0  0  0
  6  7  1  1  0  0  0
  6 14  1  0  0  0  0
  6 15  2  0  0  0  0
  7  8  1  0  0  0  0
  7  9  1  0  0  0  0
  8  9  1  0  0  0  0
  8 12  1  1  0  0  0
  9 10  1  0  0  0  0
  9 11  1  0  0  0  0
 12 19  1  0  0  0  0
 12 20  1  0  0  0  0
 16 22  2  0  0  0  0
 17 22  2  0  0  0  0
 18 22  1  0  0  0  0
 21 22  1  0  0  0  0
  1 23  1  0  0  0  0
  2 24  1  0  0  0  0
  3 25  1  0  0  0  0
  7 26  1  0  0  0  0
  8 27  1  0  0  0  0
 10 28  1  0  0  0  0
 10 29  1  0  0  0  0
 10 30  1  0  0  0  0
 11 31  1  0  0  0  0
 11 32  1  0  0  0  0
 11 33  1  0  0  0  0
 12 34  1  0  0  0  0
 14 35  1  0  0  0  0
M  END
> <Catalog ID>
Z4650039225

> <MW>
338.303

> <MW (desalted)>
338.303

> <ClogP>
0.463

> <logS>
-2.97

> <HBD>
1

> <HBA>
4

> <TPSA>
85.36

> <RotBonds>
5

> <ROCS_ShapeQuery>
A71EV2A-x0451_0A_A71EV2A-x0310_0A_A71EV2A-x0416_0A_peptide

> <ROCS_TanimotoCombo>
0.523 

> <ROCS_ShapeTanimoto>
0.341 

> <ROCS_ColorTanimoto>
0.182 

> <ROCS_RefTversky>
0.301 

> <ROCS_RefColorTversky>
0.196 

> <ROCS_RefTverskyCombo>
0.497 

> <ROCS_FitTversky>
1.637 

> <ROCS_FitColorTversky>
0.725 

> <ROCS_FitTverskyCombo>
2.361 

> <ROCS_ColorScore>
-5.972

> <ROCS_Overlap>
2088.022

> <ROCS_Rank>
344                 

$$$$
untitled-dbase-10604_966
  -OEChem-11132309573D

 54 56  0     1  0  0  0  0  0999 V2000
   14.8569   12.9207   23.4603 C   0  0  0  0  0  0  0  0  0  0  0  0
   15.8587   13.3779   22.6042 C   0  0  0  0  0  0  0  0  0  0  0  0
    9.6427   10.9058   23.0762 C   0  0  0  0  0  0  0  0  0  0  0  0
   13.5259   13.2640   23.2225 C   0  0  0  0  0  0  0  0  0  0  0  0
   15.5296   14.1784   21.5103 C   0  0  0  0  0  0  0  0  0  0  0  0
    8.8212    9.8030   23.3097 C   0  0  0  0  0  0  0  0  0  0  0  0
    8.4608   12.1469   24.7790 C   0  0  0  0  0  0  0  0  0  0  0  0
    9.4626   12.0778   23.8108 C   0  0  0  0  0  0  0  0  0  0  0  0
   13.1969   14.0646   22.1287 C   0  0  0  0  0  0  0  0  0  0  0  0
   14.1987   14.5218   21.2726 C   0  0  0  0  0  0  0  0  0  0  0  0
    7.6392   11.0442   25.0126 C   0  0  0  0  0  0  0  0  0  0  0  0
    7.8194    9.8722   24.2779 C   0  0  0  0  0  0  0  0  0  0  0  0
    4.7382   12.8266   28.5809 C   0  0  0  0  0  0  0  0  0  0  0  0
    5.1874   11.9094   27.7184 C   0  0  0  0  0  0  0  0  0  0  0  0
   10.3384   13.2516   23.5617 C   0  0  0  0  0  0  0  0  0  0  0  0
    6.3260   12.2192   26.8058 C   0  0  0  0  0  0  0  0  0  0  0  0
   13.5903   14.6647   18.8925 C   0  0  0  0  0  0  0  0  0  0  0  0
   14.4630   16.6700   20.0602 C   0  0  0  0  0  0  0  0  0  0  0  0
   12.8023   15.6116   17.9945 C   0  0  0  0  0  0  0  0  0  0  0  0
   13.6287   17.5100   19.0993 C   0  0  0  0  0  0  0  0  0  0  0  0
   11.3428   15.7200   22.5912 C   0  0  0  0  0  0  0  0  0  0  0  0
   11.7633   14.4168   21.8980 C   0  0  2  0  0  0  0  0  0  0  0  0
   13.8872   15.3253   20.1710 N   0  0  0  0  0  0  0  0  0  0  0  0
    6.6403   11.1284   25.9853 N   0  0  0  0  0  0  0  0  0  0  0  0
   10.8694   13.3413   22.2888 N   0  0  0  0  0  0  0  0  0  0  0  0
   10.5546   14.0436   24.4753 O   0  0  0  0  0  0  0  0  0  0  0  0
    6.8749   13.3146   26.8238 O   0  0  0  0  0  0  0  0  0  0  0  0
   13.4978   16.8487   17.8414 O   0  0  0  0  0  0  0  0  0  0  0  0
    7.0265    8.7838   24.4893 O   0  0  0  0  0  0  0  0  0  0  0  0
   15.1132   12.2974   24.3120 H   0  0  0  0  0  0  0  0  0  0  0  0
   16.8949   13.1105   22.7894 H   0  0  0  0  0  0  0  0  0  0  0  0
   10.4202   10.8414   22.3192 H   0  0  0  0  0  0  0  0  0  0  0  0
   12.7529   12.9026   23.8956 H   0  0  0  0  0  0  0  0  0  0  0  0
   16.3189   14.5288   20.8500 H   0  0  0  0  0  0  0  0  0  0  0  0
    8.9681    8.8929   22.7343 H   0  0  0  0  0  0  0  0  0  0  0  0
    8.3213   13.0618   25.3515 H   0  0  0  0  0  0  0  0  0  0  0  0
    3.9135   12.6376   29.2590 H   0  0  0  0  0  0  0  0  0  0  0  0
    5.2023   13.8065   28.6210 H   0  0  0  0  0  0  0  0  0  0  0  0
    4.7243   10.9295   27.6780 H   0  0  0  0  0  0  0  0  0  0  0  0
   13.0115   13.7478   19.0545 H   0  0  0  0  0  0  0  0  0  0  0  0
   14.5340   14.3941   18.4018 H   0  0  0  0  0  0  0  0  0  0  0  0
   15.4901   16.5906   19.6810 H   0  0  0  0  0  0  0  0  0  0  0  0
   14.4968   17.1609   21.0399 H   0  0  0  0  0  0  0  0  0  0  0  0
   12.6882   15.1689   16.9998 H   0  0  0  0  0  0  0  0  0  0  0  0
   11.7962   15.7972   18.3893 H   0  0  0  0  0  0  0  0  0  0  0  0
   12.6354   17.7254   19.5115 H   0  0  0  0  0  0  0  0  0  0  0  0
   14.1253   18.4692   18.9208 H   0  0  0  0  0  0  0  0  0  0  0  0
   11.5033   15.6532   23.6729 H   0  0  0  0  0  0  0  0  0  0  0  0
   11.9192   16.5725   22.2147 H   0  0  0  0  0  0  0  0  0  0  0  0
   10.2844   15.9465   22.4201 H   0  0  0  0  0  0  0  0  0  0  0  0
   11.5757   14.5540   20.8193 H   0  0  0  0  0  0  0  0  0  0  0  0
    6.0660   10.2875   26.1147 H   0  0  0  0  0  0  0  0  0  0  0  0
   10.6999   12.6185   21.6015 H   0  0  0  0  0  0  0  0  0  0  0  0
    7.2857    8.0611   23.8968 H   0  0  0  0  0  0  0  0  0  0  0  0
  1  2  1  0  0  0  0
  1  4  2  0  0  0  0
  2  5  2  0  0  0  0
  3  6  2  0  0  0  0
  3  8  1  0  0  0  0
  4  9  1  0  0  0  0
  5 10  1  0  0  0  0
  6 12  1  0  0  0  0
  7  8  2  0  0  0  0
  7 11  1  0  0  0  0
  8 15  1  0  0  0  0
  9 10  2  0  0  0  0
  9 22  1  0  0  0  0
 10 23  1  0  0  0  0
 11 12  2  0  0  0  0
 11 24  1  0  0  0  0
 12 29  1  0  0  0  0
 13 14  2  0  0  0  0
 14 16  1  0  0  0  0
 15 25  1  0  0  0  0
 15 26  2  0  0  0  0
 16 24  1  0  0  0  0
 16 27  2  0  0  0  0
 17 19  1  0  0  0  0
 17 23  1  0  0  0  0
 18 20  1  0  0  0  0
 18 23  1  0  0  0  0
 19 28  1  0  0  0  0
 20 28  1  0  0  0  0
 21 22  1  0  0  0  0
 22 25  1  0  0  0  0
  1 30  1  0  0  0  0
  2 31  1  0  0  0  0
  3 32  1  0  0  0  0
  4 33  1  0  0  0  0
  5 34  1  0  0  0  0
  6 35  1  0  0  0  0
  7 36  1  0  0  0  0
 13 37  1  0  0  0  0
 13 38  1  0  0  0  0
 14 39  1  0  0  0  0
 17 40  1  0  0  0  0
 17 41  1  0  0  0  0
 18 42  1  0  0  0  0
 18 43  1  0  0  0  0
 19 44  1  0  0  0  0
 19 45  1  0  0  0  0
 20 46  1  0  0  0  0
 20 47  1  0  0  0  0
 21 48  1  0  0  0  0
 21 49  1  0  0  0  0
 21 50  1  0  0  0  0
 22 51  1  0  0  0  0
 24 52  1  0  0  0  0
 25 53  1  0  0  0  0
 29 54  1  0  0  0  0
M  END
> <Catalog ID>
Z3756868502

> <MW>
395.452

> <MW (desalted)>
395.452

> <ClogP>
1.859

> <logS>
-4.377

> <HBD>
3

> <HBA>
5

> <TPSA>
90.9

> <RotBonds>
6

> <ROCS_ShapeQuery>
A71EV2A-x0451_0A_A71EV2A-x0310_0A_A71EV2A-x0416_0A_peptide

> <ROCS_TanimotoCombo>
0.523 

> <ROCS_ShapeTanimoto>
0.357 

> <ROCS_ColorTanimoto>
0.166 

> <ROCS_RefTversky>
0.323 

> <ROCS_RefColorTversky>
0.198 

> <ROCS_RefTverskyCombo>
0.522 

> <ROCS_FitTversky>
1.408 

> <ROCS_FitColorTversky>
0.505 

> <ROCS_FitTverskyCombo>
1.914 

> <ROCS_ColorScore>
-6.081

> <ROCS_Overlap>
2251.264

> <ROCS_Rank>
345                 

$$$$
untitled-dbase-10514_6745
  -OEChem-11132309573D

 39 40  0     1  0  0  0  0  0999 V2000
    6.3710   12.5450   25.8183 C   0  0  0  0  0  0  0  0  0  0  0  0
    7.2009   12.8961   24.7448 C   0  0  0  0  0  0  0  0  0  0  0  0
    6.3524   11.2404   26.3182 C   0  0  0  0  0  0  0  0  0  0  0  0
    9.4255   10.5605   23.0680 C   0  0  0  0  0  0  0  0  0  0  0  0
    8.0206   11.9066   24.1743 C   0  0  0  0  0  0  0  0  0  0  0  0
    8.9660   11.8563   23.1162 C   0  0  0  0  0  0  0  0  0  0  0  0
    7.9732   10.6197   24.7005 C   0  0  0  0  0  0  0  0  0  0  0  0
    7.1592   10.2408   25.7664 C   0  0  0  0  0  0  0  0  0  0  0  0
   14.7062   11.8804   28.1506 C   0  0  0  0  0  0  0  0  0  0  0  0
   14.0014   11.6480   27.0392 C   0  0  0  0  0  0  0  0  0  0  0  0
   14.4092   12.2614   25.7471 C   0  0  0  0  0  0  0  0  0  0  0  0
   11.5047   13.5389   23.4100 C   0  0  0  0  0  0  0  0  0  0  0  0
    8.6706   14.3019   22.5410 C   0  0  0  0  0  0  0  0  0  0  0  0
   12.9951   13.6792   23.1575 C   0  0  0  0  0  0  0  0  0  0  0  0
   13.7465   12.3707   23.3608 C   0  0  0  0  0  0  0  0  0  0  0  0
    9.3910   12.9952   22.2146 C   0  0  1  0  0  0  0  0  0  0  0  0
   13.5585   11.9049   24.7131 N   0  0  0  0  0  0  0  0  0  0  0  0
   10.8215   13.1940   22.2531 N   0  0  0  0  0  0  0  0  0  0  0  0
   15.3906   12.9903   25.6430 O   0  0  0  0  0  0  0  0  0  0  0  0
   10.9903   13.7123   24.5115 O   0  0  0  0  0  0  0  0  0  0  0  0
    8.8295    9.8025   24.0251 O   0  0  0  0  0  0  0  0  0  0  0  0
    7.1436    8.9917   26.2433 F   0  0  0  0  0  0  0  0  0  0  0  0
    5.7320   13.3006   26.2684 H   0  0  0  0  0  0  0  0  0  0  0  0
    7.2033   13.9148   24.3683 H   0  0  0  0  0  0  0  0  0  0  0  0
    5.6985   10.9970   27.1521 H   0  0  0  0  0  0  0  0  0  0  0  0
   10.1399   10.0429   22.4441 H   0  0  0  0  0  0  0  0  0  0  0  0
   14.4018   11.4302   29.0897 H   0  0  0  0  0  0  0  0  0  0  0  0
   15.5887   12.5105   28.1619 H   0  0  0  0  0  0  0  0  0  0  0  0
   13.1244   11.0106   27.0711 H   0  0  0  0  0  0  0  0  0  0  0  0
    8.8658   14.6129   23.5731 H   0  0  0  0  0  0  0  0  0  0  0  0
    9.0092   15.1037   21.8752 H   0  0  0  0  0  0  0  0  0  0  0  0
    7.5857   14.2147   22.4138 H   0  0  0  0  0  0  0  0  0  0  0  0
   13.1390   14.0397   22.1313 H   0  0  0  0  0  0  0  0  0  0  0  0
   13.3893   14.4481   23.8337 H   0  0  0  0  0  0  0  0  0  0  0  0
   14.8165   12.5079   23.1708 H   0  0  0  0  0  0  0  0  0  0  0  0
   13.3869   11.6078   22.6619 H   0  0  0  0  0  0  0  0  0  0  0  0
    9.1591   12.7360   21.1743 H   0  0  0  0  0  0  0  0  0  0  0  0
   12.7856   11.2678   24.8895 H   0  0  0  0  0  0  0  0  0  0  0  0
   11.3509   13.0759   21.3942 H   0  0  0  0  0  0  0  0  0  0  0  0
  1  2  2  0  0  0  0
  1  3  1  0  0  0  0
  2  5  1  0  0  0  0
  3  8  2  0  0  0  0
  4  6  2  0  0  0  0
  4 21  1  0  0  0  0
  5  6  1  0  0  0  0
  5  7  2  0  0  0  0
  6 16  1  0  0  0  0
  7  8  1  0  0  0  0
  7 21  1  0  0  0  0
  8 22  1  0  0  0  0
  9 10  2  0  0  0  0
 10 11  1  0  0  0  0
 11 17  1  0  0  0  0
 11 19  2  0  0  0  0
 12 14  1  0  0  0  0
 12 18  1  0  0  0  0
 12 20  2  0  0  0  0
 13 16  1  1  0  0  0
 14 15  1  0  0  0  0
 15 17  1  0  0  0  0
 16 18  1  0  0  0  0
  1 23  1  0  0  0  0
  2 24  1  0  0  0  0
  3 25  1  0  0  0  0
  4 26  1  0  0  0  0
  9 27  1  0  0  0  0
  9 28  1  0  0  0  0
 10 29  1  0  0  0  0
 13 30  1  0  0  0  0
 13 31  1  0  0  0  0
 13 32  1  0  0  0  0
 14 33  1  0  0  0  0
 14 34  1  0  0  0  0
 15 35  1  0  0  0  0
 15 36  1  0  0  0  0
 16 37  1  0  0  0  0
 17 38  1  0  0  0  0
 18 39  1  0  0  0  0
M  END
> <Catalog ID>
Z3612549728

> <MW>
304.316

> <MW (desalted)>
304.316

> <ClogP>
1.858

> <logS>
-3.778

> <HBD>
2

> <HBA>
2

> <TPSA>
71.34

> <RotBonds>
6

> <ROCS_ShapeQuery>
A71EV2A-x0451_0A_A71EV2A-x0310_0A_A71EV2A-x0416_0A_peptide

> <ROCS_TanimotoCombo>
0.523 

> <ROCS_ShapeTanimoto>
0.321 

> <ROCS_ColorTanimoto>
0.202 

> <ROCS_RefTversky>
0.288 

> <ROCS_RefColorTversky>
0.218 

> <ROCS_RefTverskyCombo>
0.507 

> <ROCS_FitTversky>
1.553 

> <ROCS_FitColorTversky>
0.724 

> <ROCS_FitTverskyCombo>
2.277 

> <ROCS_ColorScore>
-6.663

> <ROCS_Overlap>
2002.764

> <ROCS_Rank>
346                 

$$$$
untitled-dbase-6080_5104
  -OEChem-11132309573D

 45 46  0     0  0  0  0  0  0999 V2000
    6.4013   14.2288   27.9509 C   0  0  0  0  0  0  0  0  0  0  0  0
   10.6177   10.8514   22.8923 C   0  0  0  0  0  0  0  0  0  0  0  0
    9.7851    9.8524   23.3966 C   0  0  0  0  0  0  0  0  0  0  0  0
    8.9660   12.5182   23.4674 C   0  0  0  0  0  0  0  0  0  0  0  0
    8.1334   11.5192   23.9717 C   0  0  0  0  0  0  0  0  0  0  0  0
   10.2081   12.1843   22.9277 C   0  0  0  0  0  0  0  0  0  0  0  0
    8.5430   10.1862   23.9363 C   0  0  0  0  0  0  0  0  0  0  0  0
   12.0249   15.3906   20.7169 C   0  0  0  0  0  0  0  0  0  0  0  0
   12.1510   15.2703   22.0422 C   0  0  0  0  0  0  0  0  0  0  0  0
    6.8146   11.8964   24.5423 C   0  0  0  0  0  0  0  0  0  0  0  0
   11.1355   14.5194   22.8361 C   0  0  0  0  0  0  0  0  0  0  0  0
    4.4810   11.3782   29.2924 C   0  0  0  0  0  0  0  0  0  0  0  0
    5.9236   11.2868   28.8081 C   0  0  0  0  0  0  0  0  0  0  0  0
    3.9423   12.8006   29.1890 C   0  0  0  0  0  0  0  0  0  0  0  0
    6.0792   11.8370   27.3886 C   0  0  0  0  0  0  0  0  0  0  0  0
    4.0880   13.3587   27.7715 C   0  0  0  0  0  0  0  0  0  0  0  0
    5.5308   13.2716   27.2284 C   0  0  0  0  0  0  0  0  0  0  0  0
    5.5376   13.6553   25.7387 C   0  0  0  0  0  0  0  0  0  0  0  0
    7.0829   14.9783   28.5166 N   0  0  0  0  0  0  0  0  0  0  0  0
   11.0413   13.1831   22.4233 N   0  0  0  0  0  0  0  0  0  0  0  0
    6.7230   13.1625   25.1308 N   0  0  0  0  0  0  0  0  0  0  0  0
    5.8875   11.0923   24.4932 O   0  0  0  0  0  0  0  0  0  0  0  0
   10.4953   15.0650   23.7271 O   0  0  0  0  0  0  0  0  0  0  0  0
    7.7437    9.1956   24.4234 O   0  0  0  0  0  0  0  0  0  0  0  0
   11.5836   10.5798   22.4743 H   0  0  0  0  0  0  0  0  0  0  0  0
   10.1103    8.8159   23.3661 H   0  0  0  0  0  0  0  0  0  0  0  0
    8.6460   13.5579   23.4943 H   0  0  0  0  0  0  0  0  0  0  0  0
   12.7425   15.9285   20.1075 H   0  0  0  0  0  0  0  0  0  0  0  0
   11.1780   14.9403   20.2096 H   0  0  0  0  0  0  0  0  0  0  0  0
   12.9975   15.7198   22.5500 H   0  0  0  0  0  0  0  0  0  0  0  0
    3.8523   10.7056   28.6957 H   0  0  0  0  0  0  0  0  0  0  0  0
    4.4182   11.0347   30.3310 H   0  0  0  0  0  0  0  0  0  0  0  0
    6.5780   11.8364   29.4955 H   0  0  0  0  0  0  0  0  0  0  0  0
    6.2511   10.2410   28.8319 H   0  0  0  0  0  0  0  0  0  0  0  0
    2.8852   12.8125   29.4789 H   0  0  0  0  0  0  0  0  0  0  0  0
    4.4703   13.4466   29.9009 H   0  0  0  0  0  0  0  0  0  0  0  0
    7.1393   11.7952   27.1055 H   0  0  0  0  0  0  0  0  0  0  0  0
    5.5475   11.1650   26.7014 H   0  0  0  0  0  0  0  0  0  0  0  0
    3.4156   12.7942   27.1113 H   0  0  0  0  0  0  0  0  0  0  0  0
    3.7336   14.3979   27.7606 H   0  0  0  0  0  0  0  0  0  0  0  0
    4.6549   13.2039   25.2967 H   0  0  0  0  0  0  0  0  0  0  0  0
    5.4978   14.7391   25.6960 H   0  0  0  0  0  0  0  0  0  0  0  0
   11.6628   12.9048   21.6541 H   0  0  0  0  0  0  0  0  0  0  0  0
    7.5704   13.7395   25.1792 H   0  0  0  0  0  0  0  0  0  0  0  0
    6.9169    9.5704   24.7650 H   0  0  0  0  0  0  0  0  0  0  0  0
  1 17  1  0  0  0  0
  1 19  3  0  0  0  0
  2  3  2  0  0  0  0
  2  6  1  0  0  0  0
  3  7  1  0  0  0  0
  4  5  1  0  0  0  0
  4  6  2  0  0  0  0
  5  7  2  0  0  0  0
  5 10  1  0  0  0  0
  6 20  1  0  0  0  0
  7 24  1  0  0  0  0
  8  9  2  0  0  0  0
  9 11  1  0  0  0  0
 10 21  1  0  0  0  0
 10 22  2  0  0  0  0
 11 20  1  0  0  0  0
 11 23  2  0  0  0  0
 12 13  1  0  0  0  0
 12 14  1  0  0  0  0
 13 15  1  0  0  0  0
 14 16  1  0  0  0  0
 15 17  1  0  0  0  0
 16 17  1  0  0  0  0
 17 18  1  0  0  0  0
 18 21  1  0  0  0  0
  2 25  1  0  0  0  0
  3 26  1  0  0  0  0
  4 27  1  0  0  0  0
  8 28  1  0  0  0  0
  8 29  1  0  0  0  0
  9 30  1  0  0  0  0
 12 31  1  0  0  0  0
 12 32  1  0  0  0  0
 13 33  1  0  0  0  0
 13 34  1  0  0  0  0
 14 35  1  0  0  0  0
 14 36  1  0  0  0  0
 15 37  1  0  0  0  0
 15 38  1  0  0  0  0
 16 39  1  0  0  0  0
 16 40  1  0  0  0  0
 18 41  1  0  0  0  0
 18 42  1  0  0  0  0
 20 43  1  0  0  0  0
 21 44  1  0  0  0  0
 24 45  1  0  0  0  0
M  END
> <Catalog ID>
Z3756051395

> <MW>
327.378

> <MW (desalted)>
327.378

> <ClogP>
2.579

> <logS>
-4.256

> <HBD>
3

> <HBA>
4

> <TPSA>
102.22

> <RotBonds>
5

> <ROCS_ShapeQuery>
A71EV2A-x0451_0A_A71EV2A-x0310_0A_A71EV2A-x0416_0A_peptide

> <ROCS_TanimotoCombo>
0.523 

> <ROCS_ShapeTanimoto>
0.333 

> <ROCS_ColorTanimoto>
0.190 

> <ROCS_RefTversky>
0.299 

> <ROCS_RefColorTversky>
0.217 

> <ROCS_RefTverskyCombo>
0.516 

> <ROCS_FitTversky>
1.524 

> <ROCS_FitColorTversky>
0.600 

> <ROCS_FitTverskyCombo>
2.124 

> <ROCS_ColorScore>
-6.650

> <ROCS_Overlap>
2077.326

> <ROCS_Rank>
347                 

$$$$
untitled-dbase-6462_1793
  -OEChem-11132309573D

 48 49  0     0  0  0  0  0  0999 V2000
    7.3440    9.7566   24.7359 C   0  0  0  0  0  0  0  0  0  0  0  0
    6.5278   10.5769   25.5136 C   0  0  0  0  0  0  0  0  0  0  0  0
    7.9278   12.5045   25.0107 C   0  0  0  0  0  0  0  0  0  0  0  0
    8.4417   10.3233   24.1055 C   0  0  0  0  0  0  0  0  0  0  0  0
    8.7352   11.6822   24.2381 C   0  0  0  0  0  0  0  0  0  0  0  0
    6.8183   11.9411   25.6496 C   0  0  0  0  0  0  0  0  0  0  0  0
    4.8233   15.0138   23.7831 C   0  0  0  0  0  0  0  0  0  0  0  0
    4.9151   13.8702   24.4691 C   0  0  0  0  0  0  0  0  0  0  0  0
    5.2793   13.8874   25.9163 C   0  0  0  0  0  0  0  0  0  0  0  0
   10.4842   13.2667   23.4065 C   0  0  0  0  0  0  0  0  0  0  0  0
    9.4356    9.6247   23.2375 C   0  0  0  0  0  0  0  0  0  0  0  0
   10.3790   10.7653   22.8434 C   0  0  0  0  0  0  0  0  0  0  0  0
   10.8411   15.7902   21.4876 C   0  0  0  0  0  0  0  0  0  0  0  0
    3.7882   10.8627   27.2736 C   0  0  0  0  0  0  0  0  0  0  0  0
    4.0047   11.7724   29.6082 C   0  0  0  0  0  0  0  0  0  0  0  0
   11.8135   14.7439   21.9145 C   0  0  0  0  0  0  0  0  0  0  0  0
    5.7515   12.3691   27.8635 C   0  0  0  0  0  0  0  0  0  0  0  0
    4.2784   12.0337   28.1264 C   0  0  0  0  0  0  0  0  0  0  0  0
    9.8965   12.0007   23.5003 N   0  0  0  0  0  0  0  0  0  0  0  0
   11.1445   13.4954   22.1985 N   0  0  0  0  0  0  0  0  0  0  0  0
    5.9894   12.7468   26.4327 N   0  0  0  0  0  0  0  0  0  0  0  0
    4.9383   14.8507   26.6033 O   0  0  0  0  0  0  0  0  0  0  0  0
   10.4426   14.1258   24.2900 O   0  0  0  0  0  0  0  0  0  0  0  0
    7.1216    8.7000   24.6299 H   0  0  0  0  0  0  0  0  0  0  0  0
    5.6635   10.1458   26.0133 H   0  0  0  0  0  0  0  0  0  0  0  0
    8.1295   13.5623   25.1321 H   0  0  0  0  0  0  0  0  0  0  0  0
    4.5355   14.9976   22.7372 H   0  0  0  0  0  0  0  0  0  0  0  0
    5.0332   15.9798   24.2291 H   0  0  0  0  0  0  0  0  0  0  0  0
    4.6807   12.9269   23.9895 H   0  0  0  0  0  0  0  0  0  0  0  0
    9.9657    8.8488   23.7984 H   0  0  0  0  0  0  0  0  0  0  0  0
    8.9510    9.1902   22.3579 H   0  0  0  0  0  0  0  0  0  0  0  0
   11.4062   10.5650   23.1690 H   0  0  0  0  0  0  0  0  0  0  0  0
   10.3868   10.9204   21.7584 H   0  0  0  0  0  0  0  0  0  0  0  0
   10.1052   15.9562   22.2881 H   0  0  0  0  0  0  0  0  0  0  0  0
   11.3782   16.7282   21.2832 H   0  0  0  0  0  0  0  0  0  0  0  0
   10.3225   15.4585   20.5760 H   0  0  0  0  0  0  0  0  0  0  0  0
    4.3259    9.9372   27.5039 H   0  0  0  0  0  0  0  0  0  0  0  0
    2.7227   10.6793   27.4501 H   0  0  0  0  0  0  0  0  0  0  0  0
    3.9170   11.0769   26.2075 H   0  0  0  0  0  0  0  0  0  0  0  0
    4.5574   10.9015   29.9756 H   0  0  0  0  0  0  0  0  0  0  0  0
    2.9385   11.5852   29.7754 H   0  0  0  0  0  0  0  0  0  0  0  0
    4.2900   12.6383   30.2148 H   0  0  0  0  0  0  0  0  0  0  0  0
   12.5455   14.5839   21.1092 H   0  0  0  0  0  0  0  0  0  0  0  0
   12.3345   15.0863   22.8208 H   0  0  0  0  0  0  0  0  0  0  0  0
    6.0780   13.1988   28.4999 H   0  0  0  0  0  0  0  0  0  0  0  0
    6.3819   11.5040   28.0972 H   0  0  0  0  0  0  0  0  0  0  0  0
    3.6927   12.9157   27.8353 H   0  0  0  0  0  0  0  0  0  0  0  0
   11.1550   12.7627   21.4987 H   0  0  0  0  0  0  0  0  0  0  0  0
  1  2  2  0  0  0  0
  1  4  1  0  0  0  0
  2  6  1  0  0  0  0
  3  5  1  0  0  0  0
  3  6  2  0  0  0  0
  4  5  2  0  0  0  0
  4 11  1  0  0  0  0
  5 19  1  0  0  0  0
  6 21  1  0  0  0  0
  7  8  2  0  0  0  0
  8  9  1  0  0  0  0
  9 21  1  0  0  0  0
  9 22  2  0  0  0  0
 10 19  1  0  0  0  0
 10 20  1  0  0  0  0
 10 23  2  0  0  0  0
 11 12  1  0  0  0  0
 12 19  1  0  0  0  0
 13 16  1  0  0  0  0
 14 18  1  0  0  0  0
 15 18  1  0  0  0  0
 16 20  1  0  0  0  0
 17 18  1  0  0  0  0
 17 21  1  0  0  0  0
  1 24  1  0  0  0  0
  2 25  1  0  0  0  0
  3 26  1  0  0  0  0
  7 27  1  0  0  0  0
  7 28  1  0  0  0  0
  8 29  1  0  0  0  0
 11 30  1  0  0  0  0
 11 31  1  0  0  0  0
 12 32  1  0  0  0  0
 12 33  1  0  0  0  0
 13 34  1  0  0  0  0
 13 35  1  0  0  0  0
 13 36  1  0  0  0  0
 14 37  1  0  0  0  0
 14 38  1  0  0  0  0
 14 39  1  0  0  0  0
 15 40  1  0  0  0  0
 15 41  1  0  0  0  0
 15 42  1  0  0  0  0
 16 43  1  0  0  0  0
 16 44  1  0  0  0  0
 17 45  1  0  0  0  0
 17 46  1  0  0  0  0
 18 47  1  0  0  0  0
 20 48  1  0  0  0  0
M  END
> <Catalog ID>
Z3837548201

> <MW>
315.41

> <MW (desalted)>
315.41

> <ClogP>
3.458

> <logS>
-4.376

> <HBD>
1

> <HBA>
2

> <TPSA>
52.65

> <RotBonds>
5

> <ROCS_ShapeQuery>
A71EV2A-x0451_0A_A71EV2A-x0310_0A_A71EV2A-x0416_0A_peptide

> <ROCS_TanimotoCombo>
0.523 

> <ROCS_ShapeTanimoto>
0.348 

> <ROCS_ColorTanimoto>
0.175 

> <ROCS_RefTversky>
0.307 

> <ROCS_RefColorTversky>
0.189 

> <ROCS_RefTverskyCombo>
0.496 

> <ROCS_FitTversky>
1.615 

> <ROCS_FitColorTversky>
0.699 

> <ROCS_FitTverskyCombo>
2.314 

> <ROCS_ColorScore>
-5.769

> <ROCS_Overlap>
2133.348

> <ROCS_Rank>
348                 

$$$$
untitled-dbase-9114_98
  -OEChem-11132309573D

 42 44  0     0  0  0  0  0  0999 V2000
   11.7251   14.5615   21.1929 C   0  0  0  0  0  0  0  0  0  0  0  0
    4.9725   12.1680   28.3857 C   0  0  0  0  0  0  0  0  0  0  0  0
    5.2746   13.2096   27.5086 C   0  0  0  0  0  0  0  0  0  0  0  0
    5.4782   10.8894   28.1507 C   0  0  0  0  0  0  0  0  0  0  0  0
    6.0823   12.9727   26.3963 C   0  0  0  0  0  0  0  0  0  0  0  0
    6.2858   10.6525   27.0384 C   0  0  0  0  0  0  0  0  0  0  0  0
   13.0480   11.0818   23.9505 C   0  0  0  0  0  0  0  0  0  0  0  0
   13.5682   10.5086   25.0899 C   0  0  0  0  0  0  0  0  0  0  0  0
   14.4806   12.7571   24.6877 C   0  0  0  0  0  0  0  0  0  0  0  0
   13.5766   12.3843   23.7173 C   0  0  0  0  0  0  0  0  0  0  0  0
    6.5879   11.6941   26.1612 C   0  0  0  0  0  0  0  0  0  0  0  0
    9.2295   11.5655   23.6177 C   0  0  0  0  0  0  0  0  0  0  0  0
    8.8741   10.2839   23.7711 C   0  0  0  0  0  0  0  0  0  0  0  0
    8.2658   12.3716   24.4114 C   0  0  0  0  0  0  0  0  0  0  0  0
   13.2174   13.2514   22.5844 C   0  0  0  0  0  0  0  0  0  0  0  0
   11.9834   13.7227   22.3189 C   0  0  0  0  0  0  0  0  0  0  0  0
   10.8820   13.3006   23.2586 C   0  0  0  0  0  0  0  0  0  0  0  0
    9.5162    9.0868   23.1551 C   0  0  0  0  0  0  0  0  0  0  0  0
    6.6565    9.2562   24.2098 C   0  0  0  0  0  0  0  0  0  0  0  0
   11.5109   15.2428   20.2782 N   0  0  0  0  0  0  0  0  0  0  0  0
    7.4086   11.4536   25.0311 N   0  0  0  0  0  0  0  0  0  0  0  0
    7.7404   10.1628   24.5759 N   0  0  0  0  0  0  0  0  0  0  0  0
   10.2405   12.1115   22.9063 N   0  0  0  0  0  0  0  0  0  0  0  0
    8.3348   13.5855   24.5137 O   0  0  0  0  0  0  0  0  0  0  0  0
   10.5878   13.9670   24.2500 O   0  0  0  0  0  0  0  0  0  0  0  0
   14.6891   11.5393   25.8734 S   0  0  0  0  0  0  0  0  0  0  0  0
    4.3443   12.3523   29.2524 H   0  0  0  0  0  0  0  0  0  0  0  0
    4.8818   14.2054   27.6918 H   0  0  0  0  0  0  0  0  0  0  0  0
    5.2436   10.0788   28.8345 H   0  0  0  0  0  0  0  0  0  0  0  0
    6.3111   13.7922   25.7196 H   0  0  0  0  0  0  0  0  0  0  0  0
    6.6743    9.6519   26.8653 H   0  0  0  0  0  0  0  0  0  0  0  0
   12.3223   10.5825   23.3204 H   0  0  0  0  0  0  0  0  0  0  0  0
   13.3432    9.5343   25.5003 H   0  0  0  0  0  0  0  0  0  0  0  0
   15.0327   13.6839   24.7669 H   0  0  0  0  0  0  0  0  0  0  0  0
   14.0668   13.5118   21.9565 H   0  0  0  0  0  0  0  0  0  0  0  0
   10.3048    8.7107   23.8079 H   0  0  0  0  0  0  0  0  0  0  0  0
    9.9478    9.3518   22.1888 H   0  0  0  0  0  0  0  0  0  0  0  0
    8.7730    8.3029   23.0033 H   0  0  0  0  0  0  0  0  0  0  0  0
    5.8624    9.3077   24.9692 H   0  0  0  0  0  0  0  0  0  0  0  0
    6.2478    9.5497   23.2316 H   0  0  0  0  0  0  0  0  0  0  0  0
    7.0425    8.2278   24.1522 H   0  0  0  0  0  0  0  0  0  0  0  0
   10.5369   11.6119   22.0693 H   0  0  0  0  0  0  0  0  0  0  0  0
  1 16  1  0  0  0  0
  1 20  3  0  0  0  0
  2  3  1  0  0  0  0
  2  4  2  0  0  0  0
  3  5  2  0  0  0  0
  4  6  1  0  0  0  0
  5 11  1  0  0  0  0
  6 11  2  0  0  0  0
  7  8  2  0  0  0  0
  7 10  1  0  0  0  0
  8 26  1  0  0  0  0
  9 10  2  0  0  0  0
  9 26  1  0  0  0  0
 10 15  1  4  0  0  0
 11 21  1  0  0  0  0
 12 13  2  0  0  0  0
 12 14  1  0  0  0  0
 12 23  1  0  0  0  0
 13 18  1  0  0  0  0
 13 22  1  0  0  0  0
 14 21  1  0  0  0  0
 14 24  2  0  0  0  0
 15 16  2  0  0  0  0
 16 17  1  0  0  0  0
 17 23  1  0  0  0  0
 17 25  2  0  0  0  0
 19 22  1  0  0  0  0
 21 22  1  0  0  0  0
  2 27  1  0  0  0  0
  3 28  1  0  0  0  0
  4 29  1  0  0  0  0
  5 30  1  0  0  0  0
  6 31  1  0  0  0  0
  7 32  1  0  0  0  0
  8 33  1  0  0  0  0
  9 34  1  0  0  0  0
 15 35  1  0  0  0  0
 18 36  1  0  0  0  0
 18 37  1  0  0  0  0
 18 38  1  0  0  0  0
 19 39  1  0  0  0  0
 19 40  1  0  0  0  0
 19 41  1  0  0  0  0
 23 42  1  0  0  0  0
M  END
> <Catalog ID>
Z44385659

> <MW>
364.421

> <MW (desalted)>
364.421

> <ClogP>
1.662

> <logS>
-3.831

> <HBD>
1

> <HBA>
4

> <TPSA>
76.44

> <RotBonds>
4

> <ROCS_ShapeQuery>
A71EV2A-x0451_0A_A71EV2A-x0310_0A_A71EV2A-x0416_0A_peptide

> <ROCS_TanimotoCombo>
0.523 

> <ROCS_ShapeTanimoto>
0.390 

> <ROCS_ColorTanimoto>
0.133 

> <ROCS_RefTversky>
0.340 

> <ROCS_RefColorTversky>
0.149 

> <ROCS_RefTverskyCombo>
0.490 

> <ROCS_FitTversky>
1.594 

> <ROCS_FitColorTversky>
0.552 

> <ROCS_FitTverskyCombo>
2.146 

> <ROCS_ColorScore>
-4.549

> <ROCS_Overlap>
2366.438

> <ROCS_Rank>
349                 

$$$$
untitled-dbase-1341_1013
  -OEChem-11132309573D

 49 51  0     1  0  0  0  0  0999 V2000
    6.3716   11.1700   26.1177 C   0  0  0  0  0  0  0  0  0  0  0  0
   10.0928   13.6492   20.9759 C   0  0  0  0  0  0  0  0  0  0  0  0
   11.8264   14.8037   22.2001 C   0  0  0  0  0  0  0  0  0  0  0  0
    7.0126   10.1820   25.3713 C   0  0  0  0  0  0  0  0  0  0  0  0
   10.6075   14.1459   19.7784 C   0  0  0  0  0  0  0  0  0  0  0  0
   12.3412   15.3004   21.0026 C   0  0  0  0  0  0  0  0  0  0  0  0
    7.7940   12.8263   25.1112 C   0  0  0  0  0  0  0  0  0  0  0  0
   10.7022   13.9781   22.1867 C   0  0  0  0  0  0  0  0  0  0  0  0
    6.7617   12.4916   25.9860 C   0  0  0  0  0  0  0  0  0  0  0  0
    8.0697   10.4810   24.4838 C   0  0  0  0  0  0  0  0  0  0  0  0
    8.4661   11.8429   24.3590 C   0  0  0  0  0  0  0  0  0  0  0  0
   11.7318   14.9715   19.7918 C   0  0  0  0  0  0  0  0  0  0  0  0
   13.8173   15.6286   16.0922 C   0  0  0  0  0  0  0  0  0  0  0  0
   13.5821   16.6104   16.9683 C   0  0  0  0  0  0  0  0  0  0  0  0
   10.1573   13.4526   23.4540 C   0  0  0  0  0  0  0  0  0  0  0  0
    6.0809   13.5293   26.7448 C   0  0  0  0  0  0  0  0  0  0  0  0
   13.3568   16.3027   18.4105 C   0  0  0  0  0  0  0  0  0  0  0  0
    9.8682   11.1607   22.4523 C   0  0  0  0  0  0  0  0  0  0  0  0
    9.9708    9.8048   23.1219 C   0  0  0  0  0  0  0  0  0  0  0  0
    8.3557    8.0706   23.9038 C   0  0  0  0  0  0  0  0  0  0  0  0
    5.5527   14.2745   28.9486 C   0  0  0  0  0  0  0  0  0  0  0  0
    9.5084   12.2038   23.4247 N   0  0  0  0  0  0  0  0  0  0  0  0
    8.7029    9.4750   23.7503 N   0  0  1  0  0  0  0  0  0  0  0  0
   12.2459   15.4676   18.5935 N   0  0  0  0  0  0  0  0  0  0  0  0
   10.3368   14.1661   24.4397 O   0  0  0  0  0  0  0  0  0  0  0  0
    5.4796   14.4858   26.2390 O   0  0  0  0  0  0  0  0  0  0  0  0
   14.0911   16.7579   19.2795 O   0  0  0  0  0  0  0  0  0  0  0  0
    6.1857   13.3175   28.0924 O   0  0  0  0  0  0  0  0  0  0  0  0
    5.5653   10.8913   26.7911 H   0  0  0  0  0  0  0  0  0  0  0  0
    9.2161   13.0072   20.9541 H   0  0  0  0  0  0  0  0  0  0  0  0
   12.3091   15.0664   23.1380 H   0  0  0  0  0  0  0  0  0  0  0  0
    6.6671    9.1601   25.5089 H   0  0  0  0  0  0  0  0  0  0  0  0
   10.1253   13.8832   18.8401 H   0  0  0  0  0  0  0  0  0  0  0  0
   13.2179   15.9430   21.0251 H   0  0  0  0  0  0  0  0  0  0  0  0
    8.0210   13.8815   25.0067 H   0  0  0  0  0  0  0  0  0  0  0  0
   13.9855   15.8138   15.0372 H   0  0  0  0  0  0  0  0  0  0  0  0
   13.8453   14.5972   16.4281 H   0  0  0  0  0  0  0  0  0  0  0  0
   13.5543   17.6416   16.6334 H   0  0  0  0  0  0  0  0  0  0  0  0
   10.8280   11.3789   21.9751 H   0  0  0  0  0  0  0  0  0  0  0  0
    9.1054   11.1618   21.6633 H   0  0  0  0  0  0  0  0  0  0  0  0
   10.2306    9.0576   22.3627 H   0  0  0  0  0  0  0  0  0  0  0  0
   10.7746    9.7984   23.8690 H   0  0  0  0  0  0  0  0  0  0  0  0
    8.9784    7.4627   23.2310 H   0  0  0  0  0  0  0  0  0  0  0  0
    8.5310    7.7613   24.9448 H   0  0  0  0  0  0  0  0  0  0  0  0
    7.2947    7.9257   23.6520 H   0  0  0  0  0  0  0  0  0  0  0  0
    5.7103   13.9912   29.9922 H   0  0  0  0  0  0  0  0  0  0  0  0
    4.4831   14.3113   28.7274 H   0  0  0  0  0  0  0  0  0  0  0  0
    5.9939   15.2579   28.7698 H   0  0  0  0  0  0  0  0  0  0  0  0
   11.7489   15.1861   17.7397 H   0  0  0  0  0  0  0  0  0  0  0  0
  1  4  2  0  0  0  0
  1  9  1  0  0  0  0
  2  5  2  0  0  0  0
  2  8  1  0  0  0  0
  3  6  1  0  0  0  0
  3  8  2  0  0  0  0
  4 10  1  0  0  0  0
  5 12  1  0  0  0  0
  6 12  2  0  0  0  0
  7  9  2  0  0  0  0
  7 11  1  0  0  0  0
  8 15  1  0  0  0  0
  9 16  1  0  0  0  0
 10 11  2  0  0  0  0
 10 23  1  0  0  0  0
 11 22  1  0  0  0  0
 12 24  1  0  0  0  0
 13 14  2  0  0  0  0
 14 17  1  0  0  0  0
 15 22  1  0  0  0  0
 15 25  2  0  0  0  0
 16 26  2  0  0  0  0
 16 28  1  0  0  0  0
 17 24  1  0  0  0  0
 17 27  2  0  0  0  0
 18 19  1  0  0  0  0
 18 22  1  0  0  0  0
 19 23  1  0  0  0  0
 20 23  1  0  0  0  0
 21 28  1  0  0  0  0
  1 29  1  0  0  0  0
  2 30  1  0  0  0  0
  3 31  1  0  0  0  0
  4 32  1  0  0  0  0
  5 33  1  0  0  0  0
  6 34  1  0  0  0  0
  7 35  1  0  0  0  0
 13 36  1  0  0  0  0
 13 37  1  0  0  0  0
 14 38  1  0  0  0  0
 18 39  1  0  0  0  0
 18 40  1  0  0  0  0
 19 41  1  0  0  0  0
 19 42  1  0  0  0  0
 20 43  1  0  0  0  0
 20 44  1  0  0  0  0
 20 45  1  0  0  0  0
 21 46  1  0  0  0  0
 21 47  1  0  0  0  0
 21 48  1  0  0  0  0
 24 49  1  0  0  0  0
M  END
> <Catalog ID>
Z3755151122

> <MW>
379.409

> <MW (desalted)>
379.409

> <ClogP>
2.802

> <logS>
-4.945

> <HBD>
1

> <HBA>
4

> <TPSA>
78.95

> <RotBonds>
5

> <ROCS_ShapeQuery>
A71EV2A-x0451_0A_A71EV2A-x0310_0A_A71EV2A-x0416_0A_peptide

> <ROCS_TanimotoCombo>
0.523 

> <ROCS_ShapeTanimoto>
0.387 

> <ROCS_ColorTanimoto>
0.135 

> <ROCS_RefTversky>
0.342 

> <ROCS_RefColorTversky>
0.155 

> <ROCS_RefTverskyCombo>
0.497 

> <ROCS_FitTversky>
1.516 

> <ROCS_FitColorTversky>
0.515 

> <ROCS_FitTverskyCombo>
2.031 

> <ROCS_ColorScore>
-4.733

> <ROCS_Overlap>
2382.557

> <ROCS_Rank>
350                 

$$$$
untitled-dbase-3947_9769
  -OEChem-11132309573D

 56 59  0     0  0  0  0  0  0999 V2000
   13.1407   11.8174   24.0881 C   0  0  0  0  0  0  0  0  0  0  0  0
    9.3080    6.9468   21.7442 C   0  0  0  0  0  0  0  0  0  0  0  0
    9.1682    6.8126   23.1255 C   0  0  0  0  0  0  0  0  0  0  0  0
    9.1683    8.1998   21.1475 C   0  0  0  0  0  0  0  0  0  0  0  0
    8.8885    7.9314   23.9102 C   0  0  0  0  0  0  0  0  0  0  0  0
    8.8887    9.3187   21.9321 C   0  0  0  0  0  0  0  0  0  0  0  0
    8.7488    9.1845   23.3135 C   0  0  0  0  0  0  0  0  0  0  0  0
    8.4604   10.3375   24.1216 C   0  0  0  0  0  0  0  0  0  0  0  0
    9.4358   11.1358   24.6815 C   0  0  0  0  0  0  0  0  0  0  0  0
    7.1607   11.7836   25.1363 C   0  0  0  0  0  0  0  0  0  0  0  0
   10.9032   11.0487   24.6208 C   0  0  0  0  0  0  0  0  0  0  0  0
   11.7230   11.9856   24.1056 C   0  0  0  0  0  0  0  0  0  0  0  0
   11.0704   13.2344   23.5690 C   0  0  0  0  0  0  0  0  0  0  0  0
   12.7581   15.3208   19.4097 C   0  0  0  0  0  0  0  0  0  0  0  0
   13.0244   15.6585   20.8743 C   0  0  0  0  0  0  0  0  0  0  0  0
   11.8329   14.1158   19.2620 C   0  0  0  0  0  0  0  0  0  0  0  0
   11.7223   15.8436   21.6548 C   0  0  0  0  0  0  0  0  0  0  0  0
   10.5335   14.3048   20.0461 C   0  0  0  0  0  0  0  0  0  0  0  0
    4.6661   11.9611   25.2642 C   0  0  0  0  0  0  0  0  0  0  0  0
    6.0651   13.3132   26.7566 C   0  0  0  0  0  0  0  0  0  0  0  0
    4.0835   11.2674   26.4909 C   0  0  0  0  0  0  0  0  0  0  0  0
    5.4246   12.5812   27.9368 C   0  0  0  0  0  0  0  0  0  0  0  0
   10.7735   14.6448   21.5231 C   0  0  0  0  0  0  0  0  0  0  0  0
   14.2935   11.6845   24.0724 N   0  0  0  0  0  0  0  0  0  0  0  0
    7.1553   10.7071   24.3817 N   0  0  0  0  0  0  0  0  0  0  0  0
    6.0160   12.4271   25.5890 N   0  0  0  0  0  0  0  0  0  0  0  0
   11.3224   13.4841   22.2278 N   0  0  0  0  0  0  0  0  0  0  0  0
   10.3721   13.9553   24.2802 O   0  0  0  0  0  0  0  0  0  0  0  0
    4.0948   12.1625   27.6096 O   0  0  0  0  0  0  0  0  0  0  0  0
    8.7004   12.4050   25.5701 S   0  0  0  0  0  0  0  0  0  0  0  0
    9.5268    6.0759   21.1332 H   0  0  0  0  0  0  0  0  0  0  0  0
    9.2782    5.8373   23.5905 H   0  0  0  0  0  0  0  0  0  0  0  0
    9.2785    8.3042   20.0722 H   0  0  0  0  0  0  0  0  0  0  0  0
    8.7824    7.8105   24.9858 H   0  0  0  0  0  0  0  0  0  0  0  0
    8.7827   10.2886   21.4517 H   0  0  0  0  0  0  0  0  0  0  0  0
   11.2956   10.1183   25.0257 H   0  0  0  0  0  0  0  0  0  0  0  0
   12.3158   16.1889   18.9059 H   0  0  0  0  0  0  0  0  0  0  0  0
   13.7109   15.1122   18.9052 H   0  0  0  0  0  0  0  0  0  0  0  0
   13.6186   14.8616   21.3342 H   0  0  0  0  0  0  0  0  0  0  0  0
   13.6188   16.5780   20.9350 H   0  0  0  0  0  0  0  0  0  0  0  0
   11.5990   13.9626   18.2017 H   0  0  0  0  0  0  0  0  0  0  0  0
   12.3451   13.2127   19.6112 H   0  0  0  0  0  0  0  0  0  0  0  0
   11.9640   16.0141   22.7182 H   0  0  0  0  0  0  0  0  0  0  0  0
   11.2209   16.7600   21.3015 H   0  0  0  0  0  0  0  0  0  0  0  0
    9.9404   15.1026   19.5685 H   0  0  0  0  0  0  0  0  0  0  0  0
    9.9313   13.3830   19.9677 H   0  0  0  0  0  0  0  0  0  0  0  0
    4.6793   11.2642   24.4227 H   0  0  0  0  0  0  0  0  0  0  0  0
    4.0481   12.8229   24.9968 H   0  0  0  0  0  0  0  0  0  0  0  0
    5.5001   14.2201   26.5362 H   0  0  0  0  0  0  0  0  0  0  0  0
    7.0905   13.5840   27.0071 H   0  0  0  0  0  0  0  0  0  0  0  0
    3.0447   10.9888   26.3017 H   0  0  0  0  0  0  0  0  0  0  0  0
    4.6349   10.3565   26.7406 H   0  0  0  0  0  0  0  0  0  0  0  0
    6.0214   11.7139   28.2429 H   0  0  0  0  0  0  0  0  0  0  0  0
    5.3572   13.2555   28.7958 H   0  0  0  0  0  0  0  0  0  0  0  0
    9.8266   14.8708   22.0066 H   0  0  0  0  0  0  0  0  0  0  0  0
   11.9113   12.8358   21.7138 H   0  0  0  0  0  0  0  0  0  0  0  0
  1 12  1  0  0  0  0
  1 24  3  0  0  0  0
  2  3  1  0  0  0  0
  2  4  2  0  0  0  0
  3  5  2  0  0  0  0
  4  6  1  0  0  0  0
  5  7  1  0  0  0  0
  6  7  2  0  0  0  0
  7  8  1  0  0  0  0
  8  9  2  0  0  0  0
  8 25  1  0  0  0  0
  9 11  1  4  0  0  0
  9 30  1  0  0  0  0
 10 25  2  0  0  0  0
 10 26  1  0  0  0  0
 10 30  1  0  0  0  0
 11 12  2  0  0  0  0
 12 13  1  0  0  0  0
 13 27  1  0  0  0  0
 13 28  2  0  0  0  0
 14 15  1  0  0  0  0
 14 16  1  0  0  0  0
 15 17  1  0  0  0  0
 16 18  1  0  0  0  0
 17 23  1  0  0  0  0
 18 23  1  0  0  0  0
 19 21  1  0  0  0  0
 19 26  1  0  0  0  0
 20 22  1  0  0  0  0
 20 26  1  0  0  0  0
 21 29  1  0  0  0  0
 22 29  1  0  0  0  0
 23 27  1  0  0  0  0
  2 31  1  0  0  0  0
  3 32  1  0  0  0  0
  4 33  1  0  0  0  0
  5 34  1  0  0  0  0
  6 35  1  0  0  0  0
 11 36  1  0  0  0  0
 14 37  1  0  0  0  0
 14 38  1  0  0  0  0
 15 39  1  0  0  0  0
 15 40  1  0  0  0  0
 16 41  1  0  0  0  0
 16 42  1  0  0  0  0
 17 43  1  0  0  0  0
 17 44  1  0  0  0  0
 18 45  1  0  0  0  0
 18 46  1  0  0  0  0
 19 47  1  0  0  0  0
 19 48  1  0  0  0  0
 20 49  1  0  0  0  0
 20 50  1  0  0  0  0
 21 51  1  0  0  0  0
 21 52  1  0  0  0  0
 22 53  1  0  0  0  0
 22 54  1  0  0  0  0
 23 55  1  0  0  0  0
 27 56  1  0  0  0  0
M  END
> <Catalog ID>
Z44319268

> <MW>
422.543

> <MW (desalted)>
422.543

> <ClogP>
3.746

> <logS>
-6.52

> <HBD>
1

> <HBA>
5

> <TPSA>
78.25

> <RotBonds>
5

> <ROCS_ShapeQuery>
A71EV2A-x0451_0A_A71EV2A-x0310_0A_A71EV2A-x0416_0A_peptide

> <ROCS_TanimotoCombo>
0.523 

> <ROCS_ShapeTanimoto>
0.362 

> <ROCS_ColorTanimoto>
0.161 

> <ROCS_RefTversky>
0.328 

> <ROCS_RefColorTversky>
0.185 

> <ROCS_RefTverskyCombo>
0.512 

> <ROCS_FitTversky>
1.402 

> <ROCS_FitColorTversky>
0.557 

> <ROCS_FitTverskyCombo>
1.959 

> <ROCS_ColorScore>
-5.642

> <ROCS_Overlap>
2282.173

> <ROCS_Rank>
351                 

$$$$
untitled-dbase-7490_6223
  -OEChem-11132309573D

 56 59  0     1  0  0  0  0  0999 V2000
   13.0260   11.9561   24.3644 C   0  0  0  0  0  0  0  0  0  0  0  0
    9.5783    6.7616   22.2952 C   0  0  0  0  0  0  0  0  0  0  0  0
   12.6682   17.6777   21.2767 C   0  0  0  0  0  0  0  0  0  0  0  0
   10.3974    7.8895   22.2442 C   0  0  0  0  0  0  0  0  0  0  0  0
    8.3876    6.7966   23.0210 C   0  0  0  0  0  0  0  0  0  0  0  0
   12.9079   16.6204   20.3991 C   0  0  0  0  0  0  0  0  0  0  0  0
   11.6216   17.5980   22.1954 C   0  0  0  0  0  0  0  0  0  0  0  0
   10.0259    9.0523   22.9191 C   0  0  0  0  0  0  0  0  0  0  0  0
    8.0161    7.9594   23.6959 C   0  0  0  0  0  0  0  0  0  0  0  0
   12.1009   15.4835   20.4399 C   0  0  0  0  0  0  0  0  0  0  0  0
   10.8145   16.4610   22.2362 C   0  0  0  0  0  0  0  0  0  0  0  0
    8.8353    9.0873   23.6449 C   0  0  0  0  0  0  0  0  0  0  0  0
   11.0542   15.4037   21.3585 C   0  0  0  0  0  0  0  0  0  0  0  0
    8.4523   10.2852   24.3406 C   0  0  0  0  0  0  0  0  0  0  0  0
    9.3595   11.1870   24.8563 C   0  0  0  0  0  0  0  0  0  0  0  0
    7.0361   11.7301   25.1870 C   0  0  0  0  0  0  0  0  0  0  0  0
   10.7707   11.1855   24.8462 C   0  0  0  0  0  0  0  0  0  0  0  0
   11.6110   12.1235   24.2746 C   0  0  0  0  0  0  0  0  0  0  0  0
   11.0004   13.3183   23.5871 C   0  0  0  0  0  0  0  0  0  0  0  0
    4.5324   11.7642   25.2270 C   0  0  0  0  0  0  0  0  0  0  0  0
    5.7979   13.3225   26.6352 C   0  0  0  0  0  0  0  0  0  0  0  0
    3.9502   11.1434   26.4924 C   0  0  0  0  0  0  0  0  0  0  0  0
    5.1618   12.6560   27.8559 C   0  0  0  0  0  0  0  0  0  0  0  0
    8.7534   14.4820   21.8575 C   0  0  0  0  0  0  0  0  0  0  0  0
   10.1779   14.1705   21.4032 C   0  0  2  0  0  0  0  0  0  0  0  0
   14.1768   11.8238   24.4357 N   0  0  0  0  0  0  0  0  0  0  0  0
    7.1196   10.5948   24.5296 N   0  0  0  0  0  0  0  0  0  0  0  0
    5.8408   12.3383   25.5485 N   0  0  0  0  0  0  0  0  0  0  0  0
   10.7630   13.1408   22.2330 N   0  0  0  0  0  0  0  0  0  0  0  0
   10.7393   14.3527   24.1995 O   0  0  0  0  0  0  0  0  0  0  0  0
    3.8708   12.1299   27.5284 O   0  0  0  0  0  0  0  0  0  0  0  0
    8.5209   12.4799   25.6091 S   0  0  0  0  0  0  0  0  0  0  0  0
    9.8669    5.8564   21.7689 H   0  0  0  0  0  0  0  0  0  0  0  0
   13.2976   18.5623   21.2457 H   0  0  0  0  0  0  0  0  0  0  0  0
   11.3239    7.8628   21.6782 H   0  0  0  0  0  0  0  0  0  0  0  0
    7.7494    5.9188   23.0594 H   0  0  0  0  0  0  0  0  0  0  0  0
   13.7235   16.6818   19.6845 H   0  0  0  0  0  0  0  0  0  0  0  0
   11.4354   18.4205   22.8796 H   0  0  0  0  0  0  0  0  0  0  0  0
   10.6753    9.9233   22.8698 H   0  0  0  0  0  0  0  0  0  0  0  0
    7.0847    7.9706   24.2573 H   0  0  0  0  0  0  0  0  0  0  0  0
   12.2949   14.6646   19.7521 H   0  0  0  0  0  0  0  0  0  0  0  0
   10.0013   16.4078   22.9552 H   0  0  0  0  0  0  0  0  0  0  0  0
   11.2631   10.3190   25.3417 H   0  0  0  0  0  0  0  0  0  0  0  0
    4.6172   10.9994   24.4522 H   0  0  0  0  0  0  0  0  0  0  0  0
    3.8737   12.5589   24.8679 H   0  0  0  0  0  0  0  0  0  0  0  0
    5.1889   14.1706   26.3216 H   0  0  0  0  0  0  0  0  0  0  0  0
    6.7968   13.6734   26.8903 H   0  0  0  0  0  0  0  0  0  0  0  0
    2.9366   10.7863   26.2984 H   0  0  0  0  0  0  0  0  0  0  0  0
    4.5454   10.2929   26.8365 H   0  0  0  0  0  0  0  0  0  0  0  0
    5.7977   11.8565   28.2537 H   0  0  0  0  0  0  0  0  0  0  0  0
    5.0257   13.3960   28.6503 H   0  0  0  0  0  0  0  0  0  0  0  0
    8.7466   14.9223   22.8606 H   0  0  0  0  0  0  0  0  0  0  0  0
    8.2784   15.1926   21.1718 H   0  0  0  0  0  0  0  0  0  0  0  0
    8.1242   13.5851   21.8780 H   0  0  0  0  0  0  0  0  0  0  0  0
   10.1192   13.7346   20.3983 H   0  0  0  0  0  0  0  0  0  0  0  0
   11.0095   12.2534   21.8073 H   0  0  0  0  0  0  0  0  0  0  0  0
  1 18  1  0  0  0  0
  1 26  3  0  0  0  0
  2  4  1  0  0  0  0
  2  5  2  0  0  0  0
  3  6  1  0  0  0  0
  3  7  2  0  0  0  0
  4  8  2  0  0  0  0
  5  9  1  0  0  0  0
  6 10  2  0  0  0  0
  7 11  1  0  0  0  0
  8 12  1  0  0  0  0
  9 12  2  0  0  0  0
 10 13  1  0  0  0  0
 11 13  2  0  0  0  0
 12 14  1  0  0  0  0
 13 25  1  0  0  0  0
 14 15  2  0  0  0  0
 14 27  1  0  0  0  0
 15 17  1  4  0  0  0
 15 32  1  0  0  0  0
 16 27  2  0  0  0  0
 16 28  1  0  0  0  0
 16 32  1  0  0  0  0
 17 18  2  0  0  0  0
 18 19  1  0  0  0  0
 19 29  1  0  0  0  0
 19 30  2  0  0  0  0
 20 22  1  0  0  0  0
 20 28  1  0  0  0  0
 21 23  1  0  0  0  0
 21 28  1  0  0  0  0
 22 31  1  0  0  0  0
 23 31  1  0  0  0  0
 24 25  1  0  0  0  0
 25 29  1  0  0  0  0
  2 33  1  0  0  0  0
  3 34  1  0  0  0  0
  4 35  1  0  0  0  0
  5 36  1  0  0  0  0
  6 37  1  0  0  0  0
  7 38  1  0  0  0  0
  8 39  1  0  0  0  0
  9 40  1  0  0  0  0
 10 41  1  0  0  0  0
 11 42  1  0  0  0  0
 17 43  1  0  0  0  0
 20 44  1  0  0  0  0
 20 45  1  0  0  0  0
 21 46  1  0  0  0  0
 21 47  1  0  0  0  0
 22 48  1  0  0  0  0
 22 49  1  0  0  0  0
 23 50  1  0  0  0  0
 23 51  1  0  0  0  0
 24 52  1  0  0  0  0
 24 53  1  0  0  0  0
 24 54  1  0  0  0  0
 25 55  1  0  0  0  0
 29 56  1  0  0  0  0
M  END
> <Catalog ID>
Z44317843

> <MW>
444.549

> <MW (desalted)>
444.549

> <ClogP>
3.728

> <logS>
-6.78

> <HBD>
1

> <HBA>
5

> <TPSA>
78.25

> <RotBonds>
6

> <ROCS_ShapeQuery>
A71EV2A-x0451_0A_A71EV2A-x0310_0A_A71EV2A-x0416_0A_peptide

> <ROCS_TanimotoCombo>
0.523 

> <ROCS_ShapeTanimoto>
0.363 

> <ROCS_ColorTanimoto>
0.160 

> <ROCS_RefTversky>
0.332 

> <ROCS_RefColorTversky>
0.184 

> <ROCS_RefTverskyCombo>
0.516 

> <ROCS_FitTversky>
1.342 

> <ROCS_FitColorTversky>
0.554 

> <ROCS_FitTverskyCombo>
1.896 

> <ROCS_ColorScore>
-5.610

> <ROCS_Overlap>
2313.738

> <ROCS_Rank>
352                 

$$$$
untitled-dbase-454_4495
  -OEChem-11132309573D

 54 56  0     1  0  0  0  0  0999 V2000
    5.4069   11.2717   26.0364 C   0  0  0  0  0  0  0  0  0  0  0  0
    6.2192   10.3407   26.7014 C   0  0  0  0  0  0  0  0  0  0  0  0
    5.8980   11.9934   24.9471 C   0  0  0  0  0  0  0  0  0  0  0  0
    7.5340   10.1161   26.2858 C   0  0  0  0  0  0  0  0  0  0  0  0
    7.1984   11.7552   24.5335 C   0  0  0  0  0  0  0  0  0  0  0  0
    8.0116   10.8217   25.1921 C   0  0  0  0  0  0  0  0  0  0  0  0
   11.7976   15.9445   21.9554 C   0  0  0  0  0  0  0  0  0  0  0  0
    9.6819    6.1144   23.1407 C   0  0  0  0  0  0  0  0  0  0  0  0
   10.1266    7.2045   23.7731 C   0  0  0  0  0  0  0  0  0  0  0  0
    9.3364    8.4643   23.7481 C   0  0  0  0  0  0  0  0  0  0  0  0
   10.9600   13.0935   23.2491 C   0  0  0  0  0  0  0  0  0  0  0  0
    7.9455   12.4359   23.4275 C   0  0  0  0  0  0  0  0  0  0  0  0
   11.4946   17.0336   20.9462 C   0  0  0  0  0  0  0  0  0  0  0  0
   12.7459   17.4549   20.1853 C   0  0  0  0  0  0  0  0  0  0  0  0
   13.5168   16.3340   19.4844 C   0  0  0  0  0  0  0  0  0  0  0  0
   12.6762   15.4775   18.5375 C   0  0  0  0  0  0  0  0  0  0  0  0
   12.2402   14.1300   19.1210 C   0  0  0  0  0  0  0  0  0  0  0  0
   11.1762   14.2021   20.2147 C   0  0  0  0  0  0  0  0  0  0  0  0
    9.3853   10.7990   24.5830 C   0  0  2  0  0  0  0  0  0  0  0  0
    9.1016   11.4440   23.2081 C   0  0  2  0  0  0  0  0  0  0  0  0
   12.1261   13.5478   22.4089 C   0  0  0  0  0  0  0  0  0  0  0  0
   11.6993   14.6228   21.5197 N   0  0  0  0  0  0  0  0  0  0  0  0
    9.9550    9.4860   24.4579 N   0  0  0  0  0  0  0  0  0  0  0  0
   10.2584   12.0692   22.6295 N   0  0  0  0  0  0  0  0  0  0  0  0
   12.1629   16.2702   23.0892 O   0  0  0  0  0  0  0  0  0  0  0  0
    8.2629    8.5587   23.1617 O   0  0  0  0  0  0  0  0  0  0  0  0
   10.6846   13.5801   24.3426 O   0  0  0  0  0  0  0  0  0  0  0  0
    4.3891   11.4376   26.3790 H   0  0  0  0  0  0  0  0  0  0  0  0
    5.8230    9.7949   27.5535 H   0  0  0  0  0  0  0  0  0  0  0  0
    5.2735   12.7234   24.4434 H   0  0  0  0  0  0  0  0  0  0  0  0
    8.1609    9.4064   26.8150 H   0  0  0  0  0  0  0  0  0  0  0  0
   10.2645    5.1993   23.1625 H   0  0  0  0  0  0  0  0  0  0  0  0
    8.7454    6.0970   22.5942 H   0  0  0  0  0  0  0  0  0  0  0  0
   11.0692    7.1794   24.3091 H   0  0  0  0  0  0  0  0  0  0  0  0
    7.3381   12.5498   22.5248 H   0  0  0  0  0  0  0  0  0  0  0  0
    8.2993   13.4144   23.7704 H   0  0  0  0  0  0  0  0  0  0  0  0
   10.7971   16.5928   20.2290 H   0  0  0  0  0  0  0  0  0  0  0  0
   10.9682   17.8755   21.3816 H   0  0  0  0  0  0  0  0  0  0  0  0
   12.5007   18.2435   19.4604 H   0  0  0  0  0  0  0  0  0  0  0  0
   13.4318   17.9138   20.9115 H   0  0  0  0  0  0  0  0  0  0  0  0
   14.2949   16.8204   18.8789 H   0  0  0  0  0  0  0  0  0  0  0  0
   14.0523   15.7145   20.2153 H   0  0  0  0  0  0  0  0  0  0  0  0
   11.8050   16.0343   18.1772 H   0  0  0  0  0  0  0  0  0  0  0  0
   13.2790   15.2576   17.6479 H   0  0  0  0  0  0  0  0  0  0  0  0
   11.8812   13.4956   18.3020 H   0  0  0  0  0  0  0  0  0  0  0  0
   13.1201   13.6211   19.5333 H   0  0  0  0  0  0  0  0  0  0  0  0
   10.3927   14.9153   19.9173 H   0  0  0  0  0  0  0  0  0  0  0  0
   10.6645   13.2377   20.2966 H   0  0  0  0  0  0  0  0  0  0  0  0
   10.0615   11.4159   25.1861 H   0  0  0  0  0  0  0  0  0  0  0  0
    8.7672   10.6771   22.4936 H   0  0  0  0  0  0  0  0  0  0  0  0
   12.9272   13.9139   23.0578 H   0  0  0  0  0  0  0  0  0  0  0  0
   12.4990   12.7124   21.8092 H   0  0  0  0  0  0  0  0  0  0  0  0
   10.8350    9.2982   24.9388 H   0  0  0  0  0  0  0  0  0  0  0  0
   10.5788   11.7452   21.7215 H   0  0  0  0  0  0  0  0  0  0  0  0
  1  2  1  0  0  0  0
  1  3  2  0  0  0  0
  2  4  2  0  0  0  0
  3  5  1  0  0  0  0
  4  6  1  0  0  0  0
  5  6  2  0  0  0  0
  5 12  1  0  0  0  0
  6 19  1  0  0  0  0
  7 13  1  0  0  0  0
  7 22  1  0  0  0  0
  7 25  2  0  0  0  0
  8  9  2  0  0  0  0
  9 10  1  0  0  0  0
 10 23  1  0  0  0  0
 10 26  2  0  0  0  0
 11 21  1  0  0  0  0
 11 24  1  0  0  0  0
 11 27  2  0  0  0  0
 12 20  1  0  0  0  0
 13 14  1  0  0  0  0
 14 15  1  0  0  0  0
 15 16  1  0  0  0  0
 16 17  1  0  0  0  0
 17 18  1  0  0  0  0
 18 22  1  0  0  0  0
 19 20  1  0  0  0  0
 19 23  1  1  0  0  0
 20 24  1  6  0  0  0
 21 22  1  0  0  0  0
  1 28  1  0  0  0  0
  2 29  1  0  0  0  0
  3 30  1  0  0  0  0
  4 31  1  0  0  0  0
  8 32  1  0  0  0  0
  8 33  1  0  0  0  0
  9 34  1  0  0  0  0
 12 35  1  0  0  0  0
 12 36  1  0  0  0  0
 13 37  1  0  0  0  0
 13 38  1  0  0  0  0
 14 39  1  0  0  0  0
 14 40  1  0  0  0  0
 15 41  1  0  0  0  0
 15 42  1  0  0  0  0
 16 43  1  0  0  0  0
 16 44  1  0  0  0  0
 17 45  1  0  0  0  0
 17 46  1  0  0  0  0
 18 47  1  0  0  0  0
 18 48  1  0  0  0  0
 19 49  1  0  0  0  0
 20 50  1  0  0  0  0
 21 51  1  0  0  0  0
 21 52  1  0  0  0  0
 23 53  1  0  0  0  0
 24 54  1  0  0  0  0
M  END
> <Catalog ID>
Z4439296362

> <MW>
369.457

> <MW (desalted)>
369.457

> <ClogP>
2.428

> <logS>
-4.403

> <HBD>
2

> <HBA>
3

> <TPSA>
78.51

> <RotBonds>
5

> <ROCS_ShapeQuery>
A71EV2A-x0451_0A_A71EV2A-x0310_0A_A71EV2A-x0416_0A_peptide

> <ROCS_TanimotoCombo>
0.523 

> <ROCS_ShapeTanimoto>
0.350 

> <ROCS_ColorTanimoto>
0.173 

> <ROCS_RefTversky>
0.315 

> <ROCS_RefColorTversky>
0.192 

> <ROCS_RefTverskyCombo>
0.507 

> <ROCS_FitTversky>
1.464 

> <ROCS_FitColorTversky>
0.636 

> <ROCS_FitTverskyCombo>
2.100 

> <ROCS_ColorScore>
-5.853

> <ROCS_Overlap>
2190.221

> <ROCS_Rank>
353                 

$$$$
untitled-dbase-9776_5126
  -OEChem-11132309573D

 45 47  0     0  0  0  0  0  0999 V2000
   15.6003   17.8314   19.5783 B   0  0  0  0  0  0  0  0  0  0  0  0
    5.8884   11.5818   26.9106 C   0  0  0  0  0  0  0  0  0  0  0  0
    5.5735   10.2846   26.5254 C   0  0  0  0  0  0  0  0  0  0  0  0
    6.9425   12.2460   26.2901 C   0  0  0  0  0  0  0  0  0  0  0  0
    6.3129    9.6549   25.5211 C   0  0  0  0  0  0  0  0  0  0  0  0
   13.8272   16.4575   20.7566 C   0  0  0  0  0  0  0  0  0  0  0  0
    8.7520   12.2577   24.6387 C   0  0  0  0  0  0  0  0  0  0  0  0
   12.6502   15.5748   18.3863 C   0  0  0  0  0  0  0  0  0  0  0  0
    9.0854   10.3176   23.3253 C   0  0  0  0  0  0  0  0  0  0  0  0
   14.3440   16.8658   19.5271 C   0  0  0  0  0  0  0  0  0  0  0  0
    7.6860   11.6124   25.2799 C   0  0  0  0  0  0  0  0  0  0  0  0
   13.7555   16.4245   18.3419 C   0  0  0  0  0  0  0  0  0  0  0  0
    7.3718   10.2955   24.8836 C   0  0  0  0  0  0  0  0  0  0  0  0
    9.4668   11.6049   23.6448 C   0  0  0  0  0  0  0  0  0  0  0  0
   12.7219   15.6077   20.8010 C   0  0  0  0  0  0  0  0  0  0  0  0
   12.1334   15.1664   19.6159 C   0  0  0  0  0  0  0  0  0  0  0  0
   14.2460   16.8129   17.0215 C   0  0  0  0  0  0  0  0  0  0  0  0
   11.0385   13.5171   23.1993 C   0  0  0  0  0  0  0  0  0  0  0  0
    9.7659   14.9483   19.6703 C   0  0  0  0  0  0  0  0  0  0  0  0
   12.2073   13.8253   22.2889 C   0  0  0  0  0  0  0  0  0  0  0  0
    8.0637    9.6595   23.9195 N   0  0  0  0  0  0  0  0  0  0  0  0
   10.5297   12.2259   22.9941 N   0  0  0  0  0  0  0  0  0  0  0  0
   13.7273   16.4230   15.9761 O   0  0  0  0  0  0  0  0  0  0  0  0
   10.6332   14.3561   23.9981 O   0  0  0  0  0  0  0  0  0  0  0  0
   15.5082   19.0531   20.2016 O   0  0  0  0  0  0  0  0  0  0  0  0
   16.7879   17.4520   18.9997 O   0  0  0  0  0  0  0  0  0  0  0  0
   11.0539   14.3362   19.6463 O   0  0  0  0  0  0  0  0  0  0  0  0
   12.2214   15.2117   22.0183 O   0  0  0  0  0  0  0  0  0  0  0  0
    5.3163   12.0746   27.6907 H   0  0  0  0  0  0  0  0  0  0  0  0
    4.7527    9.7587   27.0043 H   0  0  0  0  0  0  0  0  0  0  0  0
    7.1806   13.2614   26.5992 H   0  0  0  0  0  0  0  0  0  0  0  0
    6.0464    8.6383   25.2373 H   0  0  0  0  0  0  0  0  0  0  0  0
   14.2665   16.7864   21.6977 H   0  0  0  0  0  0  0  0  0  0  0  0
    9.0228   13.2744   24.9183 H   0  0  0  0  0  0  0  0  0  0  0  0
   12.1859   15.2265   17.4665 H   0  0  0  0  0  0  0  0  0  0  0  0
    9.6013    9.7494   22.5569 H   0  0  0  0  0  0  0  0  0  0  0  0
   15.1246   17.4883   16.9881 H   0  0  0  0  0  0  0  0  0  0  0  0
    8.9944   14.1747   19.6934 H   0  0  0  0  0  0  0  0  0  0  0  0
    9.6425   15.5745   18.7831 H   0  0  0  0  0  0  0  0  0  0  0  0
    9.6837   15.5685   20.5660 H   0  0  0  0  0  0  0  0  0  0  0  0
   13.1460   13.5342   22.7699 H   0  0  0  0  0  0  0  0  0  0  0  0
   12.1175   13.2760   21.3469 H   0  0  0  0  0  0  0  0  0  0  0  0
   11.0014   11.6674   22.2717 H   0  0  0  0  0  0  0  0  0  0  0  0
   14.6304   19.2295   20.5787 H   0  0  0  0  0  0  0  0  0  0  0  0
   17.4909   18.1166   19.0887 H   0  0  0  0  0  0  0  0  0  0  0  0
  1 10  1  0  0  0  0
  1 25  1  0  0  0  0
  1 26  1  0  0  0  0
  2  3  1  0  0  0  0
  2  4  2  0  0  0  0
  3  5  2  0  0  0  0
  4 11  1  0  0  0  0
  5 13  1  0  0  0  0
  6 10  2  0  0  0  0
  6 15  1  0  0  0  0
  7 11  1  0  0  0  0
  7 14  2  0  0  0  0
  8 12  2  0  0  0  0
  8 16  1  0  0  0  0
  9 14  1  0  0  0  0
  9 21  2  0  0  0  0
 10 12  1  0  0  0  0
 11 13  2  0  0  0  0
 12 17  1  0  0  0  0
 13 21  1  0  0  0  0
 14 22  1  0  0  0  0
 15 16  2  0  0  0  0
 15 28  1  0  0  0  0
 16 27  1  0  0  0  0
 17 23  2  0  0  0  0
 18 20  1  0  0  0  0
 18 22  1  0  0  0  0
 18 24  2  0  0  0  0
 19 27  1  0  0  0  0
 20 28  1  0  0  0  0
  2 29  1  0  0  0  0
  3 30  1  0  0  0  0
  4 31  1  0  0  0  0
  5 32  1  0  0  0  0
  6 33  1  0  0  0  0
  7 34  1  0  0  0  0
  8 35  1  0  0  0  0
  9 36  1  0  0  0  0
 17 37  1  0  0  0  0
 19 38  1  0  0  0  0
 19 39  1  0  0  0  0
 19 40  1  0  0  0  0
 20 41  1  0  0  0  0
 20 42  1  0  0  0  0
 22 43  1  0  0  0  0
 25 44  1  0  0  0  0
 26 45  1  0  0  0  0
M  END
> <Catalog ID>
Z4991577714

> <MW>
380.159

> <MW (desalted)>
380.159

> <ClogP>
2.234

> <logS>
-2.965

> <HBD>
3

> <HBA>
7

> <TPSA>
117.98

> <RotBonds>
7

> <ROCS_ShapeQuery>
A71EV2A-x0451_0A_A71EV2A-x0310_0A_A71EV2A-x0416_0A_peptide

> <ROCS_TanimotoCombo>
0.523 

> <ROCS_ShapeTanimoto>
0.340 

> <ROCS_ColorTanimoto>
0.183 

> <ROCS_RefTversky>
0.311 

> <ROCS_RefColorTversky>
0.206 

> <ROCS_RefTverskyCombo>
0.517 

> <ROCS_FitTversky>
1.377 

> <ROCS_FitColorTversky>
0.620 

> <ROCS_FitTverskyCombo>
1.997 

> <ROCS_ColorScore>
-6.287

> <ROCS_Overlap>
2164.437

> <ROCS_Rank>
354                 

$$$$
untitled-dbase-10200_5529
  -OEChem-11132309573D

 51 53  0     0  0  0  0  0  0999 V2000
   13.6218   16.0172   21.9289 C   0  0  0  0  0  0  0  0  0  0  0  0
    9.8186   10.9861   22.9267 C   0  0  0  0  0  0  0  0  0  0  0  0
   13.6011   16.3190   20.5673 C   0  0  0  0  0  0  0  0  0  0  0  0
    9.0170    9.8680   23.1566 C   0  0  0  0  0  0  0  0  0  0  0  0
   12.7569   15.0506   22.4422 C   0  0  0  0  0  0  0  0  0  0  0  0
    8.5684   12.2231   24.5832 C   0  0  0  0  0  0  0  0  0  0  0  0
   11.8505   14.6879   20.2323 C   0  0  0  0  0  0  0  0  0  0  0  0
    9.5943   12.1637   23.6400 C   0  0  0  0  0  0  0  0  0  0  0  0
   12.7154   15.6544   19.7190 C   0  0  0  0  0  0  0  0  0  0  0  0
    7.9911    9.9274   24.0998 C   0  0  0  0  0  0  0  0  0  0  0  0
   11.8713   14.3860   21.5940 C   0  0  0  0  0  0  0  0  0  0  0  0
    7.7668   11.1050   24.8131 C   0  0  0  0  0  0  0  0  0  0  0  0
    5.1509   11.0404   31.6291 C   0  0  0  0  0  0  0  0  0  0  0  0
    3.9835   11.6062   31.3151 C   0  0  0  0  0  0  0  0  0  0  0  0
   10.4310   13.3287   23.3999 C   0  0  0  0  0  0  0  0  0  0  0  0
    3.9744   12.7529   30.3886 C   0  0  0  0  0  0  0  0  0  0  0  0
    6.0013   12.3085   26.1393 C   0  0  0  0  0  0  0  0  0  0  0  0
    5.4935   11.6051   28.6231 C   0  0  0  0  0  0  0  0  0  0  0  0
    4.2049   13.1359   27.8739 C   0  0  0  0  0  0  0  0  0  0  0  0
    4.9702   11.9698   27.2195 C   0  0  0  0  0  0  0  0  0  0  0  0
    7.1475    8.7147   24.3246 C   0  0  0  0  0  0  0  0  0  0  0  0
   12.6937   15.9776   18.2634 C   0  0  0  0  0  0  0  0  0  0  0  0
    4.4834   12.5016   29.1475 N   0  0  0  0  0  0  0  0  0  0  0  0
   10.9929   13.4032   22.1159 N   0  0  0  0  0  0  0  0  0  0  0  0
    6.7315   11.1845   25.7745 N   0  0  0  0  0  0  0  0  0  0  0  0
   10.6503   14.1667   24.2856 O   0  0  0  0  0  0  0  0  0  0  0  0
    3.5302   13.8366   30.7591 O   0  0  0  0  0  0  0  0  0  0  0  0
    6.1024   13.4508   25.7036 O   0  0  0  0  0  0  0  0  0  0  0  0
   13.5925   16.9410   17.9027 F   0  0  0  0  0  0  0  0  0  0  0  0
   12.9771   14.9086   17.4615 F   0  0  0  0  0  0  0  0  0  0  0  0
   11.4780   16.4365   17.8452 F   0  0  0  0  0  0  0  0  0  0  0  0
   14.3117   16.5343   22.5894 H   0  0  0  0  0  0  0  0  0  0  0  0
   10.6154   10.9285   22.1895 H   0  0  0  0  0  0  0  0  0  0  0  0
   14.2780   17.0739   20.1769 H   0  0  0  0  0  0  0  0  0  0  0  0
    9.1999    8.9554   22.5954 H   0  0  0  0  0  0  0  0  0  0  0  0
   12.7817   14.8235   23.5051 H   0  0  0  0  0  0  0  0  0  0  0  0
    8.3937   13.1424   25.1383 H   0  0  0  0  0  0  0  0  0  0  0  0
   11.1602   14.1715   19.5689 H   0  0  0  0  0  0  0  0  0  0  0  0
    5.2216   10.1945   32.3046 H   0  0  0  0  0  0  0  0  0  0  0  0
    6.0729   11.4237   31.2050 H   0  0  0  0  0  0  0  0  0  0  0  0
    3.0433   11.2523   31.7172 H   0  0  0  0  0  0  0  0  0  0  0  0
    5.3568   10.5572   28.9018 H   0  0  0  0  0  0  0  0  0  0  0  0
    6.5110   11.9328   28.8548 H   0  0  0  0  0  0  0  0  0  0  0  0
    4.6657   14.1244   27.7882 H   0  0  0  0  0  0  0  0  0  0  0  0
    3.1417   13.1894   27.6272 H   0  0  0  0  0  0  0  0  0  0  0  0
    4.2752   11.2052   26.8403 H   0  0  0  0  0  0  0  0  0  0  0  0
    7.5852    8.0888   25.1106 H   0  0  0  0  0  0  0  0  0  0  0  0
    6.1292    8.9910   24.6234 H   0  0  0  0  0  0  0  0  0  0  0  0
    7.0612    8.1176   23.4087 H   0  0  0  0  0  0  0  0  0  0  0  0
   10.7366   12.6547   21.4768 H   0  0  0  0  0  0  0  0  0  0  0  0
    6.5054   10.3106   26.2449 H   0  0  0  0  0  0  0  0  0  0  0  0
  1  3  1  0  0  0  0
  1  5  2  0  0  0  0
  2  4  2  0  0  0  0
  2  8  1  0  0  0  0
  3  9  2  0  0  0  0
  4 10  1  0  0  0  0
  5 11  1  0  0  0  0
  6  8  2  0  0  0  0
  6 12  1  0  0  0  0
  7  9  1  0  0  0  0
  7 11  2  0  0  0  0
  8 15  1  0  0  0  0
  9 22  1  0  0  0  0
 10 12  2  0  0  0  0
 10 21  1  0  0  0  0
 11 24  1  0  0  0  0
 12 25  1  0  0  0  0
 13 14  2  0  0  0  0
 14 16  1  0  0  0  0
 15 24  1  0  0  0  0
 15 26  2  0  0  0  0
 16 23  1  0  0  0  0
 16 27  2  0  0  0  0
 17 20  1  0  0  0  0
 17 25  1  0  0  0  0
 17 28  2  0  0  0  0
 18 20  1  0  0  0  0
 18 23  1  0  0  0  0
 19 20  1  0  0  0  0
 19 23  1  0  0  0  0
 22 29  1  0  0  0  0
 22 30  1  0  0  0  0
 22 31  1  0  0  0  0
  1 32  1  0  0  0  0
  2 33  1  0  0  0  0
  3 34  1  0  0  0  0
  4 35  1  0  0  0  0
  5 36  1  0  0  0  0
  6 37  1  0  0  0  0
  7 38  1  0  0  0  0
 13 39  1  0  0  0  0
 13 40  1  0  0  0  0
 14 41  1  0  0  0  0
 18 42  1  0  0  0  0
 18 43  1  0  0  0  0
 19 44  1  0  0  0  0
 19 45  1  0  0  0  0
 20 46  1  0  0  0  0
 21 47  1  0  0  0  0
 21 48  1  0  0  0  0
 21 49  1  0  0  0  0
 24 50  1  0  0  0  0
 25 51  1  0  0  0  0
M  END
> <Catalog ID>
Z4899201176

> <MW>
431.408

> <MW (desalted)>
431.408

> <ClogP>
3.622

> <logS>
-6.044

> <HBD>
2

> <HBA>
3

> <TPSA>
78.51

> <RotBonds>
6

> <ROCS_ShapeQuery>
A71EV2A-x0451_0A_A71EV2A-x0310_0A_A71EV2A-x0416_0A_peptide

> <ROCS_TanimotoCombo>
0.523 

> <ROCS_ShapeTanimoto>
0.368 

> <ROCS_ColorTanimoto>
0.155 

> <ROCS_RefTversky>
0.334 

> <ROCS_RefColorTversky>
0.179 

> <ROCS_RefTverskyCombo>
0.513 

> <ROCS_FitTversky>
1.371 

> <ROCS_FitColorTversky>
0.539 

> <ROCS_FitTverskyCombo>
1.910 

> <ROCS_ColorScore>
-5.463

> <ROCS_Overlap>
2328.832

> <ROCS_Rank>
355                 

$$$$
untitled-dbase-8956_4066
  -OEChem-11132309573D

 63 67  0     1  0  0  0  0  0999 V2000
   12.9694   15.9419   19.6207 C   0  0  0  0  0  0  0  0  0  0  0  0
   11.8029   15.2349   19.3292 C   0  0  0  0  0  0  0  0  0  0  0  0
   11.5347   13.0684   25.9896 C   0  0  0  0  0  0  0  0  0  0  0  0
   12.3311   11.2912   24.5599 C   0  0  0  0  0  0  0  0  0  0  0  0
    6.9023   13.1192   24.1590 C   0  0  0  0  0  0  0  0  0  0  0  0
   12.6917   12.9658   26.7618 C   0  0  0  0  0  0  0  0  0  0  0  0
   13.4882   11.1885   25.3321 C   0  0  0  0  0  0  0  0  0  0  0  0
    6.0715   14.1010   24.7041 C   0  0  0  0  0  0  0  0  0  0  0  0
   13.3595   16.1276   20.9470 C   0  0  0  0  0  0  0  0  0  0  0  0
    6.6301   11.7288   26.1391 C   0  0  0  0  0  0  0  0  0  0  0  0
   11.3543   12.2311   24.8886 C   0  0  0  0  0  0  0  0  0  0  0  0
   11.0264   14.7136   20.3641 C   0  0  0  0  0  0  0  0  0  0  0  0
   11.4164   14.8993   21.6904 C   0  0  0  0  0  0  0  0  0  0  0  0
    7.1799   11.9398   24.8723 C   0  0  0  0  0  0  0  0  0  0  0  0
   13.6684   12.0259   26.4331 C   0  0  0  0  0  0  0  0  0  0  0  0
    5.5413   13.8682   25.9565 C   0  0  0  0  0  0  0  0  0  0  0  0
    5.8130   12.7138   26.6547 C   0  0  0  0  0  0  0  0  0  0  0  0
   12.5830   15.6063   21.9818 C   0  0  0  0  0  0  0  0  0  0  0  0
    9.3003   11.1020   23.9242 C   0  0  0  0  0  0  0  0  0  0  0  0
   16.9426   10.7522   28.9082 C   0  0  0  0  0  0  0  0  0  0  0  0
   16.3809   11.9595   29.0253 C   0  0  0  0  0  0  0  0  0  0  0  0
   14.9786   12.1913   28.5725 C   0  0  0  0  0  0  0  0  0  0  0  0
    4.4990   13.9484   27.8510 C   0  0  0  0  0  0  0  0  0  0  0  0
    9.7819   13.9604   20.0252 C   0  0  0  0  0  0  0  0  0  0  0  0
   14.1847   16.5332   23.4755 C   0  0  0  0  0  0  0  0  0  0  0  0
   10.5836   14.3420   22.8085 C   0  0  0  0  0  0  0  0  0  0  0  0
   10.0845   12.3438   24.0413 C   0  0  2  0  0  0  0  0  0  0  0  0
    9.7028    9.9470   23.4462 N   0  0  0  0  0  0  0  0  0  0  0  0
    8.6190    9.1045   23.5494 N   0  0  0  0  0  0  0  0  0  0  0  0
    7.5763    9.7315   24.0803 N   0  0  0  0  0  0  0  0  0  0  0  0
    8.0046   10.9799   24.3135 N   0  0  0  0  0  0  0  0  0  0  0  0
   14.8259   11.9232   27.2051 N   0  0  0  0  0  0  0  0  0  0  0  0
   10.4485   12.9033   22.7184 N   0  0  0  0  0  0  0  0  0  0  0  0
   14.1135   12.5707   29.3529 O   0  0  0  0  0  0  0  0  0  0  0  0
    4.7159   14.7049   26.6423 O   0  0  0  0  0  0  0  0  0  0  0  0
    5.1920   12.6835   27.8652 O   0  0  0  0  0  0  0  0  0  0  0  0
   12.9793   15.7989   23.2711 O   0  0  0  0  0  0  0  0  0  0  0  0
   13.5732   16.3478   18.8142 H   0  0  0  0  0  0  0  0  0  0  0  0
   11.5064   15.0963   18.2928 H   0  0  0  0  0  0  0  0  0  0  0  0
   10.7778   13.8021   26.2543 H   0  0  0  0  0  0  0  0  0  0  0  0
   12.1985   10.6342   23.7043 H   0  0  0  0  0  0  0  0  0  0  0  0
    7.3314   13.2789   23.1723 H   0  0  0  0  0  0  0  0  0  0  0  0
   12.8218   13.6238   27.6174 H   0  0  0  0  0  0  0  0  0  0  0  0
   14.2426   10.4518   25.0677 H   0  0  0  0  0  0  0  0  0  0  0  0
    5.8543   15.0112   24.1567 H   0  0  0  0  0  0  0  0  0  0  0  0
   14.2687   16.6806   21.1667 H   0  0  0  0  0  0  0  0  0  0  0  0
    6.8342   10.8247   26.7038 H   0  0  0  0  0  0  0  0  0  0  0  0
   17.9585   10.5462   29.2261 H   0  0  0  0  0  0  0  0  0  0  0  0
   16.3777    9.9305   28.4803 H   0  0  0  0  0  0  0  0  0  0  0  0
   16.9448   12.7813   29.4533 H   0  0  0  0  0  0  0  0  0  0  0  0
    4.8402   14.5451   28.7045 H   0  0  0  0  0  0  0  0  0  0  0  0
    3.4246   13.7607   27.9591 H   0  0  0  0  0  0  0  0  0  0  0  0
   10.0047   12.8942   19.9030 H   0  0  0  0  0  0  0  0  0  0  0  0
    9.0249   14.0716   20.8112 H   0  0  0  0  0  0  0  0  0  0  0  0
    9.3341   14.3329   19.0956 H   0  0  0  0  0  0  0  0  0  0  0  0
   14.3857   16.6142   24.5466 H   0  0  0  0  0  0  0  0  0  0  0  0
   14.0846   17.5290   23.0364 H   0  0  0  0  0  0  0  0  0  0  0  0
   15.0093   16.0048   22.9913 H   0  0  0  0  0  0  0  0  0  0  0  0
   11.0328   14.5785   23.7793 H   0  0  0  0  0  0  0  0  0  0  0  0
    9.5773   14.7739   22.8019 H   0  0  0  0  0  0  0  0  0  0  0  0
    9.4608   13.1486   24.4863 H   0  0  0  0  0  0  0  0  0  0  0  0
   15.6709   11.6126   26.7103 H   0  0  0  0  0  0  0  0  0  0  0  0
   11.3246   12.4847   22.4344 H   0  0  0  0  0  0  0  0  0  0  0  0
  1  2  1  0  0  0  0
  1  9  2  0  0  0  0
  2 12  2  0  0  0  0
  3  6  2  0  0  0  0
  3 11  1  0  0  0  0
  4  7  1  0  0  0  0
  4 11  2  0  0  0  0
  5  8  2  0  0  0  0
  5 14  1  0  0  0  0
  6 15  1  0  0  0  0
  7 15  2  0  0  0  0
  8 16  1  0  0  0  0
  9 18  1  0  0  0  0
 10 14  2  0  0  0  0
 10 17  1  0  0  0  0
 11 27  1  0  0  0  0
 12 13  1  0  0  0  0
 12 24  1  0  0  0  0
 13 18  2  0  0  0  0
 13 26  1  0  0  0  0
 14 31  1  0  0  0  0
 15 32  1  0  0  0  0
 16 17  2  0  0  0  0
 16 35  1  0  0  0  0
 17 36  1  0  0  0  0
 18 37  1  0  0  0  0
 19 27  1  0  0  0  0
 19 28  2  0  0  0  0
 19 31  1  0  0  0  0
 20 21  2  0  0  0  0
 21 22  1  0  0  0  0
 22 32  1  0  0  0  0
 22 34  2  0  0  0  0
 23 35  1  0  0  0  0
 23 36  1  0  0  0  0
 25 37  1  0  0  0  0
 26 33  1  0  0  0  0
 27 33  1  0  0  0  0
 28 29  1  0  0  0  0
 29 30  2  0  0  0  0
 30 31  1  0  0  0  0
  1 38  1  0  0  0  0
  2 39  1  0  0  0  0
  3 40  1  0  0  0  0
  4 41  1  0  0  0  0
  5 42  1  0  0  0  0
  6 43  1  0  0  0  0
  7 44  1  0  0  0  0
  8 45  1  0  0  0  0
  9 46  1  0  0  0  0
 10 47  1  0  0  0  0
 20 48  1  0  0  0  0
 20 49  1  0  0  0  0
 21 50  1  0  0  0  0
 23 51  1  0  0  0  0
 23 52  1  0  0  0  0
 24 53  1  0  0  0  0
 24 54  1  0  0  0  0
 24 55  1  0  0  0  0
 25 56  1  0  0  0  0
 25 57  1  0  0  0  0
 25 58  1  0  0  0  0
 26 59  1  0  0  0  0
 26 60  1  0  0  0  0
 27 61  1  0  0  0  0
 32 62  1  0  0  0  0
 33 63  1  0  0  0  0
M  END
> <Catalog ID>
Z7759191011

> <MW>
498.533

> <MW (desalted)>
498.533

> <ClogP>
2.694

> <logS>
-5.39

> <HBD>
2

> <HBA>
8

> <TPSA>
112.42

> <RotBonds>
9

> <ROCS_ShapeQuery>
A71EV2A-x0451_0A_A71EV2A-x0310_0A_A71EV2A-x0416_0A_peptide

> <ROCS_TanimotoCombo>
0.522 

> <ROCS_ShapeTanimoto>
0.405 

> <ROCS_ColorTanimoto>
0.117 

> <ROCS_RefTversky>
0.371 

> <ROCS_RefColorTversky>
0.164 

> <ROCS_RefTverskyCombo>
0.535 

> <ROCS_FitTversky>
1.297 

> <ROCS_FitColorTversky>
0.291 

> <ROCS_FitTverskyCombo>
1.588 

> <ROCS_ColorScore>
-5.078

> <ROCS_Overlap>
2589.481

> <ROCS_Rank>
356                 

$$$$
untitled-dbase-4723_2720
  -OEChem-11132309573D

 58 60  0     1  0  0  0  0  0999 V2000
   11.2292   12.7170   26.3716 C   0  0  0  0  0  0  0  0  0  0  0  0
   12.2644   11.6717   24.4552 C   0  0  0  0  0  0  0  0  0  0  0  0
   12.3980   12.5245   27.1081 C   0  0  0  0  0  0  0  0  0  0  0  0
   13.4333   11.4792   25.1916 C   0  0  0  0  0  0  0  0  0  0  0  0
   11.0906   14.4905   21.2440 C   0  0  0  0  0  0  0  0  0  0  0  0
   11.1624   12.2906   25.0452 C   0  0  0  0  0  0  0  0  0  0  0  0
   13.5001   11.9057   26.5181 C   0  0  0  0  0  0  0  0  0  0  0  0
   11.5331   15.7871   21.3420 C   0  0  0  0  0  0  0  0  0  0  0  0
   10.7414   14.1373   22.5612 C   0  0  0  0  0  0  0  0  0  0  0  0
    8.9353   11.3728   24.2566 C   0  0  0  0  0  0  0  0  0  0  0  0
   16.7285   11.9522   30.2465 C   0  0  0  0  0  0  0  0  0  0  0  0
   16.3002   11.6923   29.0073 C   0  0  0  0  0  0  0  0  0  0  0  0
   14.9204   12.0718   28.5860 C   0  0  0  0  0  0  0  0  0  0  0  0
    5.2066   13.4539   26.8464 C   0  0  0  0  0  0  0  0  0  0  0  0
   12.0373   16.7187   20.3166 C   0  0  0  0  0  0  0  0  0  0  0  0
    2.6433   13.4714   29.4617 C   0  0  0  0  0  0  0  0  0  0  0  0
   11.7710   17.3829   23.2686 C   0  0  0  0  0  0  0  0  0  0  0  0
    5.9222   12.2446   26.2910 C   0  0  0  0  0  0  0  0  0  0  0  0
    6.9482   12.6304   25.2291 C   0  0  0  0  0  0  0  0  0  0  0  0
    3.5653   14.0847   28.4295 C   0  0  0  0  0  0  0  0  0  0  0  0
    9.8790   12.5019   24.2368 C   0  0  2  0  0  0  0  0  0  0  0  0
   10.9446   15.1293   23.4322 N   0  0  0  0  0  0  0  0  0  0  0  0
    9.1504   10.1364   23.8701 N   0  0  0  0  0  0  0  0  0  0  0  0
    7.9663    9.4685   24.0861 N   0  0  0  0  0  0  0  0  0  0  0  0
    7.0470   10.2797   24.5950 N   0  0  0  0  0  0  0  0  0  0  0  0
   11.4264   16.1186   22.6607 N   0  0  0  0  0  0  0  0  0  0  0  0
    7.6551   11.4695   24.7005 N   0  0  0  0  0  0  0  0  0  0  0  0
   14.6694   11.7132   27.2543 N   0  0  0  0  0  0  0  0  0  0  0  0
   10.2520   12.8984   22.8580 N   0  0  0  0  0  0  0  0  0  0  0  0
   14.1502   12.6281   29.3598 O   0  0  0  0  0  0  0  0  0  0  0  0
    5.3908   14.6089   26.4878 O   0  0  0  0  0  0  0  0  0  0  0  0
    4.3255   13.0442   27.8066 O   0  0  0  0  0  0  0  0  0  0  0  0
   10.3746   13.1981   26.8401 H   0  0  0  0  0  0  0  0  0  0  0  0
   12.2209   11.3357   23.4225 H   0  0  0  0  0  0  0  0  0  0  0  0
   12.4391   12.8612   28.1410 H   0  0  0  0  0  0  0  0  0  0  0  0
   14.2859   10.9949   24.7223 H   0  0  0  0  0  0  0  0  0  0  0  0
   11.0317   13.8926   20.3452 H   0  0  0  0  0  0  0  0  0  0  0  0
   17.7239   11.6913   30.5882 H   0  0  0  0  0  0  0  0  0  0  0  0
   16.0704   12.4430   30.9560 H   0  0  0  0  0  0  0  0  0  0  0  0
   16.9575   11.2020   28.2974 H   0  0  0  0  0  0  0  0  0  0  0  0
   11.2167   17.3097   19.8763 H   0  0  0  0  0  0  0  0  0  0  0  0
   12.7765   17.4284   20.7274 H   0  0  0  0  0  0  0  0  0  0  0  0
   12.5487   16.1917   19.4920 H   0  0  0  0  0  0  0  0  0  0  0  0
    1.9511   12.7647   28.9957 H   0  0  0  0  0  0  0  0  0  0  0  0
    3.2195   12.9469   30.2309 H   0  0  0  0  0  0  0  0  0  0  0  0
    2.0644   14.2484   29.9720 H   0  0  0  0  0  0  0  0  0  0  0  0
   10.8836   18.0209   23.2461 H   0  0  0  0  0  0  0  0  0  0  0  0
   12.0951   17.2149   24.2994 H   0  0  0  0  0  0  0  0  0  0  0  0
   12.5885   17.8432   22.7067 H   0  0  0  0  0  0  0  0  0  0  0  0
    5.1733   11.5701   25.8601 H   0  0  0  0  0  0  0  0  0  0  0  0
    6.4193   11.7286   27.1207 H   0  0  0  0  0  0  0  0  0  0  0  0
    6.4698   13.1445   24.3863 H   0  0  0  0  0  0  0  0  0  0  0  0
    7.6967   13.3218   25.6354 H   0  0  0  0  0  0  0  0  0  0  0  0
    4.2550   14.7905   28.9021 H   0  0  0  0  0  0  0  0  0  0  0  0
    2.9880   14.6076   27.6612 H   0  0  0  0  0  0  0  0  0  0  0  0
    9.3887   13.4184   24.6315 H   0  0  0  0  0  0  0  0  0  0  0  0
   15.4421   11.2516   26.7593 H   0  0  0  0  0  0  0  0  0  0  0  0
   10.1265   12.2056   22.1531 H   0  0  0  0  0  0  0  0  0  0  0  0
  1  3  2  0  0  0  0
  1  6  1  0  0  0  0
  2  4  1  0  0  0  0
  2  6  2  0  0  0  0
  3  7  1  0  0  0  0
  4  7  2  0  0  0  0
  5  8  2  0  0  0  0
  5  9  1  0  0  0  0
  6 21  1  0  0  0  0
  7 28  1  0  0  0  0
  8 15  1  0  0  0  0
  8 26  1  0  0  0  0
  9 22  2  0  0  0  0
  9 29  1  0  0  0  0
 10 21  1  0  0  0  0
 10 23  2  0  0  0  0
 10 27  1  0  0  0  0
 11 12  2  0  0  0  0
 12 13  1  0  0  0  0
 13 28  1  0  0  0  0
 13 30  2  0  0  0  0
 14 18  1  0  0  0  0
 14 31  2  0  0  0  0
 14 32  1  0  0  0  0
 16 20  1  0  0  0  0
 17 26  1  0  0  0  0
 18 19  1  0  0  0  0
 19 27  1  0  0  0  0
 20 32  1  0  0  0  0
 21 29  1  0  0  0  0
 22 26  1  0  0  0  0
 23 24  1  0  0  0  0
 24 25  2  0  0  0  0
 25 27  1  0  0  0  0
  1 33  1  0  0  0  0
  2 34  1  0  0  0  0
  3 35  1  0  0  0  0
  4 36  1  0  0  0  0
  5 37  1  0  0  0  0
 11 38  1  0  0  0  0
 11 39  1  0  0  0  0
 12 40  1  0  0  0  0
 15 41  1  0  0  0  0
 15 42  1  0  0  0  0
 15 43  1  0  0  0  0
 16 44  1  0  0  0  0
 16 45  1  0  0  0  0
 16 46  1  0  0  0  0
 17 47  1  0  0  0  0
 17 48  1  0  0  0  0
 17 49  1  0  0  0  0
 18 50  1  0  0  0  0
 18 51  1  0  0  0  0
 19 52  1  0  0  0  0
 19 53  1  0  0  0  0
 20 54  1  0  0  0  0
 20 55  1  0  0  0  0
 21 56  1  0  0  0  0
 28 57  1  0  0  0  0
 29 58  1  0  0  0  0
M  END
> <Catalog ID>
Z7865477038

> <MW>
438.483

> <MW (desalted)>
438.483

> <ClogP>
0.605

> <logS>
-2.621

> <HBD>
2

> <HBA>
7

> <TPSA>
128.85

> <RotBonds>
11

> <ROCS_ShapeQuery>
A71EV2A-x0451_0A_A71EV2A-x0310_0A_A71EV2A-x0416_0A_peptide

> <ROCS_TanimotoCombo>
0.522 

> <ROCS_ShapeTanimoto>
0.348 

> <ROCS_ColorTanimoto>
0.175 

> <ROCS_RefTversky>
0.322 

> <ROCS_RefColorTversky>
0.215 

> <ROCS_RefTverskyCombo>
0.537 

> <ROCS_FitTversky>
1.292 

> <ROCS_FitColorTversky>
0.485 

> <ROCS_FitTverskyCombo>
1.777 

> <ROCS_ColorScore>
-6.606

> <ROCS_Overlap>
2245.523

> <ROCS_Rank>
357                 

$$$$
untitled-dbase-2086_7656
  -OEChem-11132309573D

 36 37  0     0  0  0  0  0  0999 V2000
   14.1914   16.1658   19.4185 C   0  0  0  0  0  0  0  0  0  0  0  0
    5.9934   11.7512   25.5408 C   0  0  0  0  0  0  0  0  0  0  0  0
    6.4520   10.4771   25.2061 C   0  0  0  0  0  0  0  0  0  0  0  0
   13.7359   15.9963   20.7579 C   0  0  0  0  0  0  0  0  0  0  0  0
    8.1236   12.6884   24.8922 C   0  0  0  0  0  0  0  0  0  0  0  0
   13.1949   15.9242   18.4986 C   0  0  0  0  0  0  0  0  0  0  0  0
    6.8292   12.8569   25.3839 C   0  0  0  0  0  0  0  0  0  0  0  0
    7.7465   10.3087   24.7145 C   0  0  0  0  0  0  0  0  0  0  0  0
    8.5823   11.4144   24.5575 C   0  0  0  0  0  0  0  0  0  0  0  0
   12.4084   15.6318   20.8107 C   0  0  0  0  0  0  0  0  0  0  0  0
    6.3502   14.1854   25.7309 C   0  0  0  0  0  0  0  0  0  0  0  0
   10.7195   13.3253   23.1786 C   0  0  0  0  0  0  0  0  0  0  0  0
    7.9602    8.6216   23.0520 C   0  0  0  0  0  0  0  0  0  0  0  0
   11.5612   15.3614   22.0204 C   0  0  0  0  0  0  0  0  0  0  0  0
   10.1802   11.9432   22.8774 C   0  0  0  0  0  0  0  0  0  0  0  0
   11.0292   14.0180   22.0186 N   0  0  0  0  0  0  0  0  0  0  0  0
    5.2161   14.4000   26.1680 O   0  0  0  0  0  0  0  0  0  0  0  0
   10.8532   13.7511   24.3226 O   0  0  0  0  0  0  0  0  0  0  0  0
    8.1826    9.0592   24.3911 O   0  0  0  0  0  0  0  0  0  0  0  0
    9.8594   11.2620   24.0716 O   0  0  0  0  0  0  0  0  0  0  0  0
   11.7171   15.4951   19.2500 S   0  0  0  0  0  0  0  0  0  0  0  0
   15.1982   16.4511   19.1429 H   0  0  0  0  0  0  0  0  0  0  0  0
    4.9828   11.8706   25.9229 H   0  0  0  0  0  0  0  0  0  0  0  0
    5.7962    9.6198   25.3309 H   0  0  0  0  0  0  0  0  0  0  0  0
   14.3545   16.1373   21.6352 H   0  0  0  0  0  0  0  0  0  0  0  0
    8.7770   13.5488   24.7664 H   0  0  0  0  0  0  0  0  0  0  0  0
   13.2640   15.9788   17.4213 H   0  0  0  0  0  0  0  0  0  0  0  0
    7.0523   15.0357   25.5887 H   0  0  0  0  0  0  0  0  0  0  0  0
    8.3553    7.6104   22.9280 H   0  0  0  0  0  0  0  0  0  0  0  0
    8.4548    9.3052   22.3574 H   0  0  0  0  0  0  0  0  0  0  0  0
    6.8859    8.6175   22.8532 H   0  0  0  0  0  0  0  0  0  0  0  0
   12.1455   15.4916   22.9378 H   0  0  0  0  0  0  0  0  0  0  0  0
   10.7162   16.0561   22.0716 H   0  0  0  0  0  0  0  0  0  0  0  0
    9.2715   12.0338   22.2746 H   0  0  0  0  0  0  0  0  0  0  0  0
   10.9227   11.3635   22.3202 H   0  0  0  0  0  0  0  0  0  0  0  0
   10.8749   13.5596   21.1253 H   0  0  0  0  0  0  0  0  0  0  0  0
  1  4  1  0  0  0  0
  1  6  2  0  0  0  0
  2  3  2  0  0  0  0
  2  7  1  0  0  0  0
  3  8  1  0  0  0  0
  4 10  2  0  0  0  0
  5  7  2  0  0  0  0
  5  9  1  0  0  0  0
  6 21  1  0  0  0  0
  7 11  1  0  0  0  0
  8  9  2  0  0  0  0
  8 19  1  0  0  0  0
  9 20  1  0  0  0  0
 10 14  1  0  0  0  0
 10 21  1  0  0  0  0
 11 17  2  0  0  0  0
 12 15  1  0  0  0  0
 12 16  1  0  0  0  0
 12 18  2  0  0  0  0
 13 19  1  0  0  0  0
 14 16  1  0  0  0  0
 15 20  1  0  0  0  0
  1 22  1  0  0  0  0
  2 23  1  0  0  0  0
  3 24  1  0  0  0  0
  4 25  1  0  0  0  0
  5 26  1  0  0  0  0
  6 27  1  0  0  0  0
 11 28  1  0  0  0  0
 13 29  1  0  0  0  0
 13 30  1  0  0  0  0
 13 31  1  0  0  0  0
 14 32  1  0  0  0  0
 14 33  1  0  0  0  0
 15 34  1  0  0  0  0
 15 35  1  0  0  0  0
 16 36  1  0  0  0  0
M  END
> <Catalog ID>
Z18762155

> <MW>
305.349

> <MW (desalted)>
305.349

> <ClogP>
1.738

> <logS>
-3.23

> <HBD>
1

> <HBA>
4

> <TPSA>
64.63

> <RotBonds>
7

> <ROCS_ShapeQuery>
A71EV2A-x0451_0A_A71EV2A-x0310_0A_A71EV2A-x0416_0A_peptide

> <ROCS_TanimotoCombo>
0.522 

> <ROCS_ShapeTanimoto>
0.339 

> <ROCS_ColorTanimoto>
0.183 

> <ROCS_RefTversky>
0.298 

> <ROCS_RefColorTversky>
0.197 

> <ROCS_RefTverskyCombo>
0.495 

> <ROCS_FitTversky>
1.682 

> <ROCS_FitColorTversky>
0.729 

> <ROCS_FitTverskyCombo>
2.410 

> <ROCS_ColorScore>
-6.001

> <ROCS_Overlap>
2068.953

> <ROCS_Rank>
358                 

$$$$
untitled-dbase-6908_5640
  -OEChem-11132309573D

 43 45  0     0  0  0  0  0  0999 V2000
    5.7932   12.3862   28.8114 C   0  0  0  0  0  0  0  0  0  0  0  0
    6.3270   12.6282   27.5505 C   0  0  0  0  0  0  0  0  0  0  0  0
    4.4495   12.0588   28.8950 C   0  0  0  0  0  0  0  0  0  0  0  0
    4.1811   12.2023   26.6178 C   0  0  0  0  0  0  0  0  0  0  0  0
    5.5122   12.5367   26.4276 C   0  0  0  0  0  0  0  0  0  0  0  0
    9.0287   11.4134   23.8152 C   0  0  0  0  0  0  0  0  0  0  0  0
    7.2325   11.9795   24.6713 C   0  0  0  0  0  0  0  0  0  0  0  0
   12.0514   14.9078   21.4344 C   0  0  0  0  0  0  0  0  0  0  0  0
   10.9783   14.8745   22.2305 C   0  0  0  0  0  0  0  0  0  0  0  0
   10.7410   13.7109   23.1258 C   0  0  0  0  0  0  0  0  0  0  0  0
   11.5089    8.4885   23.5088 C   0  0  0  0  0  0  0  0  0  0  0  0
   11.4978    9.5346   24.6161 C   0  0  0  0  0  0  0  0  0  0  0  0
   10.3859    8.7216   22.5059 C   0  0  0  0  0  0  0  0  0  0  0  0
   11.5478   10.9484   24.0380 C   0  0  0  0  0  0  0  0  0  0  0  0
   10.3860   10.1553   21.9659 C   0  0  0  0  0  0  0  0  0  0  0  0
   10.3735   11.2479   23.0661 C   0  0  0  0  0  0  0  0  0  0  0  0
    6.0675   12.7956   25.0305 C   0  0  0  0  0  0  0  0  0  0  0  0
    3.6267   11.9602   27.8268 N   0  0  0  0  0  0  0  0  0  0  0  0
    8.2244   12.4453   23.8581 N   0  0  0  0  0  0  0  0  0  0  0  0
    7.3889   10.7311   25.1218 N   0  0  0  0  0  0  0  0  0  0  0  0
   10.6151   12.5319   22.4133 N   0  0  0  0  0  0  0  0  0  0  0  0
   10.6684   13.8204   24.3456 O   0  0  0  0  0  0  0  0  0  0  0  0
    8.6048   10.3468   24.5426 O   0  0  0  0  0  0  0  0  0  0  0  0
    6.4096   12.4516   29.7007 H   0  0  0  0  0  0  0  0  0  0  0  0
    7.3777   12.8871   27.4526 H   0  0  0  0  0  0  0  0  0  0  0  0
    3.9854   11.8611   29.8556 H   0  0  0  0  0  0  0  0  0  0  0  0
    3.4972   12.1158   25.7791 H   0  0  0  0  0  0  0  0  0  0  0  0
   12.2172   15.7597   20.7832 H   0  0  0  0  0  0  0  0  0  0  0  0
   12.7830   14.1078   21.4060 H   0  0  0  0  0  0  0  0  0  0  0  0
   10.2705   15.6963   22.2287 H   0  0  0  0  0  0  0  0  0  0  0  0
   12.4756    8.5073   22.9918 H   0  0  0  0  0  0  0  0  0  0  0  0
   11.4038    7.4889   23.9497 H   0  0  0  0  0  0  0  0  0  0  0  0
   10.5960    9.4176   25.2212 H   0  0  0  0  0  0  0  0  0  0  0  0
   12.3532    9.3761   25.2779 H   0  0  0  0  0  0  0  0  0  0  0  0
   10.4802    8.0107   21.6728 H   0  0  0  0  0  0  0  0  0  0  0  0
    9.4189    8.5131   22.9843 H   0  0  0  0  0  0  0  0  0  0  0  0
   11.5234   11.6659   24.8684 H   0  0  0  0  0  0  0  0  0  0  0  0
   12.5090   11.1042   23.5339 H   0  0  0  0  0  0  0  0  0  0  0  0
   11.2580   10.2915   21.3052 H   0  0  0  0  0  0  0  0  0  0  0  0
    9.5066   10.2830   21.3120 H   0  0  0  0  0  0  0  0  0  0  0  0
    5.2335   12.6633   24.3054 H   0  0  0  0  0  0  0  0  0  0  0  0
    6.2873   13.8836   24.9500 H   0  0  0  0  0  0  0  0  0  0  0  0
   10.6581   12.5399   21.3993 H   0  0  0  0  0  0  0  0  0  0  0  0
  1  2  2  0  0  0  0
  1  3  1  0  0  0  0
  2  5  1  0  0  0  0
  3 18  2  0  0  0  0
  4  5  2  0  0  0  0
  4 18  1  0  0  0  0
  5 17  1  0  0  0  0
  6 16  1  0  0  0  0
  6 19  2  0  0  0  0
  6 23  1  0  0  0  0
  7 17  1  0  0  0  0
  7 19  1  0  0  0  0
  7 20  2  0  0  0  0
  8  9  2  0  0  0  0
  9 10  1  0  0  0  0
 10 21  1  0  0  0  0
 10 22  2  0  0  0  0
 11 12  1  0  0  0  0
 11 13  1  0  0  0  0
 12 14  1  0  0  0  0
 13 15  1  0  0  0  0
 14 16  1  0  0  0  0
 15 16  1  0  0  0  0
 16 21  1  0  0  0  0
 20 23  1  0  0  0  0
  1 24  1  0  0  0  0
  2 25  1  0  0  0  0
  3 26  1  0  0  0  0
  4 27  1  0  0  0  0
  8 28  1  0  0  0  0
  8 29  1  0  0  0  0
  9 30  1  0  0  0  0
 11 31  1  0  0  0  0
 11 32  1  0  0  0  0
 12 33  1  0  0  0  0
 12 34  1  0  0  0  0
 13 35  1  0  0  0  0
 13 36  1  0  0  0  0
 14 37  1  0  0  0  0
 14 38  1  0  0  0  0
 15 39  1  0  0  0  0
 15 40  1  0  0  0  0
 17 41  1  0  0  0  0
 17 42  1  0  0  0  0
 21 43  1  0  0  0  0
M  END
> <Catalog ID>
Z3405283552

> <MW>
312.366

> <MW (desalted)>
312.366

> <ClogP>
0.898

> <logS>
-2.628

> <HBD>
1

> <HBA>
4

> <TPSA>
80.91

> <RotBonds>
5

> <ROCS_ShapeQuery>
A71EV2A-x0451_0A_A71EV2A-x0310_0A_A71EV2A-x0416_0A_peptide

> <ROCS_TanimotoCombo>
0.522 

> <ROCS_ShapeTanimoto>
0.335 

> <ROCS_ColorTanimoto>
0.188 

> <ROCS_RefTversky>
0.300 

> <ROCS_RefColorTversky>
0.210 

> <ROCS_RefTverskyCombo>
0.510 

> <ROCS_FitTversky>
1.545 

> <ROCS_FitColorTversky>
0.634 

> <ROCS_FitTverskyCombo>
2.179 

> <ROCS_ColorScore>
-6.432

> <ROCS_Overlap>
2080.986

> <ROCS_Rank>
359                 

$$$$
untitled-dbase-3374_540
  -OEChem-11132309573D

 50 53  0     1  0  0  0  0  0999 V2000
   10.3509   13.6739   20.7807 C   0  0  0  0  0  0  0  0  0  0  0  0
   10.7313   14.2790   19.5828 C   0  0  0  0  0  0  0  0  0  0  0  0
   12.0050   14.9752   21.9688 C   0  0  0  0  0  0  0  0  0  0  0  0
   10.9871   14.0215   21.9723 C   0  0  0  0  0  0  0  0  0  0  0  0
   11.7679   15.2141   19.5739 C   0  0  0  0  0  0  0  0  0  0  0  0
   12.4045   15.5624   20.7669 C   0  0  0  0  0  0  0  0  0  0  0  0
    6.3501    6.6117   25.8869 C   0  0  0  0  0  0  0  0  0  0  0  0
    6.2400    6.7632   24.5636 C   0  0  0  0  0  0  0  0  0  0  0  0
   10.5888   13.3646   23.2444 C   0  0  0  0  0  0  0  0  0  0  0  0
    7.1952    7.6300   23.8231 C   0  0  0  0  0  0  0  0  0  0  0  0
    6.3288   12.1328   25.2573 C   0  0  0  0  0  0  0  0  0  0  0  0
    7.2076   12.4403   24.0182 C   0  0  0  0  0  0  0  0  0  0  0  0
    7.5485   11.4037   25.8750 C   0  0  0  0  0  0  0  0  0  0  0  0
   14.3883   16.5024   18.6170 C   0  0  0  0  0  0  0  0  0  0  0  0
    9.5105    9.8083   24.0000 C   0  0  0  0  0  0  0  0  0  0  0  0
   13.3849   15.5708   17.9489 C   0  0  0  0  0  0  0  0  0  0  0  0
   14.5341   16.1996   20.1030 C   0  0  0  0  0  0  0  0  0  0  0  0
    9.5864   11.3389   24.2680 C   0  0  2  0  0  0  0  0  0  0  0  0
    7.9928    9.9744   23.7069 C   0  0  2  0  0  0  0  0  0  0  0  0
    8.0851   11.2897   24.4587 C   0  0  0  0  0  0  0  0  0  0  0  0
   10.0493   12.1045   23.1121 N   0  0  0  0  0  0  0  0  0  0  0  0
    7.1524    8.9321   24.2758 N   0  0  0  0  0  0  0  0  0  0  0  0
   10.7385   13.9684   24.3034 O   0  0  0  0  0  0  0  0  0  0  0  0
    7.9136    7.2036   22.9247 O   0  0  0  0  0  0  0  0  0  0  0  0
   12.0484   15.8301   18.3848 O   0  0  0  0  0  0  0  0  0  0  0  0
   13.3543   16.5449   20.8326 O   0  0  0  0  0  0  0  0  0  0  0  0
    9.5505   12.9378   20.7754 H   0  0  0  0  0  0  0  0  0  0  0  0
   10.2014   14.0323   18.6696 H   0  0  0  0  0  0  0  0  0  0  0  0
   12.5007   15.2444   22.8959 H   0  0  0  0  0  0  0  0  0  0  0  0
    5.6488    5.9785   26.4203 H   0  0  0  0  0  0  0  0  0  0  0  0
    7.1237    7.1005   26.4687 H   0  0  0  0  0  0  0  0  0  0  0  0
    5.4513    6.2557   24.0188 H   0  0  0  0  0  0  0  0  0  0  0  0
    5.9683   13.0041   25.8100 H   0  0  0  0  0  0  0  0  0  0  0  0
    5.4815   11.4714   25.0426 H   0  0  0  0  0  0  0  0  0  0  0  0
    6.7040   12.3394   23.0531 H   0  0  0  0  0  0  0  0  0  0  0  0
    7.6867   13.4250   24.0671 H   0  0  0  0  0  0  0  0  0  0  0  0
    8.1437   12.0503   26.5313 H   0  0  0  0  0  0  0  0  0  0  0  0
    7.3231   10.4815   26.4160 H   0  0  0  0  0  0  0  0  0  0  0  0
   15.3690   16.4044   18.1447 H   0  0  0  0  0  0  0  0  0  0  0  0
   14.0538   17.5328   18.4723 H   0  0  0  0  0  0  0  0  0  0  0  0
   10.1080    9.4328   23.1635 H   0  0  0  0  0  0  0  0  0  0  0  0
    9.7418    9.2052   24.8869 H   0  0  0  0  0  0  0  0  0  0  0  0
   13.4570   15.6157   16.8511 H   0  0  0  0  0  0  0  0  0  0  0  0
   13.6224   14.5338   18.2206 H   0  0  0  0  0  0  0  0  0  0  0  0
   14.8127   15.1490   20.2781 H   0  0  0  0  0  0  0  0  0  0  0  0
   15.3590   16.7976   20.5119 H   0  0  0  0  0  0  0  0  0  0  0  0
   10.1674   11.6010   25.1585 H   0  0  0  0  0  0  0  0  0  0  0  0
    7.7864   10.0959   22.6360 H   0  0  0  0  0  0  0  0  0  0  0  0
    9.8934   11.6855   22.2093 H   0  0  0  0  0  0  0  0  0  0  0  0
    6.5061    9.2086   25.0030 H   0  0  0  0  0  0  0  0  0  0  0  0
  1  2  2  0  0  0  0
  1  4  1  0  0  0  0
  2  5  1  0  0  0  0
  3  4  2  0  0  0  0
  3  6  1  0  0  0  0
  4  9  1  0  0  0  0
  5  6  2  0  0  0  0
  5 25  1  0  0  0  0
  6 26  1  0  0  0  0
  7  8  2  0  0  0  0
  8 10  1  0  0  0  0
  9 21  1  0  0  0  0
  9 23  2  0  0  0  0
 10 22  1  0  0  0  0
 10 24  2  0  0  0  0
 11 12  1  0  0  0  0
 11 13  1  0  0  0  0
 12 20  1  0  0  0  0
 13 20  1  0  0  0  0
 14 16  1  0  0  0  0
 14 17  1  0  0  0  0
 15 18  1  0  0  0  0
 15 19  1  0  0  0  0
 16 25  1  0  0  0  0
 17 26  1  0  0  0  0
 18 20  1  0  0  0  0
 18 21  1  0  0  0  0
 19 20  1  0  0  0  0
 19 22  1  0  0  0  0
  1 27  1  0  0  0  0
  2 28  1  0  0  0  0
  3 29  1  0  0  0  0
  7 30  1  0  0  0  0
  7 31  1  0  0  0  0
  8 32  1  0  0  0  0
 11 33  1  0  0  0  0
 11 34  1  0  0  0  0
 12 35  1  0  0  0  0
 12 36  1  0  0  0  0
 13 37  1  0  0  0  0
 13 38  1  0  0  0  0
 14 39  1  0  0  0  0
 14 40  1  0  0  0  0
 15 41  1  0  0  0  0
 15 42  1  0  0  0  0
 16 43  1  0  0  0  0
 16 44  1  0  0  0  0
 17 45  1  0  0  0  0
 17 46  1  0  0  0  0
 18 47  1  0  0  0  0
 19 48  1  0  0  0  0
 21 49  1  0  0  0  0
 22 50  1  0  0  0  0
M  END
> <Catalog ID>
Z4425282910

> <MW>
356.416

> <MW (desalted)>
356.416

> <ClogP>
2.673

> <logS>
-4.891

> <HBD>
2

> <HBA>
4

> <TPSA>
76.66

> <RotBonds>
4

> <ROCS_ShapeQuery>
A71EV2A-x0451_0A_A71EV2A-x0310_0A_A71EV2A-x0416_0A_peptide

> <ROCS_TanimotoCombo>
0.522 

> <ROCS_ShapeTanimoto>
0.341 

> <ROCS_ColorTanimoto>
0.181 

> <ROCS_RefTversky>
0.309 

> <ROCS_RefColorTversky>
0.214 

> <ROCS_RefTverskyCombo>
0.522 

> <ROCS_FitTversky>
1.448 

> <ROCS_FitColorTversky>
0.544 

> <ROCS_FitTverskyCombo>
1.992 

> <ROCS_ColorScore>
-6.559

> <ROCS_Overlap>
2146.146

> <ROCS_Rank>
360                 

$$$$
untitled-dbase-6697_5989
  -OEChem-11132309573D

 54 57  0     1  0  0  0  0  0999 V2000
   13.3907   12.5530   24.1465 C   0  0  0  0  0  0  0  0  0  0  0  0
    4.8160   11.6152   27.0653 C   0  0  0  0  0  0  0  0  0  0  0  0
   12.2973   19.7876   22.1686 C   0  0  0  0  0  0  0  0  0  0  0  0
   11.2806   20.1570   21.2850 C   0  0  0  0  0  0  0  0  0  0  0  0
   10.4983    9.2431   21.8033 C   0  0  0  0  0  0  0  0  0  0  0  0
    9.5529    7.5878   23.2876 C   0  0  0  0  0  0  0  0  0  0  0  0
   12.4646   18.4528   22.5586 C   0  0  0  0  0  0  0  0  0  0  0  0
   10.3959   19.2095   20.7595 C   0  0  0  0  0  0  0  0  0  0  0  0
   11.0253    8.2272   21.0060 C   0  0  0  0  0  0  0  0  0  0  0  0
   10.0799    6.5718   22.4902 C   0  0  0  0  0  0  0  0  0  0  0  0
    8.9546   11.7219   25.0756 C   0  0  0  0  0  0  0  0  0  0  0  0
    9.7621    8.9234   22.9442 C   0  0  0  0  0  0  0  0  0  0  0  0
    9.9258   10.9875   24.4400 C   0  0  0  0  0  0  0  0  0  0  0  0
   11.5846   17.4877   22.0405 C   0  0  0  0  0  0  0  0  0  0  0  0
   10.5813   17.8864   21.1618 C   0  0  0  0  0  0  0  0  0  0  0  0
   10.8161    6.8916   21.3494 C   0  0  0  0  0  0  0  0  0  0  0  0
    9.2171    9.9734   23.7683 C   0  0  0  0  0  0  0  0  0  0  0  0
   10.5223   15.7062   21.5331 C   0  0  0  0  0  0  0  0  0  0  0  0
   11.3718   11.2542   24.4900 C   0  0  0  0  0  0  0  0  0  0  0  0
   11.9764   12.3785   24.0591 C   0  0  0  0  0  0  0  0  0  0  0  0
   11.0819   13.4562   23.5007 C   0  0  0  0  0  0  0  0  0  0  0  0
    8.5756   14.1250   21.8522 C   0  0  0  0  0  0  0  0  0  0  0  0
    6.1515   11.1667   26.6455 C   0  0  0  0  0  0  0  0  0  0  0  0
    6.4580   11.5417   25.1950 C   0  0  0  0  0  0  0  0  0  0  0  0
   10.0423   14.3167   21.4149 C   0  0  2  0  0  0  0  0  0  0  0  0
   14.5399   12.6988   24.2163 N   0  0  0  0  0  0  0  0  0  0  0  0
    3.7617   11.9677   27.3979 N   0  0  0  0  0  0  0  0  0  0  0  0
   11.5324   16.1301   22.2591 N   0  0  0  0  0  0  0  0  0  0  0  0
    7.8976   10.0532   23.9594 N   0  0  0  0  0  0  0  0  0  0  0  0
    9.9174   16.7267   20.8536 N   0  0  0  0  0  0  0  0  0  0  0  0
    7.7694   11.1260   24.7585 N   0  0  0  0  0  0  0  0  0  0  0  0
   10.8816   13.3675   22.1392 N   0  0  0  0  0  0  0  0  0  0  0  0
   10.5860   14.3216   24.2206 O   0  0  0  0  0  0  0  0  0  0  0  0
   11.4669    5.6374   20.3670 Cl  0  0  0  0  0  0  0  0  0  0  0  0
   12.9697   20.5471   22.5597 H   0  0  0  0  0  0  0  0  0  0  0  0
   11.1733   21.2010   21.0007 H   0  0  0  0  0  0  0  0  0  0  0  0
   10.6706   10.2793   21.5212 H   0  0  0  0  0  0  0  0  0  0  0  0
    8.9812    7.3225   24.1739 H   0  0  0  0  0  0  0  0  0  0  0  0
   13.2585   18.1764   23.2449 H   0  0  0  0  0  0  0  0  0  0  0  0
    9.6069   19.4942   20.0728 H   0  0  0  0  0  0  0  0  0  0  0  0
   11.5969    8.4910   20.1199 H   0  0  0  0  0  0  0  0  0  0  0  0
    9.9099    5.5357   22.7709 H   0  0  0  0  0  0  0  0  0  0  0  0
    9.0011   12.5962   25.7113 H   0  0  0  0  0  0  0  0  0  0  0  0
   11.9470   10.4288   24.9039 H   0  0  0  0  0  0  0  0  0  0  0  0
    8.4410   14.4524   22.8890 H   0  0  0  0  0  0  0  0  0  0  0  0
    7.8846   14.6975   21.2232 H   0  0  0  0  0  0  0  0  0  0  0  0
    8.2732   13.0736   21.7880 H   0  0  0  0  0  0  0  0  0  0  0  0
    6.9007   11.6350   27.2946 H   0  0  0  0  0  0  0  0  0  0  0  0
    6.2378   10.0836   26.7894 H   0  0  0  0  0  0  0  0  0  0  0  0
    6.4160   12.6311   25.0731 H   0  0  0  0  0  0  0  0  0  0  0  0
    5.7183   11.1139   24.5073 H   0  0  0  0  0  0  0  0  0  0  0  0
   10.0957   13.9651   20.3632 H   0  0  0  0  0  0  0  0  0  0  0  0
    9.1229   16.6442   20.2331 H   0  0  0  0  0  0  0  0  0  0  0  0
   11.3295   12.6226   21.6275 H   0  0  0  0  0  0  0  0  0  0  0  0
  1 20  1  0  0  0  0
  1 26  3  0  0  0  0
  2 23  1  0  0  0  0
  2 27  3  0  0  0  0
  3  4  1  0  0  0  0
  3  7  2  0  0  0  0
  4  8  2  0  0  0  0
  5  9  2  0  0  0  0
  5 12  1  0  0  0  0
  6 10  1  0  0  0  0
  6 12  2  0  0  0  0
  7 14  1  0  0  0  0
  8 15  1  0  0  0  0
  9 16  1  0  0  0  0
 10 16  2  0  0  0  0
 11 13  2  0  0  0  0
 11 31  1  0  0  0  0
 12 17  1  0  0  0  0
 13 17  1  0  0  0  0
 13 19  1  4  0  0  0
 14 15  2  0  0  0  0
 14 28  1  0  0  0  0
 15 30  1  0  0  0  0
 16 34  1  0  0  0  0
 17 29  2  0  0  0  0
 18 25  1  0  0  0  0
 18 28  2  0  0  0  0
 18 30  1  0  0  0  0
 19 20  2  0  0  0  0
 20 21  1  0  0  0  0
 21 32  1  0  0  0  0
 21 33  2  0  0  0  0
 22 25  1  1  0  0  0
 23 24  1  0  0  0  0
 24 31  1  0  0  0  0
 25 32  1  0  0  0  0
 29 31  1  0  0  0  0
  3 35  1  0  0  0  0
  4 36  1  0  0  0  0
  5 37  1  0  0  0  0
  6 38  1  0  0  0  0
  7 39  1  0  0  0  0
  8 40  1  0  0  0  0
  9 41  1  0  0  0  0
 10 42  1  0  0  0  0
 11 43  1  0  0  0  0
 19 44  1  0  0  0  0
 22 45  1  0  0  0  0
 22 46  1  0  0  0  0
 22 47  1  0  0  0  0
 23 48  1  0  0  0  0
 23 49  1  0  0  0  0
 24 50  1  0  0  0  0
 24 51  1  0  0  0  0
 25 52  1  0  0  0  0
 30 53  1  0  0  0  0
 32 54  1  0  0  0  0
M  END
> <Catalog ID>
Z196863728

> <MW>
469.926

> <MW (desalted)>
469.926

> <ClogP>
3.199

> <logS>
-6.008

> <HBD>
2

> <HBA>
5

> <TPSA>
123.18

> <RotBonds>
7

> <ROCS_ShapeQuery>
A71EV2A-x0451_0A_A71EV2A-x0310_0A_A71EV2A-x0416_0A_peptide

> <ROCS_TanimotoCombo>
0.522 

> <ROCS_ShapeTanimoto>
0.318 

> <ROCS_ColorTanimoto>
0.205 

> <ROCS_RefTversky>
0.305 

> <ROCS_RefColorTversky>
0.242 

> <ROCS_RefTverskyCombo>
0.546 

> <ROCS_FitTversky>
1.156 

> <ROCS_FitColorTversky>
0.571 

> <ROCS_FitTverskyCombo>
1.727 

> <ROCS_ColorScore>
-7.430

> <ROCS_Overlap>
2124.579

> <ROCS_Rank>
361                 

$$$$
untitled-dbase-3582_2599
  -OEChem-11132309573D

 44 45  0     1  0  0  0  0  0999 V2000
   14.3564   16.3917   19.5381 C   0  0  0  0  0  0  0  0  0  0  0  0
   13.5531   16.2155   18.4115 C   0  0  0  0  0  0  0  0  0  0  0  0
    8.2181   12.6352   24.4469 C   0  0  0  0  0  0  0  0  0  0  0  0
   13.9163   15.9472   20.7849 C   0  0  0  0  0  0  0  0  0  0  0  0
    7.1188   12.1697   25.1681 C   0  0  0  0  0  0  0  0  0  0  0  0
   12.3097   15.5950   18.5316 C   0  0  0  0  0  0  0  0  0  0  0  0
    8.6801   10.3849   23.6986 C   0  0  0  0  0  0  0  0  0  0  0  0
    8.9988   11.7428   23.7120 C   0  0  0  0  0  0  0  0  0  0  0  0
    7.5807    9.9194   24.4199 C   0  0  0  0  0  0  0  0  0  0  0  0
   12.6728   15.3267   20.9051 C   0  0  0  0  0  0  0  0  0  0  0  0
    6.8000   10.8119   25.1547 C   0  0  0  0  0  0  0  0  0  0  0  0
   11.8695   15.1506   19.7784 C   0  0  0  0  0  0  0  0  0  0  0  0
    7.3203    5.2477   23.0378 C   0  0  0  0  0  0  0  0  0  0  0  0
    7.2742    6.2068   23.9678 C   0  0  0  0  0  0  0  0  0  0  0  0
    7.9270    7.5268   23.7297 C   0  0  0  0  0  0  0  0  0  0  0  0
   10.8876   13.3074   23.3165 C   0  0  0  0  0  0  0  0  0  0  0  0
   13.8684   13.2412   24.0217 C   0  0  0  0  0  0  0  0  0  0  0  0
   13.2978   12.7932   22.6806 C   0  0  0  0  0  0  0  0  0  0  0  0
   12.0032   13.5138   22.2910 C   0  0  2  0  0  0  0  0  0  0  0  0
    7.2636    8.5606   24.4047 N   0  0  0  0  0  0  0  0  0  0  0  0
   10.0999   12.2093   22.9897 N   0  0  0  0  0  0  0  0  0  0  0  0
    8.9202    7.6254   23.0188 O   0  0  0  0  0  0  0  0  0  0  0  0
   10.7583   14.0700   24.2696 O   0  0  0  0  0  0  0  0  0  0  0  0
   12.2656   14.8996   22.1437 O   0  0  0  0  0  0  0  0  0  0  0  0
    5.7414   10.3760   25.8520 F   0  0  0  0  0  0  0  0  0  0  0  0
   10.3275   14.3866   19.8977 Cl  0  0  0  0  0  0  0  0  0  0  0  0
   15.3245   16.8749   19.4446 H   0  0  0  0  0  0  0  0  0  0  0  0
   13.8960   16.5616   17.4408 H   0  0  0  0  0  0  0  0  0  0  0  0
    8.4570   13.6957   24.4649 H   0  0  0  0  0  0  0  0  0  0  0  0
   14.5474   16.0878   21.6583 H   0  0  0  0  0  0  0  0  0  0  0  0
    6.5104   12.8642   25.7400 H   0  0  0  0  0  0  0  0  0  0  0  0
   11.6955   15.4651   17.6442 H   0  0  0  0  0  0  0  0  0  0  0  0
    9.2895    9.6891   23.1252 H   0  0  0  0  0  0  0  0  0  0  0  0
    6.8578    4.2768   23.1754 H   0  0  0  0  0  0  0  0  0  0  0  0
    7.8363    5.4260   22.1002 H   0  0  0  0  0  0  0  0  0  0  0  0
    6.7583    6.0296   24.9053 H   0  0  0  0  0  0  0  0  0  0  0  0
   14.0402   14.3217   24.0420 H   0  0  0  0  0  0  0  0  0  0  0  0
   13.1977   12.9821   24.8466 H   0  0  0  0  0  0  0  0  0  0  0  0
   14.8279   12.7463   24.2037 H   0  0  0  0  0  0  0  0  0  0  0  0
   13.1422   11.7088   22.7050 H   0  0  0  0  0  0  0  0  0  0  0  0
   14.0556   12.9938   21.9131 H   0  0  0  0  0  0  0  0  0  0  0  0
   11.6600   13.1368   21.3202 H   0  0  0  0  0  0  0  0  0  0  0  0
    6.4426    8.2838   24.9563 H   0  0  0  0  0  0  0  0  0  0  0  0
   10.3485   11.6979   22.1461 H   0  0  0  0  0  0  0  0  0  0  0  0
  1  2  1  0  0  0  0
  1  4  2  0  0  0  0
  2  6  2  0  0  0  0
  3  5  2  0  0  0  0
  3  8  1  0  0  0  0
  4 10  1  0  0  0  0
  5 11  1  0  0  0  0
  6 12  1  0  0  0  0
  7  8  2  0  0  0  0
  7  9  1  0  0  0  0
  8 21  1  0  0  0  0
  9 11  2  0  0  0  0
  9 20  1  0  0  0  0
 10 12  2  0  0  0  0
 10 24  1  0  0  0  0
 11 25  1  0  0  0  0
 12 26  1  0  0  0  0
 13 14  2  0  0  0  0
 14 15  1  0  0  0  0
 15 20  1  0  0  0  0
 15 22  2  0  0  0  0
 16 19  1  0  0  0  0
 16 21  1  0  0  0  0
 16 23  2  0  0  0  0
 17 18  1  0  0  0  0
 18 19  1  0  0  0  0
 19 24  1  0  0  0  0
  1 27  1  0  0  0  0
  2 28  1  0  0  0  0
  3 29  1  0  0  0  0
  4 30  1  0  0  0  0
  5 31  1  0  0  0  0
  6 32  1  0  0  0  0
  7 33  1  0  0  0  0
 13 34  1  0  0  0  0
 13 35  1  0  0  0  0
 14 36  1  0  0  0  0
 17 37  1  0  0  0  0
 17 38  1  0  0  0  0
 17 39  1  0  0  0  0
 18 40  1  0  0  0  0
 18 41  1  0  0  0  0
 19 42  1  0  0  0  0
 20 43  1  0  0  0  0
 21 44  1  0  0  0  0
M  END
> <Catalog ID>
Z1410274627

> <MW>
376.809

> <MW (desalted)>
376.809

> <ClogP>
3.29

> <logS>
-6.064

> <HBD>
2

> <HBA>
3

> <TPSA>
67.43

> <RotBonds>
7

> <ROCS_ShapeQuery>
A71EV2A-x0451_0A_A71EV2A-x0310_0A_A71EV2A-x0416_0A_peptide

> <ROCS_TanimotoCombo>
0.522 

> <ROCS_ShapeTanimoto>
0.355 

> <ROCS_ColorTanimoto>
0.168 

> <ROCS_RefTversky>
0.316 

> <ROCS_RefColorTversky>
0.191 

> <ROCS_RefTverskyCombo>
0.508 

> <ROCS_FitTversky>
1.514 

> <ROCS_FitColorTversky>
0.577 

> <ROCS_FitTverskyCombo>
2.091 

> <ROCS_ColorScore>
-5.848

> <ROCS_Overlap>
2200.204

> <ROCS_Rank>
362                 

$$$$
untitled-dbase-4913_1271
  -OEChem-11132309573D

 50 52  0     1  0  0  0  0  0999 V2000
    6.7067   12.2248   26.2255 C   0  0  0  0  0  0  0  0  0  0  0  0
    9.1403    9.7565   23.2525 C   0  0  0  0  0  0  0  0  0  0  0  0
    6.7573   10.9458   25.7201 C   0  0  0  0  0  0  0  0  0  0  0  0
    7.8050   10.7824   24.7651 C   0  0  0  0  0  0  0  0  0  0  0  0
    8.5249   11.9612   24.5753 C   0  0  0  0  0  0  0  0  0  0  0  0
    9.5833   11.9726   23.6743 C   0  0  0  0  0  0  0  0  0  0  0  0
   17.0946   10.9449   26.6099 C   0  0  0  0  0  0  0  0  0  0  0  0
   16.3680   11.0255   25.4911 C   0  0  0  0  0  0  0  0  0  0  0  0
   10.4046   13.1576   23.3961 C   0  0  0  0  0  0  0  0  0  0  0  0
   15.2455   11.9960   25.3907 C   0  0  0  0  0  0  0  0  0  0  0  0
   10.0991   13.8596   19.8822 C   0  0  0  0  0  0  0  0  0  0  0  0
   11.0010   15.0839   20.0622 C   0  0  0  0  0  0  0  0  0  0  0  0
   10.3898   12.7495   20.8896 C   0  0  0  0  0  0  0  0  0  0  0  0
   12.3940   14.7211   20.6031 C   0  0  1  0  0  0  0  0  0  0  0  0
   12.2574   13.9998   21.9764 C   0  0  2  0  0  0  0  0  0  0  0  0
    5.8257    9.8664   26.1280 C   0  0  0  0  0  0  0  0  0  0  0  0
   13.2134   13.9767   19.5426 C   0  0  0  0  0  0  0  0  0  0  0  0
   13.4290   13.0817   22.3303 C   0  0  0  0  0  0  0  0  0  0  0  0
   13.4960   12.7772   23.8177 C   0  0  0  0  0  0  0  0  0  0  0  0
    8.1022    9.6360   24.0968 N   0  0  0  0  0  0  0  0  0  0  0  0
    9.8914   10.8451   23.0035 N   0  0  0  0  0  0  0  0  0  0  0  0
   10.9684   13.2906   22.1210 N   0  0  0  0  0  0  0  0  0  0  0  0
   14.6091   11.9350   24.1578 N   0  0  0  0  0  0  0  0  0  0  0  0
   10.5243   13.9645   24.3172 O   0  0  0  0  0  0  0  0  0  0  0  0
   14.9427   12.7524   26.3080 O   0  0  0  0  0  0  0  0  0  0  0  0
    7.9150   13.2307   25.5558 S   0  0  0  0  0  0  0  0  0  0  0  0
    6.0185   12.6213   26.9591 H   0  0  0  0  0  0  0  0  0  0  0  0
    9.4073    8.8622   22.7004 H   0  0  0  0  0  0  0  0  0  0  0  0
   17.9113   10.2337   26.6760 H   0  0  0  0  0  0  0  0  0  0  0  0
   16.9055   11.5699   27.4758 H   0  0  0  0  0  0  0  0  0  0  0  0
   16.5907   10.3819   24.6470 H   0  0  0  0  0  0  0  0  0  0  0  0
    9.0452   14.1671   19.9752 H   0  0  0  0  0  0  0  0  0  0  0  0
   10.2158   13.4683   18.8601 H   0  0  0  0  0  0  0  0  0  0  0  0
   11.0921   15.6136   19.0978 H   0  0  0  0  0  0  0  0  0  0  0  0
   10.5062   15.7940   20.7472 H   0  0  0  0  0  0  0  0  0  0  0  0
    9.4695   12.2031   21.1040 H   0  0  0  0  0  0  0  0  0  0  0  0
   11.1036   12.0347   20.4737 H   0  0  0  0  0  0  0  0  0  0  0  0
   12.9126   15.6762   20.8015 H   0  0  0  0  0  0  0  0  0  0  0  0
   12.2887   14.8145   22.7411 H   0  0  0  0  0  0  0  0  0  0  0  0
    4.9355    9.8544   25.4822 H   0  0  0  0  0  0  0  0  0  0  0  0
    6.3014    8.8753   26.0714 H   0  0  0  0  0  0  0  0  0  0  0  0
    5.4901    9.9907   27.1692 H   0  0  0  0  0  0  0  0  0  0  0  0
   12.7388   13.0247   19.3134 H   0  0  0  0  0  0  0  0  0  0  0  0
   14.2189   13.7947   19.9166 H   0  0  0  0  0  0  0  0  0  0  0  0
   13.2712   14.5757   18.6360 H   0  0  0  0  0  0  0  0  0  0  0  0
   14.3530   13.5760   22.0203 H   0  0  0  0  0  0  0  0  0  0  0  0
   13.3359   12.1585   21.7529 H   0  0  0  0  0  0  0  0  0  0  0  0
   13.6169   13.7092   24.3787 H   0  0  0  0  0  0  0  0  0  0  0  0
   12.5835   12.2846   24.1681 H   0  0  0  0  0  0  0  0  0  0  0  0
   14.9563   11.2919   23.4467 H   0  0  0  0  0  0  0  0  0  0  0  0
  1  3  2  0  0  0  0
  1 26  1  0  0  0  0
  2 20  1  0  0  0  0
  2 21  2  0  0  0  0
  3  4  1  0  0  0  0
  3 16  1  0  0  0  0
  4  5  1  0  0  0  0
  4 20  2  0  0  0  0
  5  6  2  0  0  0  0
  5 26  1  0  0  0  0
  6  9  1  0  0  0  0
  6 21  1  0  0  0  0
  7  8  2  0  0  0  0
  8 10  1  0  0  0  0
  9 22  1  0  0  0  0
  9 24  2  0  0  0  0
 10 23  1  0  0  0  0
 10 25  2  0  0  0  0
 11 12  1  0  0  0  0
 11 13  1  0  0  0  0
 12 14  1  0  0  0  0
 13 22  1  0  0  0  0
 14 15  1  0  0  0  0
 14 17  1  0  0  0  0
 15 18  1  0  0  0  0
 15 22  1  0  0  0  0
 18 19  1  0  0  0  0
 19 23  1  0  0  0  0
  1 27  1  0  0  0  0
  2 28  1  0  0  0  0
  7 29  1  0  0  0  0
  7 30  1  0  0  0  0
  8 31  1  0  0  0  0
 11 32  1  0  0  0  0
 11 33  1  0  0  0  0
 12 34  1  0  0  0  0
 12 35  1  0  0  0  0
 13 36  1  0  0  0  0
 13 37  1  0  0  0  0
 14 38  1  0  0  0  0
 15 39  1  0  0  0  0
 16 40  1  0  0  0  0
 16 41  1  0  0  0  0
 16 42  1  0  0  0  0
 17 43  1  0  0  0  0
 17 44  1  0  0  0  0
 17 45  1  0  0  0  0
 18 46  1  0  0  0  0
 18 47  1  0  0  0  0
 19 48  1  0  0  0  0
 19 49  1  0  0  0  0
 23 50  1  0  0  0  0
M  END
> <Catalog ID>
Z4425283493

> <MW>
372.484

> <MW (desalted)>
372.484

> <ClogP>
2.159

> <logS>
-4.697

> <HBD>
1

> <HBA>
4

> <TPSA>
75.19

> <RotBonds>
5

> <ROCS_ShapeQuery>
A71EV2A-x0451_0A_A71EV2A-x0310_0A_A71EV2A-x0416_0A_peptide

> <ROCS_TanimotoCombo>
0.522 

> <ROCS_ShapeTanimoto>
0.356 

> <ROCS_ColorTanimoto>
0.167 

> <ROCS_RefTversky>
0.317 

> <ROCS_RefColorTversky>
0.190 

> <ROCS_RefTverskyCombo>
0.507 

> <ROCS_FitTversky>
1.519 

> <ROCS_FitColorTversky>
0.573 

> <ROCS_FitTverskyCombo>
2.092 

> <ROCS_ColorScore>
-5.815

> <ROCS_Overlap>
2205.084

> <ROCS_Rank>
363                 

$$$$
untitled-dbase-4978_359
  -OEChem-11132309573D

 39 41  0     1  0  0  0  0  0999 V2000
    6.5038   12.0764   25.9717 C   0  0  0  0  0  0  0  0  0  0  0  0
    6.0892   10.8719   25.3675 C   0  0  0  0  0  0  0  0  0  0  0  0
    7.7416   12.6470   25.6618 C   0  0  0  0  0  0  0  0  0  0  0  0
    6.9040   10.2146   24.4413 C   0  0  0  0  0  0  0  0  0  0  0  0
   12.1209   15.8493   19.1036 C   0  0  0  0  0  0  0  0  0  0  0  0
   13.3099   16.1891   18.4967 C   0  0  0  0  0  0  0  0  0  0  0  0
    8.5289   11.9811   24.7451 C   0  0  0  0  0  0  0  0  0  0  0  0
    8.1209   10.7962   24.1503 C   0  0  0  0  0  0  0  0  0  0  0  0
   12.2842   15.5949   20.4960 C   0  0  0  0  0  0  0  0  0  0  0  0
   13.5921   15.7497   20.9003 C   0  0  0  0  0  0  0  0  0  0  0  0
    9.8530   12.3174   24.2236 C   0  0  0  0  0  0  0  0  0  0  0  0
    9.1785   10.3578   23.2399 C   0  0  0  0  0  0  0  0  0  0  0  0
   14.1650   15.5887   22.1985 C   0  0  0  0  0  0  0  0  0  0  0  0
   10.7610   12.8319   20.0677 C   0  0  0  0  0  0  0  0  0  0  0  0
   11.4083   11.2619   22.5836 C   0  0  0  0  0  0  0  0  0  0  0  0
   11.9209   12.6482   22.2314 C   0  0  0  0  0  0  0  0  0  0  0  0
   10.1698   11.3113   23.3349 N   0  0  0  0  0  0  0  0  0  0  0  0
   10.9712   13.3905   21.4475 N   0  0  1  0  0  0  0  0  0  0  0  0
   10.4875   13.3023   24.5528 O   0  0  0  0  0  0  0  0  0  0  0  0
    9.1212    9.3445   22.5684 O   0  0  0  0  0  0  0  0  0  0  0  0
   13.7310   14.7983   23.0621 O   0  0  0  0  0  0  0  0  0  0  0  0
   11.3270   15.5088   22.9136 O   0  0  0  0  0  0  0  0  0  0  0  0
    9.7309   15.6734   20.9877 O   0  0  0  0  0  0  0  0  0  0  0  0
   14.6162   16.2003   19.6039 S   0  0  0  0  0  0  0  0  0  0  0  0
   10.9487   15.1335   21.5637 S   0  0  0  0  0  0  0  0  0  0  0  0
    5.8497   12.5662   26.6886 H   0  0  0  0  0  0  0  0  0  0  0  0
    5.1217   10.4501   25.6275 H   0  0  0  0  0  0  0  0  0  0  0  0
    8.0601   13.5726   26.1268 H   0  0  0  0  0  0  0  0  0  0  0  0
    6.5851    9.2889   23.9773 H   0  0  0  0  0  0  0  0  0  0  0  0
   11.1817   15.7879   18.5684 H   0  0  0  0  0  0  0  0  0  0  0  0
   13.4742   16.4314   17.4560 H   0  0  0  0  0  0  0  0  0  0  0  0
   15.0630   16.2079   22.4705 H   0  0  0  0  0  0  0  0  0  0  0  0
   10.0255   13.4485   19.5301 H   0  0  0  0  0  0  0  0  0  0  0  0
   11.7150   12.8386   19.5202 H   0  0  0  0  0  0  0  0  0  0  0  0
   10.3887   11.7996   20.1430 H   0  0  0  0  0  0  0  0  0  0  0  0
   12.1350   10.7087   23.1871 H   0  0  0  0  0  0  0  0  0  0  0  0
   11.2077   10.6921   21.6709 H   0  0  0  0  0  0  0  0  0  0  0  0
   12.1072   13.2258   23.1420 H   0  0  0  0  0  0  0  0  0  0  0  0
   12.8516   12.5953   21.6574 H   0  0  0  0  0  0  0  0  0  0  0  0
  1  2  1  0  0  0  0
  1  3  2  0  0  0  0
  2  4  2  0  0  0  0
  3  7  1  0  0  0  0
  4  8  1  0  0  0  0
  5  6  2  0  0  0  0
  5  9  1  0  0  0  0
  6 24  1  0  0  0  0
  7  8  2  0  0  0  0
  7 11  1  0  0  0  0
  8 12  1  0  0  0  0
  9 10  2  0  0  0  0
  9 25  1  0  0  0  0
 10 13  1  0  0  0  0
 10 24  1  0  0  0  0
 11 17  1  0  0  0  0
 11 19  2  0  0  0  0
 12 17  1  0  0  0  0
 12 20  2  0  0  0  0
 13 21  2  0  0  0  0
 14 18  1  0  0  0  0
 15 16  1  0  0  0  0
 15 17  1  0  0  0  0
 16 18  1  0  0  0  0
 18 25  1  0  0  0  0
 22 25  2  0  0  0  0
 23 25  2  0  0  0  0
  1 26  1  0  0  0  0
  2 27  1  0  0  0  0
  3 28  1  0  0  0  0
  4 29  1  0  0  0  0
  5 30  1  0  0  0  0
  6 31  1  0  0  0  0
 13 32  1  0  0  0  0
 14 33  1  0  0  0  0
 14 34  1  0  0  0  0
 14 35  1  0  0  0  0
 15 36  1  0  0  0  0
 15 37  1  0  0  0  0
 16 38  1  0  0  0  0
 16 39  1  0  0  0  0
M  END
> <Catalog ID>
Z5185631968

> <MW>
378.423

> <MW (desalted)>
378.423

> <ClogP>
2.224

> <logS>
-4.052

> <HBD>
0

> <HBA>
5

> <TPSA>
91.83

> <RotBonds>
5

> <ROCS_ShapeQuery>
A71EV2A-x0451_0A_A71EV2A-x0310_0A_A71EV2A-x0416_0A_peptide

> <ROCS_TanimotoCombo>
0.522 

> <ROCS_ShapeTanimoto>
0.357 

> <ROCS_ColorTanimoto>
0.165 

> <ROCS_RefTversky>
0.316 

> <ROCS_RefColorTversky>
0.185 

> <ROCS_RefTverskyCombo>
0.501 

> <ROCS_FitTversky>
1.556 

> <ROCS_FitColorTversky>
0.613 

> <ROCS_FitTverskyCombo>
2.169 

> <ROCS_ColorScore>
-5.641

> <ROCS_Overlap>
2199.287

> <ROCS_Rank>
364                 

$$$$
untitled-dbase-10208_3576
  -OEChem-11132309573D

 56 58  0     0  0  0  0  0  0999 V2000
   14.5588   17.2544   19.2971 C   0  0  0  0  0  0  0  0  0  0  0  0
   14.6206   16.2096   18.3625 C   0  0  0  0  0  0  0  0  0  0  0  0
    9.4825    9.7196   23.8360 C   0  0  0  0  0  0  0  0  0  0  0  0
    8.3881    9.2860   24.5842 C   0  0  0  0  0  0  0  0  0  0  0  0
   13.7883   17.1277   20.4546 C   0  0  0  0  0  0  0  0  0  0  0  0
   13.9124   15.0248   18.5734 C   0  0  0  0  0  0  0  0  0  0  0  0
    9.5680   11.0524   23.4333 C   0  0  0  0  0  0  0  0  0  0  0  0
    7.3791   10.1850   24.9297 C   0  0  0  0  0  0  0  0  0  0  0  0
   13.0963   15.9448   20.6597 C   0  0  0  0  0  0  0  0  0  0  0  0
   13.1577   14.9049   19.7293 C   0  0  0  0  0  0  0  0  0  0  0  0
    8.5591   11.9514   23.7788 C   0  0  0  0  0  0  0  0  0  0  0  0
    7.4646   11.5178   24.5270 C   0  0  0  0  0  0  0  0  0  0  0  0
    5.8498   16.0057   28.2656 C   0  0  0  0  0  0  0  0  0  0  0  0
    6.5373   15.0615   27.6159 C   0  0  0  0  0  0  0  0  0  0  0  0
    5.8930   14.2727   26.5321 C   0  0  0  0  0  0  0  0  0  0  0  0
   12.9906   13.3356   22.4796 C   0  0  0  0  0  0  0  0  0  0  0  0
   10.1061   13.8747   23.2446 C   0  0  0  0  0  0  0  0  0  0  0  0
   12.1953   15.6013   21.8055 C   0  0  0  0  0  0  0  0  0  0  0  0
   12.3034   13.7472   20.1457 C   0  0  0  0  0  0  0  0  0  0  0  0
   11.9755   14.0855   21.6171 C   0  0  0  0  0  0  0  0  0  0  0  0
   13.0690   11.6747   25.1442 C   0  0  0  0  0  0  0  0  0  0  0  0
    8.6733   13.3855   23.3341 C   0  0  0  0  0  0  0  0  0  0  0  0
    6.3718   12.4618   24.9082 C   0  0  0  0  0  0  0  0  0  0  0  0
   13.3119   11.3316   23.6899 C   0  0  0  0  0  0  0  0  0  0  0  0
    6.7612   13.3437   25.9781 N   0  0  0  0  0  0  0  0  0  0  0  0
   10.6314   13.6983   21.9689 N   0  0  0  0  0  0  0  0  0  0  0  0
    4.7283   14.4497   26.1897 O   0  0  0  0  0  0  0  0  0  0  0  0
   14.1017   13.7649   22.7596 O   0  0  0  0  0  0  0  0  0  0  0  0
   10.7143   14.3682   24.1908 O   0  0  0  0  0  0  0  0  0  0  0  0
   12.4618   12.1416   22.8716 O   0  0  0  0  0  0  0  0  0  0  0  0
   15.1127   18.1714   19.1151 H   0  0  0  0  0  0  0  0  0  0  0  0
   15.2215   16.3267   17.4648 H   0  0  0  0  0  0  0  0  0  0  0  0
   10.2673    9.0192   23.5666 H   0  0  0  0  0  0  0  0  0  0  0  0
    8.3220    8.2480   24.8972 H   0  0  0  0  0  0  0  0  0  0  0  0
   13.7364   17.9398   21.1720 H   0  0  0  0  0  0  0  0  0  0  0  0
   13.9549   14.2219   17.8452 H   0  0  0  0  0  0  0  0  0  0  0  0
   10.4241   11.3799   22.8492 H   0  0  0  0  0  0  0  0  0  0  0  0
    6.5306    9.8377   25.5133 H   0  0  0  0  0  0  0  0  0  0  0  0
    6.3263   16.5763   29.0559 H   0  0  0  0  0  0  0  0  0  0  0  0
    4.8152   16.2369   28.0371 H   0  0  0  0  0  0  0  0  0  0  0  0
    7.5713   14.8619   27.8754 H   0  0  0  0  0  0  0  0  0  0  0  0
   12.6570   15.8503   22.7664 H   0  0  0  0  0  0  0  0  0  0  0  0
   11.2594   16.1612   21.6936 H   0  0  0  0  0  0  0  0  0  0  0  0
   11.4007   13.7348   19.5237 H   0  0  0  0  0  0  0  0  0  0  0  0
   12.8383   12.7980   20.0364 H   0  0  0  0  0  0  0  0  0  0  0  0
   13.2952   12.7265   25.3400 H   0  0  0  0  0  0  0  0  0  0  0  0
   12.0268   11.4803   25.4178 H   0  0  0  0  0  0  0  0  0  0  0  0
   13.6907   11.0524   25.7964 H   0  0  0  0  0  0  0  0  0  0  0  0
    8.1969   13.5051   22.3527 H   0  0  0  0  0  0  0  0  0  0  0  0
    8.1244   14.0338   24.0287 H   0  0  0  0  0  0  0  0  0  0  0  0
    6.0754   13.0865   24.0550 H   0  0  0  0  0  0  0  0  0  0  0  0
    5.4732   11.9232   25.2365 H   0  0  0  0  0  0  0  0  0  0  0  0
   13.0838   10.2784   23.5008 H   0  0  0  0  0  0  0  0  0  0  0  0
   14.3534   11.5272   23.4180 H   0  0  0  0  0  0  0  0  0  0  0  0
    7.7227   13.2921   26.3091 H   0  0  0  0  0  0  0  0  0  0  0  0
   10.0419   13.2777   21.2526 H   0  0  0  0  0  0  0  0  0  0  0  0
  1  2  1  0  0  0  0
  1  5  2  0  0  0  0
  2  6  2  0  0  0  0
  3  4  1  0  0  0  0
  3  7  2  0  0  0  0
  4  8  2  0  0  0  0
  5  9  1  0  0  0  0
  6 10  1  0  0  0  0
  7 11  1  0  0  0  0
  8 12  1  0  0  0  0
  9 10  2  0  0  0  0
  9 18  1  0  0  0  0
 10 19  1  0  0  0  0
 11 12  2  0  0  0  0
 11 22  1  0  0  0  0
 12 23  1  0  0  0  0
 13 14  2  0  0  0  0
 14 15  1  0  0  0  0
 15 25  1  0  0  0  0
 15 27  2  0  0  0  0
 16 20  1  0  0  0  0
 16 28  2  0  0  0  0
 16 30  1  0  0  0  0
 17 22  1  0  0  0  0
 17 26  1  0  0  0  0
 17 29  2  0  0  0  0
 18 20  1  0  0  0  0
 19 20  1  0  0  0  0
 20 26  1  0  0  0  0
 21 24  1  0  0  0  0
 23 25  1  0  0  0  0
 24 30  1  0  0  0  0
  1 31  1  0  0  0  0
  2 32  1  0  0  0  0
  3 33  1  0  0  0  0
  4 34  1  0  0  0  0
  5 35  1  0  0  0  0
  6 36  1  0  0  0  0
  7 37  1  0  0  0  0
  8 38  1  0  0  0  0
 13 39  1  0  0  0  0
 13 40  1  0  0  0  0
 14 41  1  0  0  0  0
 18 42  1  0  0  0  0
 18 43  1  0  0  0  0
 19 44  1  0  0  0  0
 19 45  1  0  0  0  0
 21 46  1  0  0  0  0
 21 47  1  0  0  0  0
 21 48  1  0  0  0  0
 22 49  1  0  0  0  0
 22 50  1  0  0  0  0
 23 51  1  0  0  0  0
 23 52  1  0  0  0  0
 24 53  1  0  0  0  0
 24 54  1  0  0  0  0
 25 55  1  0  0  0  0
 26 56  1  0  0  0  0
M  END
> <Catalog ID>
Z4899660736

> <MW>
406.474

> <MW (desalted)>
406.474

> <ClogP>
2.17

> <logS>
-4.459

> <HBD>
2

> <HBA>
3

> <TPSA>
84.5

> <RotBonds>
9

> <ROCS_ShapeQuery>
A71EV2A-x0451_0A_A71EV2A-x0310_0A_A71EV2A-x0416_0A_peptide

> <ROCS_TanimotoCombo>
0.522 

> <ROCS_ShapeTanimoto>
0.347 

> <ROCS_ColorTanimoto>
0.175 

> <ROCS_RefTversky>
0.318 

> <ROCS_RefColorTversky>
0.198 

> <ROCS_RefTverskyCombo>
0.517 

> <ROCS_FitTversky>
1.352 

> <ROCS_FitColorTversky>
0.598 

> <ROCS_FitTverskyCombo>
1.949 

> <ROCS_ColorScore>
-6.068

> <ROCS_Overlap>
2216.480

> <ROCS_Rank>
365                 

$$$$
untitled-dbase-4364_216
  -OEChem-11132309573D

 59 61  0     1  0  0  0  0  0999 V2000
   15.4503   10.7875   25.1181 C   0  0  0  0  0  0  0  0  0  0  0  0
    8.4272   12.4472   24.1620 C   0  0  0  0  0  0  0  0  0  0  0  0
    7.3576   11.8849   24.8587 C   0  0  0  0  0  0  0  0  0  0  0  0
   14.7752   11.1500   26.2837 C   0  0  0  0  0  0  0  0  0  0  0  0
   13.9592   13.1442   25.1908 C   0  0  0  0  0  0  0  0  0  0  0  0
    8.1260    9.6753   24.2549 C   0  0  0  0  0  0  0  0  0  0  0  0
   10.6734   15.3955   20.8799 C   0  0  0  0  0  0  0  0  0  0  0  0
   15.3799   11.6034   23.9889 C   0  0  0  0  0  0  0  0  0  0  0  0
   14.6343   12.7817   24.0253 C   0  0  0  0  0  0  0  0  0  0  0  0
   11.6966   14.4853   20.9078 C   0  0  0  0  0  0  0  0  0  0  0  0
    9.3462   11.6236   23.5118 C   0  0  0  0  0  0  0  0  0  0  0  0
    7.2070   10.4990   24.9052 C   0  0  0  0  0  0  0  0  0  0  0  0
    9.1956   10.2377   23.5583 C   0  0  0  0  0  0  0  0  0  0  0  0
   14.0297   12.3283   26.3200 C   0  0  0  0  0  0  0  0  0  0  0  0
   12.1705   14.4745   19.5845 C   0  0  0  0  0  0  0  0  0  0  0  0
   13.0363   15.6646   23.3079 C   0  0  0  0  0  0  0  0  0  0  0  0
   11.0709   13.4112   23.0925 C   0  0  0  0  0  0  0  0  0  0  0  0
   16.1120   11.1949   22.7530 C   0  0  0  0  0  0  0  0  0  0  0  0
   13.2710   13.6746   19.0209 C   0  0  0  0  0  0  0  0  0  0  0  0
    5.2621   10.8494   26.2281 C   0  0  0  0  0  0  0  0  0  0  0  0
   11.2114    8.9823   23.6870 C   0  0  0  0  0  0  0  0  0  0  0  0
   14.5452   13.6769   22.8233 C   0  0  0  0  0  0  0  0  0  0  0  0
   14.2204   16.3146   23.9953 C   0  0  0  0  0  0  0  0  0  0  0  0
   12.1917   13.6862   22.0930 C   0  0  2  0  0  0  0  0  0  0  0  0
   11.4931   15.3139   18.7962 N   0  0  0  0  0  0  0  0  0  0  0  0
   10.4270   12.2090   22.8105 N   0  0  0  0  0  0  0  0  0  0  0  0
   13.2729   14.3935   22.7683 N   0  0  0  0  0  0  0  0  0  0  0  0
   11.9435   16.2325   23.2377 O   0  0  0  0  0  0  0  0  0  0  0  0
   10.8108   14.1953   24.0012 O   0  0  0  0  0  0  0  0  0  0  0  0
   10.5421   15.8969   19.6251 O   0  0  0  0  0  0  0  0  0  0  0  0
    6.1638    9.9497   25.5856 O   0  0  0  0  0  0  0  0  0  0  0  0
   10.0827    9.4146   22.9306 O   0  0  0  0  0  0  0  0  0  0  0  0
   13.3809   12.6763   27.4390 F   0  0  0  0  0  0  0  0  0  0  0  0
   15.1459   17.3076   22.8518 Cl  0  0  0  0  0  0  0  0  0  0  0  0
   16.0297    9.8680   25.0999 H   0  0  0  0  0  0  0  0  0  0  0  0
    8.5340   13.5287   24.1332 H   0  0  0  0  0  0  0  0  0  0  0  0
    6.6450   12.5319   25.3629 H   0  0  0  0  0  0  0  0  0  0  0  0
   14.8317   10.5151   27.1628 H   0  0  0  0  0  0  0  0  0  0  0  0
   13.3763   14.0606   25.2299 H   0  0  0  0  0  0  0  0  0  0  0  0
    8.0079    8.5952   24.2911 H   0  0  0  0  0  0  0  0  0  0  0  0
    9.9818   15.7794   21.6153 H   0  0  0  0  0  0  0  0  0  0  0  0
   15.4685   10.5752   22.1177 H   0  0  0  0  0  0  0  0  0  0  0  0
   16.4346   12.0701   22.1758 H   0  0  0  0  0  0  0  0  0  0  0  0
   17.0158   10.6234   22.9983 H   0  0  0  0  0  0  0  0  0  0  0  0
   12.9064   12.7068   18.6358 H   0  0  0  0  0  0  0  0  0  0  0  0
   13.7798   14.1929   18.1886 H   0  0  0  0  0  0  0  0  0  0  0  0
   14.0562   13.4605   19.7679 H   0  0  0  0  0  0  0  0  0  0  0  0
    4.4775   10.2811   26.7337 H   0  0  0  0  0  0  0  0  0  0  0  0
    4.8210   11.5177   25.4843 H   0  0  0  0  0  0  0  0  0  0  0  0
    5.8131   11.4397   26.9641 H   0  0  0  0  0  0  0  0  0  0  0  0
   11.8373    8.3328   23.0702 H   0  0  0  0  0  0  0  0  0  0  0  0
   10.8713    8.4427   24.5745 H   0  0  0  0  0  0  0  0  0  0  0  0
   11.7896    9.8570   23.9941 H   0  0  0  0  0  0  0  0  0  0  0  0
   15.3504   14.4196   22.8344 H   0  0  0  0  0  0  0  0  0  0  0  0
   14.6459   13.1020   21.8968 H   0  0  0  0  0  0  0  0  0  0  0  0
   13.8763   16.9728   24.7970 H   0  0  0  0  0  0  0  0  0  0  0  0
   14.8951   15.5491   24.3868 H   0  0  0  0  0  0  0  0  0  0  0  0
   12.5998   12.7254   21.7560 H   0  0  0  0  0  0  0  0  0  0  0  0
   10.7743   11.6910   22.0062 H   0  0  0  0  0  0  0  0  0  0  0  0
  1  4  2  0  0  0  0
  1  8  1  0  0  0  0
  2  3  2  0  0  0  0
  2 11  1  0  0  0  0
  3 12  1  0  0  0  0
  4 14  1  0  0  0  0
  5  9  1  0  0  0  0
  5 14  2  0  0  0  0
  6 12  2  0  0  0  0
  6 13  1  0  0  0  0
  7 10  2  0  0  0  0
  7 30  1  0  0  0  0
  8  9  2  0  0  0  0
  8 18  1  0  0  0  0
  9 22  1  0  0  0  0
 10 15  1  0  0  0  0
 10 24  1  0  0  0  0
 11 13  2  0  0  0  0
 11 26  1  0  0  0  0
 12 31  1  0  0  0  0
 13 32  1  0  0  0  0
 14 33  1  0  0  0  0
 15 19  1  0  0  0  0
 15 25  2  0  0  0  0
 16 23  1  0  0  0  0
 16 27  1  0  0  0  0
 16 28  2  0  0  0  0
 17 24  1  0  0  0  0
 17 26  1  0  0  0  0
 17 29  2  0  0  0  0
 20 31  1  0  0  0  0
 21 32  1  0  0  0  0
 22 27  1  0  0  0  0
 23 34  1  0  0  0  0
 24 27  1  0  0  0  0
 25 30  1  0  0  0  0
  1 35  1  0  0  0  0
  2 36  1  0  0  0  0
  3 37  1  0  0  0  0
  4 38  1  0  0  0  0
  5 39  1  0  0  0  0
  6 40  1  0  0  0  0
  7 41  1  0  0  0  0
 18 42  1  0  0  0  0
 18 43  1  0  0  0  0
 18 44  1  0  0  0  0
 19 45  1  0  0  0  0
 19 46  1  0  0  0  0
 19 47  1  0  0  0  0
 20 48  1  0  0  0  0
 20 49  1  0  0  0  0
 20 50  1  0  0  0  0
 21 51  1  0  0  0  0
 21 52  1  0  0  0  0
 21 53  1  0  0  0  0
 22 54  1  0  0  0  0
 22 55  1  0  0  0  0
 23 56  1  0  0  0  0
 23 57  1  0  0  0  0
 24 58  1  0  0  0  0
 26 59  1  0  0  0  0
M  END
> <Catalog ID>
Z8458591567

> <MW>
489.9238032

> <MW (desalted)>
489.9238032

> <ClogP>
2.653

> <logS>
-4.845

> <HBD>
1

> <HBA>
5

> <TPSA>
93.9

> <RotBonds>
9

> <ROCS_ShapeQuery>
A71EV2A-x0451_0A_A71EV2A-x0310_0A_A71EV2A-x0416_0A_peptide

> <ROCS_TanimotoCombo>
0.522 

> <ROCS_ShapeTanimoto>
0.376 

> <ROCS_ColorTanimoto>
0.146 

> <ROCS_RefTversky>
0.344 

> <ROCS_RefColorTversky>
0.170 

> <ROCS_RefTverskyCombo>
0.514 

> <ROCS_FitTversky>
1.320 

> <ROCS_FitColorTversky>
0.513 

> <ROCS_FitTverskyCombo>
1.832 

> <ROCS_ColorScore>
-5.195

> <ROCS_Overlap>
2401.659

> <ROCS_Rank>
366                 

$$$$
untitled-dbase-2829_775
  -OEChem-11132309573D

 34 35  0     0  0  0  0  0  0999 V2000
    4.4954   13.8728   26.8588 C   0  0  0  0  0  0  0  0  0  0  0  0
    4.7270   14.5775   25.6776 C   0  0  0  0  0  0  0  0  0  0  0  0
    5.4616   12.9933   27.3472 C   0  0  0  0  0  0  0  0  0  0  0  0
    5.9248   14.4025   24.9845 C   0  0  0  0  0  0  0  0  0  0  0  0
    6.6595   12.8184   26.6542 C   0  0  0  0  0  0  0  0  0  0  0  0
    6.8911   13.5230   25.4728 C   0  0  0  0  0  0  0  0  0  0  0  0
    9.0282   10.0880   23.4619 C   0  0  0  0  0  0  0  0  0  0  0  0
    9.2932   11.4344   23.4649 C   0  0  0  0  0  0  0  0  0  0  0  0
    9.7049    9.0709   22.7182 C   0  0  0  0  0  0  0  0  0  0  0  0
   10.8064   13.3914   23.2575 C   0  0  0  0  0  0  0  0  0  0  0  0
    9.7809    6.7109   22.2595 C   0  0  0  0  0  0  0  0  0  0  0  0
    8.1720   13.3353   24.7322 C   0  0  0  0  0  0  0  0  0  0  0  0
   11.7972   13.9632   22.2702 C   0  0  0  0  0  0  0  0  0  0  0  0
    7.9825    9.8236   24.3022 N   0  0  0  0  0  0  0  0  0  0  0  0
    7.5839   10.9747   24.8325 N   0  0  0  0  0  0  0  0  0  0  0  0
    8.3710   11.9393   24.3291 N   0  0  0  0  0  0  0  0  0  0  0  0
   10.2213   12.1934   22.8081 N   0  0  0  0  0  0  0  0  0  0  0  0
   10.6655    9.2616   21.9383 O   0  0  0  0  0  0  0  0  0  0  0  0
   10.5746   13.9795   24.3104 O   0  0  0  0  0  0  0  0  0  0  0  0
    9.1854    7.8161   22.9475 O   0  0  0  0  0  0  0  0  0  0  0  0
   10.9141   15.0504   21.1869 Cl  0  0  0  0  0  0  0  0  0  0  0  0
    3.5632   14.0102   27.3990 H   0  0  0  0  0  0  0  0  0  0  0  0
    3.9752   15.2632   25.2977 H   0  0  0  0  0  0  0  0  0  0  0  0
    5.2821   12.4454   28.2674 H   0  0  0  0  0  0  0  0  0  0  0  0
    6.0965   14.9556   24.0648 H   0  0  0  0  0  0  0  0  0  0  0  0
    7.4065   12.1309   27.0421 H   0  0  0  0  0  0  0  0  0  0  0  0
    9.2676    5.7875   22.5389 H   0  0  0  0  0  0  0  0  0  0  0  0
   10.8399    6.6453   22.5215 H   0  0  0  0  0  0  0  0  0  0  0  0
    9.6830    6.8680   21.1827 H   0  0  0  0  0  0  0  0  0  0  0  0
    8.2129   13.9543   23.8218 H   0  0  0  0  0  0  0  0  0  0  0  0
    9.0426   13.6343   25.3374 H   0  0  0  0  0  0  0  0  0  0  0  0
   12.2909   13.1933   21.6718 H   0  0  0  0  0  0  0  0  0  0  0  0
   12.5585   14.5352   22.8081 H   0  0  0  0  0  0  0  0  0  0  0  0
   10.5252   11.8511   21.8844 H   0  0  0  0  0  0  0  0  0  0  0  0
  1  2  1  0  0  0  0
  1  3  2  0  0  0  0
  2  4  2  0  0  0  0
  3  5  1  0  0  0  0
  4  6  1  0  0  0  0
  5  6  2  0  0  0  0
  6 12  1  0  0  0  0
  7  8  2  0  0  0  0
  7  9  1  0  0  0  0
  7 14  1  0  0  0  0
  8 16  1  0  0  0  0
  8 17  1  0  0  0  0
  9 18  2  0  0  0  0
  9 20  1  0  0  0  0
 10 13  1  0  0  0  0
 10 17  1  0  0  0  0
 10 19  2  0  0  0  0
 11 20  1  0  0  0  0
 12 16  1  0  0  0  0
 13 21  1  0  0  0  0
 14 15  2  0  0  0  0
 15 16  1  0  0  0  0
  1 22  1  0  0  0  0
  2 23  1  0  0  0  0
  3 24  1  0  0  0  0
  4 25  1  0  0  0  0
  5 26  1  0  0  0  0
 11 27  1  0  0  0  0
 11 28  1  0  0  0  0
 11 29  1  0  0  0  0
 12 30  1  0  0  0  0
 12 31  1  0  0  0  0
 13 32  1  0  0  0  0
 13 33  1  0  0  0  0
 17 34  1  0  0  0  0
M  END
> <Catalog ID>
Z6636041897

> <MW>
308.72

> <MW (desalted)>
308.72

> <ClogP>
1.552

> <logS>
-2.715

> <HBD>
1

> <HBA>
4

> <TPSA>
86.11

> <RotBonds>
6

> <ROCS_ShapeQuery>
A71EV2A-x0451_0A_A71EV2A-x0310_0A_A71EV2A-x0416_0A_peptide

> <ROCS_TanimotoCombo>
0.522 

> <ROCS_ShapeTanimoto>
0.336 

> <ROCS_ColorTanimoto>
0.186 

> <ROCS_RefTversky>
0.297 

> <ROCS_RefColorTversky>
0.201 

> <ROCS_RefTverskyCombo>
0.498 

> <ROCS_FitTversky>
1.641 

> <ROCS_FitColorTversky>
0.717 

> <ROCS_FitTverskyCombo>
2.357 

> <ROCS_ColorScore>
-6.134

> <ROCS_Overlap>
2060.497

> <ROCS_Rank>
367                 

$$$$
untitled-dbase-9120_1645
  -OEChem-11132309573D

 56 58  0     0  0  0  0  0  0999 V2000
   13.0221   12.9331   21.7995 C   0  0  0  0  0  0  0  0  0  0  0  0
   14.4653   16.8922   19.8659 C   0  0  0  0  0  0  0  0  0  0  0  0
   13.1495   15.8308   18.1399 C   0  0  0  0  0  0  0  0  0  0  0  0
    8.9269   10.1399   23.7489 C   0  0  0  0  0  0  0  0  0  0  0  0
   12.5661   15.5239   20.4643 C   0  0  0  0  0  0  0  0  0  0  0  0
    7.8222    9.9314   24.6280 C   0  0  0  0  0  0  0  0  0  0  0  0
   14.2212   16.6407   18.5158 C   0  0  0  0  0  0  0  0  0  0  0  0
   13.6378   16.3338   20.8402 C   0  0  0  0  0  0  0  0  0  0  0  0
   12.3220   15.2724   19.1142 C   0  0  0  0  0  0  0  0  0  0  0  0
    7.3376   11.1287   25.1197 C   0  0  0  0  0  0  0  0  0  0  0  0
    9.2312   11.4765   23.6042 C   0  0  0  0  0  0  0  0  0  0  0  0
   11.6932   14.9352   21.4919 C   0  0  0  0  0  0  0  0  0  0  0  0
   11.8895   13.7490   22.1011 C   0  0  0  0  0  0  0  0  0  0  0  0
    9.6674    9.1021   23.0755 C   0  0  0  0  0  0  0  0  0  0  0  0
   10.8635   13.3363   23.1348 C   0  0  0  0  0  0  0  0  0  0  0  0
    7.2370    8.6118   25.0259 C   0  0  0  0  0  0  0  0  0  0  0  0
    6.1696   11.2684   26.0451 C   0  0  0  0  0  0  0  0  0  0  0  0
    5.8484    8.7734   25.6641 C   0  0  0  0  0  0  0  0  0  0  0  0
    5.8268    9.9160   26.6899 C   0  0  0  0  0  0  0  0  0  0  0  0
   15.1062   17.2373   17.4742 C   0  0  0  0  0  0  0  0  0  0  0  0
   13.9324   16.6275   22.2767 C   0  0  0  0  0  0  0  0  0  0  0  0
   11.1842   14.4090   18.6706 C   0  0  0  0  0  0  0  0  0  0  0  0
   10.1729    6.4632   24.1252 C   0  0  0  0  0  0  0  0  0  0  0  0
    9.5395    6.7284   22.7761 C   0  0  0  0  0  0  0  0  0  0  0  0
   13.9414   12.2670   21.5584 N   0  0  0  0  0  0  0  0  0  0  0  0
   10.1973   12.1094   22.8695 N   0  0  0  0  0  0  0  0  0  0  0  0
   10.8712    9.1727   22.7643 O   0  0  0  0  0  0  0  0  0  0  0  0
   10.6524   14.0432   24.1172 O   0  0  0  0  0  0  0  0  0  0  0  0
    8.8889    8.0032   22.8088 O   0  0  0  0  0  0  0  0  0  0  0  0
    8.1904   12.4769   24.5254 S   0  0  0  0  0  0  0  0  0  0  0  0
   15.3013   17.5239   20.1575 H   0  0  0  0  0  0  0  0  0  0  0  0
   12.9608   15.6354   17.0868 H   0  0  0  0  0  0  0  0  0  0  0  0
   10.8464   15.5680   21.7483 H   0  0  0  0  0  0  0  0  0  0  0  0
    7.1596    7.9474   24.1578 H   0  0  0  0  0  0  0  0  0  0  0  0
    7.9127    8.1337   25.7460 H   0  0  0  0  0  0  0  0  0  0  0  0
    6.3740   12.0044   26.8309 H   0  0  0  0  0  0  0  0  0  0  0  0
    5.3047   11.6256   25.4726 H   0  0  0  0  0  0  0  0  0  0  0  0
    5.1063    8.9802   24.8822 H   0  0  0  0  0  0  0  0  0  0  0  0
    5.5551    7.8330   26.1439 H   0  0  0  0  0  0  0  0  0  0  0  0
    6.5499    9.6955   27.4858 H   0  0  0  0  0  0  0  0  0  0  0  0
    4.8401    9.9769   27.1628 H   0  0  0  0  0  0  0  0  0  0  0  0
   15.9421   16.5629   17.2513 H   0  0  0  0  0  0  0  0  0  0  0  0
   14.5550   17.4272   16.5441 H   0  0  0  0  0  0  0  0  0  0  0  0
   15.5152   18.2014   17.8034 H   0  0  0  0  0  0  0  0  0  0  0  0
   13.3971   17.5285   22.5956 H   0  0  0  0  0  0  0  0  0  0  0  0
   13.6299   15.7929   22.9199 H   0  0  0  0  0  0  0  0  0  0  0  0
   15.0062   16.7821   22.4353 H   0  0  0  0  0  0  0  0  0  0  0  0
   11.5068   13.3643   18.6029 H   0  0  0  0  0  0  0  0  0  0  0  0
   10.3442   14.4726   19.3721 H   0  0  0  0  0  0  0  0  0  0  0  0
   10.8084   14.7250   17.6904 H   0  0  0  0  0  0  0  0  0  0  0  0
   10.9166    7.2285   24.3643 H   0  0  0  0  0  0  0  0  0  0  0  0
    9.4125    6.4509   24.9129 H   0  0  0  0  0  0  0  0  0  0  0  0
   10.6592    5.4821   24.1370 H   0  0  0  0  0  0  0  0  0  0  0  0
    8.7968    5.9596   22.5430 H   0  0  0  0  0  0  0  0  0  0  0  0
   10.3008    6.7412   21.9903 H   0  0  0  0  0  0  0  0  0  0  0  0
   10.4831   11.6258   21.9971 H   0  0  0  0  0  0  0  0  0  0  0  0
  1 13  1  0  0  0  0
  1 25  3  0  0  0  0
  2  7  1  0  0  0  0
  2  8  2  0  0  0  0
  3  7  2  0  0  0  0
  3  9  1  0  0  0  0
  4  6  1  0  0  0  0
  4 11  2  0  0  0  0
  4 14  1  0  0  0  0
  5  8  1  0  0  0  0
  5  9  2  0  0  0  0
  5 12  1  4  0  0  0
  6 10  2  0  0  0  0
  6 16  1  0  0  0  0
  7 20  1  0  0  0  0
  8 21  1  0  0  0  0
  9 22  1  0  0  0  0
 10 17  1  0  0  0  0
 10 30  1  0  0  0  0
 11 26  1  0  0  0  0
 11 30  1  0  0  0  0
 12 13  2  0  0  0  0
 13 15  1  0  0  0  0
 14 27  2  0  0  0  0
 14 29  1  0  0  0  0
 15 26  1  0  0  0  0
 15 28  2  0  0  0  0
 16 18  1  0  0  0  0
 17 19  1  0  0  0  0
 18 19  1  0  0  0  0
 23 24  1  0  0  0  0
 24 29  1  0  0  0  0
  2 31  1  0  0  0  0
  3 32  1  0  0  0  0
 12 33  1  0  0  0  0
 16 34  1  0  0  0  0
 16 35  1  0  0  0  0
 17 36  1  0  0  0  0
 17 37  1  0  0  0  0
 18 38  1  0  0  0  0
 18 39  1  0  0  0  0
 19 40  1  0  0  0  0
 19 41  1  0  0  0  0
 20 42  1  0  0  0  0
 20 43  1  0  0  0  0
 20 44  1  0  0  0  0
 21 45  1  0  0  0  0
 21 46  1  0  0  0  0
 21 47  1  0  0  0  0
 22 48  1  0  0  0  0
 22 49  1  0  0  0  0
 22 50  1  0  0  0  0
 23 51  1  0  0  0  0
 23 52  1  0  0  0  0
 23 53  1  0  0  0  0
 24 54  1  0  0  0  0
 24 55  1  0  0  0  0
 26 56  1  0  0  0  0
M  END
> <Catalog ID>
Z46155838

> <MW>
422.54

> <MW (desalted)>
422.54

> <ClogP>
6.757

> <logS>
-7.85

> <HBD>
1

> <HBA>
3

> <TPSA>
79.19

> <RotBonds>
6

> <ROCS_ShapeQuery>
A71EV2A-x0451_0A_A71EV2A-x0310_0A_A71EV2A-x0416_0A_peptide

> <ROCS_TanimotoCombo>
0.522 

> <ROCS_ShapeTanimoto>
0.366 

> <ROCS_ColorTanimoto>
0.156 

> <ROCS_RefTversky>
0.330 

> <ROCS_RefColorTversky>
0.171 

> <ROCS_RefTverskyCombo>
0.502 

> <ROCS_FitTversky>
1.421 

> <ROCS_FitColorTversky>
0.633 

> <ROCS_FitTverskyCombo>
2.054 

> <ROCS_ColorScore>
-5.221

> <ROCS_Overlap>
2299.698

> <ROCS_Rank>
368                 

$$$$
untitled-dbase-5965_7510
  -OEChem-11132309573D

 48 50  0     1  0  0  0  0  0999 V2000
    8.6477   12.0623   24.2787 C   0  0  0  0  0  0  0  0  0  0  0  0
    8.1364    9.5097   23.4610 C   0  0  0  0  0  0  0  0  0  0  0  0
    7.4903   11.4258   24.7130 C   0  0  0  0  0  0  0  0  0  0  0  0
    7.2224   10.1252   24.3009 C   0  0  0  0  0  0  0  0  0  0  0  0
    9.4980   11.3600   23.4399 C   0  0  0  0  0  0  0  0  0  0  0  0
   14.1384   16.7422   20.4634 C   0  0  0  0  0  0  0  0  0  0  0  0
   12.9670   16.9941   21.0567 C   0  0  0  0  0  0  0  0  0  0  0  0
   12.4702   16.0984   22.1398 C   0  0  0  0  0  0  0  0  0  0  0  0
   11.0911   13.3071   23.3157 C   0  0  0  0  0  0  0  0  0  0  0  0
    4.7081   11.9273   29.3344 C   0  0  0  0  0  0  0  0  0  0  0  0
    4.2308   11.7697   27.8768 C   0  0  0  0  0  0  0  0  0  0  0  0
    5.3453   13.2676   28.9175 C   0  0  0  0  0  0  0  0  0  0  0  0
    5.0643   13.6949   26.3321 C   0  0  0  0  0  0  0  0  0  0  0  0
    5.5225   12.9375   25.0848 C   0  0  0  0  0  0  0  0  0  0  0  0
    6.6792   12.0244   27.0100 C   0  0  0  0  0  0  0  0  0  0  0  0
    5.3916   12.7268   27.4615 C   0  0  0  0  0  0  0  0  0  0  0  0
   11.9362   14.4600   20.3771 C   0  0  0  0  0  0  0  0  0  0  0  0
   12.4167   13.6127   22.6455 C   0  0  0  0  0  0  0  0  0  0  0  0
    9.2714   10.0957   23.0182 N   0  0  0  0  0  0  0  0  0  0  0  0
    6.6299   12.1053   25.5499 N   0  0  3  0  0  0  0  0  0  0  0  0
   10.6600   12.0097   23.0065 N   0  0  0  0  0  0  0  0  0  0  0  0
   12.2748   14.7511   21.7737 N   0  0  0  0  0  0  0  0  0  0  0  0
   12.2397   16.5618   23.2579 O   0  0  0  0  0  0  0  0  0  0  0  0
   10.5185   14.1206   24.0337 O   0  0  0  0  0  0  0  0  0  0  0  0
    5.8127    9.2709   24.7954 Cl  0  0  0  0  0  0  0  0  0  0  0  0
    8.8749   13.0780   24.5899 H   0  0  0  0  0  0  0  0  0  0  0  0
    7.9853    8.4960   23.1019 H   0  0  0  0  0  0  0  0  0  0  0  0
   14.5389   17.3658   19.6718 H   0  0  0  0  0  0  0  0  0  0  0  0
   14.7313   15.8883   20.7746 H   0  0  0  0  0  0  0  0  0  0  0  0
   12.4003   17.8724   20.7733 H   0  0  0  0  0  0  0  0  0  0  0  0
    3.9189   11.9904   30.0877 H   0  0  0  0  0  0  0  0  0  0  0  0
    5.4358   11.1692   29.6452 H   0  0  0  0  0  0  0  0  0  0  0  0
    4.2736   10.7565   27.4739 H   0  0  0  0  0  0  0  0  0  0  0  0
    3.2320   12.1811   27.6985 H   0  0  0  0  0  0  0  0  0  0  0  0
    4.6752   14.1254   29.0663 H   0  0  0  0  0  0  0  0  0  0  0  0
    6.3066   13.4986   29.3898 H   0  0  0  0  0  0  0  0  0  0  0  0
    5.5600   14.6653   26.4312 H   0  0  0  0  0  0  0  0  0  0  0  0
    3.9820   13.8659   26.2818 H   0  0  0  0  0  0  0  0  0  0  0  0
    4.7109   12.3416   24.6550 H   0  0  0  0  0  0  0  0  0  0  0  0
    5.8825   13.6445   24.3277 H   0  0  0  0  0  0  0  0  0  0  0  0
    7.5762   12.5042   27.4181 H   0  0  0  0  0  0  0  0  0  0  0  0
    6.6783   10.9698   27.3080 H   0  0  0  0  0  0  0  0  0  0  0  0
   12.8597   14.3026   19.8005 H   0  0  0  0  0  0  0  0  0  0  0  0
   11.3165   13.5523   20.3317 H   0  0  0  0  0  0  0  0  0  0  0  0
   11.3780   15.3068   19.9511 H   0  0  0  0  0  0  0  0  0  0  0  0
   12.7458   12.7456   22.0642 H   0  0  0  0  0  0  0  0  0  0  0  0
   13.1643   13.8257   23.4160 H   0  0  0  0  0  0  0  0  0  0  0  0
   11.2719   11.4705   22.3865 H   0  0  0  0  0  0  0  0  0  0  0  0
  1  3  2  0  0  0  0
  1  5  1  0  0  0  0
  2  4  2  0  0  0  0
  2 19  1  0  0  0  0
  3  4  1  0  0  0  0
  3 20  1  0  0  0  0
  4 25  1  0  0  0  0
  5 19  2  0  0  0  0
  5 21  1  0  0  0  0
  6  7  2  0  0  0  0
  7  8  1  0  0  0  0
  8 22  1  0  0  0  0
  8 23  2  0  0  0  0
  9 18  1  0  0  0  0
  9 21  1  0  0  0  0
  9 24  2  0  0  0  0
 10 11  1  0  0  0  0
 10 12  1  0  0  0  0
 11 16  1  0  0  0  0
 12 16  1  0  0  0  0
 13 14  1  0  0  0  0
 13 16  1  0  0  0  0
 14 20  1  0  0  0  0
 15 16  1  0  0  0  0
 15 20  1  0  0  0  0
 17 22  1  0  0  0  0
 18 22  1  0  0  0  0
  1 26  1  0  0  0  0
  2 27  1  0  0  0  0
  6 28  1  0  0  0  0
  6 29  1  0  0  0  0
  7 30  1  0  0  0  0
 10 31  1  0  0  0  0
 10 32  1  0  0  0  0
 11 33  1  0  0  0  0
 11 34  1  0  0  0  0
 12 35  1  0  0  0  0
 12 36  1  0  0  0  0
 13 37  1  0  0  0  0
 13 38  1  0  0  0  0
 14 39  1  0  0  0  0
 14 40  1  0  0  0  0
 15 41  1  0  0  0  0
 15 42  1  0  0  0  0
 17 43  1  0  0  0  0
 17 44  1  0  0  0  0
 17 45  1  0  0  0  0
 18 46  1  0  0  0  0
 18 47  1  0  0  0  0
 21 48  1  0  0  0  0
M  END
> <Catalog ID>
Z3059527996

> <MW>
362.854

> <MW (desalted)>
362.854

> <ClogP>
2.947

> <logS>
-3.853

> <HBD>
1

> <HBA>
4

> <TPSA>
65.54

> <RotBonds>
5

> <ROCS_ShapeQuery>
A71EV2A-x0451_0A_A71EV2A-x0310_0A_A71EV2A-x0416_0A_peptide

> <ROCS_TanimotoCombo>
0.522 

> <ROCS_ShapeTanimoto>
0.357 

> <ROCS_ColorTanimoto>
0.165 

> <ROCS_RefTversky>
0.317 

> <ROCS_RefColorTversky>
0.184 

> <ROCS_RefTverskyCombo>
0.501 

> <ROCS_FitTversky>
1.554 

> <ROCS_FitColorTversky>
0.612 

> <ROCS_FitTverskyCombo>
2.167 

> <ROCS_ColorScore>
-5.630

> <ROCS_Overlap>
2200.424

> <ROCS_Rank>
369                 

$$$$
untitled-dbase-1588_437
  -OEChem-11132309573D

 50 53  0     0  0  0  0  0  0999 V2000
   10.3622   13.7694   23.8733 C   0  0  0  0  0  0  0  0  0  0  0  0
   12.7677    8.7378   23.1459 C   0  0  0  0  0  0  0  0  0  0  0  0
    4.4478   12.6294   28.7768 C   0  0  0  0  0  0  0  0  0  0  0  0
   11.8871    7.7444   22.7178 C   0  0  0  0  0  0  0  0  0  0  0  0
   12.2721    9.9125   23.7119 C   0  0  0  0  0  0  0  0  0  0  0  0
    4.9028   13.6435   27.9341 C   0  0  0  0  0  0  0  0  0  0  0  0
    4.8048   11.3039   28.5289 C   0  0  0  0  0  0  0  0  0  0  0  0
   12.5129   15.9211   18.1356 C   0  0  0  0  0  0  0  0  0  0  0  0
   13.8451   16.2746   18.3493 C   0  0  0  0  0  0  0  0  0  0  0  0
   10.5110    7.9256   22.8556 C   0  0  0  0  0  0  0  0  0  0  0  0
   10.8960   10.0937   23.8496 C   0  0  0  0  0  0  0  0  0  0  0  0
    5.7147   13.3322   26.8435 C   0  0  0  0  0  0  0  0  0  0  0  0
    5.6168   10.9926   27.4383 C   0  0  0  0  0  0  0  0  0  0  0  0
   11.7659   15.3585   19.1706 C   0  0  0  0  0  0  0  0  0  0  0  0
   14.4305   16.0655   19.5980 C   0  0  0  0  0  0  0  0  0  0  0  0
    7.3907   12.5924   24.6117 C   0  0  0  0  0  0  0  0  0  0  0  0
   10.0154    9.1003   23.4215 C   0  0  0  0  0  0  0  0  0  0  0  0
    8.1244   11.8536   23.7159 C   0  0  0  0  0  0  0  0  0  0  0  0
    6.0717   12.0067   26.5955 C   0  0  0  0  0  0  0  0  0  0  0  0
   12.3513   15.1493   20.4193 C   0  0  0  0  0  0  0  0  0  0  0  0
   13.6836   15.5028   20.6330 C   0  0  0  0  0  0  0  0  0  0  0  0
    7.9913   10.5253   24.1628 C   0  0  0  0  0  0  0  0  0  0  0  0
    8.8343   12.3643   22.6114 C   0  0  0  0  0  0  0  0  0  0  0  0
    9.8837   13.2681   22.6245 C   0  0  0  0  0  0  0  0  0  0  0  0
    8.5806    9.2892   23.5651 C   0  0  0  0  0  0  0  0  0  0  0  0
   10.5075   13.6820   21.3088 C   0  0  0  0  0  0  0  0  0  0  0  0
   10.7550   14.1789   24.8856 N   0  0  0  0  0  0  0  0  0  0  0  0
    7.2329   10.4231   25.2575 N   0  0  0  0  0  0  0  0  0  0  0  0
    6.8829   11.6966   25.5060 N   0  0  0  0  0  0  0  0  0  0  0  0
   11.5637   14.5755   21.4496 N   0  0  0  0  0  0  0  0  0  0  0  0
    7.7932    8.4093   23.1861 O   0  0  0  0  0  0  0  0  0  0  0  0
   10.0747   13.2364   20.2489 O   0  0  0  0  0  0  0  0  0  0  0  0
   14.4494   15.2583   22.1624 Cl  0  0  0  0  0  0  0  0  0  0  0  0
   13.8392    8.5967   23.0386 H   0  0  0  0  0  0  0  0  0  0  0  0
    3.8171   12.8714   29.6271 H   0  0  0  0  0  0  0  0  0  0  0  0
   12.2732    6.8299   22.2769 H   0  0  0  0  0  0  0  0  0  0  0  0
   12.9578   10.6858   24.0455 H   0  0  0  0  0  0  0  0  0  0  0  0
    4.6261   14.6757   28.1277 H   0  0  0  0  0  0  0  0  0  0  0  0
    4.4513   10.5149   29.1865 H   0  0  0  0  0  0  0  0  0  0  0  0
   12.0577   16.0837   17.1630 H   0  0  0  0  0  0  0  0  0  0  0  0
   14.4262   16.7129   17.5433 H   0  0  0  0  0  0  0  0  0  0  0  0
    9.8337    7.1450   22.5186 H   0  0  0  0  0  0  0  0  0  0  0  0
   10.5211   11.0131   24.2920 H   0  0  0  0  0  0  0  0  0  0  0  0
    6.0632   14.1323   26.1949 H   0  0  0  0  0  0  0  0  0  0  0  0
    5.8881    9.9554   27.2571 H   0  0  0  0  0  0  0  0  0  0  0  0
   10.7284   15.0877   18.9909 H   0  0  0  0  0  0  0  0  0  0  0  0
   15.4698   16.3467   19.7481 H   0  0  0  0  0  0  0  0  0  0  0  0
    7.1935   13.6541   24.6858 H   0  0  0  0  0  0  0  0  0  0  0  0
    8.5261   11.9832   21.6112 H   0  0  0  0  0  0  0  0  0  0  0  0
   11.7981   14.8487   22.4003 H   0  0  0  0  0  0  0  0  0  0  0  0
  1 24  1  0  0  0  0
  1 27  3  0  0  0  0
  2  4  1  0  0  0  0
  2  5  2  0  0  0  0
  3  6  1  0  0  0  0
  3  7  2  0  0  0  0
  4 10  2  0  0  0  0
  5 11  1  0  0  0  0
  6 12  2  0  0  0  0
  7 13  1  0  0  0  0
  8  9  1  0  0  0  0
  8 14  2  0  0  0  0
  9 15  2  0  0  0  0
 10 17  1  0  0  0  0
 11 17  2  0  0  0  0
 12 19  1  0  0  0  0
 13 19  2  0  0  0  0
 14 20  1  0  0  0  0
 15 21  1  0  0  0  0
 16 18  2  0  0  0  0
 16 29  1  0  0  0  0
 17 25  1  0  0  0  0
 18 22  1  0  0  0  0
 18 23  1  4  0  0  0
 19 29  1  0  0  0  0
 20 21  2  0  0  0  0
 20 30  1  0  0  0  0
 21 33  1  0  0  0  0
 22 25  1  0  0  0  0
 22 28  2  0  0  0  0
 23 24  2  0  0  0  0
 24 26  1  0  0  0  0
 25 31  2  0  0  0  0
 26 30  1  0  0  0  0
 26 32  2  0  0  0  0
 28 29  1  0  0  0  0
  2 34  1  0  0  0  0
  3 35  1  0  0  0  0
  4 36  1  0  0  0  0
  5 37  1  0  0  0  0
  6 38  1  0  0  0  0
  7 39  1  0  0  0  0
  8 40  1  0  0  0  0
  9 41  1  0  0  0  0
 10 42  1  0  0  0  0
 11 43  1  0  0  0  0
 12 44  1  0  0  0  0
 13 45  1  0  0  0  0
 14 46  1  0  0  0  0
 15 47  1  0  0  0  0
 16 48  1  0  0  0  0
 23 49  1  0  0  0  0
 30 50  1  0  0  0  0
M  END
> <Catalog ID>
Z46104780

> <MW>
452.892

> <MW (desalted)>
452.892

> <ClogP>
4.489

> <logS>
-7.37

> <HBD>
1

> <HBA>
4

> <TPSA>
87.78

> <RotBonds>
6

> <ROCS_ShapeQuery>
A71EV2A-x0451_0A_A71EV2A-x0310_0A_A71EV2A-x0416_0A_peptide

> <ROCS_TanimotoCombo>
0.522 

> <ROCS_ShapeTanimoto>
0.381 

> <ROCS_ColorTanimoto>
0.141 

> <ROCS_RefTversky>
0.347 

> <ROCS_RefColorTversky>
0.164 

> <ROCS_RefTverskyCombo>
0.512 

> <ROCS_FitTversky>
1.345 

> <ROCS_FitColorTversky>
0.496 

> <ROCS_FitTverskyCombo>
1.841 

> <ROCS_ColorScore>
-5.024

> <ROCS_Overlap>
2420.832

> <ROCS_Rank>
370                 

$$$$
untitled-dbase-5894_3234
  -OEChem-11132309573D

 54 56  0     1  0  0  0  0  0999 V2000
   14.9091   17.8970   17.4067 C   0  0  0  0  0  0  0  0  0  0  0  0
   15.5126   18.2377   18.6136 C   0  0  0  0  0  0  0  0  0  0  0  0
   13.9484   16.8861   17.3670 C   0  0  0  0  0  0  0  0  0  0  0  0
   15.1579   17.5688   19.7854 C   0  0  0  0  0  0  0  0  0  0  0  0
   12.6140   15.1821   18.5153 C   0  0  0  0  0  0  0  0  0  0  0  0
   12.2593   14.5131   19.6871 C   0  0  0  0  0  0  0  0  0  0  0  0
   13.8236   15.8647   20.9337 C   0  0  0  0  0  0  0  0  0  0  0  0
   13.5791   16.2022   18.5367 C   0  0  0  0  0  0  0  0  0  0  0  0
   14.1929   16.5486   19.7640 C   0  0  0  0  0  0  0  0  0  0  0  0
   12.8629   14.8537   20.8939 C   0  0  0  0  0  0  0  0  0  0  0  0
    8.5095   11.9327   23.6833 C   0  0  0  0  0  0  0  0  0  0  0  0
    8.8487   10.6164   23.3174 C   0  0  0  0  0  0  0  0  0  0  0  0
    7.7225   11.7869   24.7995 C   0  0  0  0  0  0  0  0  0  0  0  0
   10.3449   13.6251   23.3031 C   0  0  0  0  0  0  0  0  0  0  0  0
   13.9311   11.4051   24.3445 C   0  0  0  0  0  0  0  0  0  0  0  0
    9.6828   10.1800   22.1837 C   0  0  0  0  0  0  0  0  0  0  0  0
    7.0517   12.7837   25.6553 C   0  0  0  0  0  0  0  0  0  0  0  0
    6.9209    9.7849   26.0898 C   0  0  0  0  0  0  0  0  0  0  0  0
    8.9155   13.2146   23.0056 C   0  0  0  0  0  0  0  0  0  0  0  0
   13.6937   11.1978   25.8186 C   0  0  0  0  0  0  0  0  0  0  0  0
   13.3455   12.8891   22.4479 C   0  0  0  0  0  0  0  0  0  0  0  0
   12.4822   14.1375   22.1457 C   0  0  2  0  0  0  0  0  0  0  0  0
    8.3206    9.7016   24.1349 N   0  0  0  0  0  0  0  0  0  0  0  0
    7.6416   10.4443   25.0257 N   0  0  0  0  0  0  0  0  0  0  0  0
   13.2479   12.4970   23.8298 N   0  0  0  0  0  0  0  0  0  0  0  0
   11.0581   13.7430   22.1395 N   0  0  0  0  0  0  0  0  0  0  0  0
   10.7718   13.8209   24.4381 O   0  0  0  0  0  0  0  0  0  0  0  0
   14.6755   10.6704   23.6977 O   0  0  0  0  0  0  0  0  0  0  0  0
   14.9243   12.1140   26.7024 Cl  0  0  0  0  0  0  0  0  0  0  0  0
   15.1861   18.4181   16.4951 H   0  0  0  0  0  0  0  0  0  0  0  0
   16.2608   19.0244   18.6436 H   0  0  0  0  0  0  0  0  0  0  0  0
   13.4896   16.6370   16.4123 H   0  0  0  0  0  0  0  0  0  0  0  0
   15.6430   17.8515   20.7175 H   0  0  0  0  0  0  0  0  0  0  0  0
   12.1294   14.8991   17.5830 H   0  0  0  0  0  0  0  0  0  0  0  0
   11.5103   13.7266   19.6473 H   0  0  0  0  0  0  0  0  0  0  0  0
   14.2880   16.1216   21.8845 H   0  0  0  0  0  0  0  0  0  0  0  0
   10.7454   10.1114   22.4722 H   0  0  0  0  0  0  0  0  0  0  0  0
    9.3777    9.1909   21.7989 H   0  0  0  0  0  0  0  0  0  0  0  0
    9.6146   10.8724   21.3259 H   0  0  0  0  0  0  0  0  0  0  0  0
    6.0344   13.0019   25.2901 H   0  0  0  0  0  0  0  0  0  0  0  0
    6.9653   12.4414   26.7010 H   0  0  0  0  0  0  0  0  0  0  0  0
    7.6055   13.7379   25.6927 H   0  0  0  0  0  0  0  0  0  0  0  0
    5.9076    9.5801   25.7345 H   0  0  0  0  0  0  0  0  0  0  0  0
    7.4299    8.8531   26.3515 H   0  0  0  0  0  0  0  0  0  0  0  0
    6.8950   10.4373   26.9671 H   0  0  0  0  0  0  0  0  0  0  0  0
    8.7964   13.1100   21.9196 H   0  0  0  0  0  0  0  0  0  0  0  0
    8.2459   14.0265   23.3165 H   0  0  0  0  0  0  0  0  0  0  0  0
   12.7061   11.5404   26.1371 H   0  0  0  0  0  0  0  0  0  0  0  0
   13.7975   10.1359   26.0574 H   0  0  0  0  0  0  0  0  0  0  0  0
   13.0215   12.0243   21.8577 H   0  0  0  0  0  0  0  0  0  0  0  0
   14.4052   13.0602   22.2306 H   0  0  0  0  0  0  0  0  0  0  0  0
   12.5981   14.8164   23.0121 H   0  0  0  0  0  0  0  0  0  0  0  0
   12.6551   13.0414   24.4524 H   0  0  0  0  0  0  0  0  0  0  0  0
   10.6052   13.5579   21.2668 H   0  0  0  0  0  0  0  0  0  0  0  0
  1  2  1  0  0  0  0
  1  3  2  0  0  0  0
  2  4  2  0  0  0  0
  3  8  1  0  0  0  0
  4  9  1  0  0  0  0
  5  6  2  0  0  0  0
  5  8  1  0  0  0  0
  6 10  1  0  0  0  0
  7  9  1  0  0  0  0
  7 10  2  0  0  0  0
  8  9  2  0  0  0  0
 10 22  1  0  0  0  0
 11 12  1  0  0  0  0
 11 13  2  0  0  0  0
 11 19  1  0  0  0  0
 12 16  1  0  0  0  0
 12 23  2  0  0  0  0
 13 17  1  0  0  0  0
 13 24  1  0  0  0  0
 14 19  1  0  0  0  0
 14 26  1  0  0  0  0
 14 27  2  0  0  0  0
 15 20  1  0  0  0  0
 15 25  1  0  0  0  0
 15 28  2  0  0  0  0
 18 24  1  0  0  0  0
 20 29  1  0  0  0  0
 21 22  1  0  0  0  0
 21 25  1  0  0  0  0
 22 26  1  0  0  0  0
 23 24  1  0  0  0  0
  1 30  1  0  0  0  0
  2 31  1  0  0  0  0
  3 32  1  0  0  0  0
  4 33  1  0  0  0  0
  5 34  1  0  0  0  0
  6 35  1  0  0  0  0
  7 36  1  0  0  0  0
 16 37  1  0  0  0  0
 16 38  1  0  0  0  0
 16 39  1  0  0  0  0
 17 40  1  0  0  0  0
 17 41  1  0  0  0  0
 17 42  1  0  0  0  0
 18 43  1  0  0  0  0
 18 44  1  0  0  0  0
 18 45  1  0  0  0  0
 19 46  1  0  0  0  0
 19 47  1  0  0  0  0
 20 48  1  0  0  0  0
 20 49  1  0  0  0  0
 21 50  1  0  0  0  0
 21 51  1  0  0  0  0
 22 52  1  0  0  0  0
 25 53  1  0  0  0  0
 26 54  1  0  0  0  0
M  END
> <Catalog ID>
Z4425211736

> <MW>
412.913

> <MW (desalted)>
412.913

> <ClogP>
2.304

> <logS>
-4.064

> <HBD>
2

> <HBA>
3

> <TPSA>
76.02

> <RotBonds>
7

> <ROCS_ShapeQuery>
A71EV2A-x0451_0A_A71EV2A-x0310_0A_A71EV2A-x0416_0A_peptide

> <ROCS_TanimotoCombo>
0.522 

> <ROCS_ShapeTanimoto>
0.336 

> <ROCS_ColorTanimoto>
0.186 

> <ROCS_RefTversky>
0.309 

> <ROCS_RefColorTversky>
0.204 

> <ROCS_RefTverskyCombo>
0.513 

> <ROCS_FitTversky>
1.352 

> <ROCS_FitColorTversky>
0.677 

> <ROCS_FitTverskyCombo>
2.028 

> <ROCS_ColorScore>
-6.218

> <ROCS_Overlap>
2152.559

> <ROCS_Rank>
371                 

$$$$
untitled-dbase-3283_1578
  -OEChem-11132309573D

 52 54  0     0  0  0  0  0  0999 V2000
   11.6458   14.2155   20.7122 C   0  0  0  0  0  0  0  0  0  0  0  0
    4.9151   12.2173   28.6360 C   0  0  0  0  0  0  0  0  0  0  0  0
    5.8077   11.1471   28.6953 C   0  0  0  0  0  0  0  0  0  0  0  0
    4.8809   13.0351   27.5065 C   0  0  0  0  0  0  0  0  0  0  0  0
    6.6662   10.8947   27.6253 C   0  0  0  0  0  0  0  0  0  0  0  0
    5.7393   12.7827   26.4364 C   0  0  0  0  0  0  0  0  0  0  0  0
   12.9910   11.4853   24.0559 C   0  0  0  0  0  0  0  0  0  0  0  0
   13.3636   10.9325   25.2811 C   0  0  0  0  0  0  0  0  0  0  0  0
   14.5105   13.3270   24.4247 C   0  0  0  0  0  0  0  0  0  0  0  0
    7.4620   10.2473   24.7300 C   0  0  0  0  0  0  0  0  0  0  0  0
    6.6320   11.7125   26.4958 C   0  0  0  0  0  0  0  0  0  0  0  0
    7.5158   11.4531   25.3940 C   0  0  0  0  0  0  0  0  0  0  0  0
   13.5645   12.6826   23.6277 C   0  0  0  0  0  0  0  0  0  0  0  0
    8.5084   12.3192   24.8512 C   0  0  0  0  0  0  0  0  0  0  0  0
   14.3096   11.5769   26.0782 C   0  0  0  0  0  0  0  0  0  0  0  0
   14.8831   12.7742   25.6500 C   0  0  0  0  0  0  0  0  0  0  0  0
    9.1757   11.7423   23.7930 C   0  0  0  0  0  0  0  0  0  0  0  0
   13.1732   13.2640   22.3341 C   0  0  0  0  0  0  0  0  0  0  0  0
   11.9299   13.6605   21.9970 C   0  0  0  0  0  0  0  0  0  0  0  0
    8.8113   13.6482   25.3226 C   0  0  0  0  0  0  0  0  0  0  0  0
   10.8479   13.4678   23.0380 C   0  0  0  0  0  0  0  0  0  0  0  0
   11.2349   14.6791   27.8951 C   0  0  0  0  0  0  0  0  0  0  0  0
   17.1752   13.0664   26.2129 C   0  0  0  0  0  0  0  0  0  0  0  0
   10.1663   14.9049   26.8469 C   0  0  0  0  0  0  0  0  0  0  0  0
   11.4100   14.6663   19.6691 N   0  0  0  0  0  0  0  0  0  0  0  0
   10.1846   12.2118   22.9957 N   0  0  0  0  0  0  0  0  0  0  0  0
    8.2706   14.6909   24.9097 O   0  0  0  0  0  0  0  0  0  0  0  0
   10.5933   14.3613   23.8418 O   0  0  0  0  0  0  0  0  0  0  0  0
   14.6648   11.0266   27.2726 O   0  0  0  0  0  0  0  0  0  0  0  0
   15.8073   13.4127   26.4207 O   0  0  0  0  0  0  0  0  0  0  0  0
    9.7786   13.6414   26.2965 O   0  0  0  0  0  0  0  0  0  0  0  0
    8.6051   10.1629   23.4578 S   0  0  0  0  0  0  0  0  0  0  0  0
    4.2459   12.4133   29.4686 H   0  0  0  0  0  0  0  0  0  0  0  0
    5.8337   10.5095   29.5741 H   0  0  0  0  0  0  0  0  0  0  0  0
    4.1849   13.8675   27.4600 H   0  0  0  0  0  0  0  0  0  0  0  0
    7.3564   10.0565   27.6867 H   0  0  0  0  0  0  0  0  0  0  0  0
    5.7002   13.4295   25.5630 H   0  0  0  0  0  0  0  0  0  0  0  0
   12.2531   10.9709   23.4450 H   0  0  0  0  0  0  0  0  0  0  0  0
   12.9128    9.9996   25.6089 H   0  0  0  0  0  0  0  0  0  0  0  0
   14.9631   14.2608   24.0983 H   0  0  0  0  0  0  0  0  0  0  0  0
    6.8112    9.4048   24.9226 H   0  0  0  0  0  0  0  0  0  0  0  0
   14.0066   13.3716   21.6433 H   0  0  0  0  0  0  0  0  0  0  0  0
   10.8601   14.0462   28.7044 H   0  0  0  0  0  0  0  0  0  0  0  0
   12.1155   14.2023   27.4522 H   0  0  0  0  0  0  0  0  0  0  0  0
   11.5681   15.6327   28.3180 H   0  0  0  0  0  0  0  0  0  0  0  0
   17.8059   13.6472   26.8904 H   0  0  0  0  0  0  0  0  0  0  0  0
   17.4504   13.2722   25.1754 H   0  0  0  0  0  0  0  0  0  0  0  0
   17.3075   12.0016   26.4186 H   0  0  0  0  0  0  0  0  0  0  0  0
   10.5475   15.5385   26.0406 H   0  0  0  0  0  0  0  0  0  0  0  0
    9.2869   15.3805   27.2913 H   0  0  0  0  0  0  0  0  0  0  0  0
   10.5104   11.5596   22.2574 H   0  0  0  0  0  0  0  0  0  0  0  0
   15.3271   11.5815   27.7136 H   0  0  0  0  0  0  0  0  0  0  0  0
  1 19  1  0  0  0  0
  1 25  3  0  0  0  0
  2  3  1  0  0  0  0
  2  4  2  0  0  0  0
  3  5  2  0  0  0  0
  4  6  1  0  0  0  0
  5 11  1  0  0  0  0
  6 11  2  0  0  0  0
  7  8  2  0  0  0  0
  7 13  1  0  0  0  0
  8 15  1  0  0  0  0
  9 13  2  0  0  0  0
  9 16  1  0  0  0  0
 10 12  2  0  0  0  0
 10 32  1  0  0  0  0
 11 12  1  0  0  0  0
 12 14  1  0  0  0  0
 13 18  1  4  0  0  0
 14 17  2  0  0  0  0
 14 20  1  0  0  0  0
 15 16  2  0  0  0  0
 15 29  1  0  0  0  0
 16 30  1  0  0  0  0
 17 26  1  0  0  0  0
 17 32  1  0  0  0  0
 18 19  2  0  0  0  0
 19 21  1  0  0  0  0
 20 27  2  0  0  0  0
 20 31  1  0  0  0  0
 21 26  1  0  0  0  0
 21 28  2  0  0  0  0
 22 24  1  0  0  0  0
 23 30  1  0  0  0  0
 24 31  1  0  0  0  0
  2 33  1  0  0  0  0
  3 34  1  0  0  0  0
  4 35  1  0  0  0  0
  5 36  1  0  0  0  0
  6 37  1  0  0  0  0
  7 38  1  0  0  0  0
  8 39  1  0  0  0  0
  9 40  1  0  0  0  0
 10 41  1  0  0  0  0
 18 42  1  0  0  0  0
 22 43  1  0  0  0  0
 22 44  1  0  0  0  0
 22 45  1  0  0  0  0
 23 46  1  0  0  0  0
 23 47  1  0  0  0  0
 23 48  1  0  0  0  0
 24 49  1  0  0  0  0
 24 50  1  0  0  0  0
 26 51  1  0  0  0  0
 29 52  1  0  0  0  0
M  END
> <Catalog ID>
Z56830536

> <MW>
448.491

> <MW (desalted)>
448.491

> <ClogP>
4.758

> <logS>
-6.82

> <HBD>
2

> <HBA>
5

> <TPSA>
108.65

> <RotBonds>
8

> <ROCS_ShapeQuery>
A71EV2A-x0451_0A_A71EV2A-x0310_0A_A71EV2A-x0416_0A_peptide

> <ROCS_TanimotoCombo>
0.522 

> <ROCS_ShapeTanimoto>
0.351 

> <ROCS_ColorTanimoto>
0.171 

> <ROCS_RefTversky>
0.324 

> <ROCS_RefColorTversky>
0.198 

> <ROCS_RefTverskyCombo>
0.523 

> <ROCS_FitTversky>
1.311 

> <ROCS_FitColorTversky>
0.548 

> <ROCS_FitTverskyCombo>
1.859 

> <ROCS_ColorScore>
-6.076

> <ROCS_Overlap>
2260.353

> <ROCS_Rank>
372                 

$$$$
untitled-dbase-5239_842
  -OEChem-11132309573D

 50 52  0     0  0  0  0  0  0999 V2000
    5.9220   13.0917   25.9974 C   0  0  0  0  0  0  0  0  0  0  0  0
    7.9817    7.6887   24.4968 C   0  0  0  0  0  0  0  0  0  0  0  0
    9.1012    7.8494   23.6583 C   0  0  0  0  0  0  0  0  0  0  0  0
    7.2953    8.7987   25.0024 C   0  0  0  0  0  0  0  0  0  0  0  0
    9.5556    9.1221   23.3094 C   0  0  0  0  0  0  0  0  0  0  0  0
    7.7506   10.0563   24.6530 C   0  0  0  0  0  0  0  0  0  0  0  0
    8.8586   10.1966   23.8233 C   0  0  0  0  0  0  0  0  0  0  0  0
    7.3204   11.4190   24.9648 C   0  0  0  0  0  0  0  0  0  0  0  0
    9.0268   11.6352   23.6877 C   0  0  0  0  0  0  0  0  0  0  0  0
    6.2797   11.7425   25.7395 C   0  0  0  0  0  0  0  0  0  0  0  0
    5.5003   10.6360   26.3292 C   0  0  0  0  0  0  0  0  0  0  0  0
   10.6522   13.3762   23.1831 C   0  0  0  0  0  0  0  0  0  0  0  0
    5.1762    9.6359   29.8463 C   0  0  0  0  0  0  0  0  0  0  0  0
    5.4606   11.1228   30.0084 C   0  0  0  0  0  0  0  0  0  0  0  0
    4.7066    9.5392   28.4034 C   0  0  0  0  0  0  0  0  0  0  0  0
    6.0599   11.5063   28.6623 C   0  0  0  0  0  0  0  0  0  0  0  0
   10.9425   16.7159   19.2128 C   0  0  0  0  0  0  0  0  0  0  0  0
   11.6196   15.5938   19.9844 C   0  0  0  0  0  0  0  0  0  0  0  0
   11.8258   15.9711   21.4532 C   0  0  0  0  0  0  0  0  0  0  0  0
   12.4490   14.8413   22.2663 C   0  0  0  0  0  0  0  0  0  0  0  0
    5.6277   14.1940   26.2095 N   0  0  0  0  0  0  0  0  0  0  0  0
    8.1486   12.3407   24.3395 N   0  0  0  0  0  0  0  0  0  0  0  0
    5.4414   10.5872   27.7081 N   0  0  0  0  0  0  0  0  0  0  0  0
   10.0359   12.1507   22.9297 N   0  0  0  0  0  0  0  0  0  0  0  0
   11.6481   13.6398   22.2442 N   0  0  0  0  0  0  0  0  0  0  0  0
    4.9567    9.8275   25.5774 O   0  0  0  0  0  0  0  0  0  0  0  0
   10.3613   14.1300   24.1113 O   0  0  0  0  0  0  0  0  0  0  0  0
    7.6468    6.6872   24.7537 H   0  0  0  0  0  0  0  0  0  0  0  0
    9.6155    6.9700   23.2791 H   0  0  0  0  0  0  0  0  0  0  0  0
    6.4340    8.6610   25.6465 H   0  0  0  0  0  0  0  0  0  0  0  0
   10.4167    9.2458   22.6639 H   0  0  0  0  0  0  0  0  0  0  0  0
    6.0961    9.0563   29.9863 H   0  0  0  0  0  0  0  0  0  0  0  0
    4.4264    9.2762   30.5561 H   0  0  0  0  0  0  0  0  0  0  0  0
    4.5255   11.6704   30.1760 H   0  0  0  0  0  0  0  0  0  0  0  0
    6.1381   11.3295   30.8415 H   0  0  0  0  0  0  0  0  0  0  0  0
    4.8997    8.5609   27.9535 H   0  0  0  0  0  0  0  0  0  0  0  0
    3.6383    9.7657   28.3130 H   0  0  0  0  0  0  0  0  0  0  0  0
    5.8516   12.5466   28.3966 H   0  0  0  0  0  0  0  0  0  0  0  0
    7.1417   11.3356   28.6406 H   0  0  0  0  0  0  0  0  0  0  0  0
   11.5325   17.6367   19.2614 H   0  0  0  0  0  0  0  0  0  0  0  0
   10.8317   16.4384   18.1599 H   0  0  0  0  0  0  0  0  0  0  0  0
    9.9462   16.9239   19.6158 H   0  0  0  0  0  0  0  0  0  0  0  0
   11.0046   14.6890   19.9157 H   0  0  0  0  0  0  0  0  0  0  0  0
   12.5823   15.3692   19.5118 H   0  0  0  0  0  0  0  0  0  0  0  0
   12.4567   16.8663   21.5176 H   0  0  0  0  0  0  0  0  0  0  0  0
   10.8562   16.2266   21.8976 H   0  0  0  0  0  0  0  0  0  0  0  0
   12.5869   15.1336   23.3121 H   0  0  0  0  0  0  0  0  0  0  0  0
   13.4286   14.5799   21.8537 H   0  0  0  0  0  0  0  0  0  0  0  0
   10.3584   11.6099   22.1326 H   0  0  0  0  0  0  0  0  0  0  0  0
   11.8180   12.9569   21.5125 H   0  0  0  0  0  0  0  0  0  0  0  0
  1 10  1  0  0  0  0
  1 21  3  0  0  0  0
  2  3  1  0  0  0  0
  2  4  2  0  0  0  0
  3  5  2  0  0  0  0
  4  6  1  0  0  0  0
  5  7  1  0  0  0  0
  6  7  2  0  0  0  0
  6  8  1  0  0  0  0
  7  9  1  0  0  0  0
  8 10  2  0  0  0  0
  8 22  1  4  0  0  0
  9 22  2  0  0  0  0
  9 24  1  0  0  0  0
 10 11  1  0  0  0  0
 11 23  1  0  0  0  0
 11 26  2  0  0  0  0
 12 24  1  0  0  0  0
 12 25  1  0  0  0  0
 12 27  2  0  0  0  0
 13 14  1  0  0  0  0
 13 15  1  0  0  0  0
 14 16  1  0  0  0  0
 15 23  1  0  0  0  0
 16 23  1  0  0  0  0
 17 18  1  0  0  0  0
 18 19  1  0  0  0  0
 19 20  1  0  0  0  0
 20 25  1  0  0  0  0
  2 28  1  0  0  0  0
  3 29  1  0  0  0  0
  4 30  1  0  0  0  0
  5 31  1  0  0  0  0
 13 32  1  0  0  0  0
 13 33  1  0  0  0  0
 14 34  1  0  0  0  0
 14 35  1  0  0  0  0
 15 36  1  0  0  0  0
 15 37  1  0  0  0  0
 16 38  1  0  0  0  0
 16 39  1  0  0  0  0
 17 40  1  0  0  0  0
 17 41  1  0  0  0  0
 17 42  1  0  0  0  0
 18 43  1  0  0  0  0
 18 44  1  0  0  0  0
 19 45  1  0  0  0  0
 19 46  1  0  0  0  0
 20 47  1  0  0  0  0
 20 48  1  0  0  0  0
 24 49  1  0  0  0  0
 25 50  1  0  0  0  0
M  END
> <Catalog ID>
Z56336010

> <MW>
365.429

> <MW (desalted)>
365.429

> <ClogP>
2.746

> <logS>
-4.3

> <HBD>
2

> <HBA>
4

> <TPSA>
97.59

> <RotBonds>
4

> <ROCS_ShapeQuery>
A71EV2A-x0451_0A_A71EV2A-x0310_0A_A71EV2A-x0416_0A_peptide

> <ROCS_TanimotoCombo>
0.522 

> <ROCS_ShapeTanimoto>
0.365 

> <ROCS_ColorTanimoto>
0.157 

> <ROCS_RefTversky>
0.326 

> <ROCS_RefColorTversky>
0.180 

> <ROCS_RefTverskyCombo>
0.506 

> <ROCS_FitTversky>
1.492 

> <ROCS_FitColorTversky>
0.543 

> <ROCS_FitTverskyCombo>
2.034 

> <ROCS_ColorScore>
-5.514

> <ROCS_Overlap>
2268.621

> <ROCS_Rank>
373                 

$$$$
untitled-dbase-9316_3621
  -OEChem-11132309573D

 63 67  0     1  0  0  0  0  0999 V2000
   10.5221   10.3329   23.0395 C   0  0  0  0  0  0  0  0  0  0  0  0
    9.7120    9.2287   23.3164 C   0  0  0  0  0  0  0  0  0  0  0  0
    8.2206   12.8862   24.6809 C   0  0  0  0  0  0  0  0  0  0  0  0
    8.9325   11.7896   24.1270 C   0  0  0  0  0  0  0  0  0  0  0  0
   10.1467   11.6231   23.4382 C   0  0  0  0  0  0  0  0  0  0  0  0
    8.1544   10.6654   24.3836 C   0  0  0  0  0  0  0  0  0  0  0  0
    8.5007    9.3711   23.9999 C   0  0  0  0  0  0  0  0  0  0  0  0
    7.0723   12.3651   25.2307 C   0  0  0  0  0  0  0  0  0  0  0  0
   10.9842   13.9206   24.1045 C   0  0  0  0  0  0  0  0  0  0  0  0
   16.9932   16.6955   21.6176 C   0  0  0  0  0  0  0  0  0  0  0  0
   16.1338   16.1235   20.7716 C   0  0  0  0  0  0  0  0  0  0  0  0
   15.2283   15.0722   21.2770 C   0  0  0  0  0  0  0  0  0  0  0  0
   12.0720   16.2780   19.8328 C   0  0  0  0  0  0  0  0  0  0  0  0
   13.9763   11.3901   26.7305 C   0  0  0  0  0  0  0  0  0  0  0  0
   14.2051   12.0867   25.4225 C   0  0  0  0  0  0  0  0  0  0  0  0
   11.1182   15.1630   20.2519 C   0  0  0  0  0  0  0  0  0  0  0  0
   13.4774   15.7501   19.5484 C   0  0  0  0  0  0  0  0  0  0  0  0
   13.0948   13.8513   21.0967 C   0  0  0  0  0  0  0  0  0  0  0  0
   13.2333   12.6651   26.4200 C   0  0  0  0  0  0  0  0  0  0  0  0
   11.6958   14.3748   21.4300 C   0  0  2  0  0  0  0  0  0  0  0  0
    5.9361   12.9692   25.9408 C   0  0  0  0  0  0  0  0  0  0  0  0
    7.9431    7.6136   25.5018 C   0  0  0  0  0  0  0  0  0  0  0  0
   11.7402   12.6310   26.1429 C   0  0  0  0  0  0  0  0  0  0  0  0
   11.0647   12.7813   23.1102 C   0  0  2  0  0  0  0  0  0  0  0  0
   10.6211   15.1623   23.8790 N   0  0  0  0  0  0  0  0  0  0  0  0
   10.7142   15.8028   25.0939 N   0  0  0  0  0  0  0  0  0  0  0  0
   11.1249   14.9696   26.0422 N   0  0  0  0  0  0  0  0  0  0  0  0
   11.2931   13.7938   25.4212 N   0  0  0  0  0  0  0  0  0  0  0  0
   13.9845   14.9349   20.6627 N   0  0  0  0  0  0  0  0  0  0  0  0
   10.8123   13.2579   21.7591 N   0  0  0  0  0  0  0  0  0  0  0  0
   15.6309   14.3758   22.2105 O   0  0  0  0  0  0  0  0  0  0  0  0
    7.0226   11.0188   25.0554 O   0  0  0  0  0  0  0  0  0  0  0  0
    7.7125    8.2915   24.2691 O   0  0  0  0  0  0  0  0  0  0  0  0
   11.4570   10.1784   22.5052 H   0  0  0  0  0  0  0  0  0  0  0  0
   10.0343    8.2417   22.9921 H   0  0  0  0  0  0  0  0  0  0  0  0
    8.5096   13.9278   24.6777 H   0  0  0  0  0  0  0  0  0  0  0  0
   17.6828   17.4727   21.3057 H   0  0  0  0  0  0  0  0  0  0  0  0
   17.0195   16.3876   22.6575 H   0  0  0  0  0  0  0  0  0  0  0  0
   16.0774   16.4037   19.7279 H   0  0  0  0  0  0  0  0  0  0  0  0
   11.6808   16.7794   18.9403 H   0  0  0  0  0  0  0  0  0  0  0  0
   12.1222   17.0335   20.6269 H   0  0  0  0  0  0  0  0  0  0  0  0
   13.4307   10.4548   26.7132 H   0  0  0  0  0  0  0  0  0  0  0  0
   14.7656   11.4348   27.4709 H   0  0  0  0  0  0  0  0  0  0  0  0
   15.1475   12.6017   25.2826 H   0  0  0  0  0  0  0  0  0  0  0  0
   13.8114   11.6207   24.5277 H   0  0  0  0  0  0  0  0  0  0  0  0
   10.1468   15.5959   20.5200 H   0  0  0  0  0  0  0  0  0  0  0  0
   10.9461   14.4971   19.3959 H   0  0  0  0  0  0  0  0  0  0  0  0
   13.4716   15.1094   18.6589 H   0  0  0  0  0  0  0  0  0  0  0  0
   14.1241   16.6029   19.3384 H   0  0  0  0  0  0  0  0  0  0  0  0
   13.5189   13.3280   21.9610 H   0  0  0  0  0  0  0  0  0  0  0  0
   13.0561   13.1274   20.2722 H   0  0  0  0  0  0  0  0  0  0  0  0
   13.5300   13.5618   26.9502 H   0  0  0  0  0  0  0  0  0  0  0  0
   11.7607   15.0325   22.3061 H   0  0  0  0  0  0  0  0  0  0  0  0
    5.1354   13.2678   25.2409 H   0  0  0  0  0  0  0  0  0  0  0  0
    5.4878   12.2795   26.6798 H   0  0  0  0  0  0  0  0  0  0  0  0
    6.2284   13.8703   26.5114 H   0  0  0  0  0  0  0  0  0  0  0  0
    7.2492    6.7743   25.5923 H   0  0  0  0  0  0  0  0  0  0  0  0
    7.8012    8.3088   26.3331 H   0  0  0  0  0  0  0  0  0  0  0  0
    8.9691    7.2382   25.5145 H   0  0  0  0  0  0  0  0  0  0  0  0
   11.1744   12.5772   27.0800 H   0  0  0  0  0  0  0  0  0  0  0  0
   11.4769   11.7458   25.5529 H   0  0  0  0  0  0  0  0  0  0  0  0
   12.1023   12.4233   23.0854 H   0  0  0  0  0  0  0  0  0  0  0  0
    9.8456   13.5680   21.6843 H   0  0  0  0  0  0  0  0  0  0  0  0
  1  2  2  0  0  0  0
  1  5  1  0  0  0  0
  2  7  1  0  0  0  0
  3  4  1  0  0  0  0
  3  8  2  0  0  0  0
  4  5  2  0  0  0  0
  4  6  1  0  0  0  0
  5 24  1  0  0  0  0
  6  7  2  0  0  0  0
  6 32  1  0  0  0  0
  7 33  1  0  0  0  0
  8 21  1  0  0  0  0
  8 32  1  0  0  0  0
  9 24  1  0  0  0  0
  9 25  2  0  0  0  0
  9 28  1  0  0  0  0
 10 11  2  0  0  0  0
 11 12  1  0  0  0  0
 12 29  1  0  0  0  0
 12 31  2  0  0  0  0
 13 16  1  0  0  0  0
 13 17  1  0  0  0  0
 14 15  1  0  0  0  0
 14 19  1  0  0  0  0
 15 19  1  0  0  0  0
 16 20  1  0  0  0  0
 17 29  1  0  0  0  0
 18 20  1  0  0  0  0
 18 29  1  0  0  0  0
 19 23  1  0  0  0  0
 20 30  1  0  0  0  0
 22 33  1  0  0  0  0
 23 28  1  0  0  0  0
 24 30  1  0  0  0  0
 25 26  1  0  0  0  0
 26 27  2  0  0  0  0
 27 28  1  0  0  0  0
  1 34  1  0  0  0  0
  2 35  1  0  0  0  0
  3 36  1  0  0  0  0
 10 37  1  0  0  0  0
 10 38  1  0  0  0  0
 11 39  1  0  0  0  0
 13 40  1  0  0  0  0
 13 41  1  0  0  0  0
 14 42  1  0  0  0  0
 14 43  1  0  0  0  0
 15 44  1  0  0  0  0
 15 45  1  0  0  0  0
 16 46  1  0  0  0  0
 16 47  1  0  0  0  0
 17 48  1  0  0  0  0
 17 49  1  0  0  0  0
 18 50  1  0  0  0  0
 18 51  1  0  0  0  0
 19 52  1  0  0  0  0
 20 53  1  0  0  0  0
 21 54  1  0  0  0  0
 21 55  1  0  0  0  0
 21 56  1  0  0  0  0
 22 57  1  0  0  0  0
 22 58  1  0  0  0  0
 22 59  1  0  0  0  0
 23 60  1  0  0  0  0
 23 61  1  0  0  0  0
 24 62  1  0  0  0  0
 30 63  1  0  0  0  0
M  END
> <Catalog ID>
Z7759188396

> <MW>
450.533

> <MW (desalted)>
450.533

> <ClogP>
2.85

> <logS>
-3.905

> <HBD>
1

> <HBA>
6

> <TPSA>
98.31

> <RotBonds>
8

> <ROCS_ShapeQuery>
A71EV2A-x0451_0A_A71EV2A-x0310_0A_A71EV2A-x0416_0A_peptide

> <ROCS_TanimotoCombo>
0.522 

> <ROCS_ShapeTanimoto>
0.389 

> <ROCS_ColorTanimoto>
0.133 

> <ROCS_RefTversky>
0.352 

> <ROCS_RefColorTversky>
0.173 

> <ROCS_RefTverskyCombo>
0.525 

> <ROCS_FitTversky>
1.368 

> <ROCS_FitColorTversky>
0.366 

> <ROCS_FitTverskyCombo>
1.734 

> <ROCS_ColorScore>
-5.331

> <ROCS_Overlap>
2453.620

> <ROCS_Rank>
374                 

$$$$
untitled-dbase-10278_2505
  -OEChem-11132309573D

 52 53  0     0  0  0  0  0  0999 V2000
    8.7788    9.6887   23.5113 C   0  0  0  0  0  0  0  0  0  0  0  0
    9.7570   10.6706   23.3547 C   0  0  0  0  0  0  0  0  0  0  0  0
    7.5790    9.9957   24.1532 C   0  0  0  0  0  0  0  0  0  0  0  0
    8.3358   12.2664   24.4820 C   0  0  0  0  0  0  0  0  0  0  0  0
    9.5356   11.9594   23.8400 C   0  0  0  0  0  0  0  0  0  0  0  0
    7.3575   11.2845   24.6385 C   0  0  0  0  0  0  0  0  0  0  0  0
   10.5775   13.0051   23.6725 C   0  0  0  0  0  0  0  0  0  0  0  0
    5.1825   12.0059   27.6124 C   0  0  0  0  0  0  0  0  0  0  0  0
   14.4052   12.0943   25.0864 C   0  0  0  0  0  0  0  0  0  0  0  0
   11.8818   14.8604   19.6011 C   0  0  0  0  0  0  0  0  0  0  0  0
   12.4231   13.4450   19.7696 C   0  0  0  0  0  0  0  0  0  0  0  0
   11.1064   15.3170   20.8320 C   0  0  0  0  0  0  0  0  0  0  0  0
   13.2620   13.3092   21.0414 C   0  0  0  0  0  0  0  0  0  0  0  0
   11.9417   15.1852   22.1065 C   0  0  0  0  0  0  0  0  0  0  0  0
   12.5057   13.7631   22.3072 C   0  0  0  0  0  0  0  0  0  0  0  0
    5.5693   12.0548   29.0534 C   0  0  0  0  0  0  0  0  0  0  0  0
    6.0747   11.6128   25.3251 C   0  0  0  0  0  0  0  0  0  0  0  0
   14.3772   10.6289   25.4387 C   0  0  0  0  0  0  0  0  0  0  0  0
   13.4629   13.7554   23.5070 C   0  0  0  0  0  0  0  0  0  0  0  0
   11.4195   12.8373   22.5914 N   0  0  0  0  0  0  0  0  0  0  0  0
    6.2280   11.7111   26.7543 N   0  0  0  0  0  0  0  0  0  0  0  0
   13.5981   12.4279   23.9960 N   0  0  0  0  0  0  0  0  0  0  0  0
   10.6454   13.9206   24.4884 O   0  0  0  0  0  0  0  0  0  0  0  0
    4.0189   12.2178   27.2917 O   0  0  0  0  0  0  0  0  0  0  0  0
   15.0734   12.9030   25.7280 O   0  0  0  0  0  0  0  0  0  0  0  0
   14.6517   10.4825   27.1817 Cl  0  0  0  0  0  0  0  0  0  0  0  0
    8.9517    8.6849   23.1344 H   0  0  0  0  0  0  0  0  0  0  0  0
   10.6882   10.4206   22.8525 H   0  0  0  0  0  0  0  0  0  0  0  0
    6.8221    9.2245   24.2702 H   0  0  0  0  0  0  0  0  0  0  0  0
    8.1619   13.2706   24.8620 H   0  0  0  0  0  0  0  0  0  0  0  0
   12.7155   15.5499   19.4198 H   0  0  0  0  0  0  0  0  0  0  0  0
   11.2338   14.9050   18.7185 H   0  0  0  0  0  0  0  0  0  0  0  0
   11.5894   12.7331   19.7955 H   0  0  0  0  0  0  0  0  0  0  0  0
   13.0349   13.1816   18.8993 H   0  0  0  0  0  0  0  0  0  0  0  0
   10.8045   16.3629   20.7037 H   0  0  0  0  0  0  0  0  0  0  0  0
   10.1812   14.7362   20.9228 H   0  0  0  0  0  0  0  0  0  0  0  0
   13.5973   12.2695   21.1476 H   0  0  0  0  0  0  0  0  0  0  0  0
   14.1714   13.9136   20.9229 H   0  0  0  0  0  0  0  0  0  0  0  0
   12.7711   15.9034   22.0533 H   0  0  0  0  0  0  0  0  0  0  0  0
   11.3354   15.4813   22.9720 H   0  0  0  0  0  0  0  0  0  0  0  0
    5.8851   13.0618   29.3700 H   0  0  0  0  0  0  0  0  0  0  0  0
    4.7353   11.7875   29.7219 H   0  0  0  0  0  0  0  0  0  0  0  0
    6.3971   11.3875   29.3421 H   0  0  0  0  0  0  0  0  0  0  0  0
    5.6694   12.5706   24.9699 H   0  0  0  0  0  0  0  0  0  0  0  0
    5.3070   10.8516   25.1296 H   0  0  0  0  0  0  0  0  0  0  0  0
   13.4228   10.1563   25.1936 H   0  0  0  0  0  0  0  0  0  0  0  0
   15.1793   10.1116   24.9052 H   0  0  0  0  0  0  0  0  0  0  0  0
   14.4149   14.1384   23.1514 H   0  0  0  0  0  0  0  0  0  0  0  0
   13.0272   14.4054   24.2602 H   0  0  0  0  0  0  0  0  0  0  0  0
   11.3492   12.0262   21.9931 H   0  0  0  0  0  0  0  0  0  0  0  0
    7.1514   11.5561   27.1531 H   0  0  0  0  0  0  0  0  0  0  0  0
   13.0779   11.6785   23.5255 H   0  0  0  0  0  0  0  0  0  0  0  0
  1  2  1  0  0  0  0
  1  3  2  0  0  0  0
  2  5  2  0  0  0  0
  3  6  1  0  0  0  0
  4  5  1  0  0  0  0
  4  6  2  0  0  0  0
  5  7  1  0  0  0  0
  6 17  1  0  0  0  0
  7 20  1  0  0  0  0
  7 23  2  0  0  0  0
  8 16  1  0  0  0  0
  8 21  1  0  0  0  0
  8 24  2  0  0  0  0
  9 18  1  0  0  0  0
  9 22  1  0  0  0  0
  9 25  2  0  0  0  0
 10 11  1  0  0  0  0
 10 12  1  0  0  0  0
 11 13  1  0  0  0  0
 12 14  1  0  0  0  0
 13 15  1  0  0  0  0
 14 15  1  0  0  0  0
 15 19  1  0  0  0  0
 15 20  1  0  0  0  0
 17 21  1  0  0  0  0
 18 26  1  0  0  0  0
 19 22  1  0  0  0  0
  1 27  1  0  0  0  0
  2 28  1  0  0  0  0
  3 29  1  0  0  0  0
  4 30  1  0  0  0  0
 10 31  1  0  0  0  0
 10 32  1  0  0  0  0
 11 33  1  0  0  0  0
 11 34  1  0  0  0  0
 12 35  1  0  0  0  0
 12 36  1  0  0  0  0
 13 37  1  0  0  0  0
 13 38  1  0  0  0  0
 14 39  1  0  0  0  0
 14 40  1  0  0  0  0
 16 41  1  0  0  0  0
 16 42  1  0  0  0  0
 16 43  1  0  0  0  0
 17 44  1  0  0  0  0
 17 45  1  0  0  0  0
 18 46  1  0  0  0  0
 18 47  1  0  0  0  0
 19 48  1  0  0  0  0
 19 49  1  0  0  0  0
 20 50  1  0  0  0  0
 21 51  1  0  0  0  0
 22 52  1  0  0  0  0
M  END
> <Catalog ID>
Z4425210965

> <MW>
379.881

> <MW (desalted)>
379.881

> <ClogP>
1.706

> <logS>
-4.154

> <HBD>
3

> <HBA>
3

> <TPSA>
87.3

> <RotBonds>
7

> <ROCS_ShapeQuery>
A71EV2A-x0451_0A_A71EV2A-x0310_0A_A71EV2A-x0416_0A_peptide

> <ROCS_TanimotoCombo>
0.522 

> <ROCS_ShapeTanimoto>
0.356 

> <ROCS_ColorTanimoto>
0.166 

> <ROCS_RefTversky>
0.316 

> <ROCS_RefColorTversky>
0.186 

> <ROCS_RefTverskyCombo>
0.502 

> <ROCS_FitTversky>
1.539 

> <ROCS_FitColorTversky>
0.616 

> <ROCS_FitTverskyCombo>
2.156 

> <ROCS_ColorScore>
-5.663

> <ROCS_Overlap>
2198.011

> <ROCS_Rank>
375                 

$$$$
untitled-dbase-4757_8928
  -OEChem-11132309573D

 50 52  0     0  0  0  0  0  0999 V2000
    9.6617    7.6643   23.5236 C   0  0  0  0  0  0  0  0  0  0  0  0
    7.4435    8.1460   22.6962 C   0  0  0  0  0  0  0  0  0  0  0  0
    9.4798    6.3139   23.2251 C   0  0  0  0  0  0  0  0  0  0  0  0
    7.2616    6.7956   22.3976 C   0  0  0  0  0  0  0  0  0  0  0  0
    8.6435    8.5803   23.2592 C   0  0  0  0  0  0  0  0  0  0  0  0
    8.2798    5.8796   22.6621 C   0  0  0  0  0  0  0  0  0  0  0  0
    9.5949   11.9637   23.5946 C   0  0  0  0  0  0  0  0  0  0  0  0
    8.5200   11.9833   24.4631 C   0  0  0  0  0  0  0  0  0  0  0  0
    8.8313    9.9831   23.5671 C   0  0  0  0  0  0  0  0  0  0  0  0
    9.2659   16.7061   24.9257 C   0  0  0  0  0  0  0  0  0  0  0  0
    9.5440   17.1201   23.6857 C   0  0  0  0  0  0  0  0  0  0  0  0
   10.4486   13.0705   23.2719 C   0  0  0  0  0  0  0  0  0  0  0  0
   10.6819   16.5290   22.9321 C   0  0  0  0  0  0  0  0  0  0  0  0
    7.9707   13.1059   25.2773 C   0  0  0  0  0  0  0  0  0  0  0  0
    6.4540   13.0686   25.4277 C   0  0  0  0  0  0  0  0  0  0  0  0
    5.9653   12.0884   26.4958 C   0  0  0  0  0  0  0  0  0  0  0  0
    6.6749   10.7343   26.5305 C   0  0  0  0  0  0  0  0  0  0  0  0
    6.9148   10.1334   25.1506 C   0  0  0  0  0  0  0  0  0  0  0  0
   11.9277   14.1305   21.5214 C   0  0  0  0  0  0  0  0  0  0  0  0
   11.1851   15.2756   20.8534 C   0  0  0  0  0  0  0  0  0  0  0  0
    9.7803   10.7241   23.0435 N   0  0  0  0  0  0  0  0  0  0  0  0
    8.0461   10.6944   24.4361 N   0  0  0  0  0  0  0  0  0  0  0  0
   11.0310   13.0977   21.9883 N   0  0  0  0  0  0  0  0  0  0  0  0
   10.2692   15.9217   21.7540 N   0  0  0  0  0  0  0  0  0  0  0  0
   10.6884   13.9766   24.1066 O   0  0  0  0  0  0  0  0  0  0  0  0
   11.8398   16.5855   23.3334 O   0  0  0  0  0  0  0  0  0  0  0  0
    8.1054    4.5830   22.3745 F   0  0  0  0  0  0  0  0  0  0  0  0
   10.6030    7.9867   23.9628 H   0  0  0  0  0  0  0  0  0  0  0  0
    6.6405    8.8479   22.4835 H   0  0  0  0  0  0  0  0  0  0  0  0
   10.2729    5.6010   23.4300 H   0  0  0  0  0  0  0  0  0  0  0  0
    6.3272    6.4574   21.9594 H   0  0  0  0  0  0  0  0  0  0  0  0
    8.4348   17.1429   25.4695 H   0  0  0  0  0  0  0  0  0  0  0  0
    9.8419   15.9368   25.4279 H   0  0  0  0  0  0  0  0  0  0  0  0
    8.9421   17.8924   23.2192 H   0  0  0  0  0  0  0  0  0  0  0  0
    8.4186   13.0681   26.2827 H   0  0  0  0  0  0  0  0  0  0  0  0
    8.2921   14.0662   24.8445 H   0  0  0  0  0  0  0  0  0  0  0  0
    6.0585   14.0701   25.6336 H   0  0  0  0  0  0  0  0  0  0  0  0
    6.0248   12.7512   24.4696 H   0  0  0  0  0  0  0  0  0  0  0  0
    6.1029   12.5660   27.4781 H   0  0  0  0  0  0  0  0  0  0  0  0
    4.8807   11.9343   26.3873 H   0  0  0  0  0  0  0  0  0  0  0  0
    7.6184   10.8218   27.0821 H   0  0  0  0  0  0  0  0  0  0  0  0
    6.0390   10.0431   27.0968 H   0  0  0  0  0  0  0  0  0  0  0  0
    7.0688    9.0491   25.2573 H   0  0  0  0  0  0  0  0  0  0  0  0
    6.0327   10.2554   24.5004 H   0  0  0  0  0  0  0  0  0  0  0  0
   12.5042   14.4779   22.3846 H   0  0  0  0  0  0  0  0  0  0  0  0
   12.6144   13.6618   20.8096 H   0  0  0  0  0  0  0  0  0  0  0  0
   11.8922   16.0380   20.5126 H   0  0  0  0  0  0  0  0  0  0  0  0
   10.6078   14.9273   19.9909 H   0  0  0  0  0  0  0  0  0  0  0  0
   10.8635   12.3151   21.3644 H   0  0  0  0  0  0  0  0  0  0  0  0
    9.2771   15.8996   21.5217 H   0  0  0  0  0  0  0  0  0  0  0  0
  1  3  2  0  0  0  0
  1  5  1  0  0  0  0
  2  4  1  0  0  0  0
  2  5  2  0  0  0  0
  3  6  1  0  0  0  0
  4  6  2  0  0  0  0
  5  9  1  0  0  0  0
  6 27  1  0  0  0  0
  7  8  2  0  0  0  0
  7 12  1  0  0  0  0
  7 21  1  0  0  0  0
  8 14  1  0  0  0  0
  8 22  1  0  0  0  0
  9 21  2  0  0  0  0
  9 22  1  0  0  0  0
 10 11  2  0  0  0  0
 11 13  1  0  0  0  0
 12 23  1  0  0  0  0
 12 25  2  0  0  0  0
 13 24  1  0  0  0  0
 13 26  2  0  0  0  0
 14 15  1  0  0  0  0
 15 16  1  0  0  0  0
 16 17  1  0  0  0  0
 17 18  1  0  0  0  0
 18 22  1  0  0  0  0
 19 20  1  0  0  0  0
 19 23  1  0  0  0  0
 20 24  1  0  0  0  0
  1 28  1  0  0  0  0
  2 29  1  0  0  0  0
  3 30  1  0  0  0  0
  4 31  1  0  0  0  0
 10 32  1  0  0  0  0
 10 33  1  0  0  0  0
 11 34  1  0  0  0  0
 14 35  1  0  0  0  0
 14 36  1  0  0  0  0
 15 37  1  0  0  0  0
 15 38  1  0  0  0  0
 16 39  1  0  0  0  0
 16 40  1  0  0  0  0
 17 41  1  0  0  0  0
 17 42  1  0  0  0  0
 18 43  1  0  0  0  0
 18 44  1  0  0  0  0
 19 45  1  0  0  0  0
 19 46  1  0  0  0  0
 20 47  1  0  0  0  0
 20 48  1  0  0  0  0
 23 49  1  0  0  0  0
 24 50  1  0  0  0  0
M  END
> <Catalog ID>
Z1174901305

> <MW>
370.421

> <MW (desalted)>
370.421

> <ClogP>
3.232

> <logS>
-4.533

> <HBD>
2

> <HBA>
3

> <TPSA>
76.02

> <RotBonds>
6

> <ROCS_ShapeQuery>
A71EV2A-x0451_0A_A71EV2A-x0310_0A_A71EV2A-x0416_0A_peptide

> <ROCS_TanimotoCombo>
0.522 

> <ROCS_ShapeTanimoto>
0.353 

> <ROCS_ColorTanimoto>
0.169 

> <ROCS_RefTversky>
0.318 

> <ROCS_RefColorTversky>
0.197 

> <ROCS_RefTverskyCombo>
0.514 

> <ROCS_FitTversky>
1.459 

> <ROCS_FitColorTversky>
0.543 

> <ROCS_FitTverskyCombo>
2.003 

> <ROCS_ColorScore>
-6.027

> <ROCS_Overlap>
2209.375

> <ROCS_Rank>
376                 

$$$$
untitled-dbase-4439_1750
  -OEChem-11132309573D

 47 49  0     1  0  0  0  0  0999 V2000
   13.4152   16.9073   17.8613 C   0  0  0  0  0  0  0  0  0  0  0  0
   14.5299   17.0467   18.6827 C   0  0  0  0  0  0  0  0  0  0  0  0
   12.3788   16.0492   18.2300 C   0  0  0  0  0  0  0  0  0  0  0  0
   14.6126   16.3286   19.8760 C   0  0  0  0  0  0  0  0  0  0  0  0
   11.4112   14.4504   19.8143 C   0  0  0  0  0  0  0  0  0  0  0  0
   11.4938   13.7322   21.0076 C   0  0  0  0  0  0  0  0  0  0  0  0
   13.6451   14.7296   21.4603 C   0  0  0  0  0  0  0  0  0  0  0  0
   12.4451   15.3185   19.4275 C   0  0  0  0  0  0  0  0  0  0  0  0
   13.5787   15.4603   20.2628 C   0  0  0  0  0  0  0  0  0  0  0  0
   12.6086   13.8716   21.8290 C   0  0  0  0  0  0  0  0  0  0  0  0
    9.2642   11.9216   24.2256 C   0  0  0  0  0  0  0  0  0  0  0  0
    8.0407   12.0500   24.8349 C   0  0  0  0  0  0  0  0  0  0  0  0
    8.1629   10.0942   24.0715 C   0  0  0  0  0  0  0  0  0  0  0  0
   10.4089   12.8491   24.0345 C   0  0  0  0  0  0  0  0  0  0  0  0
   14.5675   11.9055   25.5731 C   0  0  0  0  0  0  0  0  0  0  0  0
    7.4640   13.2153   25.5212 C   0  0  0  0  0  0  0  0  0  0  0  0
    7.9665    8.6968   23.6568 C   0  0  0  0  0  0  0  0  0  0  0  0
   14.4377   10.9783   26.7545 C   0  0  0  0  0  0  0  0  0  0  0  0
   13.9206   12.1624   23.1946 C   0  0  0  0  0  0  0  0  0  0  0  0
   12.6950   13.1031   23.1045 C   0  0  2  0  0  0  0  0  0  0  0  0
    7.3394   10.8759   24.7326 N   0  0  0  0  0  0  0  0  0  0  0  0
   11.4696   12.3157   23.3536 N   0  0  0  0  0  0  0  0  0  0  0  0
   13.9377   11.4285   24.4331 N   0  0  0  0  0  0  0  0  0  0  0  0
   10.3448   13.9847   24.4981 O   0  0  0  0  0  0  0  0  0  0  0  0
   15.1648   12.9775   25.6524 O   0  0  0  0  0  0  0  0  0  0  0  0
    9.3535   10.6570   23.7273 O   0  0  0  0  0  0  0  0  0  0  0  0
   14.4536   11.9644   28.2250 Cl  0  0  0  0  0  0  0  0  0  0  0  0
   13.3519   17.4664   16.9325 H   0  0  0  0  0  0  0  0  0  0  0  0
   15.3366   17.7145   18.3947 H   0  0  0  0  0  0  0  0  0  0  0  0
   11.5168   15.9564   17.5723 H   0  0  0  0  0  0  0  0  0  0  0  0
   15.4936   16.4529   20.5024 H   0  0  0  0  0  0  0  0  0  0  0  0
   10.5304   14.3256   19.1875 H   0  0  0  0  0  0  0  0  0  0  0  0
   10.6822   13.0657   21.2872 H   0  0  0  0  0  0  0  0  0  0  0  0
   14.5115   14.8298   22.1122 H   0  0  0  0  0  0  0  0  0  0  0  0
    6.8975   13.8554   24.8218 H   0  0  0  0  0  0  0  0  0  0  0  0
    6.7743   12.9242   26.3348 H   0  0  0  0  0  0  0  0  0  0  0  0
    8.2369   13.8478   25.9956 H   0  0  0  0  0  0  0  0  0  0  0  0
    7.5046    8.6351   22.6557 H   0  0  0  0  0  0  0  0  0  0  0  0
    8.9169    8.1337   23.6177 H   0  0  0  0  0  0  0  0  0  0  0  0
    7.3162    8.1396   24.3559 H   0  0  0  0  0  0  0  0  0  0  0  0
   13.5125   10.3972   26.7326 H   0  0  0  0  0  0  0  0  0  0  0  0
   15.2894   10.2929   26.7737 H   0  0  0  0  0  0  0  0  0  0  0  0
   13.9132   11.4152   22.3928 H   0  0  0  0  0  0  0  0  0  0  0  0
   14.8657   12.7116   23.1268 H   0  0  0  0  0  0  0  0  0  0  0  0
   12.7750   13.8050   23.9564 H   0  0  0  0  0  0  0  0  0  0  0  0
   11.5021   11.3634   23.0488 H   0  0  0  0  0  0  0  0  0  0  0  0
   13.4700   10.5257   24.4736 H   0  0  0  0  0  0  0  0  0  0  0  0
  1  2  1  0  0  0  0
  1  3  2  0  0  0  0
  2  4  2  0  0  0  0
  3  8  1  0  0  0  0
  4  9  1  0  0  0  0
  5  6  2  0  0  0  0
  5  8  1  0  0  0  0
  6 10  1  0  0  0  0
  7  9  1  0  0  0  0
  7 10  2  0  0  0  0
  8  9  2  0  0  0  0
 10 20  1  0  0  0  0
 11 12  2  0  0  0  0
 11 14  1  0  0  0  0
 11 26  1  0  0  0  0
 12 16  1  0  0  0  0
 12 21  1  0  0  0  0
 13 17  1  0  0  0  0
 13 21  2  0  0  0  0
 13 26  1  0  0  0  0
 14 22  1  0  0  0  0
 14 24  2  0  0  0  0
 15 18  1  0  0  0  0
 15 23  1  0  0  0  0
 15 25  2  0  0  0  0
 18 27  1  0  0  0  0
 19 20  1  0  0  0  0
 19 23  1  0  0  0  0
 20 22  1  0  0  0  0
  1 28  1  0  0  0  0
  2 29  1  0  0  0  0
  3 30  1  0  0  0  0
  4 31  1  0  0  0  0
  5 32  1  0  0  0  0
  6 33  1  0  0  0  0
  7 34  1  0  0  0  0
 16 35  1  0  0  0  0
 16 36  1  0  0  0  0
 16 37  1  0  0  0  0
 17 38  1  0  0  0  0
 17 39  1  0  0  0  0
 17 40  1  0  0  0  0
 18 41  1  0  0  0  0
 18 42  1  0  0  0  0
 19 43  1  0  0  0  0
 19 44  1  0  0  0  0
 20 45  1  0  0  0  0
 22 46  1  0  0  0  0
 23 47  1  0  0  0  0
M  END
> <Catalog ID>
Z4425211250

> <MW>
385.844

> <MW (desalted)>
385.844

> <ClogP>
2.316

> <logS>
-4.664

> <HBD>
2

> <HBA>
3

> <TPSA>
84.23

> <RotBonds>
6

> <ROCS_ShapeQuery>
A71EV2A-x0451_0A_A71EV2A-x0310_0A_A71EV2A-x0416_0A_peptide

> <ROCS_TanimotoCombo>
0.522 

> <ROCS_ShapeTanimoto>
0.339 

> <ROCS_ColorTanimoto>
0.183 

> <ROCS_RefTversky>
0.309 

> <ROCS_RefColorTversky>
0.201 

> <ROCS_RefTverskyCombo>
0.509 

> <ROCS_FitTversky>
1.413 

> <ROCS_FitColorTversky>
0.667 

> <ROCS_FitTverskyCombo>
2.080 

> <ROCS_ColorScore>
-6.131

> <ROCS_Overlap>
2146.254

> <ROCS_Rank>
377                 

$$$$
untitled-dbase-9268_1750
  -OEChem-11132309573D

 49 51  0     1  0  0  0  0  0999 V2000
   10.3616   13.9127   20.9762 C   0  0  0  0  0  0  0  0  0  0  0  0
   12.5029   13.7745   22.0864 C   0  0  0  0  0  0  0  0  0  0  0  0
    7.9295   13.1651   24.9685 C   0  0  0  0  0  0  0  0  0  0  0  0
   11.0031   14.2252   19.7777 C   0  0  0  0  0  0  0  0  0  0  0  0
   13.1445   14.0869   20.8879 C   0  0  0  0  0  0  0  0  0  0  0  0
    6.8219   13.0168   25.7930 C   0  0  0  0  0  0  0  0  0  0  0  0
   11.1115   13.6874   22.1306 C   0  0  0  0  0  0  0  0  0  0  0  0
    8.5023   12.0592   24.3195 C   0  0  0  0  0  0  0  0  0  0  0  0
   12.3945   14.3123   19.7335 C   0  0  0  0  0  0  0  0  0  0  0  0
    7.8979   10.7983   24.5199 C   0  0  0  0  0  0  0  0  0  0  0  0
    6.3005   11.7538   25.9388 C   0  0  0  0  0  0  0  0  0  0  0  0
   12.9384   17.3111   20.0399 C   0  0  0  0  0  0  0  0  0  0  0  0
   14.0145   16.7057   19.5277 C   0  0  0  0  0  0  0  0  0  0  0  0
   10.4326   13.3569   23.3990 C   0  0  0  0  0  0  0  0  0  0  0  0
   13.8760   15.7813   18.3642 C   0  0  0  0  0  0  0  0  0  0  0  0
    9.9264   11.0311   22.5874 C   0  0  0  0  0  0  0  0  0  0  0  0
    9.7421    9.7237   23.3330 C   0  0  0  0  0  0  0  0  0  0  0  0
    7.8339    8.3611   24.2019 C   0  0  0  0  0  0  0  0  0  0  0  0
   12.9203   13.6748   17.3798 C   0  0  0  0  0  0  0  0  0  0  0  0
    4.6968   12.7168   27.4073 C   0  0  0  0  0  0  0  0  0  0  0  0
    6.8038   10.6646   25.3249 N   0  0  0  0  0  0  0  0  0  0  0  0
    9.6357   12.1961   23.4370 N   0  0  0  0  0  0  0  0  0  0  0  0
    8.4072    9.6602   23.8923 N   0  0  1  0  0  0  0  0  0  0  0  0
   13.0352   14.6247   18.5342 N   0  0  0  0  0  0  0  0  0  0  0  0
   10.6426   14.1392   24.3245 O   0  0  0  0  0  0  0  0  0  0  0  0
   14.4991   16.0288   17.3314 O   0  0  0  0  0  0  0  0  0  0  0  0
    5.2171   11.5644   26.7541 O   0  0  0  0  0  0  0  0  0  0  0  0
    9.2769   13.8480   20.9996 H   0  0  0  0  0  0  0  0  0  0  0  0
   13.0970   13.6008   22.9800 H   0  0  0  0  0  0  0  0  0  0  0  0
    8.3358   14.1662   24.8892 H   0  0  0  0  0  0  0  0  0  0  0  0
   10.4093   14.3986   18.8836 H   0  0  0  0  0  0  0  0  0  0  0  0
   14.2295   14.1521   20.8653 H   0  0  0  0  0  0  0  0  0  0  0  0
    6.3983   13.8707   26.3100 H   0  0  0  0  0  0  0  0  0  0  0  0
   13.0475   18.0001   20.8709 H   0  0  0  0  0  0  0  0  0  0  0  0
   11.9369   17.1389   19.6612 H   0  0  0  0  0  0  0  0  0  0  0  0
   15.0001   16.9182   19.9254 H   0  0  0  0  0  0  0  0  0  0  0  0
   10.9575   11.1376   22.2263 H   0  0  0  0  0  0  0  0  0  0  0  0
    9.2760   11.0152   21.7076 H   0  0  0  0  0  0  0  0  0  0  0  0
    9.9070    8.8718   22.6612 H   0  0  0  0  0  0  0  0  0  0  0  0
   10.4949    9.6592   24.1274 H   0  0  0  0  0  0  0  0  0  0  0  0
    8.3521    7.5833   23.6217 H   0  0  0  0  0  0  0  0  0  0  0  0
    7.9503    8.1557   25.2762 H   0  0  0  0  0  0  0  0  0  0  0  0
    6.7649    8.3609   23.9422 H   0  0  0  0  0  0  0  0  0  0  0  0
   12.0421   13.9394   16.7725 H   0  0  0  0  0  0  0  0  0  0  0  0
   13.8271   13.7392   16.7605 H   0  0  0  0  0  0  0  0  0  0  0  0
   12.8077   12.6485   17.7594 H   0  0  0  0  0  0  0  0  0  0  0  0
    3.8404   12.4319   28.0233 H   0  0  0  0  0  0  0  0  0  0  0  0
    4.3925   13.4540   26.6600 H   0  0  0  0  0  0  0  0  0  0  0  0
    5.4741   13.1459   28.0440 H   0  0  0  0  0  0  0  0  0  0  0  0
  1  4  2  0  0  0  0
  1  7  1  0  0  0  0
  2  5  1  0  0  0  0
  2  7  2  0  0  0  0
  3  6  2  0  0  0  0
  3  8  1  0  0  0  0
  4  9  1  0  0  0  0
  5  9  2  0  0  0  0
  6 11  1  0  0  0  0
  7 14  1  0  0  0  0
  8 10  2  0  0  0  0
  8 22  1  0  0  0  0
  9 24  1  0  0  0  0
 10 21  1  0  0  0  0
 10 23  1  0  0  0  0
 11 21  2  0  0  0  0
 11 27  1  0  0  0  0
 12 13  2  0  0  0  0
 13 15  1  0  0  0  0
 14 22  1  0  0  0  0
 14 25  2  0  0  0  0
 15 24  1  0  0  0  0
 15 26  2  0  0  0  0
 16 17  1  0  0  0  0
 16 22  1  0  0  0  0
 17 23  1  0  0  0  0
 18 23  1  0  0  0  0
 19 24  1  0  0  0  0
 20 27  1  0  0  0  0
  1 28  1  0  0  0  0
  2 29  1  0  0  0  0
  3 30  1  0  0  0  0
  4 31  1  0  0  0  0
  5 32  1  0  0  0  0
  6 33  1  0  0  0  0
 12 34  1  0  0  0  0
 12 35  1  0  0  0  0
 13 36  1  0  0  0  0
 16 37  1  0  0  0  0
 16 38  1  0  0  0  0
 17 39  1  0  0  0  0
 17 40  1  0  0  0  0
 18 41  1  0  0  0  0
 18 42  1  0  0  0  0
 18 43  1  0  0  0  0
 19 44  1  0  0  0  0
 19 45  1  0  0  0  0
 19 46  1  0  0  0  0
 20 47  1  0  0  0  0
 20 48  1  0  0  0  0
 20 49  1  0  0  0  0
M  END
> <Catalog ID>
Z3756708183

> <MW>
366.414

> <MW (desalted)>
366.414

> <ClogP>
2.781

> <logS>
-4.749

> <HBD>
0

> <HBA>
5

> <TPSA>
65.98

> <RotBonds>
4

> <ROCS_ShapeQuery>
A71EV2A-x0451_0A_A71EV2A-x0310_0A_A71EV2A-x0416_0A_peptide

> <ROCS_TanimotoCombo>
0.522 

> <ROCS_ShapeTanimoto>
0.382 

> <ROCS_ColorTanimoto>
0.140 

> <ROCS_RefTversky>
0.337 

> <ROCS_RefColorTversky>
0.159 

> <ROCS_RefTverskyCombo>
0.497 

> <ROCS_FitTversky>
1.531 

> <ROCS_FitColorTversky>
0.529 

> <ROCS_FitTverskyCombo>
2.060 

> <ROCS_ColorScore>
-4.867

> <ROCS_Overlap>
2346.701

> <ROCS_Rank>
378                 

$$$$
untitled-dbase-6937_10434
  -OEChem-11132309573D

 51 53  0     1  0  0  0  0  0999 V2000
    9.6034   11.6510   21.5194 C   0  0  0  0  0  0  0  0  0  0  0  0
    3.9881   12.8220   28.6757 C   0  0  0  0  0  0  0  0  0  0  0  0
   13.4117   16.3950   18.4026 C   0  0  0  0  0  0  0  0  0  0  0  0
    8.5512    7.7800   23.0648 C   0  0  0  0  0  0  0  0  0  0  0  0
    4.9984   13.6328   28.1586 C   0  0  0  0  0  0  0  0  0  0  0  0
    4.0502   11.4385   28.5090 C   0  0  0  0  0  0  0  0  0  0  0  0
   12.2476   15.6478   18.5821 C   0  0  0  0  0  0  0  0  0  0  0  0
   14.2642   16.6281   19.4818 C   0  0  0  0  0  0  0  0  0  0  0  0
    7.3141    7.6621   23.6984 C   0  0  0  0  0  0  0  0  0  0  0  0
    9.2629    8.9772   23.1417 C   0  0  0  0  0  0  0  0  0  0  0  0
    6.0707   13.0602   27.4745 C   0  0  0  0  0  0  0  0  0  0  0  0
    5.1225   10.8659   27.8249 C   0  0  0  0  0  0  0  0  0  0  0  0
   11.9360   15.1337   19.8408 C   0  0  0  0  0  0  0  0  0  0  0  0
   13.9527   16.1140   20.7405 C   0  0  0  0  0  0  0  0  0  0  0  0
    6.7887    8.7414   24.4087 C   0  0  0  0  0  0  0  0  0  0  0  0
    8.7374   10.0565   23.8520 C   0  0  0  0  0  0  0  0  0  0  0  0
    6.1328   11.6767   27.3077 C   0  0  0  0  0  0  0  0  0  0  0  0
   12.7886   15.3668   20.9200 C   0  0  0  0  0  0  0  0  0  0  0  0
    7.5003    9.9387   24.4856 C   0  0  0  0  0  0  0  0  0  0  0  0
    9.5077   11.3082   23.9182 C   0  0  0  0  0  0  0  0  0  0  0  0
    9.8985   12.0446   22.8597 C   0  0  0  0  0  0  0  0  0  0  0  0
   10.6857   13.2951   23.1592 C   0  0  0  0  0  0  0  0  0  0  0  0
   13.6960   14.5003   23.1150 C   0  0  0  0  0  0  0  0  0  0  0  0
    7.2859   11.0602   26.5717 C   0  0  0  0  0  0  0  0  0  0  0  0
   12.4510   14.8094   22.2860 C   0  0  2  0  0  0  0  0  0  0  0  0
    9.3658   11.3343   20.4285 N   0  0  0  0  0  0  0  0  0  0  0  0
   11.6059   13.6406   22.1818 N   0  0  0  0  0  0  0  0  0  0  0  0
   10.5051   13.9409   24.1904 O   0  0  0  0  0  0  0  0  0  0  0  0
    6.9629   10.9782   25.1856 O   0  0  0  0  0  0  0  0  0  0  0  0
    3.1539   13.2679   29.2095 H   0  0  0  0  0  0  0  0  0  0  0  0
   13.6548   16.7942   17.4222 H   0  0  0  0  0  0  0  0  0  0  0  0
    8.9592    6.9397   22.5106 H   0  0  0  0  0  0  0  0  0  0  0  0
    4.9508   14.7100   28.2893 H   0  0  0  0  0  0  0  0  0  0  0  0
    3.2644   10.8068   28.9125 H   0  0  0  0  0  0  0  0  0  0  0  0
   11.5842   15.4654   17.7418 H   0  0  0  0  0  0  0  0  0  0  0  0
   15.1712   17.2089   19.3422 H   0  0  0  0  0  0  0  0  0  0  0  0
    6.7608    6.7297   23.6377 H   0  0  0  0  0  0  0  0  0  0  0  0
   10.2252    9.0524   22.6409 H   0  0  0  0  0  0  0  0  0  0  0  0
    6.8532   13.6999   27.0747 H   0  0  0  0  0  0  0  0  0  0  0  0
    5.1625    9.7870   27.6997 H   0  0  0  0  0  0  0  0  0  0  0  0
   11.0268   14.5528   19.9714 H   0  0  0  0  0  0  0  0  0  0  0  0
   14.6227   16.3007   21.5755 H   0  0  0  0  0  0  0  0  0  0  0  0
    5.8247    8.6422   24.9004 H   0  0  0  0  0  0  0  0  0  0  0  0
    9.7670   11.6001   24.9336 H   0  0  0  0  0  0  0  0  0  0  0  0
   14.3324   13.7642   22.6116 H   0  0  0  0  0  0  0  0  0  0  0  0
   14.2876   15.4091   23.2727 H   0  0  0  0  0  0  0  0  0  0  0  0
   13.4417   14.1061   24.1053 H   0  0  0  0  0  0  0  0  0  0  0  0
    8.1938   11.6610   26.6920 H   0  0  0  0  0  0  0  0  0  0  0  0
    7.4953   10.0544   26.9518 H   0  0  0  0  0  0  0  0  0  0  0  0
   11.8575   15.5479   22.8390 H   0  0  0  0  0  0  0  0  0  0  0  0
   11.6898   13.0502   21.3610 H   0  0  0  0  0  0  0  0  0  0  0  0
  1 21  1  0  0  0  0
  1 26  3  0  0  0  0
  2  5  1  0  0  0  0
  2  6  2  0  0  0  0
  3  7  1  0  0  0  0
  3  8  2  0  0  0  0
  4  9  1  0  0  0  0
  4 10  2  0  0  0  0
  5 11  2  0  0  0  0
  6 12  1  0  0  0  0
  7 13  2  0  0  0  0
  8 14  1  0  0  0  0
  9 15  2  0  0  0  0
 10 16  1  0  0  0  0
 11 17  1  0  0  0  0
 12 17  2  0  0  0  0
 13 18  1  0  0  0  0
 14 18  2  0  0  0  0
 15 19  1  0  0  0  0
 16 19  2  0  0  0  0
 16 20  1  4  0  0  0
 17 24  1  0  0  0  0
 18 25  1  0  0  0  0
 19 29  1  0  0  0  0
 20 21  2  0  0  0  0
 21 22  1  0  0  0  0
 22 27  1  0  0  0  0
 22 28  2  0  0  0  0
 23 25  1  0  0  0  0
 24 29  1  0  0  0  0
 25 27  1  0  0  0  0
  2 30  1  0  0  0  0
  3 31  1  0  0  0  0
  4 32  1  0  0  0  0
  5 33  1  0  0  0  0
  6 34  1  0  0  0  0
  7 35  1  0  0  0  0
  8 36  1  0  0  0  0
  9 37  1  0  0  0  0
 10 38  1  0  0  0  0
 11 39  1  0  0  0  0
 12 40  1  0  0  0  0
 13 41  1  0  0  0  0
 14 42  1  0  0  0  0
 15 43  1  0  0  0  0
 20 44  1  0  0  0  0
 23 45  1  0  0  0  0
 23 46  1  0  0  0  0
 23 47  1  0  0  0  0
 24 48  1  0  0  0  0
 24 49  1  0  0  0  0
 25 50  1  0  0  0  0
 27 51  1  0  0  0  0
M  END
> <Catalog ID>
Z44317934

> <MW>
382.454

> <MW (desalted)>
382.454

> <ClogP>
4.926

> <logS>
-6.178

> <HBD>
1

> <HBA>
3

> <TPSA>
62.12

> <RotBonds>
7

> <ROCS_ShapeQuery>
A71EV2A-x0451_0A_A71EV2A-x0310_0A_A71EV2A-x0416_0A_peptide

> <ROCS_TanimotoCombo>
0.522 

> <ROCS_ShapeTanimoto>
0.360 

> <ROCS_ColorTanimoto>
0.161 

> <ROCS_RefTversky>
0.325 

> <ROCS_RefColorTversky>
0.177 

> <ROCS_RefTverskyCombo>
0.502 

> <ROCS_FitTversky>
1.423 

> <ROCS_FitColorTversky>
0.653 

> <ROCS_FitTverskyCombo>
2.076 

> <ROCS_ColorScore>
-5.380

> <ROCS_Overlap>
2264.494

> <ROCS_Rank>
379                 

$$$$
untitled-dbase-5681_4291
  -OEChem-11132309573D

 47 48  0     1  0  0  0  0  0999 V2000
    9.1999   10.3544   23.3409 C   0  0  0  0  0  0  0  0  0  0  0  0
    8.1517    9.6653   23.9508 C   0  0  0  0  0  0  0  0  0  0  0  0
    8.3530   12.4333   24.2343 C   0  0  0  0  0  0  0  0  0  0  0  0
    9.3005   11.7385   23.4826 C   0  0  0  0  0  0  0  0  0  0  0  0
    7.3048   11.7442   24.8442 C   0  0  0  0  0  0  0  0  0  0  0  0
    7.2042   10.3601   24.7025 C   0  0  0  0  0  0  0  0  0  0  0  0
   12.9548   15.1984   18.1894 C   0  0  0  0  0  0  0  0  0  0  0  0
   14.4970   16.6765   19.3135 C   0  0  0  0  0  0  0  0  0  0  0  0
   12.2524   15.0268   19.3145 C   0  0  0  0  0  0  0  0  0  0  0  0
   14.1201   16.0539   18.1860 C   0  0  0  0  0  0  0  0  0  0  0  0
   13.7222   16.4952   20.5793 C   0  0  0  0  0  0  0  0  0  0  0  0
    3.9263   12.7923   28.2813 C   0  0  0  0  0  0  0  0  0  0  0  0
    4.7108   13.0381   27.2272 C   0  0  0  0  0  0  0  0  0  0  0  0
    5.6254   11.9842   26.6997 C   0  0  0  0  0  0  0  0  0  0  0  0
   10.9766   13.6091   23.2956 C   0  0  0  0  0  0  0  0  0  0  0  0
   14.8581   16.1994   16.8914 C   0  0  0  0  0  0  0  0  0  0  0  0
   13.4427   14.1356   23.0994 C   0  0  0  0  0  0  0  0  0  0  0  0
   11.8019   15.4233   21.6886 C   0  0  0  0  0  0  0  0  0  0  0  0
   12.1056   14.0753   22.3556 C   0  0  2  0  0  0  0  0  0  0  0  0
   12.5992   15.6483   20.5102 N   0  0  0  0  0  0  0  0  0  0  0  0
    6.3583   12.4414   25.5960 N   0  0  0  0  0  0  0  0  0  0  0  0
   10.3643   12.4377   22.8634 N   0  0  0  0  0  0  0  0  0  0  0  0
   14.0981   17.0830   21.5924 O   0  0  0  0  0  0  0  0  0  0  0  0
    5.6799   10.8741   27.2155 O   0  0  0  0  0  0  0  0  0  0  0  0
   10.6957   14.2529   24.3045 O   0  0  0  0  0  0  0  0  0  0  0  0
   12.2363   13.1039   21.3168 O   0  0  0  0  0  0  0  0  0  0  0  0
    6.2011    9.6872   25.2838 F   0  0  0  0  0  0  0  0  0  0  0  0
    9.9324    9.8023   22.7573 H   0  0  0  0  0  0  0  0  0  0  0  0
    8.0732    8.5877   23.8411 H   0  0  0  0  0  0  0  0  0  0  0  0
    8.4319   13.5132   24.3445 H   0  0  0  0  0  0  0  0  0  0  0  0
   12.6597   14.7002   17.2724 H   0  0  0  0  0  0  0  0  0  0  0  0
   15.3649   17.3258   19.3510 H   0  0  0  0  0  0  0  0  0  0  0  0
   11.3750   14.3901   19.3417 H   0  0  0  0  0  0  0  0  0  0  0  0
    3.2495   13.5331   28.6921 H   0  0  0  0  0  0  0  0  0  0  0  0
    3.9517   11.8194   28.7610 H   0  0  0  0  0  0  0  0  0  0  0  0
    4.6858   14.0102   26.7470 H   0  0  0  0  0  0  0  0  0  0  0  0
   14.4487   17.0369   16.3294 H   0  0  0  0  0  0  0  0  0  0  0  0
   14.7561   15.2862   16.3072 H   0  0  0  0  0  0  0  0  0  0  0  0
   15.9137   16.3773   17.0902 H   0  0  0  0  0  0  0  0  0  0  0  0
   14.2454   14.4671   22.4310 H   0  0  0  0  0  0  0  0  0  0  0  0
   13.7285   13.1422   23.4650 H   0  0  0  0  0  0  0  0  0  0  0  0
   13.4099   14.8115   23.9597 H   0  0  0  0  0  0  0  0  0  0  0  0
   10.7537   15.5060   21.3848 H   0  0  0  0  0  0  0  0  0  0  0  0
   12.0263   16.2504   22.3715 H   0  0  0  0  0  0  0  0  0  0  0  0
    6.1762   13.4093   25.3044 H   0  0  0  0  0  0  0  0  0  0  0  0
   10.7078   12.0189   22.0028 H   0  0  0  0  0  0  0  0  0  0  0  0
   12.4541   12.2661   21.7520 H   0  0  0  0  0  0  0  0  0  0  0  0
  1  2  2  0  0  0  0
  1  4  1  0  0  0  0
  2  6  1  0  0  0  0
  3  4  2  0  0  0  0
  3  5  1  0  0  0  0
  4 22  1  0  0  0  0
  5  6  2  0  0  0  0
  5 21  1  0  0  0  0
  6 27  1  0  0  0  0
  7  9  2  0  0  0  0
  7 10  1  0  0  0  0
  8 10  2  0  0  0  0
  8 11  1  0  0  0  0
  9 20  1  0  0  0  0
 10 16  1  0  0  0  0
 11 20  1  0  0  0  0
 11 23  2  0  0  0  0
 12 13  2  0  0  0  0
 13 14  1  0  0  0  0
 14 21  1  0  0  0  0
 14 24  2  0  0  0  0
 15 19  1  0  0  0  0
 15 22  1  0  0  0  0
 15 25  2  0  0  0  0
 17 19  1  0  0  0  0
 18 19  1  0  0  0  0
 18 20  1  0  0  0  0
 19 26  1  0  0  0  0
  1 28  1  0  0  0  0
  2 29  1  0  0  0  0
  3 30  1  0  0  0  0
  7 31  1  0  0  0  0
  8 32  1  0  0  0  0
  9 33  1  0  0  0  0
 12 34  1  0  0  0  0
 12 35  1  0  0  0  0
 13 36  1  0  0  0  0
 16 37  1  0  0  0  0
 16 38  1  0  0  0  0
 16 39  1  0  0  0  0
 17 40  1  0  0  0  0
 17 41  1  0  0  0  0
 17 42  1  0  0  0  0
 18 43  1  0  0  0  0
 18 44  1  0  0  0  0
 21 45  1  0  0  0  0
 22 46  1  0  0  0  0
 26 47  1  0  0  0  0
M  END
> <Catalog ID>
Z1935325830

> <MW>
373.378

> <MW (desalted)>
373.378

> <ClogP>
0.369

> <logS>
-4.019

> <HBD>
3

> <HBA>
4

> <TPSA>
98.74

> <RotBonds>
6

> <ROCS_ShapeQuery>
A71EV2A-x0451_0A_A71EV2A-x0310_0A_A71EV2A-x0416_0A_peptide

> <ROCS_TanimotoCombo>
0.522 

> <ROCS_ShapeTanimoto>
0.368 

> <ROCS_ColorTanimoto>
0.153 

> <ROCS_RefTversky>
0.328 

> <ROCS_RefColorTversky>
0.181 

> <ROCS_RefTverskyCombo>
0.509 

> <ROCS_FitTversky>
1.507 

> <ROCS_FitColorTversky>
0.500 

> <ROCS_FitTverskyCombo>
2.008 

> <ROCS_ColorScore>
-5.549

> <ROCS_Overlap>
2278.291

> <ROCS_Rank>
380                 

$$$$
untitled-dbase-10477_6127
  -OEChem-11132309573D

 54 57  0     1  0  0  0  0  0999 V2000
   12.6668   17.2404   16.5448 C   0  0  0  0  0  0  0  0  0  0  0  0
   11.3591   16.8411   16.8044 C   0  0  0  0  0  0  0  0  0  0  0  0
    6.6833   11.7618   26.2837 C   0  0  0  0  0  0  0  0  0  0  0  0
    6.5547   12.8918   25.4791 C   0  0  0  0  0  0  0  0  0  0  0  0
   13.6724   16.9888   17.4785 C   0  0  0  0  0  0  0  0  0  0  0  0
   11.0521   16.1886   17.9987 C   0  0  0  0  0  0  0  0  0  0  0  0
   14.3811   16.0717   19.6371 C   0  0  0  0  0  0  0  0  0  0  0  0
    7.6323   10.7866   25.9752 C   0  0  0  0  0  0  0  0  0  0  0  0
    7.3772   13.0526   24.3645 C   0  0  0  0  0  0  0  0  0  0  0  0
   14.0740   15.4193   20.8314 C   0  0  0  0  0  0  0  0  0  0  0  0
   11.7607   15.2715   20.1573 C   0  0  0  0  0  0  0  0  0  0  0  0
   13.3814   16.3332   18.6859 C   0  0  0  0  0  0  0  0  0  0  0  0
   12.0516   15.9271   18.9499 C   0  0  0  0  0  0  0  0  0  0  0  0
    8.4565   10.9341   24.8528 C   0  0  0  0  0  0  0  0  0  0  0  0
    8.3311   12.0773   24.0400 C   0  0  0  0  0  0  0  0  0  0  0  0
   12.7663   15.0199   21.0910 C   0  0  0  0  0  0  0  0  0  0  0  0
    9.4490    9.9058   24.5278 C   0  0  0  0  0  0  0  0  0  0  0  0
   10.0702    9.9136   23.3412 C   0  0  0  0  0  0  0  0  0  0  0  0
   14.3148   11.4488   27.3603 C   0  0  0  0  0  0  0  0  0  0  0  0
   13.5709   11.8007   26.3072 C   0  0  0  0  0  0  0  0  0  0  0  0
   14.1834   12.5234   25.1607 C   0  0  0  0  0  0  0  0  0  0  0  0
   10.3922   13.1852   23.2572 C   0  0  0  0  0  0  0  0  0  0  0  0
    9.8183   10.9636   22.2971 C   0  0  0  0  0  0  0  0  0  0  0  0
    9.2586   12.2814   22.8627 C   0  0  1  0  0  0  0  0  0  0  0  0
   13.6086   13.4926   22.9526 C   0  0  0  0  0  0  0  0  0  0  0  0
   12.4341   14.3095   22.3917 C   0  0  2  0  0  0  0  0  0  0  0  0
   13.2574   12.8023   24.1663 N   0  0  0  0  0  0  0  0  0  0  0  0
   11.2751   13.4610   22.2307 N   0  0  0  0  0  0  0  0  0  0  0  0
   15.3732   12.8210   25.1275 O   0  0  0  0  0  0  0  0  0  0  0  0
   10.4599   13.6027   24.4073 O   0  0  0  0  0  0  0  0  0  0  0  0
   12.9048   17.7485   15.6150 H   0  0  0  0  0  0  0  0  0  0  0  0
   10.5768   17.0378   16.0772 H   0  0  0  0  0  0  0  0  0  0  0  0
    6.0446   11.6401   27.1538 H   0  0  0  0  0  0  0  0  0  0  0  0
    5.8176   13.6512   25.7237 H   0  0  0  0  0  0  0  0  0  0  0  0
   14.6876   17.3098   17.2540 H   0  0  0  0  0  0  0  0  0  0  0  0
   10.0228   15.8857   18.1807 H   0  0  0  0  0  0  0  0  0  0  0  0
   15.4102   16.3752   19.4552 H   0  0  0  0  0  0  0  0  0  0  0  0
    7.7167    9.9123   26.6162 H   0  0  0  0  0  0  0  0  0  0  0  0
    7.2747   13.9457   23.7532 H   0  0  0  0  0  0  0  0  0  0  0  0
   14.8632   15.2274   21.5535 H   0  0  0  0  0  0  0  0  0  0  0  0
   10.7417   14.9536   20.3727 H   0  0  0  0  0  0  0  0  0  0  0  0
    9.6443    9.1197   25.2491 H   0  0  0  0  0  0  0  0  0  0  0  0
   10.7715    9.1196   23.1020 H   0  0  0  0  0  0  0  0  0  0  0  0
   13.8606   10.9227   28.1935 H   0  0  0  0  0  0  0  0  0  0  0  0
   15.3751   11.6668   27.4258 H   0  0  0  0  0  0  0  0  0  0  0  0
   12.5130   11.5629   26.2811 H   0  0  0  0  0  0  0  0  0  0  0  0
   10.7492   11.1533   21.7487 H   0  0  0  0  0  0  0  0  0  0  0  0
    9.1069   10.5448   21.5735 H   0  0  0  0  0  0  0  0  0  0  0  0
    8.7160   12.7924   22.0569 H   0  0  0  0  0  0  0  0  0  0  0  0
   13.9180   12.7220   22.2373 H   0  0  0  0  0  0  0  0  0  0  0  0
   14.4844   14.1128   23.1708 H   0  0  0  0  0  0  0  0  0  0  0  0
   12.1680   15.0677   23.1399 H   0  0  0  0  0  0  0  0  0  0  0  0
   12.2950   12.4862   24.2711 H   0  0  0  0  0  0  0  0  0  0  0  0
   11.1014   13.0477   21.3194 H   0  0  0  0  0  0  0  0  0  0  0  0
  1  2  1  0  0  0  0
  1  5  2  0  0  0  0
  2  6  2  0  0  0  0
  3  4  1  0  0  0  0
  3  8  2  0  0  0  0
  4  9  2  0  0  0  0
  5 12  1  0  0  0  0
  6 13  1  0  0  0  0
  7 10  2  0  0  0  0
  7 12  1  0  0  0  0
  8 14  1  0  0  0  0
  9 15  1  0  0  0  0
 10 16  1  0  0  0  0
 11 13  1  0  0  0  0
 11 16  2  0  0  0  0
 12 13  2  0  0  0  0
 14 15  2  0  0  0  0
 14 17  1  0  0  0  0
 15 24  1  0  0  0  0
 16 26  1  0  0  0  0
 17 18  2  0  0  0  0
 18 23  1  0  0  0  0
 19 20  2  0  0  0  0
 20 21  1  0  0  0  0
 21 27  1  0  0  0  0
 21 29  2  0  0  0  0
 22 24  1  0  0  0  0
 22 28  1  0  0  0  0
 22 30  2  0  0  0  0
 23 24  1  0  0  0  0
 25 26  1  0  0  0  0
 25 27  1  0  0  0  0
 26 28  1  0  0  0  0
  1 31  1  0  0  0  0
  2 32  1  0  0  0  0
  3 33  1  0  0  0  0
  4 34  1  0  0  0  0
  5 35  1  0  0  0  0
  6 36  1  0  0  0  0
  7 37  1  0  0  0  0
  8 38  1  0  0  0  0
  9 39  1  0  0  0  0
 10 40  1  0  0  0  0
 11 41  1  0  0  0  0
 17 42  1  0  0  0  0
 18 43  1  0  0  0  0
 19 44  1  0  0  0  0
 19 45  1  0  0  0  0
 20 46  1  0  0  0  0
 23 47  1  0  0  0  0
 23 48  1  0  0  0  0
 24 49  1  0  0  0  0
 25 50  1  0  0  0  0
 25 51  1  0  0  0  0
 26 52  1  0  0  0  0
 27 53  1  0  0  0  0
 28 54  1  0  0  0  0
M  END
> <Catalog ID>
Z4425283770

> <MW>
396.481

> <MW (desalted)>
396.481

> <ClogP>
4.185

> <logS>
-6.756

> <HBD>
2

> <HBA>
2

> <TPSA>
58.2

> <RotBonds>
6

> <ROCS_ShapeQuery>
A71EV2A-x0451_0A_A71EV2A-x0310_0A_A71EV2A-x0416_0A_peptide

> <ROCS_TanimotoCombo>
0.521 

> <ROCS_ShapeTanimoto>
0.351 

> <ROCS_ColorTanimoto>
0.170 

> <ROCS_RefTversky>
0.322 

> <ROCS_RefColorTversky>
0.194 

> <ROCS_RefTverskyCombo>
0.516 

> <ROCS_FitTversky>
1.351 

> <ROCS_FitColorTversky>
0.584 

> <ROCS_FitTverskyCombo>
1.935 

> <ROCS_ColorScore>
-5.922

> <ROCS_Overlap>
2241.427

> <ROCS_Rank>
381                 

$$$$
untitled-dbase-1663_807
  -OEChem-11132309573D

 45 47  0     1  0  0  0  0  0999 V2000
   13.7162   15.9620   20.6461 C   0  0  0  0  0  0  0  0  0  0  0  0
   12.5287   15.6775   19.9720 C   0  0  0  0  0  0  0  0  0  0  0  0
    8.3255   12.2557   24.5773 C   0  0  0  0  0  0  0  0  0  0  0  0
    9.7122   10.8669   23.1683 C   0  0  0  0  0  0  0  0  0  0  0  0
   14.0002   15.3287   21.8561 C   0  0  0  0  0  0  0  0  0  0  0  0
   11.6251   14.7599   20.5079 C   0  0  0  0  0  0  0  0  0  0  0  0
    7.4957   11.1649   24.8359 C   0  0  0  0  0  0  0  0  0  0  0  0
    8.8824    9.7760   23.4269 C   0  0  0  0  0  0  0  0  0  0  0  0
    9.4338   12.1068   23.7434 C   0  0  0  0  0  0  0  0  0  0  0  0
   13.0966   14.4111   22.3920 C   0  0  0  0  0  0  0  0  0  0  0  0
    7.7741    9.9250   24.2607 C   0  0  0  0  0  0  0  0  0  0  0  0
   11.9090   14.1267   21.7179 C   0  0  0  0  0  0  0  0  0  0  0  0
   15.0990   12.9858   25.2511 C   0  0  0  0  0  0  0  0  0  0  0  0
    5.9105    5.3589   24.1985 C   0  0  0  0  0  0  0  0  0  0  0  0
    5.9691    6.6476   24.5486 C   0  0  0  0  0  0  0  0  0  0  0  0
   10.3101   13.2588   23.4702 C   0  0  0  0  0  0  0  0  0  0  0  0
    7.0625    7.5240   24.0370 C   0  0  0  0  0  0  0  0  0  0  0  0
   14.7744   14.1459   24.3425 C   0  0  0  0  0  0  0  0  0  0  0  0
   13.5461   12.2146   23.6652 C   0  0  0  0  0  0  0  0  0  0  0  0
   13.4311   13.7398   23.7059 C   0  0  2  0  0  0  0  0  0  0  0  0
   14.3515   11.9013   24.8122 N   0  0  0  0  0  0  0  0  0  0  0  0
   10.9912   13.2108   22.2384 N   0  0  0  0  0  0  0  0  0  0  0  0
    6.9435    8.8345   24.5202 N   0  0  0  0  0  0  0  0  0  0  0  0
   15.9048   13.0086   26.1683 O   0  0  0  0  0  0  0  0  0  0  0  0
   10.4418   14.1626   24.2928 O   0  0  0  0  0  0  0  0  0  0  0  0
    7.9284    7.0878   23.2877 O   0  0  0  0  0  0  0  0  0  0  0  0
   14.4196   16.6767   20.2295 H   0  0  0  0  0  0  0  0  0  0  0  0
   12.3072   16.1712   19.0302 H   0  0  0  0  0  0  0  0  0  0  0  0
    8.0991   13.2174   25.0301 H   0  0  0  0  0  0  0  0  0  0  0  0
   10.5732   10.7396   22.5170 H   0  0  0  0  0  0  0  0  0  0  0  0
   14.9280   15.5576   22.3737 H   0  0  0  0  0  0  0  0  0  0  0  0
   10.7033   14.5466   19.9727 H   0  0  0  0  0  0  0  0  0  0  0  0
    6.6346   11.2915   25.4876 H   0  0  0  0  0  0  0  0  0  0  0  0
    9.1091    8.8143   22.9732 H   0  0  0  0  0  0  0  0  0  0  0  0
    5.1312    4.6920   24.5502 H   0  0  0  0  0  0  0  0  0  0  0  0
    6.6627    4.9419   23.5369 H   0  0  0  0  0  0  0  0  0  0  0  0
    5.2175    7.0653   25.2096 H   0  0  0  0  0  0  0  0  0  0  0  0
   14.6513   15.0348   24.9662 H   0  0  0  0  0  0  0  0  0  0  0  0
   15.5714   14.3047   23.6148 H   0  0  0  0  0  0  0  0  0  0  0  0
   12.5719   11.7416   23.8148 H   0  0  0  0  0  0  0  0  0  0  0  0
   14.0144   11.8185   22.7624 H   0  0  0  0  0  0  0  0  0  0  0  0
   12.5882   14.0270   24.4298 H   0  0  0  0  0  0  0  0  0  0  0  0
   14.3723   10.9901   25.2527 H   0  0  0  0  0  0  0  0  0  0  0  0
   10.7871   12.3982   21.6469 H   0  0  0  0  0  0  0  0  0  0  0  0
    6.1460    9.0141   25.1423 H   0  0  0  0  0  0  0  0  0  0  0  0
  1  2  1  0  0  0  0
  1  5  2  0  0  0  0
  2  6  2  0  0  0  0
  3  7  2  0  0  0  0
  3  9  1  0  0  0  0
  4  8  1  0  0  0  0
  4  9  2  0  0  0  0
  5 10  1  0  0  0  0
  6 12  1  0  0  0  0
  7 11  1  0  0  0  0
  8 11  2  0  0  0  0
  9 16  1  0  0  0  0
 10 12  2  0  0  0  0
 10 20  1  0  0  0  0
 11 23  1  0  0  0  0
 12 22  1  0  0  0  0
 13 18  1  0  0  0  0
 13 21  1  0  0  0  0
 13 24  2  0  0  0  0
 14 15  2  0  0  0  0
 15 17  1  0  0  0  0
 16 22  1  0  0  0  0
 16 25  2  0  0  0  0
 17 23  1  0  0  0  0
 17 26  2  0  0  0  0
 18 20  1  0  0  0  0
 19 20  1  0  0  0  0
 19 21  1  0  0  0  0
  1 27  1  0  0  0  0
  2 28  1  0  0  0  0
  3 29  1  0  0  0  0
  4 30  1  0  0  0  0
  5 31  1  0  0  0  0
  6 32  1  0  0  0  0
  7 33  1  0  0  0  0
  8 34  1  0  0  0  0
 14 35  1  0  0  0  0
 14 36  1  0  0  0  0
 15 37  1  0  0  0  0
 18 38  1  0  0  0  0
 18 39  1  0  0  0  0
 19 40  1  0  0  0  0
 19 41  1  0  0  0  0
 20 42  1  0  0  0  0
 21 43  1  0  0  0  0
 22 44  1  0  0  0  0
 23 45  1  0  0  0  0
M  END
> <Catalog ID>
Z4899164528

> <MW>
349.383

> <MW (desalted)>
349.383

> <ClogP>
-0.239

> <logS>
-4.072

> <HBD>
3

> <HBA>
3

> <TPSA>
87.3

> <RotBonds>
5

> <ROCS_ShapeQuery>
A71EV2A-x0451_0A_A71EV2A-x0310_0A_A71EV2A-x0416_0A_peptide

> <ROCS_TanimotoCombo>
0.521 

> <ROCS_ShapeTanimoto>
0.329 

> <ROCS_ColorTanimoto>
0.192 

> <ROCS_RefTversky>
0.300 

> <ROCS_RefColorTversky>
0.220 

> <ROCS_RefTverskyCombo>
0.520 

> <ROCS_FitTversky>
1.411 

> <ROCS_FitColorTversky>
0.607 

> <ROCS_FitTverskyCombo>
2.018 

> <ROCS_ColorScore>
-6.725

> <ROCS_Overlap>
2089.194

> <ROCS_Rank>
382                 

$$$$
untitled-dbase-10419_1614
  -OEChem-11132309573D

 53 56  0     0  0  0  0  0  0999 V2000
   11.7835   11.7850   24.8126 C   0  0  0  0  0  0  0  0  0  0  0  0
    4.9468   12.7541   29.2817 C   0  0  0  0  0  0  0  0  0  0  0  0
    3.9356   12.0957   28.5820 C   0  0  0  0  0  0  0  0  0  0  0  0
    6.2259   12.8497   28.7336 C   0  0  0  0  0  0  0  0  0  0  0  0
   14.4136   16.2732   20.3652 C   0  0  0  0  0  0  0  0  0  0  0  0
    4.2036   11.5327   27.3342 C   0  0  0  0  0  0  0  0  0  0  0  0
    6.4939   12.2867   27.4859 C   0  0  0  0  0  0  0  0  0  0  0  0
   13.9268   16.4317   19.0677 C   0  0  0  0  0  0  0  0  0  0  0  0
   13.7520   15.4327   21.2605 C   0  0  0  0  0  0  0  0  0  0  0  0
   12.1167   14.9094   19.5609 C   0  0  0  0  0  0  0  0  0  0  0  0
    5.4828   11.6282   26.7862 C   0  0  0  0  0  0  0  0  0  0  0  0
    8.9849   11.7967   23.8794 C   0  0  0  0  0  0  0  0  0  0  0  0
   12.7783   15.7498   18.6656 C   0  0  0  0  0  0  0  0  0  0  0  0
    7.7634   12.2123   24.4634 C   0  0  0  0  0  0  0  0  0  0  0  0
   12.6036   14.7508   20.8584 C   0  0  0  0  0  0  0  0  0  0  0  0
    8.9982   10.4183   23.8902 C   0  0  0  0  0  0  0  0  0  0  0  0
    7.0616   11.0795   24.8156 C   0  0  0  0  0  0  0  0  0  0  0  0
    9.9248    9.4265   23.4560 C   0  0  0  0  0  0  0  0  0  0  0  0
    9.6268    8.1226   23.6162 C   0  0  0  0  0  0  0  0  0  0  0  0
    8.3765    7.6981   24.2243 C   0  0  0  0  0  0  0  0  0  0  0  0
    7.4999    8.6289   24.6350 C   0  0  0  0  0  0  0  0  0  0  0  0
   10.0157   12.6201   23.3717 C   0  0  0  0  0  0  0  0  0  0  0  0
   11.3365   12.6606   23.7767 C   0  0  0  0  0  0  0  0  0  0  0  0
    5.7719   11.0206   25.4399 C   0  0  0  0  0  0  0  0  0  0  0  0
   12.2783   13.6251   23.0879 C   0  0  0  0  0  0  0  0  0  0  0  0
    7.3169   13.6092   24.6616 C   0  0  0  0  0  0  0  0  0  0  0  0
   12.2582   15.9196   17.2783 C   0  0  0  0  0  0  0  0  0  0  0  0
   12.1515   11.0748   25.6535 N   0  0  0  0  0  0  0  0  0  0  0  0
    7.8111    9.9786   24.4680 N   0  0  0  0  0  0  0  0  0  0  0  0
   11.9316   13.8959   21.7688 N   0  0  0  0  0  0  0  0  0  0  0  0
    4.8101   10.4492   24.8813 O   0  0  0  0  0  0  0  0  0  0  0  0
   13.2424   14.0894   23.6914 O   0  0  0  0  0  0  0  0  0  0  0  0
   13.0050   16.7705   16.5138 F   0  0  0  0  0  0  0  0  0  0  0  0
   12.2067   14.7546   16.5671 F   0  0  0  0  0  0  0  0  0  0  0  0
   10.9892   16.4215   17.2509 F   0  0  0  0  0  0  0  0  0  0  0  0
    4.7381   13.1925   30.2532 H   0  0  0  0  0  0  0  0  0  0  0  0
    2.9398   12.0212   29.0090 H   0  0  0  0  0  0  0  0  0  0  0  0
    7.0132   13.3627   29.2783 H   0  0  0  0  0  0  0  0  0  0  0  0
   15.3081   16.8038   20.6782 H   0  0  0  0  0  0  0  0  0  0  0  0
    3.4082   11.0218   26.7976 H   0  0  0  0  0  0  0  0  0  0  0  0
    7.4944   12.3671   27.0686 H   0  0  0  0  0  0  0  0  0  0  0  0
   14.4486   17.0890   18.3777 H   0  0  0  0  0  0  0  0  0  0  0  0
   14.1403   15.3169   22.2693 H   0  0  0  0  0  0  0  0  0  0  0  0
   11.2207   14.3793   19.2452 H   0  0  0  0  0  0  0  0  0  0  0  0
   10.8630    9.7234   22.9996 H   0  0  0  0  0  0  0  0  0  0  0  0
   10.3181    7.3517   23.2938 H   0  0  0  0  0  0  0  0  0  0  0  0
    8.1792    6.6388   24.3336 H   0  0  0  0  0  0  0  0  0  0  0  0
    6.5536    8.3699   25.0948 H   0  0  0  0  0  0  0  0  0  0  0  0
    9.7295   13.2995   22.5396 H   0  0  0  0  0  0  0  0  0  0  0  0
    6.7516   13.9693   23.7882 H   0  0  0  0  0  0  0  0  0  0  0  0
    6.6706   13.7111   25.5484 H   0  0  0  0  0  0  0  0  0  0  0  0
    8.1668   14.2927   24.8199 H   0  0  0  0  0  0  0  0  0  0  0  0
   11.1011   13.4273   21.4166 H   0  0  0  0  0  0  0  0  0  0  0  0
  1 23  1  0  0  0  0
  1 28  3  0  0  0  0
  2  3  1  0  0  0  0
  2  4  2  0  0  0  0
  3  6  2  0  0  0  0
  4  7  1  0  0  0  0
  5  8  1  0  0  0  0
  5  9  2  0  0  0  0
  6 11  1  0  0  0  0
  7 11  2  0  0  0  0
  8 13  2  0  0  0  0
  9 15  1  0  0  0  0
 10 13  1  0  0  0  0
 10 15  2  0  0  0  0
 11 24  1  0  0  0  0
 12 14  1  0  0  0  0
 12 16  2  0  0  0  0
 12 22  1  4  0  0  0
 13 27  1  0  0  0  0
 14 17  2  0  0  0  0
 14 26  1  0  0  0  0
 15 30  1  0  0  0  0
 16 18  1  0  0  0  0
 16 29  1  0  0  0  0
 17 24  1  0  0  0  0
 17 29  1  0  0  0  0
 18 19  2  0  0  0  0
 19 20  1  0  0  0  0
 20 21  2  0  0  0  0
 21 29  1  0  0  0  0
 22 23  2  0  0  0  0
 23 25  1  0  0  0  0
 24 31  2  0  0  0  0
 25 30  1  0  0  0  0
 25 32  2  0  0  0  0
 27 33  1  0  0  0  0
 27 34  1  0  0  0  0
 27 35  1  0  0  0  0
  2 36  1  0  0  0  0
  3 37  1  0  0  0  0
  4 38  1  0  0  0  0
  5 39  1  0  0  0  0
  6 40  1  0  0  0  0
  7 41  1  0  0  0  0
  8 42  1  0  0  0  0
  9 43  1  0  0  0  0
 10 44  1  0  0  0  0
 18 45  1  0  0  0  0
 19 46  1  0  0  0  0
 20 47  1  0  0  0  0
 21 48  1  0  0  0  0
 22 49  1  0  0  0  0
 26 50  1  0  0  0  0
 26 51  1  0  0  0  0
 26 52  1  0  0  0  0
 30 53  1  0  0  0  0
M  END
> <Catalog ID>
Z56785708

> <MW>
473.446

> <MW (desalted)>
473.446

> <ClogP>
6.492

> <logS>
-7.6

> <HBD>
1

> <HBA>
3

> <TPSA>
74.37

> <RotBonds>
6

> <ROCS_ShapeQuery>
A71EV2A-x0451_0A_A71EV2A-x0310_0A_A71EV2A-x0416_0A_peptide

> <ROCS_TanimotoCombo>
0.521 

> <ROCS_ShapeTanimoto>
0.398 

> <ROCS_ColorTanimoto>
0.124 

> <ROCS_RefTversky>
0.362 

> <ROCS_RefColorTversky>
0.143 

> <ROCS_RefTverskyCombo>
0.505 

> <ROCS_FitTversky>
1.330 

> <ROCS_FitColorTversky>
0.475 

> <ROCS_FitTverskyCombo>
1.804 

> <ROCS_ColorScore>
-4.369

> <ROCS_Overlap>
2526.408

> <ROCS_Rank>
383                 

$$$$
untitled-dbase-7316_4566
  -OEChem-11132309573D

 55 58  0     1  0  0  0  0  0999 V2000
    6.4977   11.9461   24.8292 C   0  0  0  0  0  0  0  0  0  0  0  0
    6.0565   10.7355   25.3518 C   0  0  0  0  0  0  0  0  0  0  0  0
    7.6796   11.9920   24.0982 C   0  0  0  0  0  0  0  0  0  0  0  0
    6.8274    9.6084   25.1170 C   0  0  0  0  0  0  0  0  0  0  0  0
    8.3779   10.8086   23.9197 C   0  0  0  0  0  0  0  0  0  0  0  0
   11.7051   13.5168   23.3734 C   0  0  0  0  0  0  0  0  0  0  0  0
   16.3637   13.4616   29.9082 C   0  0  0  0  0  0  0  0  0  0  0  0
   15.5566   12.6798   29.1846 C   0  0  0  0  0  0  0  0  0  0  0  0
   15.6984   12.6155   27.7054 C   0  0  0  0  0  0  0  0  0  0  0  0
   13.2885   16.1613   20.1335 C   0  0  0  0  0  0  0  0  0  0  0  0
   14.4821   15.3394   19.7487 C   0  0  0  0  0  0  0  0  0  0  0  0
   10.6805    9.7616   23.3856 C   0  0  0  0  0  0  0  0  0  0  0  0
    9.6404   10.8339   23.1431 C   0  0  2  0  0  0  0  0  0  0  0  0
   13.4025   14.7355   20.6111 C   0  0  0  0  0  0  0  0  0  0  0  0
   10.9376   11.1636   23.8520 C   0  0  2  0  0  0  0  0  0  0  0  0
   12.0143   11.7049   21.6476 C   0  0  0  0  0  0  0  0  0  0  0  0
   13.6691   14.4399   22.0771 C   0  0  0  0  0  0  0  0  0  0  0  0
   14.7148   11.5187   25.7117 C   0  0  0  0  0  0  0  0  0  0  0  0
   13.3668   11.9020   25.1247 C   0  0  0  0  0  0  0  0  0  0  0  0
   12.0034   12.0278   23.1532 C   0  0  1  0  0  0  0  0  0  0  0  0
    7.9809    9.6138   24.4119 N   0  0  0  0  0  0  0  0  0  0  0  0
   10.7097   14.0481   24.0451 N   0  0  0  0  0  0  0  0  0  0  0  0
   10.8821   15.4105   23.9490 N   0  0  0  0  0  0  0  0  0  0  0  0
   11.9610   15.7055   23.2341 N   0  0  0  0  0  0  0  0  0  0  0  0
   12.4736   14.5202   22.8753 N   0  0  0  0  0  0  0  0  0  0  0  0
   14.7758   11.7533   27.1295 N   0  0  0  0  0  0  0  0  0  0  0  0
   13.3020   11.6437   23.6930 N   0  0  0  0  0  0  0  0  0  0  0  0
   16.5450   13.2601   27.0948 O   0  0  0  0  0  0  0  0  0  0  0  0
    5.9223   12.8523   24.9928 H   0  0  0  0  0  0  0  0  0  0  0  0
    5.1385   10.6776   25.9252 H   0  0  0  0  0  0  0  0  0  0  0  0
    8.0328   12.9310   23.6855 H   0  0  0  0  0  0  0  0  0  0  0  0
    6.5260    8.6395   25.5014 H   0  0  0  0  0  0  0  0  0  0  0  0
   16.2535   13.5040   30.9867 H   0  0  0  0  0  0  0  0  0  0  0  0
   17.1425   14.0699   29.4616 H   0  0  0  0  0  0  0  0  0  0  0  0
   14.7900   12.0863   29.6709 H   0  0  0  0  0  0  0  0  0  0  0  0
   13.4381   16.9610   20.8483 H   0  0  0  0  0  0  0  0  0  0  0  0
   12.5562   16.3780   19.3654 H   0  0  0  0  0  0  0  0  0  0  0  0
   14.5529   15.0013   18.7222 H   0  0  0  0  0  0  0  0  0  0  0  0
   15.4322   15.5854   20.2065 H   0  0  0  0  0  0  0  0  0  0  0  0
   10.4872    9.0086   24.1409 H   0  0  0  0  0  0  0  0  0  0  0  0
   11.2293    9.3925   22.5270 H   0  0  0  0  0  0  0  0  0  0  0  0
    9.5478   11.1753   22.1157 H   0  0  0  0  0  0  0  0  0  0  0  0
   12.7491   13.9999   20.1583 H   0  0  0  0  0  0  0  0  0  0  0  0
   10.9130   11.3460   24.9203 H   0  0  0  0  0  0  0  0  0  0  0  0
   12.2265   10.6428   21.4748 H   0  0  0  0  0  0  0  0  0  0  0  0
   12.7894   12.2794   21.1258 H   0  0  0  0  0  0  0  0  0  0  0  0
   11.0561   11.9295   21.1666 H   0  0  0  0  0  0  0  0  0  0  0  0
   14.3973   15.1484   22.4878 H   0  0  0  0  0  0  0  0  0  0  0  0
   14.0890   13.4350   22.1983 H   0  0  0  0  0  0  0  0  0  0  0  0
   15.5278   12.0885   25.2507 H   0  0  0  0  0  0  0  0  0  0  0  0
   14.9039   10.4522   25.5543 H   0  0  0  0  0  0  0  0  0  0  0  0
   12.5694   11.3168   25.5931 H   0  0  0  0  0  0  0  0  0  0  0  0
   13.1530   12.9647   25.2774 H   0  0  0  0  0  0  0  0  0  0  0  0
   14.1307   11.2369   27.7256 H   0  0  0  0  0  0  0  0  0  0  0  0
   13.4542   10.6503   23.5232 H   0  0  0  0  0  0  0  0  0  0  0  0
  1  2  1  0  0  0  0
  1  3  2  0  0  0  0
  2  4  2  0  0  0  0
  3  5  1  0  0  0  0
  4 21  1  0  0  0  0
  5 13  1  1  0  0  0
  5 21  2  0  0  0  0
  6 20  1  0  0  0  0
  6 22  2  0  0  0  0
  6 25  1  0  0  0  0
  7  8  2  0  0  0  0
  8  9  1  0  0  0  0
  9 26  1  0  0  0  0
  9 28  2  0  0  0  0
 10 11  1  0  0  0  0
 10 14  1  0  0  0  0
 11 14  1  0  0  0  0
 12 13  1  0  0  0  0
 12 15  1  0  0  0  0
 13 15  1  0  0  0  0
 14 17  1  0  0  0  0
 15 20  1  6  0  0  0
 16 20  1  0  0  0  0
 17 25  1  0  0  0  0
 18 19  1  0  0  0  0
 18 26  1  0  0  0  0
 19 27  1  0  0  0  0
 20 27  1  0  0  0  0
 22 23  1  0  0  0  0
 23 24  2  0  0  0  0
 24 25  1  0  0  0  0
  1 29  1  0  0  0  0
  2 30  1  0  0  0  0
  3 31  1  0  0  0  0
  4 32  1  0  0  0  0
  7 33  1  0  0  0  0
  7 34  1  0  0  0  0
  8 35  1  0  0  0  0
 10 36  1  0  0  0  0
 10 37  1  0  0  0  0
 11 38  1  0  0  0  0
 11 39  1  0  0  0  0
 12 40  1  0  0  0  0
 12 41  1  0  0  0  0
 13 42  1  0  0  0  0
 14 43  1  0  0  0  0
 15 44  1  0  0  0  0
 16 45  1  0  0  0  0
 16 46  1  0  0  0  0
 16 47  1  0  0  0  0
 17 48  1  0  0  0  0
 17 49  1  0  0  0  0
 18 50  1  0  0  0  0
 18 51  1  0  0  0  0
 19 52  1  0  0  0  0
 19 53  1  0  0  0  0
 26 54  1  0  0  0  0
 27 55  1  0  0  0  0
M  END
> <Catalog ID>
Z7911571787

> <MW>
381.475

> <MW (desalted)>
381.475

> <ClogP>
0.647

> <logS>
-2.265

> <HBD>
2

> <HBA>
6

> <TPSA>
97.62

> <RotBonds>
10

> <ROCS_ShapeQuery>
A71EV2A-x0451_0A_A71EV2A-x0310_0A_A71EV2A-x0416_0A_peptide

> <ROCS_TanimotoCombo>
0.521 

> <ROCS_ShapeTanimoto>
0.331 

> <ROCS_ColorTanimoto>
0.190 

> <ROCS_RefTversky>
0.304 

> <ROCS_RefColorTversky>
0.226 

> <ROCS_RefTverskyCombo>
0.530 

> <ROCS_FitTversky>
1.364 

> <ROCS_FitColorTversky>
0.547 

> <ROCS_FitTverskyCombo>
1.912 

> <ROCS_ColorScore>
-6.931

> <ROCS_Overlap>
2117.174

> <ROCS_Rank>
384                 

$$$$
untitled-dbase-11400_2812
  -OEChem-11132309573D

 61 64  0     0  0  0  0  0  0999 V2000
   11.4217   15.5471   21.4411 C   0  0  0  0  0  0  0  0  0  0  0  0
   13.5303   12.0442   23.3617 C   0  0  0  0  0  0  0  0  0  0  0  0
   14.0925   11.1176   24.2429 C   0  0  0  0  0  0  0  0  0  0  0  0
   14.6664   13.8755   24.4947 C   0  0  0  0  0  0  0  0  0  0  0  0
    8.9923    9.2714   23.3517 C   0  0  0  0  0  0  0  0  0  0  0  0
    8.6534   11.9620   24.0063 C   0  0  0  0  0  0  0  0  0  0  0  0
   13.8156   13.4153   23.4868 C   0  0  0  0  0  0  0  0  0  0  0  0
    7.9553    9.6572   24.2010 C   0  0  0  0  0  0  0  0  0  0  0  0
    9.6904   11.5762   23.1570 C   0  0  0  0  0  0  0  0  0  0  0  0
   14.9292   11.5980   25.2293 C   0  0  0  0  0  0  0  0  0  0  0  0
   15.2085   12.9400   25.3518 C   0  0  0  0  0  0  0  0  0  0  0  0
    9.8600   10.2309   22.8297 C   0  0  0  0  0  0  0  0  0  0  0  0
    7.7858   11.0025   24.5283 C   0  0  0  0  0  0  0  0  0  0  0  0
   13.2175   14.3621   22.5580 C   0  0  0  0  0  0  0  0  0  0  0  0
   11.8896   14.5869   22.3890 C   0  0  0  0  0  0  0  0  0  0  0  0
   10.9342   13.7652   23.2278 C   0  0  0  0  0  0  0  0  0  0  0  0
    6.7793    7.4559   23.9954 C   0  0  0  0  0  0  0  0  0  0  0  0
    6.8220    8.6212   26.1524 C   0  0  0  0  0  0  0  0  0  0  0  0
    7.5517    6.3079   24.6363 C   0  0  0  0  0  0  0  0  0  0  0  0
    7.5838    7.4254   26.7256 C   0  0  0  0  0  0  0  0  0  0  0  0
   16.2746   11.8710   26.9018 C   0  0  0  0  0  0  0  0  0  0  0  0
   12.8382    8.5852   21.4651 C   0  0  0  0  0  0  0  0  0  0  0  0
    6.2172   12.4476   27.4341 C   0  0  0  0  0  0  0  0  0  0  0  0
   11.8175    8.9132   22.5339 C   0  0  0  0  0  0  0  0  0  0  0  0
    7.0136   12.5595   26.1516 C   0  0  0  0  0  0  0  0  0  0  0  0
   11.0367   16.3256   20.6714 N   0  0  0  0  0  0  0  0  0  0  0  0
    7.0987    8.6915   24.7138 N   0  0  0  0  0  0  0  0  0  0  0  0
   10.5644   12.5632   22.6343 N   0  0  0  0  0  0  0  0  0  0  0  0
   10.5561   14.1772   24.3217 O   0  0  0  0  0  0  0  0  0  0  0  0
   15.5646   10.8497   26.1717 O   0  0  0  0  0  0  0  0  0  0  0  0
   16.0535   13.1999   26.3864 O   0  0  0  0  0  0  0  0  0  0  0  0
    7.2332    6.2233   26.0307 O   0  0  0  0  0  0  0  0  0  0  0  0
   10.8669    9.8330   22.0015 O   0  0  0  0  0  0  0  0  0  0  0  0
    6.7785   11.3997   25.3562 O   0  0  0  0  0  0  0  0  0  0  0  0
   12.8676   11.6880   22.5757 H   0  0  0  0  0  0  0  0  0  0  0  0
   13.8747   10.0597   24.1504 H   0  0  0  0  0  0  0  0  0  0  0  0
   14.8986   14.9296   24.6070 H   0  0  0  0  0  0  0  0  0  0  0  0
    9.1283    8.2236   23.0938 H   0  0  0  0  0  0  0  0  0  0  0  0
    8.5167   13.0097   24.2646 H   0  0  0  0  0  0  0  0  0  0  0  0
   13.9462   14.9346   21.9759 H   0  0  0  0  0  0  0  0  0  0  0  0
    7.0465    7.5326   22.9364 H   0  0  0  0  0  0  0  0  0  0  0  0
    5.7029    7.2624   24.0692 H   0  0  0  0  0  0  0  0  0  0  0  0
    5.7485    8.4822   26.3081 H   0  0  0  0  0  0  0  0  0  0  0  0
    7.1362    9.5345   26.6619 H   0  0  0  0  0  0  0  0  0  0  0  0
    7.2628    5.3620   24.1732 H   0  0  0  0  0  0  0  0  0  0  0  0
    8.6315    6.4271   24.5101 H   0  0  0  0  0  0  0  0  0  0  0  0
    8.6681    7.5791   26.6765 H   0  0  0  0  0  0  0  0  0  0  0  0
    7.3175    7.2893   27.7782 H   0  0  0  0  0  0  0  0  0  0  0  0
   15.9522   11.8424   27.9490 H   0  0  0  0  0  0  0  0  0  0  0  0
   17.3476   11.6518   26.8575 H   0  0  0  0  0  0  0  0  0  0  0  0
   12.3589    8.1273   20.5953 H   0  0  0  0  0  0  0  0  0  0  0  0
   13.3646    9.4898   21.1434 H   0  0  0  0  0  0  0  0  0  0  0  0
   13.5962    7.8970   21.8537 H   0  0  0  0  0  0  0  0  0  0  0  0
    5.1462   12.3800   27.2238 H   0  0  0  0  0  0  0  0  0  0  0  0
    6.5225   11.5627   28.0021 H   0  0  0  0  0  0  0  0  0  0  0  0
    6.3969   13.3158   28.0769 H   0  0  0  0  0  0  0  0  0  0  0  0
   12.3033    9.3708   23.4009 H   0  0  0  0  0  0  0  0  0  0  0  0
   11.2919    8.0085   22.8535 H   0  0  0  0  0  0  0  0  0  0  0  0
    8.0838   12.6268   26.3690 H   0  0  0  0  0  0  0  0  0  0  0  0
    6.7068   13.4437   25.5850 H   0  0  0  0  0  0  0  0  0  0  0  0
   10.9666   12.3699   21.7210 H   0  0  0  0  0  0  0  0  0  0  0  0
  1 15  1  0  0  0  0
  1 26  3  0  0  0  0
  2  3  2  0  0  0  0
  2  7  1  0  0  0  0
  3 10  1  0  0  0  0
  4  7  2  0  0  0  0
  4 11  1  0  0  0  0
  5  8  2  0  0  0  0
  5 12  1  0  0  0  0
  6  9  1  0  0  0  0
  6 13  2  0  0  0  0
  7 14  1  4  0  0  0
  8 13  1  0  0  0  0
  8 27  1  0  0  0  0
  9 12  2  0  0  0  0
  9 28  1  0  0  0  0
 10 11  2  0  0  0  0
 10 30  1  0  0  0  0
 11 31  1  0  0  0  0
 12 33  1  0  0  0  0
 13 34  1  0  0  0  0
 14 15  2  0  0  0  0
 15 16  1  0  0  0  0
 16 28  1  0  0  0  0
 16 29  2  0  0  0  0
 17 19  1  0  0  0  0
 17 27  1  0  0  0  0
 18 20  1  0  0  0  0
 18 27  1  0  0  0  0
 19 32  1  0  0  0  0
 20 32  1  0  0  0  0
 21 30  1  0  0  0  0
 21 31  1  0  0  0  0
 22 24  1  0  0  0  0
 23 25  1  0  0  0  0
 24 33  1  0  0  0  0
 25 34  1  0  0  0  0
  2 35  1  0  0  0  0
  3 36  1  0  0  0  0
  4 37  1  0  0  0  0
  5 38  1  0  0  0  0
  6 39  1  0  0  0  0
 14 40  1  0  0  0  0
 17 41  1  0  0  0  0
 17 42  1  0  0  0  0
 18 43  1  0  0  0  0
 18 44  1  0  0  0  0
 19 45  1  0  0  0  0
 19 46  1  0  0  0  0
 20 47  1  0  0  0  0
 20 48  1  0  0  0  0
 21 49  1  0  0  0  0
 21 50  1  0  0  0  0
 22 51  1  0  0  0  0
 22 52  1  0  0  0  0
 22 53  1  0  0  0  0
 23 54  1  0  0  0  0
 23 55  1  0  0  0  0
 23 56  1  0  0  0  0
 24 57  1  0  0  0  0
 24 58  1  0  0  0  0
 25 59  1  0  0  0  0
 25 60  1  0  0  0  0
 28 61  1  0  0  0  0
M  END
> <Catalog ID>
Z56591092

> <MW>
465.498

> <MW (desalted)>
465.498

> <ClogP>
2.982

> <logS>
-5.68

> <HBD>
1

> <HBA>
8

> <TPSA>
102.28

> <RotBonds>
8

> <ROCS_ShapeQuery>
A71EV2A-x0451_0A_A71EV2A-x0310_0A_A71EV2A-x0416_0A_peptide

> <ROCS_TanimotoCombo>
0.521 

> <ROCS_ShapeTanimoto>
0.377 

> <ROCS_ColorTanimoto>
0.144 

> <ROCS_RefTversky>
0.346 

> <ROCS_RefColorTversky>
0.180 

> <ROCS_RefTverskyCombo>
0.525 

> <ROCS_FitTversky>
1.315 

> <ROCS_FitColorTversky>
0.424 

> <ROCS_FitTverskyCombo>
1.739 

> <ROCS_ColorScore>
-5.519

> <ROCS_Overlap>
2411.089

> <ROCS_Rank>
385                 

$$$$
untitled-dbase-11223_19314
  -OEChem-11132309573D

 51 53  0     1  0  0  0  0  0999 V2000
    5.9088   12.2416   26.5187 C   0  0  0  0  0  0  0  0  0  0  0  0
    5.4535   10.9374   26.3913 C   0  0  0  0  0  0  0  0  0  0  0  0
   14.6792   16.5404   19.6357 C   0  0  0  0  0  0  0  0  0  0  0  0
   12.8881   16.0096   18.1037 C   0  0  0  0  0  0  0  0  0  0  0  0
   13.9807   15.9156   20.6688 C   0  0  0  0  0  0  0  0  0  0  0  0
   12.1896   15.3847   19.1368 C   0  0  0  0  0  0  0  0  0  0  0  0
    7.0695   12.6325   25.8531 C   0  0  0  0  0  0  0  0  0  0  0  0
    6.1634   10.0369   25.5996 C   0  0  0  0  0  0  0  0  0  0  0  0
   14.1329   16.5874   18.3531 C   0  0  0  0  0  0  0  0  0  0  0  0
   12.7360   15.3378   20.4194 C   0  0  0  0  0  0  0  0  0  0  0  0
    7.7850   11.7389   25.0590 C   0  0  0  0  0  0  0  0  0  0  0  0
    7.3237   10.4226   24.9321 C   0  0  0  0  0  0  0  0  0  0  0  0
    9.5190   11.2096   23.6862 C   0  0  0  0  0  0  0  0  0  0  0  0
   10.7236   11.6174   22.9941 C   0  0  0  0  0  0  0  0  0  0  0  0
   10.1579   15.3693   23.0692 C   0  0  0  0  0  0  0  0  0  0  0  0
   14.1199   18.4658   16.6723 C   0  0  0  0  0  0  0  0  0  0  0  0
   15.2464   16.2812   16.1125 C   0  0  0  0  0  0  0  0  0  0  0  0
    8.8733   16.1569   23.1125 C   0  0  0  0  0  0  0  0  0  0  0  0
   11.7117   13.1657   21.2801 C   0  0  0  0  0  0  0  0  0  0  0  0
   14.8789   17.2553   17.2480 C   0  0  0  0  0  0  0  0  0  0  0  0
   11.9768   14.6561   21.5445 C   0  0  2  0  0  0  0  0  0  0  0  0
    8.8968   12.1352   24.4275 N   0  0  0  0  0  0  0  0  0  0  0  0
    8.0034    9.5504   24.1707 N   0  0  0  0  0  0  0  0  0  0  0  0
    9.1250    9.9388   23.5284 N   0  0  0  0  0  0  0  0  0  0  0  0
   10.6078   12.6622   22.0654 N   0  0  0  0  0  0  0  0  0  0  0  0
   10.7117   15.3500   21.8140 N   0  0  0  0  0  0  0  0  0  0  0  0
   11.8086   11.0412   23.2088 O   0  0  0  0  0  0  0  0  0  0  0  0
   10.6261   14.8362   24.0737 O   0  0  0  0  0  0  0  0  0  0  0  0
    8.9723   17.4279   21.8838 Cl  0  0  0  0  0  0  0  0  0  0  0  0
    5.3657   12.9537   27.1324 H   0  0  0  0  0  0  0  0  0  0  0  0
    4.5511   10.6195   26.9042 H   0  0  0  0  0  0  0  0  0  0  0  0
   15.6482   16.9885   19.8393 H   0  0  0  0  0  0  0  0  0  0  0  0
   12.4556   16.0407   17.1070 H   0  0  0  0  0  0  0  0  0  0  0  0
   14.4147   15.8824   21.6646 H   0  0  0  0  0  0  0  0  0  0  0  0
   11.2202   14.9372   18.9339 H   0  0  0  0  0  0  0  0  0  0  0  0
    7.4155   13.6586   25.9617 H   0  0  0  0  0  0  0  0  0  0  0  0
    5.7977    9.0164   25.5067 H   0  0  0  0  0  0  0  0  0  0  0  0
   13.1456   18.1743   16.2650 H   0  0  0  0  0  0  0  0  0  0  0  0
   14.6856   18.9478   15.8675 H   0  0  0  0  0  0  0  0  0  0  0  0
   13.9447   19.2139   17.4535 H   0  0  0  0  0  0  0  0  0  0  0  0
   14.3416   15.8414   15.6783 H   0  0  0  0  0  0  0  0  0  0  0  0
   15.8762   15.4618   16.4757 H   0  0  0  0  0  0  0  0  0  0  0  0
   15.7912   16.7871   15.3079 H   0  0  0  0  0  0  0  0  0  0  0  0
    7.9952   15.5395   22.9078 H   0  0  0  0  0  0  0  0  0  0  0  0
    8.7634   16.6188   24.0974 H   0  0  0  0  0  0  0  0  0  0  0  0
   11.4436   13.0027   20.2300 H   0  0  0  0  0  0  0  0  0  0  0  0
   12.5826   12.5393   21.5007 H   0  0  0  0  0  0  0  0  0  0  0  0
   15.8389   17.6523   17.6296 H   0  0  0  0  0  0  0  0  0  0  0  0
   12.5782   14.7303   22.4601 H   0  0  0  0  0  0  0  0  0  0  0  0
    9.6915   13.0566   21.8796 H   0  0  0  0  0  0  0  0  0  0  0  0
   10.2407   15.8216   21.0623 H   0  0  0  0  0  0  0  0  0  0  0  0
  1  2  1  0  0  0  0
  1  7  2  0  0  0  0
  2  8  2  0  0  0  0
  3  5  2  0  0  0  0
  3  9  1  0  0  0  0
  4  6  1  0  0  0  0
  4  9  2  0  0  0  0
  5 10  1  0  0  0  0
  6 10  2  0  0  0  0
  7 11  1  0  0  0  0
  8 12  1  0  0  0  0
  9 20  1  0  0  0  0
 10 21  1  0  0  0  0
 11 12  2  0  0  0  0
 11 22  1  0  0  0  0
 12 23  1  0  0  0  0
 13 14  1  0  0  0  0
 13 22  2  0  0  0  0
 13 24  1  0  0  0  0
 14 25  1  0  0  0  0
 14 27  2  0  0  0  0
 15 18  1  0  0  0  0
 15 26  1  0  0  0  0
 15 28  2  0  0  0  0
 16 20  1  0  0  0  0
 17 20  1  0  0  0  0
 18 29  1  0  0  0  0
 19 21  1  0  0  0  0
 19 25  1  0  0  0  0
 21 26  1  0  0  0  0
 23 24  2  0  0  0  0
  1 30  1  0  0  0  0
  2 31  1  0  0  0  0
  3 32  1  0  0  0  0
  4 33  1  0  0  0  0
  5 34  1  0  0  0  0
  6 35  1  0  0  0  0
  7 36  1  0  0  0  0
  8 37  1  0  0  0  0
 16 38  1  0  0  0  0
 16 39  1  0  0  0  0
 16 40  1  0  0  0  0
 17 41  1  0  0  0  0
 17 42  1  0  0  0  0
 17 43  1  0  0  0  0
 18 44  1  0  0  0  0
 18 45  1  0  0  0  0
 19 46  1  0  0  0  0
 19 47  1  0  0  0  0
 20 48  1  0  0  0  0
 21 49  1  0  0  0  0
 25 50  1  0  0  0  0
 26 51  1  0  0  0  0
M  END
> <Catalog ID>
Z4425211692

> <MW>
411.885

> <MW (desalted)>
411.885

> <ClogP>
3.777

> <logS>
-5.279

> <HBD>
2

> <HBA>
5

> <TPSA>
96.87

> <RotBonds>
7

> <ROCS_ShapeQuery>
A71EV2A-x0451_0A_A71EV2A-x0310_0A_A71EV2A-x0416_0A_peptide

> <ROCS_TanimotoCombo>
0.521 

> <ROCS_ShapeTanimoto>
0.355 

> <ROCS_ColorTanimoto>
0.166 

> <ROCS_RefTversky>
0.322 

> <ROCS_RefColorTversky>
0.200 

> <ROCS_RefTverskyCombo>
0.522 

> <ROCS_FitTversky>
1.404 

> <ROCS_FitColorTversky>
0.496 

> <ROCS_FitTverskyCombo>
1.900 

> <ROCS_ColorScore>
-6.133

> <ROCS_Overlap>
2243.207

> <ROCS_Rank>
386                 

$$$$
untitled-dbase-2454_2404
  -OEChem-11132309573D

 60 63  0     1  0  0  0  0  0999 V2000
    6.9695   12.9809   25.8569 C   0  0  0  0  0  0  0  0  0  0  0  0
    6.0949   11.8992   25.8060 C   0  0  0  0  0  0  0  0  0  0  0  0
    8.2331   12.8828   25.2738 C   0  0  0  0  0  0  0  0  0  0  0  0
    6.4822   10.7218   25.1688 C   0  0  0  0  0  0  0  0  0  0  0  0
    8.6356   11.7024   24.6291 C   0  0  0  0  0  0  0  0  0  0  0  0
    7.7438   10.6247   24.5733 C   0  0  0  0  0  0  0  0  0  0  0  0
   15.3040   16.6654   17.7906 C   0  0  0  0  0  0  0  0  0  0  0  0
   14.0866   16.3531   18.2398 C   0  0  0  0  0  0  0  0  0  0  0  0
   13.7089   16.7497   19.6124 C   0  0  0  0  0  0  0  0  0  0  0  0
   10.4808   13.8151   22.9781 C   0  0  0  0  0  0  0  0  0  0  0  0
   10.9087   16.0022   21.8764 C   0  0  0  0  0  0  0  0  0  0  0  0
   11.6116   13.8001   20.7880 C   0  0  0  0  0  0  0  0  0  0  0  0
    9.5748    7.8830   23.0115 C   0  0  0  0  0  0  0  0  0  0  0  0
    8.7444    9.8485   21.6937 C   0  0  0  0  0  0  0  0  0  0  0  0
   10.3526   10.1610   23.6870 C   0  0  0  0  0  0  0  0  0  0  0  0
   12.3869   16.2998   21.6422 C   0  0  0  0  0  0  0  0  0  0  0  0
   12.1978   14.7166   19.7190 C   0  0  0  0  0  0  0  0  0  0  0  0
    8.5136    7.0207   22.3176 C   0  0  0  0  0  0  0  0  0  0  0  0
    7.7149    8.9130   21.0439 C   0  0  0  0  0  0  0  0  0  0  0  0
   10.0094   11.6114   24.0237 C   0  0  1  0  0  0  0  0  0  0  0  0
   10.5775   14.5205   21.6583 C   0  0  0  0  0  0  0  0  0  0  0  0
    9.1661    9.3721   23.1005 C   0  0  0  0  0  0  0  0  0  0  0  0
    9.1598    7.2690   19.9866 C   0  0  0  0  0  0  0  0  0  0  0  0
   12.7964   15.9357   20.2826 N   0  0  0  0  0  0  0  0  0  0  0  0
    8.1255    7.5069   20.9903 N   0  0  0  0  0  0  0  0  0  0  0  0
   10.1525   12.4766   22.8779 N   0  0  0  0  0  0  0  0  0  0  0  0
   14.2116   17.7732   20.0777 O   0  0  0  0  0  0  0  0  0  0  0  0
   10.6899   14.4377   24.0127 O   0  0  0  0  0  0  0  0  0  0  0  0
    8.0264    9.4232   23.9814 O   0  0  0  0  0  0  0  0  0  0  0  0
    6.6688   13.8999   26.3505 H   0  0  0  0  0  0  0  0  0  0  0  0
    5.1153   11.9692   26.2699 H   0  0  0  0  0  0  0  0  0  0  0  0
    8.8998   13.7393   25.3276 H   0  0  0  0  0  0  0  0  0  0  0  0
    5.7990    9.8762   25.1496 H   0  0  0  0  0  0  0  0  0  0  0  0
   15.6388   16.4016   16.7930 H   0  0  0  0  0  0  0  0  0  0  0  0
   15.9985   17.2016   18.4286 H   0  0  0  0  0  0  0  0  0  0  0  0
   13.3663   15.8197   17.6335 H   0  0  0  0  0  0  0  0  0  0  0  0
   10.6350   16.3073   22.8916 H   0  0  0  0  0  0  0  0  0  0  0  0
   10.3127   16.6099   21.1863 H   0  0  0  0  0  0  0  0  0  0  0  0
   11.1376   12.9437   20.2961 H   0  0  0  0  0  0  0  0  0  0  0  0
   12.4218   13.4071   21.4104 H   0  0  0  0  0  0  0  0  0  0  0  0
    9.7403    7.4605   24.0108 H   0  0  0  0  0  0  0  0  0  0  0  0
   10.5258    7.7933   22.4669 H   0  0  0  0  0  0  0  0  0  0  0  0
    9.6242    9.9202   21.0411 H   0  0  0  0  0  0  0  0  0  0  0  0
    8.3010   10.8502   21.7546 H   0  0  0  0  0  0  0  0  0  0  0  0
   11.1724   10.1523   22.9421 H   0  0  0  0  0  0  0  0  0  0  0  0
   10.7511    9.6522   24.5843 H   0  0  0  0  0  0  0  0  0  0  0  0
   12.5814   17.3641   21.8350 H   0  0  0  0  0  0  0  0  0  0  0  0
   13.0187   15.7318   22.3415 H   0  0  0  0  0  0  0  0  0  0  0  0
   12.9997   14.1978   19.1619 H   0  0  0  0  0  0  0  0  0  0  0  0
   11.4321   14.9441   18.9616 H   0  0  0  0  0  0  0  0  0  0  0  0
    8.9220    5.9938   22.2277 H   0  0  0  0  0  0  0  0  0  0  0  0
    7.6238    6.9268   22.9758 H   0  0  0  0  0  0  0  0  0  0  0  0
    6.7382    9.0160   21.5672 H   0  0  0  0  0  0  0  0  0  0  0  0
    7.5305    9.2826   20.0128 H   0  0  0  0  0  0  0  0  0  0  0  0
   10.7265   11.9914   24.7784 H   0  0  0  0  0  0  0  0  0  0  0  0
    9.5980   14.4307   21.1968 H   0  0  0  0  0  0  0  0  0  0  0  0
    8.8206    7.6506   19.0122 H   0  0  0  0  0  0  0  0  0  0  0  0
   10.0836    7.7879   20.2821 H   0  0  0  0  0  0  0  0  0  0  0  0
    9.3544    6.1891   19.9097 H   0  0  0  0  0  0  0  0  0  0  0  0
   10.0048   12.0829   21.9534 H   0  0  0  0  0  0  0  0  0  0  0  0
  1  2  1  0  0  0  0
  1  3  2  0  0  0  0
  2  4  2  0  0  0  0
  3  5  1  0  0  0  0
  4  6  1  0  0  0  0
  5  6  2  0  0  0  0
  5 20  1  0  0  0  0
  6 29  1  0  0  0  0
  7  8  2  0  0  0  0
  8  9  1  0  0  0  0
  9 24  1  0  0  0  0
  9 27  2  0  0  0  0
 10 21  1  0  0  0  0
 10 26  1  0  0  0  0
 10 28  2  0  0  0  0
 11 16  1  0  0  0  0
 11 21  1  0  0  0  0
 12 17  1  0  0  0  0
 12 21  1  0  0  0  0
 13 18  1  0  0  0  0
 13 22  1  0  0  0  0
 14 19  1  0  0  0  0
 14 22  1  0  0  0  0
 15 20  1  0  0  0  0
 15 22  1  0  0  0  0
 16 24  1  0  0  0  0
 17 24  1  0  0  0  0
 18 25  1  0  0  0  0
 19 25  1  0  0  0  0
 20 26  1  0  0  0  0
 22 29  1  0  0  0  0
 23 25  1  0  0  0  0
  1 30  1  0  0  0  0
  2 31  1  0  0  0  0
  3 32  1  0  0  0  0
  4 33  1  0  0  0  0
  7 34  1  0  0  0  0
  7 35  1  0  0  0  0
  8 36  1  0  0  0  0
 11 37  1  0  0  0  0
 11 38  1  0  0  0  0
 12 39  1  0  0  0  0
 12 40  1  0  0  0  0
 13 41  1  0  0  0  0
 13 42  1  0  0  0  0
 14 43  1  0  0  0  0
 14 44  1  0  0  0  0
 15 45  1  0  0  0  0
 15 46  1  0  0  0  0
 16 47  1  0  0  0  0
 16 48  1  0  0  0  0
 17 49  1  0  0  0  0
 17 50  1  0  0  0  0
 18 51  1  0  0  0  0
 18 52  1  0  0  0  0
 19 53  1  0  0  0  0
 19 54  1  0  0  0  0
 20 55  1  0  0  0  0
 21 56  1  0  0  0  0
 23 57  1  0  0  0  0
 23 58  1  0  0  0  0
 23 59  1  0  0  0  0
 26 60  1  0  0  0  0
M  END
> <Catalog ID>
Z3756345236

> <MW>
397.511

> <MW (desalted)>
397.511

> <ClogP>
0.535

> <logS>
-3.576

> <HBD>
1

> <HBA>
4

> <TPSA>
61.88

> <RotBonds>
3

> <ROCS_ShapeQuery>
A71EV2A-x0451_0A_A71EV2A-x0310_0A_A71EV2A-x0416_0A_peptide

> <ROCS_TanimotoCombo>
0.521 

> <ROCS_ShapeTanimoto>
0.371 

> <ROCS_ColorTanimoto>
0.150 

> <ROCS_RefTversky>
0.333 

> <ROCS_RefColorTversky>
0.178 

> <ROCS_RefTverskyCombo>
0.511 

> <ROCS_FitTversky>
1.448 

> <ROCS_FitColorTversky>
0.490 

> <ROCS_FitTverskyCombo>
1.938 

> <ROCS_ColorScore>
-5.436

> <ROCS_Overlap>
2319.158

> <ROCS_Rank>
387                 

$$$$
untitled-dbase-475_3106
  -OEChem-11132309573D

 55 58  0     1  0  0  0  0  0999 V2000
    8.1346   14.0876   19.9785 C   0  0  0  0  0  0  0  0  0  0  0  0
    9.1640   13.1860   19.7086 C   0  0  0  0  0  0  0  0  0  0  0  0
    8.4239   15.4379   20.1757 C   0  0  0  0  0  0  0  0  0  0  0  0
   10.4828   13.6345   19.6360 C   0  0  0  0  0  0  0  0  0  0  0  0
    9.0611   10.3442   23.6229 C   0  0  0  0  0  0  0  0  0  0  0  0
    7.9188    9.8385   24.2434 C   0  0  0  0  0  0  0  0  0  0  0  0
   14.1571   15.9506   20.2470 C   0  0  0  0  0  0  0  0  0  0  0  0
    8.3392   12.5940   24.1273 C   0  0  0  0  0  0  0  0  0  0  0  0
   13.8622   16.1392   18.8835 C   0  0  0  0  0  0  0  0  0  0  0  0
    9.7427   15.8864   20.1032 C   0  0  0  0  0  0  0  0  0  0  0  0
   10.7722   14.9847   19.8333 C   0  0  0  0  0  0  0  0  0  0  0  0
    9.2714   11.7219   23.5649 C   0  0  0  0  0  0  0  0  0  0  0  0
    7.1968   12.0883   24.7477 C   0  0  0  0  0  0  0  0  0  0  0  0
    6.9866   10.7106   24.8057 C   0  0  0  0  0  0  0  0  0  0  0  0
   12.9876   15.4762   20.7889 C   0  0  0  0  0  0  0  0  0  0  0  0
    3.6988   13.9067   27.7114 C   0  0  0  0  0  0  0  0  0  0  0  0
    4.5705   13.9268   26.6982 C   0  0  0  0  0  0  0  0  0  0  0  0
    5.4239   12.7382   26.4076 C   0  0  0  0  0  0  0  0  0  0  0  0
   11.1082   13.4085   23.2392 C   0  0  0  0  0  0  0  0  0  0  0  0
   13.5226   12.9822   22.9695 C   0  0  0  0  0  0  0  0  0  0  0  0
   14.0876   14.1225   23.7870 C   0  0  0  0  0  0  0  0  0  0  0  0
   12.6512   15.0795   22.2104 C   0  0  1  0  0  0  0  0  0  0  0  0
   12.2934   13.5975   22.3374 C   0  0  2  0  0  0  0  0  0  0  0  0
   10.0194   17.3395   20.3197 C   0  0  0  0  0  0  0  0  0  0  0  0
   12.6040   15.8112   18.5779 N   0  0  0  0  0  0  0  0  0  0  0  0
   12.0979   15.4117   19.7571 N   0  0  0  0  0  0  0  0  0  0  0  0
    6.2659   12.9627   25.3098 N   0  0  0  0  0  0  0  0  0  0  0  0
   10.4303   12.2347   22.9353 N   0  0  0  0  0  0  0  0  0  0  0  0
    5.3475   11.7202   27.0853 O   0  0  0  0  0  0  0  0  0  0  0  0
   10.8440   14.2311   24.1100 O   0  0  0  0  0  0  0  0  0  0  0  0
   13.7787   15.3248   23.0749 O   0  0  0  0  0  0  0  0  0  0  0  0
    5.8924   10.2131   25.3991 F   0  0  0  0  0  0  0  0  0  0  0  0
    7.1077   13.7385   20.0345 H   0  0  0  0  0  0  0  0  0  0  0  0
    8.9388   12.1346   19.5552 H   0  0  0  0  0  0  0  0  0  0  0  0
    7.6144   16.1319   20.3858 H   0  0  0  0  0  0  0  0  0  0  0  0
   11.2736   12.9186   19.4251 H   0  0  0  0  0  0  0  0  0  0  0  0
    9.7807    9.6549   23.1880 H   0  0  0  0  0  0  0  0  0  0  0  0
    7.7549    8.7660   24.2892 H   0  0  0  0  0  0  0  0  0  0  0  0
   15.0885   16.1333   20.7627 H   0  0  0  0  0  0  0  0  0  0  0  0
    8.5037   13.6689   24.0816 H   0  0  0  0  0  0  0  0  0  0  0  0
   14.5118   16.5018   18.0998 H   0  0  0  0  0  0  0  0  0  0  0  0
    3.0626   14.7509   27.9525 H   0  0  0  0  0  0  0  0  0  0  0  0
    3.6078   13.0205   28.3309 H   0  0  0  0  0  0  0  0  0  0  0  0
    4.6620   14.8120   26.0783 H   0  0  0  0  0  0  0  0  0  0  0  0
   14.2367   12.7107   22.1827 H   0  0  0  0  0  0  0  0  0  0  0  0
   13.3299   12.0930   23.5770 H   0  0  0  0  0  0  0  0  0  0  0  0
   13.6123   14.1806   24.7722 H   0  0  0  0  0  0  0  0  0  0  0  0
   15.1694   14.0439   23.9271 H   0  0  0  0  0  0  0  0  0  0  0  0
   11.8108   15.7333   22.5555 H   0  0  0  0  0  0  0  0  0  0  0  0
   12.0395   13.1218   21.3822 H   0  0  0  0  0  0  0  0  0  0  0  0
   10.2032   17.5355   21.3818 H   0  0  0  0  0  0  0  0  0  0  0  0
   10.8955   17.6644   19.7461 H   0  0  0  0  0  0  0  0  0  0  0  0
    9.1742   17.9557   19.9903 H   0  0  0  0  0  0  0  0  0  0  0  0
    6.1881   13.8848   24.8641 H   0  0  0  0  0  0  0  0  0  0  0  0
   10.7999   11.6683   22.1746 H   0  0  0  0  0  0  0  0  0  0  0  0
  1  2  1  0  0  0  0
  1  3  2  0  0  0  0
  2  4  2  0  0  0  0
  3 10  1  0  0  0  0
  4 11  1  0  0  0  0
  5  6  2  0  0  0  0
  5 12  1  0  0  0  0
  6 14  1  0  0  0  0
  7  9  1  0  0  0  0
  7 15  2  0  0  0  0
  8 12  2  0  0  0  0
  8 13  1  0  0  0  0
  9 25  2  0  0  0  0
 10 11  2  0  0  0  0
 10 24  1  0  0  0  0
 11 26  1  0  0  0  0
 12 28  1  0  0  0  0
 13 14  2  0  0  0  0
 13 27  1  0  0  0  0
 14 32  1  0  0  0  0
 15 22  1  6  0  0  0
 15 26  1  0  0  0  0
 16 17  2  0  0  0  0
 17 18  1  0  0  0  0
 18 27  1  0  0  0  0
 18 29  2  0  0  0  0
 19 23  1  1  0  0  0
 19 28  1  0  0  0  0
 19 30  2  0  0  0  0
 20 21  1  0  0  0  0
 20 23  1  0  0  0  0
 21 31  1  0  0  0  0
 22 23  1  0  0  0  0
 22 31  1  0  0  0  0
 25 26  1  0  0  0  0
  1 33  1  0  0  0  0
  2 34  1  0  0  0  0
  3 35  1  0  0  0  0
  4 36  1  0  0  0  0
  5 37  1  0  0  0  0
  6 38  1  0  0  0  0
  7 39  1  0  0  0  0
  8 40  1  0  0  0  0
  9 41  1  0  0  0  0
 16 42  1  0  0  0  0
 16 43  1  0  0  0  0
 17 44  1  0  0  0  0
 20 45  1  0  0  0  0
 20 46  1  0  0  0  0
 21 47  1  0  0  0  0
 21 48  1  0  0  0  0
 22 49  1  0  0  0  0
 23 50  1  0  0  0  0
 24 51  1  0  0  0  0
 24 52  1  0  0  0  0
 24 53  1  0  0  0  0
 27 54  1  0  0  0  0
 28 55  1  0  0  0  0
M  END
> <Catalog ID>
Z3669373750

> <MW>
434.463

> <MW (desalted)>
434.463

> <ClogP>
2.377

> <logS>
-5.305

> <HBD>
2

> <HBA>
4

> <TPSA>
85.25

> <RotBonds>
6

> <ROCS_ShapeQuery>
A71EV2A-x0451_0A_A71EV2A-x0310_0A_A71EV2A-x0416_0A_peptide

> <ROCS_TanimotoCombo>
0.521 

> <ROCS_ShapeTanimoto>
0.363 

> <ROCS_ColorTanimoto>
0.158 

> <ROCS_RefTversky>
0.334 

> <ROCS_RefColorTversky>
0.190 

> <ROCS_RefTverskyCombo>
0.524 

> <ROCS_FitTversky>
1.318 

> <ROCS_FitColorTversky>
0.485 

> <ROCS_FitTverskyCombo>
1.803 

> <ROCS_ColorScore>
-5.835

> <ROCS_Overlap>
2326.354

> <ROCS_Rank>
388                 

$$$$
untitled-dbase-9699_4947
  -OEChem-11132309573D

 49 50  0     0  0  0  0  0  0999 V2000
   13.1190   14.7436   18.8666 C   0  0  0  0  0  0  0  0  0  0  0  0
   13.5140   16.4922   20.4862 C   0  0  0  0  0  0  0  0  0  0  0  0
   13.6360   15.5591   17.8600 C   0  0  0  0  0  0  0  0  0  0  0  0
   14.0311   17.3078   19.4796 C   0  0  0  0  0  0  0  0  0  0  0  0
    8.7947    9.5292   24.1171 C   0  0  0  0  0  0  0  0  0  0  0  0
    8.2637   12.2643   23.9754 C   0  0  0  0  0  0  0  0  0  0  0  0
   13.0580   15.2102   20.1797 C   0  0  0  0  0  0  0  0  0  0  0  0
    9.6269   10.3634   23.3708 C   0  0  0  0  0  0  0  0  0  0  0  0
    9.3615   11.7310   23.2999 C   0  0  0  0  0  0  0  0  0  0  0  0
    7.6969   10.0625   24.7925 C   0  0  0  0  0  0  0  0  0  0  0  0
    7.4315   11.4300   24.7217 C   0  0  0  0  0  0  0  0  0  0  0  0
   14.0921   16.8411   18.1665 C   0  0  0  0  0  0  0  0  0  0  0  0
   12.5196   14.3598   21.2300 C   0  0  0  0  0  0  0  0  0  0  0  0
   11.8648   14.7926   22.3277 C   0  0  0  0  0  0  0  0  0  0  0  0
   10.7654    9.7767   22.6760 C   0  0  0  0  0  0  0  0  0  0  0  0
    5.7834    8.6510   24.8386 C   0  0  0  0  0  0  0  0  0  0  0  0
    3.0457   12.4616   27.7415 C   0  0  0  0  0  0  0  0  0  0  0  0
    6.5777   12.4100   26.7133 C   0  0  0  0  0  0  0  0  0  0  0  0
    5.2846   12.9863   27.2569 C   0  0  0  0  0  0  0  0  0  0  0  0
   10.2072   12.6118   22.5342 N   0  0  0  0  0  0  0  0  0  0  0  0
   11.5767   10.3981   21.9847 O   0  0  0  0  0  0  0  0  0  0  0  0
   12.4290   12.7981   23.8760 O   0  0  0  0  0  0  0  0  0  0  0  0
   10.4982   14.2893   24.4518 O   0  0  0  0  0  0  0  0  0  0  0  0
   10.8534    8.4331   22.8690 O   0  0  0  0  0  0  0  0  0  0  0  0
    6.8917    9.2374   25.5183 O   0  0  0  0  0  0  0  0  0  0  0  0
    6.3620   11.9623   25.3764 O   0  0  0  0  0  0  0  0  0  0  0  0
    4.2778   11.9821   27.2213 O   0  0  0  0  0  0  0  0  0  0  0  0
   11.2996   13.6092   23.4430 S   0  0  0  0  0  0  0  0  0  0  0  0
   14.7299   17.8468   16.9246 Cl  0  0  0  0  0  0  0  0  0  0  0  0
   12.7667   13.7466   18.6128 H   0  0  0  0  0  0  0  0  0  0  0  0
   13.4728   16.8693   21.5053 H   0  0  0  0  0  0  0  0  0  0  0  0
   13.6778   15.1818   16.8414 H   0  0  0  0  0  0  0  0  0  0  0  0
   14.3827   18.3047   19.7332 H   0  0  0  0  0  0  0  0  0  0  0  0
    8.9971    8.4622   24.1756 H   0  0  0  0  0  0  0  0  0  0  0  0
    8.0528   13.3299   23.9231 H   0  0  0  0  0  0  0  0  0  0  0  0
   12.6502   13.2797   21.0950 H   0  0  0  0  0  0  0  0  0  0  0  0
   11.6720   15.8377   22.5327 H   0  0  0  0  0  0  0  0  0  0  0  0
    5.2246    8.0167   25.5310 H   0  0  0  0  0  0  0  0  0  0  0  0
    6.1447    8.0578   23.9949 H   0  0  0  0  0  0  0  0  0  0  0  0
    5.1315    9.4464   24.4697 H   0  0  0  0  0  0  0  0  0  0  0  0
    2.2973   11.6665   27.6990 H   0  0  0  0  0  0  0  0  0  0  0  0
    2.7122   13.3221   27.1561 H   0  0  0  0  0  0  0  0  0  0  0  0
    3.1927   12.7652   28.7807 H   0  0  0  0  0  0  0  0  0  0  0  0
    6.9099   11.5547   27.3097 H   0  0  0  0  0  0  0  0  0  0  0  0
    7.3603   13.1742   26.6967 H   0  0  0  0  0  0  0  0  0  0  0  0
    4.9440   13.8320   26.6513 H   0  0  0  0  0  0  0  0  0  0  0  0
    5.4141   13.3050   28.2953 H   0  0  0  0  0  0  0  0  0  0  0  0
   10.6423   12.1442   21.7268 H   0  0  0  0  0  0  0  0  0  0  0  0
   11.6176    8.0284   22.4058 H   0  0  0  0  0  0  0  0  0  0  0  0
  1  3  2  0  0  0  0
  1  7  1  0  0  0  0
  2  4  1  0  0  0  0
  2  7  2  0  0  0  0
  3 12  1  0  0  0  0
  4 12  2  0  0  0  0
  5  8  2  0  0  0  0
  5 10  1  0  0  0  0
  6  9  2  0  0  0  0
  6 11  1  0  0  0  0
  7 13  1  0  0  0  0
  8  9  1  0  0  0  0
  8 15  1  0  0  0  0
  9 20  1  0  0  0  0
 10 11  2  0  0  0  0
 10 25  1  0  0  0  0
 11 26  1  0  0  0  0
 12 29  1  0  0  0  0
 13 14  2  0  0  0  0
 14 28  1  4  0  0  0
 15 21  2  0  0  0  0
 15 24  1  0  0  0  0
 16 25  1  0  0  0  0
 17 27  1  0  0  0  0
 18 19  1  0  0  0  0
 18 26  1  0  0  0  0
 19 27  1  0  0  0  0
 20 28  1  0  0  0  0
 22 28  2  0  0  0  0
 23 28  2  0  0  0  0
  1 30  1  0  0  0  0
  2 31  1  0  0  0  0
  3 32  1  0  0  0  0
  4 33  1  0  0  0  0
  5 34  1  0  0  0  0
  6 35  1  0  0  0  0
 13 36  1  0  0  0  0
 14 37  1  0  0  0  0
 16 38  1  0  0  0  0
 16 39  1  0  0  0  0
 16 40  1  0  0  0  0
 17 41  1  0  0  0  0
 17 42  1  0  0  0  0
 17 43  1  0  0  0  0
 18 44  1  0  0  0  0
 18 45  1  0  0  0  0
 19 46  1  0  0  0  0
 19 47  1  0  0  0  0
 20 48  1  0  0  0  0
 24 49  1  0  0  0  0
M  END
> <Catalog ID>
Z216420302

> <MW>
441.883

> <MW (desalted)>
441.883

> <ClogP>
3.896

> <logS>
-4.536

> <HBD>
2

> <HBA>
7

> <TPSA>
111.16

> <RotBonds>
9

> <ROCS_ShapeQuery>
A71EV2A-x0451_0A_A71EV2A-x0310_0A_A71EV2A-x0416_0A_peptide

> <ROCS_TanimotoCombo>
0.521 

> <ROCS_ShapeTanimoto>
0.383 

> <ROCS_ColorTanimoto>
0.139 

> <ROCS_RefTversky>
0.339 

> <ROCS_RefColorTversky>
0.170 

> <ROCS_RefTverskyCombo>
0.508 

> <ROCS_FitTversky>
1.516 

> <ROCS_FitColorTversky>
0.432 

> <ROCS_FitTverskyCombo>
1.947 

> <ROCS_ColorScore>
-5.202

> <ROCS_Overlap>
2355.755

> <ROCS_Rank>
389                 

$$$$
untitled-dbase-8824_8179
  -OEChem-11132309573D

 45 47  0     1  0  0  0  0  0999 V2000
    5.8987   11.1907   25.9406 C   0  0  0  0  0  0  0  0  0  0  0  0
    6.1469   12.5379   25.6951 C   0  0  0  0  0  0  0  0  0  0  0  0
    6.7683   10.2186   25.4454 C   0  0  0  0  0  0  0  0  0  0  0  0
    7.2657   12.9182   24.9534 C   0  0  0  0  0  0  0  0  0  0  0  0
    8.7853    9.6183   24.1908 C   0  0  0  0  0  0  0  0  0  0  0  0
    9.9041    9.9985   23.4490 C   0  0  0  0  0  0  0  0  0  0  0  0
   13.2511   16.4603   20.7782 C   0  0  0  0  0  0  0  0  0  0  0  0
   14.1762   16.6996   19.7213 C   0  0  0  0  0  0  0  0  0  0  0  0
    9.2826   12.3179   23.6986 C   0  0  0  0  0  0  0  0  0  0  0  0
    7.8993   10.5832   24.6969 C   0  0  0  0  0  0  0  0  0  0  0  0
    8.1517   11.9532   24.4472 C   0  0  0  0  0  0  0  0  0  0  0  0
   10.1523   11.3458   23.2035 C   0  0  0  0  0  0  0  0  0  0  0  0
   12.1515   15.7484   20.3521 C   0  0  0  0  0  0  0  0  0  0  0  0
   13.7484   16.1612   18.5276 C   0  0  0  0  0  0  0  0  0  0  0  0
   10.7537   13.7947   21.1311 C   0  0  0  0  0  0  0  0  0  0  0  0
   13.5018   13.0368   24.5888 C   0  0  0  0  0  0  0  0  0  0  0  0
   10.9590   15.2972   21.1532 C   0  0  0  0  0  0  0  0  0  0  0  0
   13.5666   13.3909   26.0526 C   0  0  0  0  0  0  0  0  0  0  0  0
   12.6962   11.2948   23.0209 C   0  0  0  0  0  0  0  0  0  0  0  0
   11.3490   11.7504   22.4104 C   0  0  2  0  0  0  0  0  0  0  0  0
   12.8826   11.8190   24.3487 N   0  0  0  0  0  0  0  0  0  0  0  0
   11.3934   13.2114   22.1927 N   0  0  0  0  0  0  0  0  0  0  0  0
   10.0975   13.2126   20.2712 O   0  0  0  0  0  0  0  0  0  0  0  0
   13.9482   13.7841   23.7202 O   0  0  0  0  0  0  0  0  0  0  0  0
   12.2371   15.3714   18.6839 S   0  0  0  0  0  0  0  0  0  0  0  0
   14.5411   16.2104   17.0089 Cl  0  0  0  0  0  0  0  0  0  0  0  0
   15.0785   12.7392   26.7040 Cl  0  0  0  0  0  0  0  0  0  0  0  0
    5.0274   10.8956   26.5178 H   0  0  0  0  0  0  0  0  0  0  0  0
    5.4691   13.2939   26.0805 H   0  0  0  0  0  0  0  0  0  0  0  0
    6.5545    9.1715   25.6502 H   0  0  0  0  0  0  0  0  0  0  0  0
    7.4398   13.9772   24.7734 H   0  0  0  0  0  0  0  0  0  0  0  0
    8.6108    8.5592   24.3704 H   0  0  0  0  0  0  0  0  0  0  0  0
   10.5763    9.2350   23.0667 H   0  0  0  0  0  0  0  0  0  0  0  0
   13.3892   16.7953   21.7984 H   0  0  0  0  0  0  0  0  0  0  0  0
   15.1071   17.2402   19.8375 H   0  0  0  0  0  0  0  0  0  0  0  0
    9.4885   13.3684   23.4995 H   0  0  0  0  0  0  0  0  0  0  0  0
   11.0713   15.6235   22.1950 H   0  0  0  0  0  0  0  0  0  0  0  0
   10.0511   15.7806   20.7708 H   0  0  0  0  0  0  0  0  0  0  0  0
   13.5473   14.4698   26.2249 H   0  0  0  0  0  0  0  0  0  0  0  0
   12.7237   12.9307   26.5754 H   0  0  0  0  0  0  0  0  0  0  0  0
   12.7484   10.2036   23.1093 H   0  0  0  0  0  0  0  0  0  0  0  0
   13.5509   11.6196   22.4180 H   0  0  0  0  0  0  0  0  0  0  0  0
   11.2945   11.3015   21.4003 H   0  0  0  0  0  0  0  0  0  0  0  0
   12.5475   11.2756   25.1410 H   0  0  0  0  0  0  0  0  0  0  0  0
   11.9016   13.7867   22.8344 H   0  0  0  0  0  0  0  0  0  0  0  0
  1  2  1  0  0  0  0
  1  3  2  0  0  0  0
  2  4  2  0  0  0  0
  3 10  1  0  0  0  0
  4 11  1  0  0  0  0
  5  6  2  0  0  0  0
  5 10  1  0  0  0  0
  6 12  1  0  0  0  0
  7  8  1  0  0  0  0
  7 13  2  0  0  0  0
  8 14  2  0  0  0  0
  9 11  1  0  0  0  0
  9 12  2  0  0  0  0
 10 11  2  0  0  0  0
 12 20  1  0  0  0  0
 13 17  1  0  0  0  0
 13 25  1  0  0  0  0
 14 25  1  0  0  0  0
 14 26  1  0  0  0  0
 15 17  1  0  0  0  0
 15 22  1  0  0  0  0
 15 23  2  0  0  0  0
 16 18  1  0  0  0  0
 16 21  1  0  0  0  0
 16 24  2  0  0  0  0
 18 27  1  0  0  0  0
 19 20  1  0  0  0  0
 19 21  1  0  0  0  0
 20 22  1  0  0  0  0
  1 28  1  0  0  0  0
  2 29  1  0  0  0  0
  3 30  1  0  0  0  0
  4 31  1  0  0  0  0
  5 32  1  0  0  0  0
  6 33  1  0  0  0  0
  7 34  1  0  0  0  0
  8 35  1  0  0  0  0
  9 36  1  0  0  0  0
 17 37  1  0  0  0  0
 17 38  1  0  0  0  0
 18 39  1  0  0  0  0
 18 40  1  0  0  0  0
 19 41  1  0  0  0  0
 19 42  1  0  0  0  0
 20 43  1  0  0  0  0
 21 44  1  0  0  0  0
 22 45  1  0  0  0  0
M  END
> <Catalog ID>
Z4425211864

> <MW>
421.34

> <MW (desalted)>
421.34

> <ClogP>
4.152

> <logS>
-7.058

> <HBD>
2

> <HBA>
2

> <TPSA>
58.2

> <RotBonds>
7

> <ROCS_ShapeQuery>
A71EV2A-x0451_0A_A71EV2A-x0310_0A_A71EV2A-x0416_0A_peptide

> <ROCS_TanimotoCombo>
0.521 

> <ROCS_ShapeTanimoto>
0.356 

> <ROCS_ColorTanimoto>
0.165 

> <ROCS_RefTversky>
0.318 

> <ROCS_RefColorTversky>
0.180 

> <ROCS_RefTverskyCombo>
0.498 

> <ROCS_FitTversky>
1.498 

> <ROCS_FitColorTversky>
0.666 

> <ROCS_FitTverskyCombo>
2.165 

> <ROCS_ColorScore>
-5.492

> <ROCS_Overlap>
2213.107

> <ROCS_Rank>
390                 

$$$$
untitled-dbase-746_3208
  -OEChem-11132309573D

 53 55  0     0  0  0  0  0  0999 V2000
   13.2984   16.2072   18.7563 C   0  0  0  0  0  0  0  0  0  0  0  0
   12.2173   16.5244   19.5787 C   0  0  0  0  0  0  0  0  0  0  0  0
   14.2551   15.2874   19.1858 C   0  0  0  0  0  0  0  0  0  0  0  0
   12.0929   15.9219   20.8305 C   0  0  0  0  0  0  0  0  0  0  0  0
   14.1307   14.6849   20.4377 C   0  0  0  0  0  0  0  0  0  0  0  0
    9.8346   10.9731   22.9377 C   0  0  0  0  0  0  0  0  0  0  0  0
    7.7877   11.9903   23.6861 C   0  0  0  0  0  0  0  0  0  0  0  0
    9.4912    9.8587   23.6860 C   0  0  0  0  0  0  0  0  0  0  0  0
   13.0496   15.0021   21.2601 C   0  0  0  0  0  0  0  0  0  0  0  0
    8.9612   12.0550   22.9431 C   0  0  0  0  0  0  0  0  0  0  0  0
    7.5358   10.8303   24.4007 C   0  0  0  0  0  0  0  0  0  0  0  0
   14.0593   10.7428   26.8400 C   0  0  0  0  0  0  0  0  0  0  0  0
   15.1218   11.2222   26.1899 C   0  0  0  0  0  0  0  0  0  0  0  0
   15.1729   12.6634   25.8718 C   0  0  0  0  0  0  0  0  0  0  0  0
   11.4325   14.2464   22.9543 C   0  0  0  0  0  0  0  0  0  0  0  0
   13.6167   15.2008   23.7197 C   0  0  0  0  0  0  0  0  0  0  0  0
   13.4924   12.9006   22.7090 C   0  0  0  0  0  0  0  0  0  0  0  0
   13.6491   14.5608   25.1118 C   0  0  0  0  0  0  0  0  0  0  0  0
   13.4829   12.3111   24.1187 C   0  0  0  0  0  0  0  0  0  0  0  0
   12.9132   14.3373   22.6410 C   0  0  0  0  0  0  0  0  0  0  0  0
    6.1767    9.5306   25.8566 C   0  0  0  0  0  0  0  0  0  0  0  0
    9.2838   13.2882   22.1498 C   0  0  0  0  0  0  0  0  0  0  0  0
    8.3603    9.7590   24.4200 N   0  0  0  0  0  0  0  0  0  0  0  0
   14.1617   13.1885   25.0695 N   0  0  0  0  0  0  0  0  0  0  0  0
   10.7088   13.5039   22.0409 N   0  0  0  0  0  0  0  0  0  0  0  0
   16.1123   13.3144   26.3328 O   0  0  0  0  0  0  0  0  0  0  0  0
   10.9900   14.8077   23.9497 O   0  0  0  0  0  0  0  0  0  0  0  0
    6.3867   10.7428   25.1422 O   0  0  0  0  0  0  0  0  0  0  0  0
   13.3944   16.6754   17.7810 H   0  0  0  0  0  0  0  0  0  0  0  0
   11.4718   17.2398   19.2440 H   0  0  0  0  0  0  0  0  0  0  0  0
   15.0963   15.0393   18.5454 H   0  0  0  0  0  0  0  0  0  0  0  0
   11.2474   16.1753   21.4646 H   0  0  0  0  0  0  0  0  0  0  0  0
   14.8810   13.9695   20.7640 H   0  0  0  0  0  0  0  0  0  0  0  0
   10.7574   10.9923   22.3683 H   0  0  0  0  0  0  0  0  0  0  0  0
    7.0908   12.8219   23.7075 H   0  0  0  0  0  0  0  0  0  0  0  0
   10.1401    8.9894   23.7158 H   0  0  0  0  0  0  0  0  0  0  0  0
   13.9645    9.6942   27.1014 H   0  0  0  0  0  0  0  0  0  0  0  0
   13.2511   11.4074   27.1265 H   0  0  0  0  0  0  0  0  0  0  0  0
   15.9474   10.5912   25.8878 H   0  0  0  0  0  0  0  0  0  0  0  0
   13.1320   16.1833   23.7950 H   0  0  0  0  0  0  0  0  0  0  0  0
   14.6535   15.3973   23.4112 H   0  0  0  0  0  0  0  0  0  0  0  0
   14.5265   12.8984   22.3366 H   0  0  0  0  0  0  0  0  0  0  0  0
   12.9279   12.2333   22.0441 H   0  0  0  0  0  0  0  0  0  0  0  0
   14.2474   15.2006   25.7619 H   0  0  0  0  0  0  0  0  0  0  0  0
   12.6394   14.5154   25.5362 H   0  0  0  0  0  0  0  0  0  0  0  0
   12.4547   12.1780   24.4753 H   0  0  0  0  0  0  0  0  0  0  0  0
   13.9454   11.3189   24.1025 H   0  0  0  0  0  0  0  0  0  0  0  0
    5.2324    9.5880   26.4034 H   0  0  0  0  0  0  0  0  0  0  0  0
    7.0038    9.3688   26.5525 H   0  0  0  0  0  0  0  0  0  0  0  0
    6.1338    8.7020   25.1458 H   0  0  0  0  0  0  0  0  0  0  0  0
    8.8756   13.2129   21.1360 H   0  0  0  0  0  0  0  0  0  0  0  0
    8.8447   14.1787   22.6118 H   0  0  0  0  0  0  0  0  0  0  0  0
   11.2017   13.0899   21.2554 H   0  0  0  0  0  0  0  0  0  0  0  0
  1  2  1  0  0  0  0
  1  3  2  0  0  0  0
  2  4  2  0  0  0  0
  3  5  1  0  0  0  0
  4  9  1  0  0  0  0
  5  9  2  0  0  0  0
  6  8  2  0  0  0  0
  6 10  1  0  0  0  0
  7 10  2  0  0  0  0
  7 11  1  0  0  0  0
  8 23  1  0  0  0  0
  9 20  1  0  0  0  0
 10 22  1  0  0  0  0
 11 23  2  0  0  0  0
 11 28  1  0  0  0  0
 12 13  2  0  0  0  0
 13 14  1  0  0  0  0
 14 24  1  0  0  0  0
 14 26  2  0  0  0  0
 15 20  1  0  0  0  0
 15 25  1  0  0  0  0
 15 27  2  0  0  0  0
 16 18  1  0  0  0  0
 16 20  1  0  0  0  0
 17 19  1  0  0  0  0
 17 20  1  0  0  0  0
 18 24  1  0  0  0  0
 19 24  1  0  0  0  0
 21 28  1  0  0  0  0
 22 25  1  0  0  0  0
  1 29  1  0  0  0  0
  2 30  1  0  0  0  0
  3 31  1  0  0  0  0
  4 32  1  0  0  0  0
  5 33  1  0  0  0  0
  6 34  1  0  0  0  0
  7 35  1  0  0  0  0
  8 36  1  0  0  0  0
 12 37  1  0  0  0  0
 12 38  1  0  0  0  0
 13 39  1  0  0  0  0
 16 40  1  0  0  0  0
 16 41  1  0  0  0  0
 17 42  1  0  0  0  0
 17 43  1  0  0  0  0
 18 44  1  0  0  0  0
 18 45  1  0  0  0  0
 19 46  1  0  0  0  0
 19 47  1  0  0  0  0
 21 48  1  0  0  0  0
 21 49  1  0  0  0  0
 21 50  1  0  0  0  0
 22 51  1  0  0  0  0
 22 52  1  0  0  0  0
 25 53  1  0  0  0  0
M  END
> <Catalog ID>
Z2495651630

> <MW>
379.452

> <MW (desalted)>
379.452

> <ClogP>
1.734

> <logS>
-3.387

> <HBD>
1

> <HBA>
4

> <TPSA>
71.53

> <RotBonds>
6

> <ROCS_ShapeQuery>
A71EV2A-x0451_0A_A71EV2A-x0310_0A_A71EV2A-x0416_0A_peptide

> <ROCS_TanimotoCombo>
0.521 

> <ROCS_ShapeTanimoto>
0.324 

> <ROCS_ColorTanimoto>
0.197 

> <ROCS_RefTversky>
0.299 

> <ROCS_RefColorTversky>
0.219 

> <ROCS_RefTverskyCombo>
0.519 

> <ROCS_FitTversky>
1.338 

> <ROCS_FitColorTversky>
0.661 

> <ROCS_FitTverskyCombo>
1.999 

> <ROCS_ColorScore>
-6.710

> <ROCS_Overlap>
2082.874

> <ROCS_Rank>
391                 

$$$$
untitled-dbase-5658_40
  -OEChem-11132309573D

 45 47  0     1  0  0  0  0  0999 V2000
    8.2273   12.8470   25.3634 C   0  0  0  0  0  0  0  0  0  0  0  0
    6.9544   12.9208   25.9298 C   0  0  0  0  0  0  0  0  0  0  0  0
    8.6387   11.6936   24.6778 C   0  0  0  0  0  0  0  0  0  0  0  0
    7.7450   10.6195   24.5615 C   0  0  0  0  0  0  0  0  0  0  0  0
    6.0798   11.8425   25.8208 C   0  0  0  0  0  0  0  0  0  0  0  0
    6.4751   10.6913   25.1414 C   0  0  0  0  0  0  0  0  0  0  0  0
   14.2156   15.5542   18.0081 C   0  0  0  0  0  0  0  0  0  0  0  0
   14.7176   15.7081   19.2351 C   0  0  0  0  0  0  0  0  0  0  0  0
   13.9037   16.3951   20.2576 C   0  0  0  0  0  0  0  0  0  0  0  0
   10.4254   13.8105   22.9683 C   0  0  0  0  0  0  0  0  0  0  0  0
   10.7488   15.9834   21.8011 C   0  0  0  0  0  0  0  0  0  0  0  0
   11.4362   13.8019   20.6793 C   0  0  0  0  0  0  0  0  0  0  0  0
   10.3757   10.1821   23.7218 C   0  0  0  0  0  0  0  0  0  0  0  0
   12.2292   16.2614   22.0629 C   0  0  0  0  0  0  0  0  0  0  0  0
   12.8917   14.1618   20.9769 C   0  0  0  0  0  0  0  0  0  0  0  0
    9.1856    9.4987   23.0622 C   0  0  0  0  0  0  0  0  0  0  0  0
   10.0220   11.6232   24.0867 C   0  0  1  0  0  0  0  0  0  0  0  0
   10.4488   14.4897   21.6298 C   0  0  0  0  0  0  0  0  0  0  0  0
   13.0569   15.6183   21.0424 N   0  0  0  0  0  0  0  0  0  0  0  0
   10.1001   12.4687   22.9127 N   0  0  0  0  0  0  0  0  0  0  0  0
   14.0204   17.6182   20.3512 O   0  0  0  0  0  0  0  0  0  0  0  0
   10.6848   14.4553   23.9776 O   0  0  0  0  0  0  0  0  0  0  0  0
    8.0490    9.4419   23.9283 O   0  0  0  0  0  0  0  0  0  0  0  0
    4.5210   12.0019   26.5538 Cl  0  0  0  0  0  0  0  0  0  0  0  0
    5.3931    9.3380   25.0008 Cl  0  0  0  0  0  0  0  0  0  0  0  0
    8.9015   13.6941   25.4644 H   0  0  0  0  0  0  0  0  0  0  0  0
    6.6644   13.8268   26.4562 H   0  0  0  0  0  0  0  0  0  0  0  0
   14.7654   15.0584   17.2151 H   0  0  0  0  0  0  0  0  0  0  0  0
   13.2253   15.9303   17.7742 H   0  0  0  0  0  0  0  0  0  0  0  0
   15.7008   15.3466   19.5067 H   0  0  0  0  0  0  0  0  0  0  0  0
   10.1531   16.4022   22.6212 H   0  0  0  0  0  0  0  0  0  0  0  0
   10.4475   16.5126   20.8879 H   0  0  0  0  0  0  0  0  0  0  0  0
   11.2042   14.1001   19.6489 H   0  0  0  0  0  0  0  0  0  0  0  0
   11.3168   12.7130   20.7300 H   0  0  0  0  0  0  0  0  0  0  0  0
   10.6232    9.6391   24.6439 H   0  0  0  0  0  0  0  0  0  0  0  0
   11.2611   10.1414   23.0772 H   0  0  0  0  0  0  0  0  0  0  0  0
   12.3996   17.3426   22.0815 H   0  0  0  0  0  0  0  0  0  0  0  0
   12.5355   15.8671   23.0387 H   0  0  0  0  0  0  0  0  0  0  0  0
   13.1963   13.7597   21.9504 H   0  0  0  0  0  0  0  0  0  0  0  0
   13.5485   13.6991   20.2396 H   0  0  0  0  0  0  0  0  0  0  0  0
    8.8972    9.9914   22.1259 H   0  0  0  0  0  0  0  0  0  0  0  0
    9.4516    8.4659   22.8131 H   0  0  0  0  0  0  0  0  0  0  0  0
   10.7557   12.0003   24.7941 H   0  0  0  0  0  0  0  0  0  0  0  0
    9.4346   14.3801   21.2256 H   0  0  0  0  0  0  0  0  0  0  0  0
    9.9065   12.0553   22.0055 H   0  0  0  0  0  0  0  0  0  0  0  0
  1  2  2  0  0  0  0
  1  3  1  0  0  0  0
  2  5  1  0  0  0  0
  3  4  2  0  0  0  0
  3 17  1  0  0  0  0
  4  6  1  0  0  0  0
  4 23  1  0  0  0  0
  5  6  2  0  0  0  0
  5 24  1  0  0  0  0
  6 25  1  0  0  0  0
  7  8  2  0  0  0  0
  8  9  1  0  0  0  0
  9 19  1  0  0  0  0
  9 21  2  0  0  0  0
 10 18  1  0  0  0  0
 10 20  1  0  0  0  0
 10 22  2  0  0  0  0
 11 14  1  0  0  0  0
 11 18  1  0  0  0  0
 12 15  1  0  0  0  0
 12 18  1  0  0  0  0
 13 16  1  0  0  0  0
 13 17  1  0  0  0  0
 14 19  1  0  0  0  0
 15 19  1  0  0  0  0
 16 23  1  0  0  0  0
 17 20  1  0  0  0  0
  1 26  1  0  0  0  0
  2 27  1  0  0  0  0
  7 28  1  0  0  0  0
  7 29  1  0  0  0  0
  8 30  1  0  0  0  0
 11 31  1  0  0  0  0
 11 32  1  0  0  0  0
 12 33  1  0  0  0  0
 12 34  1  0  0  0  0
 13 35  1  0  0  0  0
 13 36  1  0  0  0  0
 14 37  1  0  0  0  0
 14 38  1  0  0  0  0
 15 39  1  0  0  0  0
 15 40  1  0  0  0  0
 16 41  1  0  0  0  0
 16 42  1  0  0  0  0
 17 43  1  0  0  0  0
 18 44  1  0  0  0  0
 20 45  1  0  0  0  0
M  END
> <Catalog ID>
Z1853213808

> <MW>
383.269

> <MW (desalted)>
383.269

> <ClogP>
2.012

> <logS>
-4.926

> <HBD>
1

> <HBA>
3

> <TPSA>
58.64

> <RotBonds>
3

> <ROCS_ShapeQuery>
A71EV2A-x0451_0A_A71EV2A-x0310_0A_A71EV2A-x0416_0A_peptide

> <ROCS_TanimotoCombo>
0.521 

> <ROCS_ShapeTanimoto>
0.363 

> <ROCS_ColorTanimoto>
0.158 

> <ROCS_RefTversky>
0.320 

> <ROCS_RefColorTversky>
0.177 

> <ROCS_RefTverskyCombo>
0.498 

> <ROCS_FitTversky>
1.580 

> <ROCS_FitColorTversky>
0.589 

> <ROCS_FitTverskyCombo>
2.169 

> <ROCS_ColorScore>
-5.415

> <ROCS_Overlap>
2227.600

> <ROCS_Rank>
392                 

$$$$
untitled-dbase-10104_8868
  -OEChem-11132309573D

 43 44  0     0  0  0  0  0  0999 V2000
   10.7630   17.0596   20.7307 C   0  0  0  0  0  0  0  0  0  0  0  0
    9.0483    9.6044   23.8524 C   0  0  0  0  0  0  0  0  0  0  0  0
   10.3028   15.8448   21.2388 C   0  0  0  0  0  0  0  0  0  0  0  0
   12.0439   17.1470   20.1852 C   0  0  0  0  0  0  0  0  0  0  0  0
   10.0075   10.5767   23.5694 C   0  0  0  0  0  0  0  0  0  0  0  0
   12.4043   14.8049   20.6560 C   0  0  0  0  0  0  0  0  0  0  0  0
    7.7877    9.9820   24.3149 C   0  0  0  0  0  0  0  0  0  0  0  0
    8.4456   12.3044   24.2117 C   0  0  0  0  0  0  0  0  0  0  0  0
   11.1234   14.7175   21.2015 C   0  0  0  0  0  0  0  0  0  0  0  0
    7.4863   11.3321   24.4946 C   0  0  0  0  0  0  0  0  0  0  0  0
   12.8645   16.0197   20.1479 C   0  0  0  0  0  0  0  0  0  0  0  0
    9.7062   11.9267   23.7491 C   0  0  0  0  0  0  0  0  0  0  0  0
    5.0367   12.8364   26.6702 C   0  0  0  0  0  0  0  0  0  0  0  0
    6.7738    8.9262   24.6102 C   0  0  0  0  0  0  0  0  0  0  0  0
    8.1100   13.7486   24.4095 C   0  0  0  0  0  0  0  0  0  0  0  0
    6.0870   11.8068   26.3579 C   0  0  0  0  0  0  0  0  0  0  0  0
   10.6486   13.4652   21.7253 N   0  0  0  0  0  0  0  0  0  0  0  0
    5.0885   14.0219   26.3787 O   0  0  0  0  0  0  0  0  0  0  0  0
   12.2318   12.4589   23.4960 O   0  0  0  0  0  0  0  0  0  0  0  0
   10.6800   14.3062   24.1882 O   0  0  0  0  0  0  0  0  0  0  0  0
   14.8827   17.5177   19.5289 O   0  0  0  0  0  0  0  0  0  0  0  0
   15.2627   15.0533   20.0237 O   0  0  0  0  0  0  0  0  0  0  0  0
    4.0003   12.2627   27.3320 O   0  0  0  0  0  0  0  0  0  0  0  0
    6.2524   11.6990   24.9464 O   0  0  0  0  0  0  0  0  0  0  0  0
   14.3497   15.8004   17.9158 F   0  0  0  0  0  0  0  0  0  0  0  0
   10.9370   13.1175   23.3869 S   0  0  0  0  0  0  0  0  0  0  0  0
   14.4677   16.1298   19.4654 S   0  0  0  0  0  0  0  0  0  0  0  0
   10.1240   17.9374   20.7595 H   0  0  0  0  0  0  0  0  0  0  0  0
    9.2926    8.5553   23.7084 H   0  0  0  0  0  0  0  0  0  0  0  0
    9.3029   15.7874   21.6613 H   0  0  0  0  0  0  0  0  0  0  0  0
   12.3923   18.0982   19.7924 H   0  0  0  0  0  0  0  0  0  0  0  0
   10.9865   10.2700   23.2109 H   0  0  0  0  0  0  0  0  0  0  0  0
   13.0437   13.9256   20.6271 H   0  0  0  0  0  0  0  0  0  0  0  0
    6.8550    8.6028   25.6545 H   0  0  0  0  0  0  0  0  0  0  0  0
    5.7552    9.2948   24.4366 H   0  0  0  0  0  0  0  0  0  0  0  0
    6.9115    8.0519   23.9618 H   0  0  0  0  0  0  0  0  0  0  0  0
    8.3654   14.0594   25.4283 H   0  0  0  0  0  0  0  0  0  0  0  0
    8.6577   14.3810   23.7013 H   0  0  0  0  0  0  0  0  0  0  0  0
    7.0418   13.9312   24.2435 H   0  0  0  0  0  0  0  0  0  0  0  0
    5.7662   10.8345   26.7407 H   0  0  0  0  0  0  0  0  0  0  0  0
    7.0414   12.0942   26.8071 H   0  0  0  0  0  0  0  0  0  0  0  0
   10.7268   12.6700   21.0775 H   0  0  0  0  0  0  0  0  0  0  0  0
    3.2986   12.9135   27.5480 H   0  0  0  0  0  0  0  0  0  0  0  0
  1  3  2  0  0  0  0
  1  4  1  0  0  0  0
  2  5  2  0  0  0  0
  2  7  1  0  0  0  0
  3  9  1  0  0  0  0
  4 11  2  0  0  0  0
  5 12  1  0  0  0  0
  6  9  2  0  0  0  0
  6 11  1  0  0  0  0
  7 10  2  0  0  0  0
  7 14  1  0  0  0  0
  8 10  1  0  0  0  0
  8 12  2  0  0  0  0
  8 15  1  0  0  0  0
  9 17  1  0  0  0  0
 10 24  1  0  0  0  0
 11 27  1  0  0  0  0
 12 26  1  0  0  0  0
 13 16  1  0  0  0  0
 13 18  2  0  0  0  0
 13 23  1  0  0  0  0
 16 24  1  0  0  0  0
 17 26  1  0  0  0  0
 19 26  2  0  0  0  0
 20 26  2  0  0  0  0
 21 27  2  0  0  0  0
 22 27  2  0  0  0  0
 25 27  1  0  0  0  0
  1 28  1  0  0  0  0
  2 29  1  0  0  0  0
  3 30  1  0  0  0  0
  4 31  1  0  0  0  0
  5 32  1  0  0  0  0
  6 33  1  0  0  0  0
 14 34  1  0  0  0  0
 14 35  1  0  0  0  0
 14 36  1  0  0  0  0
 15 37  1  0  0  0  0
 15 38  1  0  0  0  0
 15 39  1  0  0  0  0
 16 40  1  0  0  0  0
 16 41  1  0  0  0  0
 17 42  1  0  0  0  0
 23 43  1  0  0  0  0
M  END
> <Catalog ID>
Z1708249515

> <MW>
417.429

> <MW (desalted)>
417.429

> <ClogP>
3.685

> <logS>
-4.152

> <HBD>
2

> <HBA>
7

> <TPSA>
126.84

> <RotBonds>
6

> <ROCS_ShapeQuery>
A71EV2A-x0451_0A_A71EV2A-x0310_0A_A71EV2A-x0416_0A_peptide

> <ROCS_TanimotoCombo>
0.521 

> <ROCS_ShapeTanimoto>
0.366 

> <ROCS_ColorTanimoto>
0.155 

> <ROCS_RefTversky>
0.325 

> <ROCS_RefColorTversky>
0.179 

> <ROCS_RefTverskyCombo>
0.503 

> <ROCS_FitTversky>
1.534 

> <ROCS_FitColorTversky>
0.538 

> <ROCS_FitTverskyCombo>
2.072 

> <ROCS_ColorScore>
-5.462

> <ROCS_Overlap>
2258.486

> <ROCS_Rank>
393                 

$$$$
untitled-dbase-126_145
  -OEChem-11132309573D

 42 44  0     0  0  0  0  0  0999 V2000
    9.3400   10.3574   22.9317 C   0  0  0  0  0  0  0  0  0  0  0  0
    8.5195    9.4046   23.5355 C   0  0  0  0  0  0  0  0  0  0  0  0
    8.4747   12.0485   24.4246 C   0  0  0  0  0  0  0  0  0  0  0  0
    9.3176   11.6794   23.3763 C   0  0  0  0  0  0  0  0  0  0  0  0
    7.6542   11.0957   25.0283 C   0  0  0  0  0  0  0  0  0  0  0  0
    7.6766    9.7737   24.5837 C   0  0  0  0  0  0  0  0  0  0  0  0
   13.5351   15.5198   18.1393 C   0  0  0  0  0  0  0  0  0  0  0  0
   14.1349   16.7010   18.6901 C   0  0  0  0  0  0  0  0  0  0  0  0
   12.1118   15.6619   22.8363 C   0  0  0  0  0  0  0  0  0  0  0  0
   12.7720   14.7381   18.9084 C   0  0  0  0  0  0  0  0  0  0  0  0
   11.5197   14.5468   22.3968 C   0  0  0  0  0  0  0  0  0  0  0  0
   13.9495   17.0481   19.9719 C   0  0  0  0  0  0  0  0  0  0  0  0
   13.0894   16.1700   20.8444 C   0  0  0  0  0  0  0  0  0  0  0  0
   11.7165   14.1505   20.9800 C   0  0  0  0  0  0  0  0  0  0  0  0
    4.3450   11.8640   27.6603 C   0  0  0  0  0  0  0  0  0  0  0  0
    5.3757   12.7063   27.5376 C   0  0  0  0  0  0  0  0  0  0  0  0
   10.7084   13.7788   23.3440 C   0  0  0  0  0  0  0  0  0  0  0  0
    6.2077   12.7121   26.2994 C   0  0  0  0  0  0  0  0  0  0  0  0
   14.5598   18.2727   20.5793 C   0  0  0  0  0  0  0  0  0  0  0  0
   12.8994   16.4925   22.0903 N   0  0  0  0  0  0  0  0  0  0  0  0
   12.5296   15.0261   20.2460 N   0  0  0  0  0  0  0  0  0  0  0  0
   10.1507   12.6467   22.7631 N   0  0  0  0  0  0  0  0  0  0  0  0
    6.8120   11.4672   26.0771 N   0  0  0  0  0  0  0  0  0  0  0  0
   11.1821   13.1291   20.5520 O   0  0  0  0  0  0  0  0  0  0  0  0
   10.5902   14.1676   24.5065 O   0  0  0  0  0  0  0  0  0  0  0  0
    6.3082   13.7176   25.6062 O   0  0  0  0  0  0  0  0  0  0  0  0
    6.8923    8.8494   25.1560 F   0  0  0  0  0  0  0  0  0  0  0  0
    9.9928   10.0581   22.1155 H   0  0  0  0  0  0  0  0  0  0  0  0
    8.5369    8.3752   23.1900 H   0  0  0  0  0  0  0  0  0  0  0  0
    8.4576   13.0801   24.7711 H   0  0  0  0  0  0  0  0  0  0  0  0
   13.7147   15.2816   17.0975 H   0  0  0  0  0  0  0  0  0  0  0  0
   14.7461   17.3031   18.0257 H   0  0  0  0  0  0  0  0  0  0  0  0
   11.9887   15.9809   23.8674 H   0  0  0  0  0  0  0  0  0  0  0  0
   12.3162   13.8440   18.4974 H   0  0  0  0  0  0  0  0  0  0  0  0
    3.7185   11.8312   28.5447 H   0  0  0  0  0  0  0  0  0  0  0  0
    4.1077   11.1765   26.8552 H   0  0  0  0  0  0  0  0  0  0  0  0
    5.6134   13.3941   28.3418 H   0  0  0  0  0  0  0  0  0  0  0  0
   13.8822   19.1164   20.4607 H   0  0  0  0  0  0  0  0  0  0  0  0
   15.5047   18.4946   20.0856 H   0  0  0  0  0  0  0  0  0  0  0  0
   14.7447   18.1024   21.6388 H   0  0  0  0  0  0  0  0  0  0  0  0
   10.3553   12.4768   21.7804 H   0  0  0  0  0  0  0  0  0  0  0  0
    6.6100   10.7383   26.7720 H   0  0  0  0  0  0  0  0  0  0  0  0
  1  2  2  0  0  0  0
  1  4  1  0  0  0  0
  2  6  1  0  0  0  0
  3  4  2  0  0  0  0
  3  5  1  0  0  0  0
  4 22  1  0  0  0  0
  5  6  2  0  0  0  0
  5 23  1  0  0  0  0
  6 27  1  0  0  0  0
  7  8  1  0  0  0  0
  7 10  2  0  0  0  0
  8 12  2  0  0  0  0
  9 11  2  0  0  0  0
  9 20  1  0  0  0  0
 10 21  1  0  0  0  0
 11 14  1  0  0  0  0
 11 17  1  0  0  0  0
 12 13  1  0  0  0  0
 12 19  1  0  0  0  0
 13 20  2  0  0  0  0
 13 21  1  0  0  0  0
 14 21  1  0  0  0  0
 14 24  2  0  0  0  0
 15 16  2  0  0  0  0
 16 18  1  0  0  0  0
 17 22  1  0  0  0  0
 17 25  2  0  0  0  0
 18 23  1  0  0  0  0
 18 26  2  0  0  0  0
  1 28  1  0  0  0  0
  2 29  1  0  0  0  0
  3 30  1  0  0  0  0
  7 31  1  0  0  0  0
  8 32  1  0  0  0  0
  9 33  1  0  0  0  0
 10 34  1  0  0  0  0
 15 35  1  0  0  0  0
 15 36  1  0  0  0  0
 16 37  1  0  0  0  0
 19 38  1  0  0  0  0
 19 39  1  0  0  0  0
 19 40  1  0  0  0  0
 22 41  1  0  0  0  0
 23 42  1  0  0  0  0
M  END
> <Catalog ID>
Z1583940781

> <MW>
366.346

> <MW (desalted)>
366.346

> <ClogP>
1.102

> <logS>
-4.77

> <HBD>
2

> <HBA>
4

> <TPSA>
90.87

> <RotBonds>
4

> <ROCS_ShapeQuery>
A71EV2A-x0451_0A_A71EV2A-x0310_0A_A71EV2A-x0416_0A_peptide

> <ROCS_TanimotoCombo>
0.521 

> <ROCS_ShapeTanimoto>
0.378 

> <ROCS_ColorTanimoto>
0.143 

> <ROCS_RefTversky>
0.335 

> <ROCS_RefColorTversky>
0.171 

> <ROCS_RefTverskyCombo>
0.506 

> <ROCS_FitTversky>
1.506 

> <ROCS_FitColorTversky>
0.471 

> <ROCS_FitTverskyCombo>
1.977 

> <ROCS_ColorScore>
-5.222

> <ROCS_Overlap>
2333.372

> <ROCS_Rank>
394                 

$$$$
untitled-dbase-9625_290
  -OEChem-11132309573D

 49 52  0     0  0  0  0  0  0999 V2000
   11.9702   14.1887   21.0571 C   0  0  0  0  0  0  0  0  0  0  0  0
    7.3417   11.8025   24.8934 C   0  0  0  0  0  0  0  0  0  0  0  0
    9.7966    8.0612   22.6185 C   0  0  0  0  0  0  0  0  0  0  0  0
   10.0112    9.4293   22.7031 C   0  0  0  0  0  0  0  0  0  0  0  0
   13.7131   14.5929   25.3422 C   0  0  0  0  0  0  0  0  0  0  0  0
   14.1032   12.2884   24.7307 C   0  0  0  0  0  0  0  0  0  0  0  0
    7.1536   10.4220   24.7891 C   0  0  0  0  0  0  0  0  0  0  0  0
   14.0245   14.2938   26.6685 C   0  0  0  0  0  0  0  0  0  0  0  0
   14.4148   11.9892   26.0570 C   0  0  0  0  0  0  0  0  0  0  0  0
    8.4249   12.4056   24.2664 C   0  0  0  0  0  0  0  0  0  0  0  0
    8.6954    7.5465   23.2721 C   0  0  0  0  0  0  0  0  0  0  0  0
    9.1281   10.2377   23.4315 C   0  0  0  0  0  0  0  0  0  0  0  0
   13.7523   13.5902   24.3733 C   0  0  0  0  0  0  0  0  0  0  0  0
    8.0304    9.6186   24.0654 C   0  0  0  0  0  0  0  0  0  0  0  0
   14.3754   12.9919   27.0259 C   0  0  0  0  0  0  0  0  0  0  0  0
    9.3176   11.6261   23.5364 C   0  0  0  0  0  0  0  0  0  0  0  0
   13.4238   13.9059   22.9744 C   0  0  0  0  0  0  0  0  0  0  0  0
   12.1915   13.8638   22.4300 C   0  0  0  0  0  0  0  0  0  0  0  0
   11.0598   13.4343   23.3391 C   0  0  0  0  0  0  0  0  0  0  0  0
   13.7366   12.8877   29.4451 C   0  0  0  0  0  0  0  0  0  0  0  0
   15.7765   11.7686   28.6710 C   0  0  0  0  0  0  0  0  0  0  0  0
   13.1838   11.5269   29.8552 C   0  0  0  0  0  0  0  0  0  0  0  0
   15.1589   10.4436   29.1200 C   0  0  0  0  0  0  0  0  0  0  0  0
   11.7855   14.4511   19.9418 N   0  0  0  0  0  0  0  0  0  0  0  0
    7.8196    8.2911   23.9850 N   0  0  0  0  0  0  0  0  0  0  0  0
   14.6856   12.6938   28.3466 N   0  0  0  0  0  0  0  0  0  0  0  0
   10.3954   12.2734   22.9203 N   0  0  0  0  0  0  0  0  0  0  0  0
   10.7891   14.0864   24.3444 O   0  0  0  0  0  0  0  0  0  0  0  0
   14.2592   10.6511   30.2147 O   0  0  0  0  0  0  0  0  0  0  0  0
    6.6398   12.4028   25.4650 H   0  0  0  0  0  0  0  0  0  0  0  0
   10.4696    7.4214   22.0600 H   0  0  0  0  0  0  0  0  0  0  0  0
   10.8758    9.8448   22.1913 H   0  0  0  0  0  0  0  0  0  0  0  0
   13.4409   15.6123   25.0790 H   0  0  0  0  0  0  0  0  0  0  0  0
   14.1386   11.4964   23.9864 H   0  0  0  0  0  0  0  0  0  0  0  0
    6.2970    9.9736   25.2896 H   0  0  0  0  0  0  0  0  0  0  0  0
   13.9904   15.0825   27.4157 H   0  0  0  0  0  0  0  0  0  0  0  0
   14.6872   10.9713   26.3240 H   0  0  0  0  0  0  0  0  0  0  0  0
    8.5624   13.4803   24.3534 H   0  0  0  0  0  0  0  0  0  0  0  0
    8.4766    6.4840   23.2409 H   0  0  0  0  0  0  0  0  0  0  0  0
   14.2894   14.2079   22.3888 H   0  0  0  0  0  0  0  0  0  0  0  0
   12.9129   13.5438   29.1459 H   0  0  0  0  0  0  0  0  0  0  0  0
   14.2554   13.3459   30.2948 H   0  0  0  0  0  0  0  0  0  0  0  0
   16.3772   12.1879   29.4829 H   0  0  0  0  0  0  0  0  0  0  0  0
   16.4218   11.5981   27.8070 H   0  0  0  0  0  0  0  0  0  0  0  0
   12.5399   11.6364   30.7303 H   0  0  0  0  0  0  0  0  0  0  0  0
   12.5897   11.0746   29.0561 H   0  0  0  0  0  0  0  0  0  0  0  0
   14.6324    9.9466   28.2967 H   0  0  0  0  0  0  0  0  0  0  0  0
   15.9476    9.7670   29.4629 H   0  0  0  0  0  0  0  0  0  0  0  0
   10.7412   11.8455   22.0566 H   0  0  0  0  0  0  0  0  0  0  0  0
  1 18  1  0  0  0  0
  1 24  3  0  0  0  0
  2  7  1  0  0  0  0
  2 10  2  0  0  0  0
  3  4  2  0  0  0  0
  3 11  1  0  0  0  0
  4 12  1  0  0  0  0
  5  8  2  0  0  0  0
  5 13  1  0  0  0  0
  6  9  1  0  0  0  0
  6 13  2  0  0  0  0
  7 14  2  0  0  0  0
  8 15  1  0  0  0  0
  9 15  2  0  0  0  0
 10 16  1  0  0  0  0
 11 25  2  0  0  0  0
 12 14  1  0  0  0  0
 12 16  2  0  0  0  0
 13 17  1  4  0  0  0
 14 25  1  0  0  0  0
 15 26  1  0  0  0  0
 16 27  1  0  0  0  0
 17 18  2  0  0  0  0
 18 19  1  0  0  0  0
 19 27  1  0  0  0  0
 19 28  2  0  0  0  0
 20 22  1  0  0  0  0
 20 26  1  0  0  0  0
 21 23  1  0  0  0  0
 21 26  1  0  0  0  0
 22 29  1  0  0  0  0
 23 29  1  0  0  0  0
  2 30  1  0  0  0  0
  3 31  1  0  0  0  0
  4 32  1  0  0  0  0
  5 33  1  0  0  0  0
  6 34  1  0  0  0  0
  7 35  1  0  0  0  0
  8 36  1  0  0  0  0
  9 37  1  0  0  0  0
 10 38  1  0  0  0  0
 11 39  1  0  0  0  0
 17 40  1  0  0  0  0
 20 41  1  0  0  0  0
 20 42  1  0  0  0  0
 21 43  1  0  0  0  0
 21 44  1  0  0  0  0
 22 45  1  0  0  0  0
 22 46  1  0  0  0  0
 23 47  1  0  0  0  0
 23 48  1  0  0  0  0
 27 49  1  0  0  0  0
M  END
> <Catalog ID>
Z46080029

> <MW>
384.431

> <MW (desalted)>
384.431

> <ClogP>
2.951

> <logS>
-5.17

> <HBD>
1

> <HBA>
5

> <TPSA>
78.25

> <RotBonds>
4

> <ROCS_ShapeQuery>
A71EV2A-x0451_0A_A71EV2A-x0310_0A_A71EV2A-x0416_0A_peptide

> <ROCS_TanimotoCombo>
0.521 

> <ROCS_ShapeTanimoto>
0.372 

> <ROCS_ColorTanimoto>
0.149 

> <ROCS_RefTversky>
0.335 

> <ROCS_RefColorTversky>
0.172 

> <ROCS_RefTverskyCombo>
0.507 

> <ROCS_FitTversky>
1.431 

> <ROCS_FitColorTversky>
0.520 

> <ROCS_FitTverskyCombo>
1.951 

> <ROCS_ColorScore>
-5.272

> <ROCS_Overlap>
2330.461

> <ROCS_Rank>
395                 

$$$$
untitled-dbase-10630_903
  -OEChem-11132309573D

 58 61  0     0  0  0  0  0  0999 V2000
    8.0269    9.4917   24.4811 C   0  0  0  0  0  0  0  0  0  0  0  0
    7.2679   10.2031   25.4103 C   0  0  0  0  0  0  0  0  0  0  0  0
    8.8985   10.1685   23.6278 C   0  0  0  0  0  0  0  0  0  0  0  0
    8.2519   12.2682   24.6328 C   0  0  0  0  0  0  0  0  0  0  0  0
    7.3804   11.5914   25.4861 C   0  0  0  0  0  0  0  0  0  0  0  0
    9.0109   11.5567   23.7036 C   0  0  0  0  0  0  0  0  0  0  0  0
    6.1196   13.5491   26.3962 C   0  0  0  0  0  0  0  0  0  0  0  0
   10.5808   13.4355   23.0821 C   0  0  0  0  0  0  0  0  0  0  0  0
    5.5157   13.3304   27.7964 C   0  0  0  0  0  0  0  0  0  0  0  0
   14.0552   16.2513   18.9412 C   0  0  0  0  0  0  0  0  0  0  0  0
   13.2860   14.9348   18.9655 C   0  0  0  0  0  0  0  0  0  0  0  0
   13.9817   16.9772   20.2802 C   0  0  0  0  0  0  0  0  0  0  0  0
   11.8402   15.1340   19.4185 C   0  0  0  0  0  0  0  0  0  0  0  0
   12.5363   17.1780   20.7342 C   0  0  0  0  0  0  0  0  0  0  0  0
    6.1332   11.9195   27.7199 C   0  0  0  0  0  0  0  0  0  0  0  0
   10.1354   16.9070   22.2671 C   0  0  0  0  0  0  0  0  0  0  0  0
    9.7860   17.0188   19.8871 C   0  0  0  0  0  0  0  0  0  0  0  0
    8.6628   17.2516   22.4706 C   0  0  0  0  0  0  0  0  0  0  0  0
    8.3219   17.3619   20.1469 C   0  0  0  0  0  0  0  0  0  0  0  0
   11.7163   15.8706   20.7681 C   0  0  0  0  0  0  0  0  0  0  0  0
   12.1793   14.9712   21.9266 C   0  0  0  0  0  0  0  0  0  0  0  0
    6.6212   12.3023   26.4161 N   0  0  0  0  0  0  0  0  0  0  0  0
   10.3101   16.2013   20.9901 N   0  0  0  0  0  0  0  0  0  0  0  0
    9.8949   12.2424   22.8382 N   0  0  0  0  0  0  0  0  0  0  0  0
   11.3702   13.8039   21.9713 N   0  0  0  0  0  0  0  0  0  0  0  0
    6.1492   14.4515   25.5914 O   0  0  0  0  0  0  0  0  0  0  0  0
   10.5358   14.1096   24.1084 O   0  0  0  0  0  0  0  0  0  0  0  0
    8.1855   18.0529   21.3892 O   0  0  0  0  0  0  0  0  0  0  0  0
    7.9402    8.4107   24.4227 H   0  0  0  0  0  0  0  0  0  0  0  0
    6.5915    9.6648   26.0694 H   0  0  0  0  0  0  0  0  0  0  0  0
    9.4841    9.6032   22.9072 H   0  0  0  0  0  0  0  0  0  0  0  0
    8.3393   13.3512   24.6918 H   0  0  0  0  0  0  0  0  0  0  0  0
    5.9345   13.9835   28.5659 H   0  0  0  0  0  0  0  0  0  0  0  0
    4.4239   13.3635   27.8182 H   0  0  0  0  0  0  0  0  0  0  0  0
   15.1059   16.0545   18.6910 H   0  0  0  0  0  0  0  0  0  0  0  0
   13.6570   16.8967   18.1489 H   0  0  0  0  0  0  0  0  0  0  0  0
   13.3124   14.4718   17.9720 H   0  0  0  0  0  0  0  0  0  0  0  0
   13.7862   14.2356   19.6460 H   0  0  0  0  0  0  0  0  0  0  0  0
   14.5216   16.3962   21.0371 H   0  0  0  0  0  0  0  0  0  0  0  0
   14.4949   17.9431   20.2070 H   0  0  0  0  0  0  0  0  0  0  0  0
   11.2871   15.6728   18.6338 H   0  0  0  0  0  0  0  0  0  0  0  0
   11.3611   14.1454   19.4973 H   0  0  0  0  0  0  0  0  0  0  0  0
   12.5462   17.6274   21.7395 H   0  0  0  0  0  0  0  0  0  0  0  0
   12.0524   17.9188   20.0798 H   0  0  0  0  0  0  0  0  0  0  0  0
    6.9275   11.7173   28.4439 H   0  0  0  0  0  0  0  0  0  0  0  0
    5.4145   11.0958   27.6947 H   0  0  0  0  0  0  0  0  0  0  0  0
   10.7229   17.8332   22.2743 H   0  0  0  0  0  0  0  0  0  0  0  0
   10.4820   16.2798   23.0998 H   0  0  0  0  0  0  0  0  0  0  0  0
    9.8710   16.4757   18.9357 H   0  0  0  0  0  0  0  0  0  0  0  0
   10.3588   17.9500   19.7970 H   0  0  0  0  0  0  0  0  0  0  0  0
    8.0661   16.3340   22.4943 H   0  0  0  0  0  0  0  0  0  0  0  0
    8.4985   17.7792   23.4179 H   0  0  0  0  0  0  0  0  0  0  0  0
    7.8992   17.9732   19.3399 H   0  0  0  0  0  0  0  0  0  0  0  0
    7.7293   16.4436   20.2106 H   0  0  0  0  0  0  0  0  0  0  0  0
   13.2174   14.7187   21.7316 H   0  0  0  0  0  0  0  0  0  0  0  0
   12.0738   15.5536   22.8370 H   0  0  0  0  0  0  0  0  0  0  0  0
   10.0470   11.8108   21.9300 H   0  0  0  0  0  0  0  0  0  0  0  0
   11.3592   13.1922   21.1469 H   0  0  0  0  0  0  0  0  0  0  0  0
  1  2  1  0  0  0  0
  1  3  2  0  0  0  0
  2  5  2  0  0  0  0
  3  6  1  0  0  0  0
  4  5  1  0  0  0  0
  4  6  2  0  0  0  0
  5 22  1  0  0  0  0
  6 24  1  0  0  0  0
  7  9  1  0  0  0  0
  7 22  1  0  0  0  0
  7 26  2  0  0  0  0
  8 24  1  0  0  0  0
  8 25  1  0  0  0  0
  8 27  2  0  0  0  0
  9 15  1  0  0  0  0
 10 11  1  0  0  0  0
 10 12  1  0  0  0  0
 11 13  1  0  0  0  0
 12 14  1  0  0  0  0
 13 20  1  0  0  0  0
 14 20  1  0  0  0  0
 15 22  1  0  0  0  0
 16 18  1  0  0  0  0
 16 23  1  0  0  0  0
 17 19  1  0  0  0  0
 17 23  1  0  0  0  0
 18 28  1  0  0  0  0
 19 28  1  0  0  0  0
 20 21  1  0  0  0  0
 20 23  1  0  0  0  0
 21 25  1  0  0  0  0
  1 29  1  0  0  0  0
  2 30  1  0  0  0  0
  3 31  1  0  0  0  0
  4 32  1  0  0  0  0
  9 33  1  0  0  0  0
  9 34  1  0  0  0  0
 10 35  1  0  0  0  0
 10 36  1  0  0  0  0
 11 37  1  0  0  0  0
 11 38  1  0  0  0  0
 12 39  1  0  0  0  0
 12 40  1  0  0  0  0
 13 41  1  0  0  0  0
 13 42  1  0  0  0  0
 14 43  1  0  0  0  0
 14 44  1  0  0  0  0
 15 45  1  0  0  0  0
 15 46  1  0  0  0  0
 16 47  1  0  0  0  0
 16 48  1  0  0  0  0
 17 49  1  0  0  0  0
 17 50  1  0  0  0  0
 18 51  1  0  0  0  0
 18 52  1  0  0  0  0
 19 53  1  0  0  0  0
 19 54  1  0  0  0  0
 21 55  1  0  0  0  0
 21 56  1  0  0  0  0
 24 57  1  0  0  0  0
 25 58  1  0  0  0  0
M  END
> <Catalog ID>
Z1931363512

> <MW>
386.488

> <MW (desalted)>
386.488

> <ClogP>
2.773

> <logS>
-3.926

> <HBD>
2

> <HBA>
4

> <TPSA>
73.91

> <RotBonds>
5

> <ROCS_ShapeQuery>
A71EV2A-x0451_0A_A71EV2A-x0310_0A_A71EV2A-x0416_0A_peptide

> <ROCS_TanimotoCombo>
0.521 

> <ROCS_ShapeTanimoto>
0.337 

> <ROCS_ColorTanimoto>
0.184 

> <ROCS_RefTversky>
0.309 

> <ROCS_RefColorTversky>
0.212 

> <ROCS_RefTverskyCombo>
0.520 

> <ROCS_FitTversky>
1.377 

> <ROCS_FitColorTversky>
0.584 

> <ROCS_FitTverskyCombo>
1.961 

> <ROCS_ColorScore>
-6.482

> <ROCS_Overlap>
2147.503

> <ROCS_Rank>
396                 

$$$$
untitled-dbase-9608_219
  -OEChem-11132309573D

 35 36  0     0  0  0  0  0  0999 V2000
   13.3683   13.7035   22.6224 C   0  0  0  0  0  0  0  0  0  0  0  0
   12.0556   15.6863   19.0889 C   0  0  0  0  0  0  0  0  0  0  0  0
   13.8342   15.7220   20.7236 C   0  0  0  0  0  0  0  0  0  0  0  0
    7.2873   10.1437   24.8010 C   0  0  0  0  0  0  0  0  0  0  0  0
   12.9101   16.2587   18.1467 C   0  0  0  0  0  0  0  0  0  0  0  0
   14.6887   16.2944   19.7814 C   0  0  0  0  0  0  0  0  0  0  0  0
    8.2765    9.4511   24.1029 C   0  0  0  0  0  0  0  0  0  0  0  0
    8.3526   12.2368   24.2340 C   0  0  0  0  0  0  0  0  0  0  0  0
   12.5176   15.4180   20.3774 C   0  0  0  0  0  0  0  0  0  0  0  0
    7.3253   11.5366   24.8665 C   0  0  0  0  0  0  0  0  0  0  0  0
    9.3418   11.5442   23.5358 C   0  0  0  0  0  0  0  0  0  0  0  0
   14.2267   16.5627   18.4929 C   0  0  0  0  0  0  0  0  0  0  0  0
    9.3037   10.1513   23.4703 C   0  0  0  0  0  0  0  0  0  0  0  0
   11.6266   14.8213   21.3599 C   0  0  0  0  0  0  0  0  0  0  0  0
   11.9952   14.0237   22.3949 C   0  0  0  0  0  0  0  0  0  0  0  0
   10.8972   13.5113   23.3023 C   0  0  0  0  0  0  0  0  0  0  0  0
    6.2673   12.2768   25.6128 C   0  0  0  0  0  0  0  0  0  0  0  0
   14.4828   13.4412   22.8117 N   0  0  0  0  0  0  0  0  0  0  0  0
   10.3727   12.2863   22.9051 N   0  0  0  0  0  0  0  0  0  0  0  0
   10.5459   14.1642   24.2819 O   0  0  0  0  0  0  0  0  0  0  0  0
   15.0605   17.1212   17.5735 O   0  0  0  0  0  0  0  0  0  0  0  0
    5.3272   11.4642   26.1802 F   0  0  0  0  0  0  0  0  0  0  0  0
    6.7516   13.0333   26.6418 F   0  0  0  0  0  0  0  0  0  0  0  0
    5.5718   13.1417   24.8183 F   0  0  0  0  0  0  0  0  0  0  0  0
   10.5083    9.2536   22.6171 Cl  0  0  0  0  0  0  0  0  0  0  0  0
   11.0320   15.4550   18.8040 H   0  0  0  0  0  0  0  0  0  0  0  0
   14.2089   15.5188   21.7240 H   0  0  0  0  0  0  0  0  0  0  0  0
    6.4909    9.5897   25.2909 H   0  0  0  0  0  0  0  0  0  0  0  0
   12.5445   16.4655   17.1445 H   0  0  0  0  0  0  0  0  0  0  0  0
   15.7133   16.5290   20.0570 H   0  0  0  0  0  0  0  0  0  0  0  0
    8.2313    8.3658   24.0606 H   0  0  0  0  0  0  0  0  0  0  0  0
    8.3793   13.3231   24.2878 H   0  0  0  0  0  0  0  0  0  0  0  0
   10.5726   15.0817   21.2211 H   0  0  0  0  0  0  0  0  0  0  0  0
   10.7741   11.8756   22.0665 H   0  0  0  0  0  0  0  0  0  0  0  0
   14.5964   17.2458   16.7303 H   0  0  0  0  0  0  0  0  0  0  0  0
  1 15  1  0  0  0  0
  1 18  3  0  0  0  0
  2  5  2  0  0  0  0
  2  9  1  0  0  0  0
  3  6  1  0  0  0  0
  3  9  2  0  0  0  0
  4  7  2  0  0  0  0
  4 10  1  0  0  0  0
  5 12  1  0  0  0  0
  6 12  2  0  0  0  0
  7 13  1  0  0  0  0
  8 10  2  0  0  0  0
  8 11  1  0  0  0  0
  9 14  1  4  0  0  0
 10 17  1  0  0  0  0
 11 13  2  0  0  0  0
 11 19  1  0  0  0  0
 12 21  1  0  0  0  0
 13 25  1  0  0  0  0
 14 15  2  0  0  0  0
 15 16  1  0  0  0  0
 16 19  1  0  0  0  0
 16 20  2  0  0  0  0
 17 22  1  0  0  0  0
 17 23  1  0  0  0  0
 17 24  1  0  0  0  0
  2 26  1  0  0  0  0
  3 27  1  0  0  0  0
  4 28  1  0  0  0  0
  5 29  1  0  0  0  0
  6 30  1  0  0  0  0
  7 31  1  0  0  0  0
  8 32  1  0  0  0  0
 14 33  1  0  0  0  0
 19 34  1  0  0  0  0
 21 35  1  0  0  0  0
M  END
> <Catalog ID>
Z44308203

> <MW>
366.722

> <MW (desalted)>
366.722

> <ClogP>
3.607

> <logS>
-5.57

> <HBD>
2

> <HBA>
3

> <TPSA>
73.12

> <RotBonds>
4

> <ROCS_ShapeQuery>
A71EV2A-x0451_0A_A71EV2A-x0310_0A_A71EV2A-x0416_0A_peptide

> <ROCS_TanimotoCombo>
0.521 

> <ROCS_ShapeTanimoto>
0.364 

> <ROCS_ColorTanimoto>
0.157 

> <ROCS_RefTversky>
0.322 

> <ROCS_RefColorTversky>
0.172 

> <ROCS_RefTverskyCombo>
0.494 

> <ROCS_FitTversky>
1.570 

> <ROCS_FitColorTversky>
0.637 

> <ROCS_FitTverskyCombo>
2.206 

> <ROCS_ColorScore>
-5.245

> <ROCS_Overlap>
2236.629

> <ROCS_Rank>
397                 

$$$$
untitled-dbase-10792_6
  -OEChem-11132309573D

 40 43  0     0  0  0  0  0  0999 V2000
   10.6766   14.8922   20.9073 C   0  0  0  0  0  0  0  0  0  0  0  0
   10.1572   14.3447   22.0804 C   0  0  0  0  0  0  0  0  0  0  0  0
   12.9122   14.6822   21.7991 C   0  0  0  0  0  0  0  0  0  0  0  0
    9.5678   10.1562   23.2482 C   0  0  0  0  0  0  0  0  0  0  0  0
    8.5414   12.0732   24.8016 C   0  0  0  0  0  0  0  0  0  0  0  0
   12.0541   15.0609   20.7666 C   0  0  0  0  0  0  0  0  0  0  0  0
    7.7586   12.8961   25.6793 C   0  0  0  0  0  0  0  0  0  0  0  0
   11.0153   13.9660   23.1128 C   0  0  0  0  0  0  0  0  0  0  0  0
   12.3928   14.1347   22.9722 C   0  0  0  0  0  0  0  0  0  0  0  0
    6.6069   12.2515   26.0923 C   0  0  0  0  0  0  0  0  0  0  0  0
    9.7626   12.2668   24.1452 C   0  0  0  0  0  0  0  0  0  0  0  0
    7.9250   10.8452   24.5914 C   0  0  0  0  0  0  0  0  0  0  0  0
   12.5957   15.6297   19.5426 C   0  0  0  0  0  0  0  0  0  0  0  0
    8.1044   14.2772   26.1530 C   0  0  0  0  0  0  0  0  0  0  0  0
    5.5657   12.8387   26.9933 C   0  0  0  0  0  0  0  0  0  0  0  0
    6.8922   14.9940   26.7671 C   0  0  0  0  0  0  0  0  0  0  0  0
    6.1150   14.0756   27.7201 C   0  0  0  0  0  0  0  0  0  0  0  0
   13.7360   12.4291   23.9431 C   0  0  0  0  0  0  0  0  0  0  0  0
   10.2770   11.2955   23.3613 N   0  0  0  0  0  0  0  0  0  0  0  0
    8.3924    9.8435   23.8211 N   0  0  0  0  0  0  0  0  0  0  0  0
   13.8032   15.8046   19.3576 O   0  0  0  0  0  0  0  0  0  0  0  0
   10.4893   13.4259   24.2676 O   0  0  0  0  0  0  0  0  0  0  0  0
   13.2414   13.7666   23.9722 O   0  0  0  0  0  0  0  0  0  0  0  0
    6.4506   10.6926   25.4310 S   0  0  0  0  0  0  0  0  0  0  0  0
    9.9986   15.1836   20.1093 H   0  0  0  0  0  0  0  0  0  0  0  0
    9.0833   14.2162   22.1840 H   0  0  0  0  0  0  0  0  0  0  0  0
   13.9869   14.8101   21.6916 H   0  0  0  0  0  0  0  0  0  0  0  0
   10.0021    9.3920   22.6132 H   0  0  0  0  0  0  0  0  0  0  0  0
   11.8727   15.9148   18.7475 H   0  0  0  0  0  0  0  0  0  0  0  0
    8.8995   14.1990   26.9049 H   0  0  0  0  0  0  0  0  0  0  0  0
    8.4905   14.8826   25.3257 H   0  0  0  0  0  0  0  0  0  0  0  0
    4.6974   13.1297   26.3889 H   0  0  0  0  0  0  0  0  0  0  0  0
    5.2240   12.1050   27.7323 H   0  0  0  0  0  0  0  0  0  0  0  0
    7.2295   15.8893   27.3013 H   0  0  0  0  0  0  0  0  0  0  0  0
    6.2206   15.3318   25.9672 H   0  0  0  0  0  0  0  0  0  0  0  0
    5.2866   14.6263   28.1794 H   0  0  0  0  0  0  0  0  0  0  0  0
    6.7800   13.7587   28.5338 H   0  0  0  0  0  0  0  0  0  0  0  0
   14.4006   12.2670   24.7951 H   0  0  0  0  0  0  0  0  0  0  0  0
   14.2764   12.2598   23.0083 H   0  0  0  0  0  0  0  0  0  0  0  0
   12.8929   11.7369   24.0047 H   0  0  0  0  0  0  0  0  0  0  0  0
  1  2  2  0  0  0  0
  1  6  1  0  0  0  0
  2  8  1  0  0  0  0
  3  6  2  0  0  0  0
  3  9  1  0  0  0  0
  4 19  2  0  0  0  0
  4 20  1  0  0  0  0
  5  7  1  0  0  0  0
  5 11  2  0  0  0  0
  5 12  1  0  0  0  0
  6 13  1  0  0  0  0
  7 10  2  0  0  0  0
  7 14  1  0  0  0  0
  8  9  2  0  0  0  0
  8 22  1  0  0  0  0
  9 23  1  0  0  0  0
 10 15  1  0  0  0  0
 10 24  1  0  0  0  0
 11 19  1  0  0  0  0
 11 22  1  0  0  0  0
 12 20  2  0  0  0  0
 12 24  1  0  0  0  0
 13 21  2  0  0  0  0
 14 16  1  0  0  0  0
 15 17  1  0  0  0  0
 16 17  1  0  0  0  0
 18 23  1  0  0  0  0
  1 25  1  0  0  0  0
  2 26  1  0  0  0  0
  3 27  1  0  0  0  0
  4 28  1  0  0  0  0
 13 29  1  0  0  0  0
 14 30  1  0  0  0  0
 14 31  1  0  0  0  0
 15 32  1  0  0  0  0
 15 33  1  0  0  0  0
 16 34  1  0  0  0  0
 16 35  1  0  0  0  0
 17 36  1  0  0  0  0
 17 37  1  0  0  0  0
 18 38  1  0  0  0  0
 18 39  1  0  0  0  0
 18 40  1  0  0  0  0
M  END
> <Catalog ID>
Z31204935

> <MW>
340.396

> <MW (desalted)>
340.396

> <ClogP>
3.843

> <logS>
-5.96

> <HBD>
0

> <HBA>
4

> <TPSA>
61.31

> <RotBonds>
4

> <ROCS_ShapeQuery>
A71EV2A-x0451_0A_A71EV2A-x0310_0A_A71EV2A-x0416_0A_peptide

> <ROCS_TanimotoCombo>
0.521 

> <ROCS_ShapeTanimoto>
0.364 

> <ROCS_ColorTanimoto>
0.157 

> <ROCS_RefTversky>
0.321 

> <ROCS_RefColorTversky>
0.181 

> <ROCS_RefTverskyCombo>
0.502 

> <ROCS_FitTversky>
1.586 

> <ROCS_FitColorTversky>
0.543 

> <ROCS_FitTverskyCombo>
2.128 

> <ROCS_ColorScore>
-5.522

> <ROCS_Overlap>
2231.556

> <ROCS_Rank>
398                 

$$$$
untitled-dbase-6106_288
  -OEChem-11132309573D

 50 53  0     1  0  0  0  0  0999 V2000
   13.7584   17.0329   18.1313 C   0  0  0  0  0  0  0  0  0  0  0  0
   14.7836   16.9769   19.0878 C   0  0  0  0  0  0  0  0  0  0  0  0
   12.5568   16.3530   18.3367 C   0  0  0  0  0  0  0  0  0  0  0  0
   14.6216   16.2418   20.2646 C   0  0  0  0  0  0  0  0  0  0  0  0
   12.3995   15.6372   19.5122 C   0  0  0  0  0  0  0  0  0  0  0  0
   13.4195   15.5831   20.4729 C   0  0  0  0  0  0  0  0  0  0  0  0
    8.5013   11.9048   24.1982 C   0  0  0  0  0  0  0  0  0  0  0  0
    9.8118   12.1590   23.7424 C   0  0  0  0  0  0  0  0  0  0  0  0
    8.5132   10.5551   24.4573 C   0  0  0  0  0  0  0  0  0  0  0  0
   14.7703   14.5535   26.1508 C   0  0  0  0  0  0  0  0  0  0  0  0
   13.9878   15.1161   25.2249 C   0  0  0  0  0  0  0  0  0  0  0  0
   10.3967   13.4525   23.3045 C   0  0  0  0  0  0  0  0  0  0  0  0
   13.6018   14.3590   24.0044 C   0  0  0  0  0  0  0  0  0  0  0  0
   11.2254   14.8027   19.9246 C   0  0  0  0  0  0  0  0  0  0  0  0
    7.3638   12.8409   24.3625 C   0  0  0  0  0  0  0  0  0  0  0  0
    7.4797    9.6246   24.9578 C   0  0  0  0  0  0  0  0  0  0  0  0
    6.6644   12.7171   25.7184 C   0  0  0  0  0  0  0  0  0  0  0  0
    6.7555   10.1730   26.1881 C   0  0  0  0  0  0  0  0  0  0  0  0
    5.8871   11.4094   25.9199 C   0  0  0  0  0  0  0  0  0  0  0  0
   13.0164   14.6978   21.6184 C   0  0  2  0  0  0  0  0  0  0  0  0
   11.4824   14.6714   21.4363 C   0  0  2  0  0  0  0  0  0  0  0  0
   10.5690   11.0586   23.7222 N   0  0  0  0  0  0  0  0  0  0  0  0
   10.8684   13.5002   21.9975 N   0  0  0  0  0  0  0  0  0  0  0  0
   13.3996   15.1928   22.9115 N   0  0  0  0  0  0  0  0  0  0  0  0
   10.4533   14.3857   24.1011 O   0  0  0  0  0  0  0  0  0  0  0  0
   13.4808   13.1381   23.9955 O   0  0  0  0  0  0  0  0  0  0  0  0
    9.7400   10.0413   24.1759 O   0  0  0  0  0  0  0  0  0  0  0  0
   13.9060   17.6042   17.2188 H   0  0  0  0  0  0  0  0  0  0  0  0
   15.7160   17.5048   18.9064 H   0  0  0  0  0  0  0  0  0  0  0  0
   11.7709   16.3853   17.5897 H   0  0  0  0  0  0  0  0  0  0  0  0
   15.4248   16.1901   20.9919 H   0  0  0  0  0  0  0  0  0  0  0  0
   15.0485   15.1126   27.0381 H   0  0  0  0  0  0  0  0  0  0  0  0
   15.1500   13.5419   26.0587 H   0  0  0  0  0  0  0  0  0  0  0  0
   13.6287   16.1312   25.3559 H   0  0  0  0  0  0  0  0  0  0  0  0
   10.2717   15.2985   19.7216 H   0  0  0  0  0  0  0  0  0  0  0  0
   11.2642   13.8348   19.4128 H   0  0  0  0  0  0  0  0  0  0  0  0
    7.7198   13.8729   24.2556 H   0  0  0  0  0  0  0  0  0  0  0  0
    6.6403   12.6766   23.5545 H   0  0  0  0  0  0  0  0  0  0  0  0
    6.7581    9.4172   24.1591 H   0  0  0  0  0  0  0  0  0  0  0  0
    7.9438    8.6667   25.2221 H   0  0  0  0  0  0  0  0  0  0  0  0
    7.3863   12.8498   26.5340 H   0  0  0  0  0  0  0  0  0  0  0  0
    5.9476   13.5444   25.7987 H   0  0  0  0  0  0  0  0  0  0  0  0
    6.0979    9.3801   26.5667 H   0  0  0  0  0  0  0  0  0  0  0  0
    7.4737   10.3912   26.9886 H   0  0  0  0  0  0  0  0  0  0  0  0
    5.2374   11.5471   26.7939 H   0  0  0  0  0  0  0  0  0  0  0  0
    5.2220   11.2278   25.0672 H   0  0  0  0  0  0  0  0  0  0  0  0
   13.4559   13.7029   21.4822 H   0  0  0  0  0  0  0  0  0  0  0  0
   11.0263   15.5351   21.9414 H   0  0  0  0  0  0  0  0  0  0  0  0
   10.8410   12.6615   21.4202 H   0  0  0  0  0  0  0  0  0  0  0  0
   13.4951   16.2018   23.0289 H   0  0  0  0  0  0  0  0  0  0  0  0
  1  2  1  0  0  0  0
  1  3  2  0  0  0  0
  2  4  2  0  0  0  0
  3  5  1  0  0  0  0
  4  6  1  0  0  0  0
  5  6  2  0  0  0  0
  5 14  1  0  0  0  0
  6 20  1  0  0  0  0
  7  8  1  0  0  0  0
  7  9  2  0  0  0  0
  7 15  1  0  0  0  0
  8 12  1  0  0  0  0
  8 22  2  0  0  0  0
  9 16  1  0  0  0  0
  9 27  1  0  0  0  0
 10 11  2  0  0  0  0
 11 13  1  0  0  0  0
 12 23  1  0  0  0  0
 12 25  2  0  0  0  0
 13 24  1  0  0  0  0
 13 26  2  0  0  0  0
 14 21  1  0  0  0  0
 15 17  1  0  0  0  0
 16 18  1  0  0  0  0
 17 19  1  0  0  0  0
 18 19  1  0  0  0  0
 20 21  1  0  0  0  0
 20 24  1  1  0  0  0
 21 23  1  6  0  0  0
 22 27  1  0  0  0  0
  1 28  1  0  0  0  0
  2 29  1  0  0  0  0
  3 30  1  0  0  0  0
  4 31  1  0  0  0  0
 10 32  1  0  0  0  0
 10 33  1  0  0  0  0
 11 34  1  0  0  0  0
 14 35  1  0  0  0  0
 14 36  1  0  0  0  0
 15 37  1  0  0  0  0
 15 38  1  0  0  0  0
 16 39  1  0  0  0  0
 16 40  1  0  0  0  0
 17 41  1  0  0  0  0
 17 42  1  0  0  0  0
 18 43  1  0  0  0  0
 18 44  1  0  0  0  0
 19 45  1  0  0  0  0
 19 46  1  0  0  0  0
 20 47  1  0  0  0  0
 21 48  1  0  0  0  0
 23 49  1  0  0  0  0
 24 50  1  0  0  0  0
M  END
> <Catalog ID>
Z4439296345

> <MW>
365.426

> <MW (desalted)>
365.426

> <ClogP>
2.75

> <logS>
-4.996

> <HBD>
2

> <HBA>
3

> <TPSA>
84.23

> <RotBonds>
4

> <ROCS_ShapeQuery>
A71EV2A-x0451_0A_A71EV2A-x0310_0A_A71EV2A-x0416_0A_peptide

> <ROCS_TanimotoCombo>
0.521 

> <ROCS_ShapeTanimoto>
0.349 

> <ROCS_ColorTanimoto>
0.172 

> <ROCS_RefTversky>
0.316 

> <ROCS_RefColorTversky>
0.200 

> <ROCS_RefTverskyCombo>
0.516 

> <ROCS_FitTversky>
1.435 

> <ROCS_FitColorTversky>
0.552 

> <ROCS_FitTverskyCombo>
1.987 

> <ROCS_ColorScore>
-6.127

> <ROCS_Overlap>
2195.199

> <ROCS_Rank>
399                 

$$$$
untitled-dbase-5063_1833
  -OEChem-11132309573D

 48 49  0     0  0  0  0  0  0999 V2000
   13.3167   14.3070   23.0261 C   0  0  0  0  0  0  0  0  0  0  0  0
   12.2078   15.0781   18.9868 C   0  0  0  0  0  0  0  0  0  0  0  0
   13.5782   15.9615   20.7697 C   0  0  0  0  0  0  0  0  0  0  0  0
    7.2849   10.0161   24.5396 C   0  0  0  0  0  0  0  0  0  0  0  0
   13.0407   15.6842   18.0463 C   0  0  0  0  0  0  0  0  0  0  0  0
   14.4112   16.5675   19.8292 C   0  0  0  0  0  0  0  0  0  0  0  0
    8.2328    9.4245   23.7046 C   0  0  0  0  0  0  0  0  0  0  0  0
    8.3696   12.1560   24.2546 C   0  0  0  0  0  0  0  0  0  0  0  0
   12.4765   15.2168   20.3485 C   0  0  0  0  0  0  0  0  0  0  0  0
    7.3533   11.3819   24.8145 C   0  0  0  0  0  0  0  0  0  0  0  0
   14.1424   16.4288   18.4675 C   0  0  0  0  0  0  0  0  0  0  0  0
    9.3175   11.5644   23.4197 C   0  0  0  0  0  0  0  0  0  0  0  0
    9.2491   10.1986   23.1448 C   0  0  0  0  0  0  0  0  0  0  0  0
   11.6079   14.5849   21.3291 C   0  0  0  0  0  0  0  0  0  0  0  0
   11.9749   14.1517   22.5624 C   0  0  0  0  0  0  0  0  0  0  0  0
   10.9021   13.5222   23.4252 C   0  0  0  0  0  0  0  0  0  0  0  0
   13.6479   17.8487   15.6609 C   0  0  0  0  0  0  0  0  0  0  0  0
   17.2782   16.9553   18.3012 C   0  0  0  0  0  0  0  0  0  0  0  0
   14.7143   16.9037   16.0994 C   0  0  0  0  0  0  0  0  0  0  0  0
   16.1240   17.8290   17.9447 C   0  0  0  0  0  0  0  0  0  0  0  0
    6.3394   12.0141   25.7069 C   0  0  0  0  0  0  0  0  0  0  0  0
   14.4056   14.4318   23.4076 N   0  0  0  0  0  0  0  0  0  0  0  0
   10.3384   12.3797   22.8679 N   0  0  0  0  0  0  0  0  0  0  0  0
   14.9847   17.0416   17.5167 N   0  0  0  0  0  0  0  0  0  0  0  0
   10.6013   14.0226   24.5061 O   0  0  0  0  0  0  0  0  0  0  0  0
    5.4055   11.1377   26.1819 F   0  0  0  0  0  0  0  0  0  0  0  0
    6.8775   12.5978   26.8185 F   0  0  0  0  0  0  0  0  0  0  0  0
    5.6317   13.0000   25.0821 F   0  0  0  0  0  0  0  0  0  0  0  0
   10.4022    9.4250   22.1167 Cl  0  0  0  0  0  0  0  0  0  0  0  0
   11.3525   14.5012   18.6432 H   0  0  0  0  0  0  0  0  0  0  0  0
   13.8005   16.0781   21.8278 H   0  0  0  0  0  0  0  0  0  0  0  0
    6.4968    9.4049   24.9713 H   0  0  0  0  0  0  0  0  0  0  0  0
   12.8220   15.5701   16.9876 H   0  0  0  0  0  0  0  0  0  0  0  0
   15.2671   17.1451   20.1689 H   0  0  0  0  0  0  0  0  0  0  0  0
    8.1643    8.3590   23.4997 H   0  0  0  0  0  0  0  0  0  0  0  0
    8.4201   13.2210   24.4719 H   0  0  0  0  0  0  0  0  0  0  0  0
   10.5674   14.4864   21.0042 H   0  0  0  0  0  0  0  0  0  0  0  0
   13.9674   18.8819   15.8621 H   0  0  0  0  0  0  0  0  0  0  0  0
   13.4683   17.7240   14.5828 H   0  0  0  0  0  0  0  0  0  0  0  0
   12.7208   17.6375   16.2139 H   0  0  0  0  0  0  0  0  0  0  0  0
   17.5697   16.3565   17.4258 H   0  0  0  0  0  0  0  0  0  0  0  0
   18.1268   17.5799   18.6171 H   0  0  0  0  0  0  0  0  0  0  0  0
   16.9900   16.2850   19.1244 H   0  0  0  0  0  0  0  0  0  0  0  0
   14.3873   15.8735   15.8949 H   0  0  0  0  0  0  0  0  0  0  0  0
   15.6351   17.1148   15.5360 H   0  0  0  0  0  0  0  0  0  0  0  0
   15.8388   18.4241   18.8248 H   0  0  0  0  0  0  0  0  0  0  0  0
   16.4223   18.5024   17.1277 H   0  0  0  0  0  0  0  0  0  0  0  0
   10.6994   12.0963   21.9610 H   0  0  0  0  0  0  0  0  0  0  0  0
  1 15  1  0  0  0  0
  1 22  3  0  0  0  0
  2  5  2  0  0  0  0
  2  9  1  0  0  0  0
  3  6  1  0  0  0  0
  3  9  2  0  0  0  0
  4  7  2  0  0  0  0
  4 10  1  0  0  0  0
  5 11  1  0  0  0  0
  6 11  2  0  0  0  0
  7 13  1  0  0  0  0
  8 10  2  0  0  0  0
  8 12  1  0  0  0  0
  9 14  1  4  0  0  0
 10 21  1  0  0  0  0
 11 24  1  0  0  0  0
 12 13  2  0  0  0  0
 12 23  1  0  0  0  0
 13 29  1  0  0  0  0
 14 15  2  0  0  0  0
 15 16  1  0  0  0  0
 16 23  1  0  0  0  0
 16 25  2  0  0  0  0
 17 19  1  0  0  0  0
 18 20  1  0  0  0  0
 19 24  1  0  0  0  0
 20 24  1  0  0  0  0
 21 26  1  0  0  0  0
 21 27  1  0  0  0  0
 21 28  1  0  0  0  0
  2 30  1  0  0  0  0
  3 31  1  0  0  0  0
  4 32  1  0  0  0  0
  5 33  1  0  0  0  0
  6 34  1  0  0  0  0
  7 35  1  0  0  0  0
  8 36  1  0  0  0  0
 14 37  1  0  0  0  0
 17 38  1  0  0  0  0
 17 39  1  0  0  0  0
 17 40  1  0  0  0  0
 18 41  1  0  0  0  0
 18 42  1  0  0  0  0
 18 43  1  0  0  0  0
 19 44  1  0  0  0  0
 19 45  1  0  0  0  0
 20 46  1  0  0  0  0
 20 47  1  0  0  0  0
 23 48  1  0  0  0  0
M  END
> <Catalog ID>
Z44308212

> <MW>
421.843

> <MW (desalted)>
421.843

> <ClogP>
5.497

> <logS>
-6.45

> <HBD>
1

> <HBA>
3

> <TPSA>
56.13

> <RotBonds>
7

> <ROCS_ShapeQuery>
A71EV2A-x0451_0A_A71EV2A-x0310_0A_A71EV2A-x0416_0A_peptide

> <ROCS_TanimotoCombo>
0.521 

> <ROCS_ShapeTanimoto>
0.352 

> <ROCS_ColorTanimoto>
0.168 

> <ROCS_RefTversky>
0.320 

> <ROCS_RefColorTversky>
0.174 

> <ROCS_RefTverskyCombo>
0.494 

> <ROCS_FitTversky>
1.408 

> <ROCS_FitColorTversky>
0.835 

> <ROCS_FitTverskyCombo>
2.244 

> <ROCS_ColorScore>
-5.293

> <ROCS_Overlap>
2225.753

> <ROCS_Rank>
400                 

$$$$
untitled-dbase-9131_776
  -OEChem-11132309573D

 38 39  0     1  0  0  0  0  0999 V2000
    4.2745   12.9961   27.9753 C   0  0  0  0  0  0  0  0  0  0  0  0
    8.5152   12.2433   24.6030 C   0  0  0  0  0  0  0  0  0  0  0  0
    8.9056   10.1944   23.5513 C   0  0  0  0  0  0  0  0  0  0  0  0
    5.4199   13.0360   28.7350 C   0  0  0  0  0  0  0  0  0  0  0  0
    9.3215   11.4914   23.7730 C   0  0  0  0  0  0  0  0  0  0  0  0
    5.3410   11.2190   27.4905 C   0  0  0  0  0  0  0  0  0  0  0  0
    7.0890   10.4957   24.8839 C   0  0  0  0  0  0  0  0  0  0  0  0
   10.9861   13.2944   23.3754 C   0  0  0  0  0  0  0  0  0  0  0  0
   12.5086   14.9512   22.2196 C   0  0  0  0  0  0  0  0  0  0  0  0
    7.3654   11.4819   28.9600 C   0  0  0  0  0  0  0  0  0  0  0  0
    4.8373    9.4832   24.6291 C   0  0  0  0  0  0  0  0  0  0  0  0
    5.7768    9.9063   26.9066 C   0  0  0  0  0  0  0  0  0  0  0  0
   12.2747   13.4944   22.5869 C   0  0  1  0  0  0  0  0  0  0  0  0
    4.2313   11.8624   27.2030 N   0  0  0  0  0  0  0  0  0  0  0  0
    7.3877   11.7756   25.1776 N   0  0  0  0  0  0  0  0  0  0  0  0
    7.7905    9.6618   24.0928 N   0  0  0  0  0  0  0  0  0  0  0  0
    6.0927   11.8908   28.4140 N   0  0  0  0  0  0  0  0  0  0  0  0
   10.4844   12.0085   23.1967 N   0  0  0  0  0  0  0  0  0  0  0  0
    5.9136    9.9724   25.4660 N   0  0  3  0  0  0  0  0  0  0  0  0
   10.5191   14.1920   24.0702 O   0  0  0  0  0  0  0  0  0  0  0  0
   13.6059   12.9156   23.6242 Cl  0  0  0  0  0  0  0  0  0  0  0  0
    3.4788   13.7260   27.9453 H   0  0  0  0  0  0  0  0  0  0  0  0
    8.7531   13.2754   24.8416 H   0  0  0  0  0  0  0  0  0  0  0  0
    9.4695    9.5204   22.9137 H   0  0  0  0  0  0  0  0  0  0  0  0
    5.7990   13.7536   29.4492 H   0  0  0  0  0  0  0  0  0  0  0  0
   12.5219   15.5841   23.1133 H   0  0  0  0  0  0  0  0  0  0  0  0
   11.7340   15.3331   21.5453 H   0  0  0  0  0  0  0  0  0  0  0  0
   13.4716   15.0679   21.7107 H   0  0  0  0  0  0  0  0  0  0  0  0
    7.1721   10.8832   29.8541 H   0  0  0  0  0  0  0  0  0  0  0  0
    7.9086   10.8930   28.2157 H   0  0  0  0  0  0  0  0  0  0  0  0
    7.9523   12.3694   29.2124 H   0  0  0  0  0  0  0  0  0  0  0  0
    4.0156    9.1190   25.2633 H   0  0  0  0  0  0  0  0  0  0  0  0
    4.4717   10.2988   23.9880 H   0  0  0  0  0  0  0  0  0  0  0  0
    5.2073    8.6601   24.0001 H   0  0  0  0  0  0  0  0  0  0  0  0
    6.7425    9.5999   27.3233 H   0  0  0  0  0  0  0  0  0  0  0  0
    5.0566    9.1146   27.1385 H   0  0  0  0  0  0  0  0  0  0  0  0
   12.2656   12.8828   21.6788 H   0  0  0  0  0  0  0  0  0  0  0  0
   11.0056   11.3694   22.6009 H   0  0  0  0  0  0  0  0  0  0  0  0
  1  4  2  0  0  0  0
  1 14  1  0  0  0  0
  2  5  1  0  0  0  0
  2 15  2  0  0  0  0
  3  5  2  0  0  0  0
  3 16  1  0  0  0  0
  4 17  1  0  0  0  0
  5 18  1  0  0  0  0
  6 12  1  0  0  0  0
  6 14  2  0  0  0  0
  6 17  1  0  0  0  0
  7 15  1  0  0  0  0
  7 16  2  0  0  0  0
  7 19  1  0  0  0  0
  8 13  1  0  0  0  0
  8 18  1  0  0  0  0
  8 20  2  0  0  0  0
  9 13  1  0  0  0  0
 10 17  1  0  0  0  0
 11 19  1  0  0  0  0
 12 19  1  0  0  0  0
 13 21  1  0  0  0  0
  1 22  1  0  0  0  0
  2 23  1  0  0  0  0
  3 24  1  0  0  0  0
  4 25  1  0  0  0  0
  9 26  1  0  0  0  0
  9 27  1  0  0  0  0
  9 28  1  0  0  0  0
 10 29  1  0  0  0  0
 10 30  1  0  0  0  0
 10 31  1  0  0  0  0
 11 32  1  0  0  0  0
 11 33  1  0  0  0  0
 11 34  1  0  0  0  0
 12 35  1  0  0  0  0
 12 36  1  0  0  0  0
 13 37  1  0  0  0  0
 18 38  1  0  0  0  0
M  END
> <Catalog ID>
Z3292189551

> <MW>
308.767

> <MW (desalted)>
308.767

> <ClogP>
1.486

> <logS>
-1.854

> <HBD>
1

> <HBA>
5

> <TPSA>
75.94

> <RotBonds>
5

> <ROCS_ShapeQuery>
A71EV2A-x0451_0A_A71EV2A-x0310_0A_A71EV2A-x0416_0A_peptide

> <ROCS_TanimotoCombo>
0.521 

> <ROCS_ShapeTanimoto>
0.302 

> <ROCS_ColorTanimoto>
0.219 

> <ROCS_RefTversky>
0.274 

> <ROCS_RefColorTversky>
0.234 

> <ROCS_RefTverskyCombo>
0.508 

> <ROCS_FitTversky>
1.514 

> <ROCS_FitColorTversky>
0.777 

> <ROCS_FitTverskyCombo>
2.292 

> <ROCS_ColorScore>
-7.144

> <ROCS_Overlap>
1899.250

> <ROCS_Rank>
401                 

$$$$
untitled-dbase-8294_722
  -OEChem-11132309573D

 44 46  0     0  0  0  0  0  0999 V2000
    7.9857   12.8914   24.7838 C   0  0  0  0  0  0  0  0  0  0  0  0
    6.9021   12.8347   25.6693 C   0  0  0  0  0  0  0  0  0  0  0  0
    6.8895   10.4010   25.6002 C   0  0  0  0  0  0  0  0  0  0  0  0
    8.5236   11.6856   24.3037 C   0  0  0  0  0  0  0  0  0  0  0  0
    7.9694   10.4797   24.7181 C   0  0  0  0  0  0  0  0  0  0  0  0
    6.3648   11.6097   26.0694 C   0  0  0  0  0  0  0  0  0  0  0  0
    9.5700   11.3093   23.4344 C   0  0  0  0  0  0  0  0  0  0  0  0
   13.4105   19.7322   22.1159 C   0  0  0  0  0  0  0  0  0  0  0  0
   13.8537   18.6979   21.3981 C   0  0  0  0  0  0  0  0  0  0  0  0
   12.8791   17.8795   20.6493 C   0  0  0  0  0  0  0  0  0  0  0  0
   10.8210   13.4778   23.1955 C   0  0  0  0  0  0  0  0  0  0  0  0
   10.9209   14.9275   21.1851 C   0  0  0  0  0  0  0  0  0  0  0  0
   12.7250   15.0308   22.9334 C   0  0  0  0  0  0  0  0  0  0  0  0
   11.8386   15.6850   20.2309 C   0  0  0  0  0  0  0  0  0  0  0  0
   13.6062   15.8075   21.9549 C   0  0  0  0  0  0  0  0  0  0  0  0
   11.7346   14.1243   22.2008 C   0  0  0  0  0  0  0  0  0  0  0  0
    4.8153   12.8504   27.3791 C   0  0  0  0  0  0  0  0  0  0  0  0
    9.6813    9.9859   23.2997 N   0  0  0  0  0  0  0  0  0  0  0  0
    8.7015    9.5108   24.0865 N   0  0  0  0  0  0  0  0  0  0  0  0
   12.7924   16.5248   20.9614 N   0  0  0  0  0  0  0  0  0  0  0  0
   10.4238   12.2181   22.7654 N   0  0  0  0  0  0  0  0  0  0  0  0
   12.2034   18.4457   19.7882 O   0  0  0  0  0  0  0  0  0  0  0  0
   10.5149   14.0540   24.2344 O   0  0  0  0  0  0  0  0  0  0  0  0
    5.3097   11.5899   26.9330 O   0  0  0  0  0  0  0  0  0  0  0  0
    8.3933   13.8513   24.4811 H   0  0  0  0  0  0  0  0  0  0  0  0
    6.4785   13.7625   26.0471 H   0  0  0  0  0  0  0  0  0  0  0  0
    6.4766    9.4456   25.9060 H   0  0  0  0  0  0  0  0  0  0  0  0
   14.0774   20.3696   22.6866 H   0  0  0  0  0  0  0  0  0  0  0  0
   12.3504   19.9612   22.1432 H   0  0  0  0  0  0  0  0  0  0  0  0
   14.9030   18.4383   21.3458 H   0  0  0  0  0  0  0  0  0  0  0  0
   10.2623   15.6327   21.6907 H   0  0  0  0  0  0  0  0  0  0  0  0
   10.2974   14.2438   20.6077 H   0  0  0  0  0  0  0  0  0  0  0  0
   13.3658   14.4182   23.5724 H   0  0  0  0  0  0  0  0  0  0  0  0
   12.1948   15.7351   23.5775 H   0  0  0  0  0  0  0  0  0  0  0  0
   12.3660   14.9698   19.5843 H   0  0  0  0  0  0  0  0  0  0  0  0
   11.2593   16.3435   19.5664 H   0  0  0  0  0  0  0  0  0  0  0  0
   14.1998   16.5637   22.4873 H   0  0  0  0  0  0  0  0  0  0  0  0
   14.3314   15.1341   21.4905 H   0  0  0  0  0  0  0  0  0  0  0  0
   12.2663   13.3335   21.7032 H   0  0  0  0  0  0  0  0  0  0  0  0
    3.9762   12.6929   28.0612 H   0  0  0  0  0  0  0  0  0  0  0  0
    4.4929   13.4417   26.5183 H   0  0  0  0  0  0  0  0  0  0  0  0
    5.6140   13.3800   27.9038 H   0  0  0  0  0  0  0  0  0  0  0  0
    8.5826    8.5073   24.1490 H   0  0  0  0  0  0  0  0  0  0  0  0
   10.7816   11.8996   21.8672 H   0  0  0  0  0  0  0  0  0  0  0  0
  1  2  2  0  0  0  0
  1  4  1  0  0  0  0
  2  6  1  0  0  0  0
  3  5  1  0  0  0  0
  3  6  2  0  0  0  0
  4  5  2  0  0  0  0
  4  7  1  0  0  0  0
  5 19  1  0  0  0  0
  6 24  1  0  0  0  0
  7 18  2  0  0  0  0
  7 21  1  0  0  0  0
  8  9  2  0  0  0  0
  9 10  1  0  0  0  0
 10 20  1  0  0  0  0
 10 22  2  0  0  0  0
 11 16  1  0  0  0  0
 11 21  1  0  0  0  0
 11 23  2  0  0  0  0
 12 14  1  0  0  0  0
 12 16  1  0  0  0  0
 13 15  1  0  0  0  0
 13 16  1  0  0  0  0
 14 20  1  0  0  0  0
 15 20  1  0  0  0  0
 17 24  1  0  0  0  0
 18 19  1  0  0  0  0
  1 25  1  0  0  0  0
  2 26  1  0  0  0  0
  3 27  1  0  0  0  0
  8 28  1  0  0  0  0
  8 29  1  0  0  0  0
  9 30  1  0  0  0  0
 12 31  1  0  0  0  0
 12 32  1  0  0  0  0
 13 33  1  0  0  0  0
 13 34  1  0  0  0  0
 14 35  1  0  0  0  0
 14 36  1  0  0  0  0
 15 37  1  0  0  0  0
 15 38  1  0  0  0  0
 16 39  1  0  0  0  0
 17 40  1  0  0  0  0
 17 41  1  0  0  0  0
 17 42  1  0  0  0  0
 19 43  1  0  0  0  0
 21 44  1  0  0  0  0
M  END
> <Catalog ID>
Z1894887044

> <MW>
328.366

> <MW (desalted)>
328.366

> <ClogP>
1.215

> <logS>
-3.992

> <HBD>
2

> <HBA>
4

> <TPSA>
87.32

> <RotBonds>
4

> <ROCS_ShapeQuery>
A71EV2A-x0451_0A_A71EV2A-x0310_0A_A71EV2A-x0416_0A_peptide

> <ROCS_TanimotoCombo>
0.521 

> <ROCS_ShapeTanimoto>
0.354 

> <ROCS_ColorTanimoto>
0.166 

> <ROCS_RefTversky>
0.314 

> <ROCS_RefColorTversky>
0.194 

> <ROCS_RefTverskyCombo>
0.509 

> <ROCS_FitTversky>
1.560 

> <ROCS_FitColorTversky>
0.536 

> <ROCS_FitTverskyCombo>
2.097 

> <ROCS_ColorScore>
-5.953

> <ROCS_Overlap>
2185.656

> <ROCS_Rank>
402                 

$$$$
untitled-dbase-8333_14030
  -OEChem-11132309573D

 54 55  0     1  0  0  0  0  0999 V2000
   10.7679   15.2154   23.0054 C   0  0  0  0  0  0  0  0  0  0  0  0
   11.1043   14.4940   21.8843 C   0  0  0  0  0  0  0  0  0  0  0  0
   10.7654   13.1771   23.6185 C   0  0  0  0  0  0  0  0  0  0  0  0
    9.3196   11.2703   24.4537 C   0  0  0  0  0  0  0  0  0  0  0  0
   16.7230   13.6291   27.7205 C   0  0  0  0  0  0  0  0  0  0  0  0
   15.8318   12.8572   27.0911 C   0  0  0  0  0  0  0  0  0  0  0  0
   14.6339   12.3493   27.8117 C   0  0  0  0  0  0  0  0  0  0  0  0
    5.5825   13.1471   27.2443 C   0  0  0  0  0  0  0  0  0  0  0  0
    2.2251   12.0155   28.1652 C   0  0  0  0  0  0  0  0  0  0  0  0
    6.9024   12.5613   27.6923 C   0  0  0  0  0  0  0  0  0  0  0  0
    8.1120   13.2675   27.0769 C   0  0  0  0  0  0  0  0  0  0  0  0
    8.1361   13.2399   25.5437 C   0  0  0  0  0  0  0  0  0  0  0  0
   12.6075   10.9644   27.4638 C   0  0  0  0  0  0  0  0  0  0  0  0
   11.5827   10.8092   26.3528 C   0  0  0  0  0  0  0  0  0  0  0  0
    3.2421   12.8804   27.4514 C   0  0  0  0  0  0  0  0  0  0  0  0
   10.6646   11.8655   24.4026 C   0  0  2  0  0  0  0  0  0  0  0  0
   11.4227   14.8933   20.5053 C   0  0  0  0  0  0  0  0  0  0  0  0
   10.5586   14.3898   24.0816 N   0  0  0  0  0  0  0  0  0  0  0  0
    8.9488   10.0810   24.0386 N   0  0  0  0  0  0  0  0  0  0  0  0
    7.6007    9.9985   24.3047 N   0  0  0  0  0  0  0  0  0  0  0  0
    7.1572   11.1139   24.8715 N   0  0  0  0  0  0  0  0  0  0  0  0
   11.0991   13.1900   22.2927 N   0  0  0  0  0  0  0  0  0  0  0  0
    8.2334   11.9073   24.9635 N   0  0  0  0  0  0  0  0  0  0  0  0
   13.8269   11.5675   26.9969 N   0  0  0  0  0  0  0  0  0  0  0  0
   11.2357   12.0804   25.7535 N   0  0  0  0  0  0  0  0  0  0  0  0
   14.4116   12.6114   28.9894 O   0  0  0  0  0  0  0  0  0  0  0  0
    5.4663   14.0829   26.4641 O   0  0  0  0  0  0  0  0  0  0  0  0
    4.5575   12.4514   27.8172 O   0  0  0  0  0  0  0  0  0  0  0  0
   11.3787   16.2488   20.2816 F   0  0  0  0  0  0  0  0  0  0  0  0
   12.6767   14.5226   20.0822 F   0  0  0  0  0  0  0  0  0  0  0  0
   10.5692   14.3596   19.5714 F   0  0  0  0  0  0  0  0  0  0  0  0
   10.6657   16.2873   23.0948 H   0  0  0  0  0  0  0  0  0  0  0  0
   17.5949   13.9950   27.1884 H   0  0  0  0  0  0  0  0  0  0  0  0
   16.6161   13.9162   28.7607 H   0  0  0  0  0  0  0  0  0  0  0  0
   15.9760   12.5936   26.0490 H   0  0  0  0  0  0  0  0  0  0  0  0
    2.3403   10.9650   27.8841 H   0  0  0  0  0  0  0  0  0  0  0  0
    2.3361   12.1053   29.2508 H   0  0  0  0  0  0  0  0  0  0  0  0
    1.2069   12.3367   27.9218 H   0  0  0  0  0  0  0  0  0  0  0  0
    6.8959   11.5086   27.3867 H   0  0  0  0  0  0  0  0  0  0  0  0
    6.9729   12.5882   28.7856 H   0  0  0  0  0  0  0  0  0  0  0  0
    8.0749   14.3207   27.3827 H   0  0  0  0  0  0  0  0  0  0  0  0
    9.0460   12.8583   27.4796 H   0  0  0  0  0  0  0  0  0  0  0  0
    7.2459   13.7323   25.1348 H   0  0  0  0  0  0  0  0  0  0  0  0
    9.0027   13.8047   25.1778 H   0  0  0  0  0  0  0  0  0  0  0  0
   12.8688    9.9969   27.9041 H   0  0  0  0  0  0  0  0  0  0  0  0
   12.2112   11.6108   28.2531 H   0  0  0  0  0  0  0  0  0  0  0  0
   11.9823   10.1761   25.5545 H   0  0  0  0  0  0  0  0  0  0  0  0
   10.6574   10.3569   26.7240 H   0  0  0  0  0  0  0  0  0  0  0  0
    3.1214   13.9296   27.7369 H   0  0  0  0  0  0  0  0  0  0  0  0
    3.1303   12.7889   26.3669 H   0  0  0  0  0  0  0  0  0  0  0  0
   11.3826   11.1516   23.9433 H   0  0  0  0  0  0  0  0  0  0  0  0
   11.3041   12.3823   21.7192 H   0  0  0  0  0  0  0  0  0  0  0  0
   14.0809   11.4325   26.0194 H   0  0  0  0  0  0  0  0  0  0  0  0
   12.0591   12.6593   25.6536 H   0  0  0  0  0  0  0  0  0  0  0  0
  1  2  2  0  0  0  0
  1 18  1  0  0  0  0
  2 17  1  0  0  0  0
  2 22  1  0  0  0  0
  3 16  1  0  0  0  0
  3 18  2  0  0  0  0
  3 22  1  0  0  0  0
  4 16  1  0  0  0  0
  4 19  2  0  0  0  0
  4 23  1  0  0  0  0
  5  6  2  0  0  0  0
  6  7  1  0  0  0  0
  7 24  1  0  0  0  0
  7 26  2  0  0  0  0
  8 10  1  0  0  0  0
  8 27  2  0  0  0  0
  8 28  1  0  0  0  0
  9 15  1  0  0  0  0
 10 11  1  0  0  0  0
 11 12  1  0  0  0  0
 12 23  1  0  0  0  0
 13 14  1  0  0  0  0
 13 24  1  0  0  0  0
 14 25  1  0  0  0  0
 15 28  1  0  0  0  0
 16 25  1  0  0  0  0
 17 29  1  0  0  0  0
 17 30  1  0  0  0  0
 17 31  1  0  0  0  0
 19 20  1  0  0  0  0
 20 21  2  0  0  0  0
 21 23  1  0  0  0  0
  1 32  1  0  0  0  0
  5 33  1  0  0  0  0
  5 34  1  0  0  0  0
  6 35  1  0  0  0  0
  9 36  1  0  0  0  0
  9 37  1  0  0  0  0
  9 38  1  0  0  0  0
 10 39  1  0  0  0  0
 10 40  1  0  0  0  0
 11 41  1  0  0  0  0
 11 42  1  0  0  0  0
 12 43  1  0  0  0  0
 12 44  1  0  0  0  0
 13 45  1  0  0  0  0
 13 46  1  0  0  0  0
 14 47  1  0  0  0  0
 14 48  1  0  0  0  0
 15 49  1  0  0  0  0
 15 50  1  0  0  0  0
 16 51  1  0  0  0  0
 22 52  1  0  0  0  0
 24 53  1  0  0  0  0
 25 54  1  0  0  0  0
M  END
> <Catalog ID>
Z7911571882

> <MW>
444.412

> <MW (desalted)>
444.412

> <ClogP>
-0.168

> <logS>
-1.555

> <HBD>
3

> <HBA>
7

> <TPSA>
139.71

> <RotBonds>
14

> <ROCS_ShapeQuery>
A71EV2A-x0451_0A_A71EV2A-x0310_0A_A71EV2A-x0416_0A_peptide

> <ROCS_TanimotoCombo>
0.521 

> <ROCS_ShapeTanimoto>
0.335 

> <ROCS_ColorTanimoto>
0.186 

> <ROCS_RefTversky>
0.311 

> <ROCS_RefColorTversky>
0.235 

> <ROCS_RefTverskyCombo>
0.547 

> <ROCS_FitTversky>
1.297 

> <ROCS_FitColorTversky>
0.468 

> <ROCS_FitTverskyCombo>
1.766 

> <ROCS_ColorScore>
-7.263

> <ROCS_Overlap>
2167.194

> <ROCS_Rank>
403                 

$$$$
untitled-dbase-262_7553
  -OEChem-11132309573D

 53 56  0     1  0  0  0  0  0999 V2000
   15.0766   15.8005   19.1975 B   0  0  0  0  0  0  0  0  0  0  0  0
    4.1838   12.2793   29.3927 C   0  0  0  0  0  0  0  0  0  0  0  0
    3.6543   11.1402   28.7863 C   0  0  0  0  0  0  0  0  0  0  0  0
    5.0723   13.0939   28.6908 C   0  0  0  0  0  0  0  0  0  0  0  0
   14.1729   15.2814   21.5063 C   0  0  0  0  0  0  0  0  0  0  0  0
   13.2122   14.8111   22.4016 C   0  0  0  0  0  0  0  0  0  0  0  0
    4.0134   10.8156   27.4781 C   0  0  0  0  0  0  0  0  0  0  0  0
    5.4314   12.7694   27.3826 C   0  0  0  0  0  0  0  0  0  0  0  0
   11.7565   14.2645   20.5524 C   0  0  0  0  0  0  0  0  0  0  0  0
   13.9253   15.2435   20.1341 C   0  0  0  0  0  0  0  0  0  0  0  0
   12.0041   14.3026   21.9247 C   0  0  0  0  0  0  0  0  0  0  0  0
   12.7171   14.7350   19.6572 C   0  0  0  0  0  0  0  0  0  0  0  0
    4.9019   11.6302   26.7762 C   0  0  0  0  0  0  0  0  0  0  0  0
   12.3934   14.6668   18.2339 C   0  0  0  0  0  0  0  0  0  0  0  0
   10.9816   13.8012   22.8788 C   0  0  0  0  0  0  0  0  0  0  0  0
    8.3695   11.0517   22.5354 C   0  0  0  0  0  0  0  0  0  0  0  0
    7.7868    9.6861   24.7213 C   0  0  0  0  0  0  0  0  0  0  0  0
    8.9513   11.5439   25.7228 C   0  0  0  0  0  0  0  0  0  0  0  0
    8.8266   10.1505   23.7007 C   0  0  2  0  0  0  0  0  0  0  0  0
    9.5628   11.3475   24.3337 C   0  0  1  0  0  0  0  0  0  0  0  0
    9.0623   12.2598   23.1878 C   0  0  1  0  0  0  0  0  0  0  0  0
    7.5847   10.8710   25.6572 C   0  0  1  0  0  0  0  0  0  0  0  0
    5.2888   11.2816   25.3690 C   0  0  0  0  0  0  0  0  0  0  0  0
   10.1349   12.8341   22.3818 N   0  0  0  0  0  0  0  0  0  0  0  0
   12.3434   15.6625   17.5128 O   0  0  0  0  0  0  0  0  0  0  0  0
   10.9350   14.2739   24.0115 O   0  0  0  0  0  0  0  0  0  0  0  0
   16.3910   15.7103   19.5895 O   0  0  0  0  0  0  0  0  0  0  0  0
   14.7664   16.3764   17.9887 O   0  0  0  0  0  0  0  0  0  0  0  0
    6.6066   11.7517   25.1202 O   0  0  0  0  0  0  0  0  0  0  0  0
    3.9031   12.5326   30.4108 H   0  0  0  0  0  0  0  0  0  0  0  0
    2.9616   10.5063   29.3323 H   0  0  0  0  0  0  0  0  0  0  0  0
    5.4839   13.9814   29.1622 H   0  0  0  0  0  0  0  0  0  0  0  0
   15.1042   15.6711   21.9137 H   0  0  0  0  0  0  0  0  0  0  0  0
   13.4145   14.8464   23.4693 H   0  0  0  0  0  0  0  0  0  0  0  0
    3.5960    9.9260   27.0138 H   0  0  0  0  0  0  0  0  0  0  0  0
    6.1244   13.4099   26.8435 H   0  0  0  0  0  0  0  0  0  0  0  0
   10.8133   13.8664   20.1836 H   0  0  0  0  0  0  0  0  0  0  0  0
   12.1878   13.6629   17.8107 H   0  0  0  0  0  0  0  0  0  0  0  0
    8.7795   10.7505   21.5646 H   0  0  0  0  0  0  0  0  0  0  0  0
    7.2852   11.1573   22.4254 H   0  0  0  0  0  0  0  0  0  0  0  0
    6.8611    9.3644   24.2342 H   0  0  0  0  0  0  0  0  0  0  0  0
    8.1953    8.8406   25.2874 H   0  0  0  0  0  0  0  0  0  0  0  0
    9.5750   11.0303   26.4640 H   0  0  0  0  0  0  0  0  0  0  0  0
    8.8946   12.6037   25.9896 H   0  0  0  0  0  0  0  0  0  0  0  0
    9.4822    9.3361   23.3707 H   0  0  0  0  0  0  0  0  0  0  0  0
   10.6532   11.2348   24.3717 H   0  0  0  0  0  0  0  0  0  0  0  0
    8.3660   13.0427   23.5045 H   0  0  0  0  0  0  0  0  0  0  0  0
    7.2334   10.5523   26.6434 H   0  0  0  0  0  0  0  0  0  0  0  0
    5.2606   10.1979   25.2120 H   0  0  0  0  0  0  0  0  0  0  0  0
    4.6013   11.7434   24.6522 H   0  0  0  0  0  0  0  0  0  0  0  0
   10.1837   12.5313   21.4212 H   0  0  0  0  0  0  0  0  0  0  0  0
   16.5076   15.2886   20.4570 H   0  0  0  0  0  0  0  0  0  0  0  0
   13.8131   16.3933   17.8020 H   0  0  0  0  0  0  0  0  0  0  0  0
  1 10  1  0  0  0  0
  1 27  1  0  0  0  0
  1 28  1  0  0  0  0
  2  3  1  0  0  0  0
  2  4  2  0  0  0  0
  3  7  2  0  0  0  0
  4  8  1  0  0  0  0
  5  6  2  0  0  0  0
  5 10  1  0  0  0  0
  6 11  1  0  0  0  0
  7 13  1  0  0  0  0
  8 13  2  0  0  0  0
  9 11  2  0  0  0  0
  9 12  1  0  0  0  0
 10 12  2  0  0  0  0
 11 15  1  0  0  0  0
 12 14  1  0  0  0  0
 13 23  1  0  0  0  0
 14 25  2  0  0  0  0
 15 24  1  0  0  0  0
 15 26  2  0  0  0  0
 16 19  1  6  0  0  0
 16 21  1  0  0  0  0
 17 19  1  0  0  0  0
 17 22  1  0  0  0  0
 18 20  1  6  0  0  0
 18 22  1  0  0  0  0
 19 20  1  0  0  0  0
 20 21  1  0  0  0  0
 21 24  1  0  0  0  0
 22 29  1  0  0  0  0
 23 29  1  0  0  0  0
  2 30  1  0  0  0  0
  3 31  1  0  0  0  0
  4 32  1  0  0  0  0
  5 33  1  0  0  0  0
  6 34  1  0  0  0  0
  7 35  1  0  0  0  0
  8 36  1  0  0  0  0
  9 37  1  0  0  0  0
 14 38  1  0  0  0  0
 16 39  1  0  0  0  0
 16 40  1  0  0  0  0
 17 41  1  0  0  0  0
 17 42  1  0  0  0  0
 18 43  1  0  0  0  0
 18 44  1  0  0  0  0
 19 45  1  0  0  0  0
 20 46  1  0  0  0  0
 21 47  1  0  0  0  0
 22 48  1  0  0  0  0
 23 49  1  0  0  0  0
 23 50  1  0  0  0  0
 24 51  1  0  0  0  0
 27 52  1  0  0  0  0
 28 53  1  0  0  0  0
M  END
> <Catalog ID>
Z7158436034

> <MW>
393.241

> <MW (desalted)>
393.241

> <ClogP>
2.488

> <logS>
-3.395

> <HBD>
3

> <HBA>
5

> <TPSA>
95.86

> <RotBonds>
7

> <ROCS_ShapeQuery>
A71EV2A-x0451_0A_A71EV2A-x0310_0A_A71EV2A-x0416_0A_peptide

> <ROCS_TanimotoCombo>
0.521 

> <ROCS_ShapeTanimoto>
0.320 

> <ROCS_ColorTanimoto>
0.201 

> <ROCS_RefTversky>
0.298 

> <ROCS_RefColorTversky>
0.235 

> <ROCS_RefTverskyCombo>
0.533 

> <ROCS_FitTversky>
1.299 

> <ROCS_FitColorTversky>
0.581 

> <ROCS_FitTverskyCombo>
1.880 

> <ROCS_ColorScore>
-7.210

> <ROCS_Overlap>
2074.023

> <ROCS_Rank>
404                 

$$$$
untitled-dbase-3668_239
  -OEChem-11132309573D

 41 42  0     0  0  0  0  0  0999 V2000
   13.0289   16.7847   21.8559 C   0  0  0  0  0  0  0  0  0  0  0  0
   12.2296   15.7505   22.3430 C   0  0  0  0  0  0  0  0  0  0  0  0
   13.5827   16.6957   20.5787 C   0  0  0  0  0  0  0  0  0  0  0  0
    8.6724   12.2625   24.3401 C   0  0  0  0  0  0  0  0  0  0  0  0
   12.5382   14.5384   20.2760 C   0  0  0  0  0  0  0  0  0  0  0  0
    9.4896    9.8777   23.1454 C   0  0  0  0  0  0  0  0  0  0  0  0
    9.7977   12.2451   23.5161 C   0  0  0  0  0  0  0  0  0  0  0  0
   11.9843   14.6274   21.5531 C   0  0  0  0  0  0  0  0  0  0  0  0
    7.9558   11.0874   24.5669 C   0  0  0  0  0  0  0  0  0  0  0  0
   10.2063   11.0527   22.9187 C   0  0  0  0  0  0  0  0  0  0  0  0
    8.3644    9.8951   23.9695 C   0  0  0  0  0  0  0  0  0  0  0  0
   13.3374   15.5726   19.7888 C   0  0  0  0  0  0  0  0  0  0  0  0
   10.5322   13.4827   23.2929 C   0  0  0  0  0  0  0  0  0  0  0  0
    6.5077   12.3760   25.9448 C   0  0  0  0  0  0  0  0  0  0  0  0
   12.5570   10.7445   22.7322 C   0  0  0  0  0  0  0  0  0  0  0  0
    8.1564    7.5661   23.5352 C   0  0  0  0  0  0  0  0  0  0  0  0
   11.1717   13.5763   22.0480 N   0  0  0  0  0  0  0  0  0  0  0  0
   10.6047   14.3605   24.1626 O   0  0  0  0  0  0  0  0  0  0  0  0
   13.2227   14.5382   17.4187 O   0  0  0  0  0  0  0  0  0  0  0  0
   14.3221   16.8079   17.7382 O   0  0  0  0  0  0  0  0  0  0  0  0
    6.8581   11.1172   25.3731 O   0  0  0  0  0  0  0  0  0  0  0  0
   11.3028   11.0152   22.1101 O   0  0  0  0  0  0  0  0  0  0  0  0
    7.6726    8.7411   24.1829 O   0  0  0  0  0  0  0  0  0  0  0  0
   15.4475   14.7554   18.3343 F   0  0  0  0  0  0  0  0  0  0  0  0
   14.0316   15.4613   18.1908 S   0  0  0  0  0  0  0  0  0  0  0  0
   13.2196   17.6596   22.4705 H   0  0  0  0  0  0  0  0  0  0  0  0
   11.8028   15.8313   23.3396 H   0  0  0  0  0  0  0  0  0  0  0  0
   14.2043   17.5068   20.2091 H   0  0  0  0  0  0  0  0  0  0  0  0
    8.3494   13.1895   24.8083 H   0  0  0  0  0  0  0  0  0  0  0  0
   12.3472   13.6629   19.6593 H   0  0  0  0  0  0  0  0  0  0  0  0
    9.8076    8.9482   22.6794 H   0  0  0  0  0  0  0  0  0  0  0  0
    5.6154   12.2597   26.5648 H   0  0  0  0  0  0  0  0  0  0  0  0
    6.3188   13.0993   25.1476 H   0  0  0  0  0  0  0  0  0  0  0  0
    7.3359   12.7277   26.5646 H   0  0  0  0  0  0  0  0  0  0  0  0
   13.3465   10.7430   21.9767 H   0  0  0  0  0  0  0  0  0  0  0  0
   12.5147    9.7736   23.2323 H   0  0  0  0  0  0  0  0  0  0  0  0
   12.7634   11.5235   23.4699 H   0  0  0  0  0  0  0  0  0  0  0  0
    7.5148    6.7188   23.7891 H   0  0  0  0  0  0  0  0  0  0  0  0
    9.1825    7.3688   23.8554 H   0  0  0  0  0  0  0  0  0  0  0  0
    8.1379    7.7231   22.4541 H   0  0  0  0  0  0  0  0  0  0  0  0
   11.0349   12.7886   21.4194 H   0  0  0  0  0  0  0  0  0  0  0  0
  1  2  2  0  0  0  0
  1  3  1  0  0  0  0
  2  8  1  0  0  0  0
  3 12  2  0  0  0  0
  4  7  2  0  0  0  0
  4  9  1  0  0  0  0
  5  8  2  0  0  0  0
  5 12  1  0  0  0  0
  6 10  2  0  0  0  0
  6 11  1  0  0  0  0
  7 10  1  0  0  0  0
  7 13  1  0  0  0  0
  8 17  1  0  0  0  0
  9 11  2  0  0  0  0
  9 21  1  0  0  0  0
 10 22  1  0  0  0  0
 11 23  1  0  0  0  0
 12 25  1  0  0  0  0
 13 17  1  0  0  0  0
 13 18  2  0  0  0  0
 14 21  1  0  0  0  0
 15 22  1  0  0  0  0
 16 23  1  0  0  0  0
 19 25  2  0  0  0  0
 20 25  2  0  0  0  0
 24 25  1  0  0  0  0
  1 26  1  0  0  0  0
  2 27  1  0  0  0  0
  3 28  1  0  0  0  0
  4 29  1  0  0  0  0
  5 30  1  0  0  0  0
  6 31  1  0  0  0  0
 14 32  1  0  0  0  0
 14 33  1  0  0  0  0
 14 34  1  0  0  0  0
 15 35  1  0  0  0  0
 15 36  1  0  0  0  0
 15 37  1  0  0  0  0
 16 38  1  0  0  0  0
 16 39  1  0  0  0  0
 16 40  1  0  0  0  0
 17 41  1  0  0  0  0
M  END
> <Catalog ID>
Z1713569822

> <MW>
369.365

> <MW (desalted)>
369.365

> <ClogP>
3.114

> <logS>
-3.917

> <HBD>
1

> <HBA>
6

> <TPSA>
90.93

> <RotBonds>
6

> <ROCS_ShapeQuery>
A71EV2A-x0451_0A_A71EV2A-x0310_0A_A71EV2A-x0416_0A_peptide

> <ROCS_TanimotoCombo>
0.521 

> <ROCS_ShapeTanimoto>
0.357 

> <ROCS_ColorTanimoto>
0.164 

> <ROCS_RefTversky>
0.317 

> <ROCS_RefColorTversky>
0.179 

> <ROCS_RefTverskyCombo>
0.495 

> <ROCS_FitTversky>
1.555 

> <ROCS_FitColorTversky>
0.662 

> <ROCS_FitTverskyCombo>
2.216 

> <ROCS_ColorScore>
-5.449

> <ROCS_Overlap>
2200.651

> <ROCS_Rank>
405                 

$$$$
untitled-dbase-9369_174
  -OEChem-11132309573D

 33 35  0     0  0  0  0  0  0999 V2000
    9.1863    9.9781   23.4929 C   0  0  0  0  0  0  0  0  0  0  0  0
   10.1572   10.7100   22.7997 C   0  0  0  0  0  0  0  0  0  0  0  0
    9.3709   12.7446   23.8219 C   0  0  0  0  0  0  0  0  0  0  0  0
   13.9173   15.0310   21.2657 C   0  0  0  0  0  0  0  0  0  0  0  0
   13.5695   16.1853   19.2155 C   0  0  0  0  0  0  0  0  0  0  0  0
    8.2921   10.6178   24.3618 C   0  0  0  0  0  0  0  0  0  0  0  0
    8.4078   12.0011   24.5065 C   0  0  0  0  0  0  0  0  0  0  0  0
   10.2492   12.0911   22.9640 C   0  0  0  0  0  0  0  0  0  0  0  0
   12.5379   14.9644   21.4270 C   0  0  0  0  0  0  0  0  0  0  0  0
   14.4510   15.6514   20.1416 C   0  0  0  0  0  0  0  0  0  0  0  0
   11.7420   15.5292   20.4435 C   0  0  0  0  0  0  0  0  0  0  0  0
    6.4439   10.6237   25.9259 C   0  0  0  0  0  0  0  0  0  0  0  0
    7.2486    9.9155   25.1212 C   0  0  0  0  0  0  0  0  0  0  0  0
    6.5532   12.0832   26.0891 C   0  0  0  0  0  0  0  0  0  0  0  0
    7.0984    8.4282   24.9856 C   0  0  0  0  0  0  0  0  0  0  0  0
   12.2240   16.1400   19.3379 N   0  0  0  0  0  0  0  0  0  0  0  0
    5.7982   12.6980   26.8343 O   0  0  0  0  0  0  0  0  0  0  0  0
   13.0195   13.8370   23.6846 O   0  0  0  0  0  0  0  0  0  0  0  0
   10.8091   15.0310   23.3497 O   0  0  0  0  0  0  0  0  0  0  0  0
    7.5466   12.7187   25.3605 O   0  0  0  0  0  0  0  0  0  0  0  0
   11.1962   12.7964   22.2885 O   0  0  0  0  0  0  0  0  0  0  0  0
    8.0094    7.9311   24.1264 F   0  0  0  0  0  0  0  0  0  0  0  0
    7.2703    7.8173   26.1742 F   0  0  0  0  0  0  0  0  0  0  0  0
    5.8734    8.1061   24.5258 F   0  0  0  0  0  0  0  0  0  0  0  0
   11.8741   14.1747   22.8617 S   0  0  0  0  0  0  0  0  0  0  0  0
   10.0230   15.5155   20.5184 Cl  0  0  0  0  0  0  0  0  0  0  0  0
   16.3135   15.7610   19.8844 Br  0  0  0  0  0  0  0  0  0  0  0  0
    9.1500    8.9033   23.3354 H   0  0  0  0  0  0  0  0  0  0  0  0
   10.8402   10.1917   22.1317 H   0  0  0  0  0  0  0  0  0  0  0  0
    9.4346   13.8208   23.9575 H   0  0  0  0  0  0  0  0  0  0  0  0
   14.5735   14.5987   22.0176 H   0  0  0  0  0  0  0  0  0  0  0  0
   13.9216   16.6817   18.3164 H   0  0  0  0  0  0  0  0  0  0  0  0
    5.6618   10.1373   26.5013 H   0  0  0  0  0  0  0  0  0  0  0  0
  1  2  2  0  0  0  0
  1  6  1  0  0  0  0
  2  8  1  0  0  0  0
  3  7  1  0  0  0  0
  3  8  2  0  0  0  0
  4  9  1  0  0  0  0
  4 10  2  0  0  0  0
  5 10  1  0  0  0  0
  5 16  2  0  0  0  0
  6  7  2  0  0  0  0
  6 13  1  0  0  0  0
  7 20  1  0  0  0  0
  8 21  1  0  0  0  0
  9 11  2  0  0  0  0
  9 25  1  0  0  0  0
 10 27  1  0  0  0  0
 11 16  1  0  0  0  0
 11 26  1  0  0  0  0
 12 13  2  0  0  0  0
 12 14  1  0  0  0  0
 13 15  1  0  0  0  0
 14 17  2  0  0  0  0
 14 20  1  0  0  0  0
 15 22  1  0  0  0  0
 15 23  1  0  0  0  0
 15 24  1  0  0  0  0
 18 25  2  0  0  0  0
 19 25  2  0  0  0  0
 21 25  1  0  0  0  0
  1 28  1  0  0  0  0
  2 29  1  0  0  0  0
  3 30  1  0  0  0  0
  4 31  1  0  0  0  0
  5 32  1  0  0  0  0
 12 33  1  0  0  0  0
M  END
> <Catalog ID>
Z740244072

> <MW>
484.629

> <MW (desalted)>
484.629

> <ClogP>
3.694

> <logS>
-6.785

> <HBD>
0

> <HBA>
4

> <TPSA>
82.56

> <RotBonds>
4

> <ROCS_ShapeQuery>
A71EV2A-x0451_0A_A71EV2A-x0310_0A_A71EV2A-x0416_0A_peptide

> <ROCS_TanimotoCombo>
0.521 

> <ROCS_ShapeTanimoto>
0.384 

> <ROCS_ColorTanimoto>
0.137 

> <ROCS_RefTversky>
0.338 

> <ROCS_RefColorTversky>
0.157 

> <ROCS_RefTverskyCombo>
0.495 

> <ROCS_FitTversky>
1.548 

> <ROCS_FitColorTversky>
0.520 

> <ROCS_FitTverskyCombo>
2.069 

> <ROCS_ColorScore>
-4.782

> <ROCS_Overlap>
2350.714

> <ROCS_Rank>
406                 

$$$$
untitled-dbase-3328_7490
  -OEChem-11132309573D

 50 52  0     1  0  0  0  0  0999 V2000
    8.5872    9.5568   23.3756 C   0  0  0  0  0  0  0  0  0  0  0  0
   10.2653   17.1624   20.0130 C   0  0  0  0  0  0  0  0  0  0  0  0
    7.4283   10.2136   23.7893 C   0  0  0  0  0  0  0  0  0  0  0  0
   10.1350   16.4154   21.1837 C   0  0  0  0  0  0  0  0  0  0  0  0
    9.8037   10.2389   23.3488 C   0  0  0  0  0  0  0  0  0  0  0  0
   11.2434   16.8267   19.0768 C   0  0  0  0  0  0  0  0  0  0  0  0
    8.7022   12.2346   24.1494 C   0  0  0  0  0  0  0  0  0  0  0  0
   11.9608   14.9972   20.4822 C   0  0  0  0  0  0  0  0  0  0  0  0
    7.4858   11.5525   24.1762 C   0  0  0  0  0  0  0  0  0  0  0  0
   10.9827   15.3328   21.4183 C   0  0  0  0  0  0  0  0  0  0  0  0
    9.8612   11.5778   23.7357 C   0  0  0  0  0  0  0  0  0  0  0  0
   12.0911   15.7441   19.3114 C   0  0  0  0  0  0  0  0  0  0  0  0
    6.2513   12.2515   24.6173 C   0  0  0  0  0  0  0  0  0  0  0  0
   10.8425   14.5360   22.6643 C   0  0  0  0  0  0  0  0  0  0  0  0
    5.4264   12.2164   29.2375 C   0  0  0  0  0  0  0  0  0  0  0  0
    5.9129   13.3770   28.4065 C   0  0  0  0  0  0  0  0  0  0  0  0
    4.8918   11.2757   28.1786 C   0  0  0  0  0  0  0  0  0  0  0  0
    4.8459   13.4448   27.3278 C   0  0  1  0  0  0  0  0  0  0  0  0
   11.1619   12.3073   23.7070 C   0  0  0  0  0  0  0  0  0  0  0  0
    5.3321   14.0689   26.0343 C   0  0  0  0  0  0  0  0  0  0  0  0
   11.2571   13.2132   22.5906 N   0  0  0  0  0  0  0  0  0  0  0  0
    6.4227   13.3158   25.5030 N   0  0  0  0  0  0  0  0  0  0  0  0
    5.1613   11.8588   24.2098 O   0  0  0  0  0  0  0  0  0  0  0  0
   10.3617   15.0643   23.6635 O   0  0  0  0  0  0  0  0  0  0  0  0
   13.6551   13.9285   18.3327 O   0  0  0  0  0  0  0  0  0  0  0  0
   12.8996   15.8539   16.8547 O   0  0  0  0  0  0  0  0  0  0  0  0
    4.4305   12.0894   27.0898 O   0  0  0  0  0  0  0  0  0  0  0  0
   14.6315   16.1304   18.5157 F   0  0  0  0  0  0  0  0  0  0  0  0
   13.3152   15.3248   18.1392 S   0  0  0  0  0  0  0  0  0  0  0  0
    8.5423    8.5146   23.0732 H   0  0  0  0  0  0  0  0  0  0  0  0
    9.6055   18.0058   19.8305 H   0  0  0  0  0  0  0  0  0  0  0  0
    6.4858    9.6723   23.8067 H   0  0  0  0  0  0  0  0  0  0  0  0
    9.3692   16.6863   21.9058 H   0  0  0  0  0  0  0  0  0  0  0  0
   10.7018    9.7190   23.0257 H   0  0  0  0  0  0  0  0  0  0  0  0
   11.3370   17.4155   18.1682 H   0  0  0  0  0  0  0  0  0  0  0  0
    8.7486   13.2790   24.4497 H   0  0  0  0  0  0  0  0  0  0  0  0
   12.6222   14.1531   20.6647 H   0  0  0  0  0  0  0  0  0  0  0  0
    6.2032   11.7630   29.8587 H   0  0  0  0  0  0  0  0  0  0  0  0
    4.6111   12.5441   29.8933 H   0  0  0  0  0  0  0  0  0  0  0  0
    6.0054   14.3080   28.9724 H   0  0  0  0  0  0  0  0  0  0  0  0
    6.8930   13.1363   27.9771 H   0  0  0  0  0  0  0  0  0  0  0  0
    5.6822   10.6225   27.7938 H   0  0  0  0  0  0  0  0  0  0  0  0
    4.0720   10.6522   28.5462 H   0  0  0  0  0  0  0  0  0  0  0  0
    3.9694   13.9919   27.6953 H   0  0  0  0  0  0  0  0  0  0  0  0
   11.3056   12.8966   24.6234 H   0  0  0  0  0  0  0  0  0  0  0  0
   12.0112   11.6138   23.6394 H   0  0  0  0  0  0  0  0  0  0  0  0
    4.4974   14.0707   25.3303 H   0  0  0  0  0  0  0  0  0  0  0  0
    5.6518   15.0893   26.2558 H   0  0  0  0  0  0  0  0  0  0  0  0
   11.5867   12.8316   21.7077 H   0  0  0  0  0  0  0  0  0  0  0  0
    7.3639   13.5338   25.8387 H   0  0  0  0  0  0  0  0  0  0  0  0
  1  3  1  0  0  0  0
  1  5  2  0  0  0  0
  2  4  1  0  0  0  0
  2  6  2  0  0  0  0
  3  9  2  0  0  0  0
  4 10  2  0  0  0  0
  5 11  1  0  0  0  0
  6 12  1  0  0  0  0
  7  9  1  0  0  0  0
  7 11  2  0  0  0  0
  8 10  1  0  0  0  0
  8 12  2  0  0  0  0
  9 13  1  0  0  0  0
 10 14  1  0  0  0  0
 11 19  1  0  0  0  0
 12 29  1  0  0  0  0
 13 22  1  0  0  0  0
 13 23  2  0  0  0  0
 14 21  1  0  0  0  0
 14 24  2  0  0  0  0
 15 16  1  0  0  0  0
 15 17  1  0  0  0  0
 16 18  1  0  0  0  0
 17 27  1  0  0  0  0
 18 20  1  0  0  0  0
 18 27  1  0  0  0  0
 19 21  1  0  0  0  0
 20 22  1  0  0  0  0
 25 29  2  0  0  0  0
 26 29  2  0  0  0  0
 28 29  1  0  0  0  0
  1 30  1  0  0  0  0
  2 31  1  0  0  0  0
  3 32  1  0  0  0  0
  4 33  1  0  0  0  0
  5 34  1  0  0  0  0
  6 35  1  0  0  0  0
  7 36  1  0  0  0  0
  8 37  1  0  0  0  0
 15 38  1  0  0  0  0
 15 39  1  0  0  0  0
 16 40  1  0  0  0  0
 16 41  1  0  0  0  0
 17 42  1  0  0  0  0
 17 43  1  0  0  0  0
 18 44  1  0  0  0  0
 19 45  1  0  0  0  0
 19 46  1  0  0  0  0
 20 47  1  0  0  0  0
 20 48  1  0  0  0  0
 21 49  1  0  0  0  0
 22 50  1  0  0  0  0
M  END
> <Catalog ID>
Z2768276635

> <MW>
420.455

> <MW (desalted)>
420.455

> <ClogP>
2.863

> <logS>
-4.539

> <HBD>
2

> <HBA>
5

> <TPSA>
101.57

> <RotBonds>
7

> <ROCS_ShapeQuery>
A71EV2A-x0451_0A_A71EV2A-x0310_0A_A71EV2A-x0416_0A_peptide

> <ROCS_TanimotoCombo>
0.521 

> <ROCS_ShapeTanimoto>
0.337 

> <ROCS_ColorTanimoto>
0.184 

> <ROCS_RefTversky>
0.309 

> <ROCS_RefColorTversky>
0.202 

> <ROCS_RefTverskyCombo>
0.511 

> <ROCS_FitTversky>
1.362 

> <ROCS_FitColorTversky>
0.672 

> <ROCS_FitTverskyCombo>
2.034 

> <ROCS_ColorScore>
-6.176

> <ROCS_Overlap>
2150.042

> <ROCS_Rank>
407                 

$$$$
untitled-dbase-3553_34
  -OEChem-11132309573D

 51 54  0     0  0  0  0  0  0999 V2000
    5.9296   13.0916   26.0062 C   0  0  0  0  0  0  0  0  0  0  0  0
    8.0009    7.6920   24.5093 C   0  0  0  0  0  0  0  0  0  0  0  0
    9.1166    7.8545   23.6661 C   0  0  0  0  0  0  0  0  0  0  0  0
    7.3128    8.8009   25.0152 C   0  0  0  0  0  0  0  0  0  0  0  0
    9.5655    9.1278   23.3127 C   0  0  0  0  0  0  0  0  0  0  0  0
   14.2637   15.9476   20.9773 C   0  0  0  0  0  0  0  0  0  0  0  0
   13.2260   16.9101   22.9353 C   0  0  0  0  0  0  0  0  0  0  0  0
   13.4271   14.8363   21.0802 C   0  0  0  0  0  0  0  0  0  0  0  0
   12.3893   15.7988   23.0382 C   0  0  0  0  0  0  0  0  0  0  0  0
    7.7628   10.0592   24.6612 C   0  0  0  0  0  0  0  0  0  0  0  0
    8.8670   10.2012   23.8270 C   0  0  0  0  0  0  0  0  0  0  0  0
   14.1632   16.9845   21.9049 C   0  0  0  0  0  0  0  0  0  0  0  0
   12.4898   14.7619   22.1106 C   0  0  0  0  0  0  0  0  0  0  0  0
    7.3294   11.4211   24.9718 C   0  0  0  0  0  0  0  0  0  0  0  0
    9.0301   11.6400   23.6875 C   0  0  0  0  0  0  0  0  0  0  0  0
    6.2907   11.7430   25.7499 C   0  0  0  0  0  0  0  0  0  0  0  0
    5.5171   10.6353   26.3449 C   0  0  0  0  0  0  0  0  0  0  0  0
   10.6513   13.3908   23.1733 C   0  0  0  0  0  0  0  0  0  0  0  0
    5.2100    9.6419   29.8655 C   0  0  0  0  0  0  0  0  0  0  0  0
    5.4902   11.1301   30.0232 C   0  0  0  0  0  0  0  0  0  0  0  0
    4.7350    9.5405   28.4247 C   0  0  0  0  0  0  0  0  0  0  0  0
    6.0830   11.5125   28.6739 C   0  0  0  0  0  0  0  0  0  0  0  0
   15.0579   18.1726   21.7949 C   0  0  0  0  0  0  0  0  0  0  0  0
    5.6325   14.1934   26.2170 N   0  0  0  0  0  0  0  0  0  0  0  0
    8.1521   12.3442   24.3413 N   0  0  0  0  0  0  0  0  0  0  0  0
    5.4638   10.5893   27.7242 N   0  0  0  0  0  0  0  0  0  0  0  0
   11.6411   13.6353   22.2150 N   0  0  0  0  0  0  0  0  0  0  0  0
   10.0345   12.1571   22.9245 N   0  0  0  0  0  0  0  0  0  0  0  0
    4.9732    9.8233   25.5970 O   0  0  0  0  0  0  0  0  0  0  0  0
   10.3435   14.1273   24.1078 O   0  0  0  0  0  0  0  0  0  0  0  0
    7.6702    6.6900   24.7698 H   0  0  0  0  0  0  0  0  0  0  0  0
    9.6322    6.9759   23.2868 H   0  0  0  0  0  0  0  0  0  0  0  0
    6.4545    8.6618   25.6629 H   0  0  0  0  0  0  0  0  0  0  0  0
   10.4237    9.2529   22.6635 H   0  0  0  0  0  0  0  0  0  0  0  0
   14.9926   15.9962   20.1726 H   0  0  0  0  0  0  0  0  0  0  0  0
   13.1414   17.7131   23.6628 H   0  0  0  0  0  0  0  0  0  0  0  0
   13.5138   14.0342   20.3515 H   0  0  0  0  0  0  0  0  0  0  0  0
   11.6631   15.7506   23.8457 H   0  0  0  0  0  0  0  0  0  0  0  0
    6.1323    9.0655   30.0032 H   0  0  0  0  0  0  0  0  0  0  0  0
    4.4641    9.2813   30.5790 H   0  0  0  0  0  0  0  0  0  0  0  0
    4.5540   11.6750   30.1933 H   0  0  0  0  0  0  0  0  0  0  0  0
    6.1702   11.3407   30.8532 H   0  0  0  0  0  0  0  0  0  0  0  0
    4.9296    8.5618   27.9761 H   0  0  0  0  0  0  0  0  0  0  0  0
    3.6657    9.7633   28.3379 H   0  0  0  0  0  0  0  0  0  0  0  0
    5.8703   12.5516   28.4068 H   0  0  0  0  0  0  0  0  0  0  0  0
    7.1653   11.3453   28.6484 H   0  0  0  0  0  0  0  0  0  0  0  0
   14.5929   18.9443   21.1691 H   0  0  0  0  0  0  0  0  0  0  0  0
   15.2689   18.6053   22.7814 H   0  0  0  0  0  0  0  0  0  0  0  0
   16.0260   17.9029   21.3529 H   0  0  0  0  0  0  0  0  0  0  0  0
   11.7653   12.9154   21.5075 H   0  0  0  0  0  0  0  0  0  0  0  0
   10.3449   11.6042   22.1308 H   0  0  0  0  0  0  0  0  0  0  0  0
  1 16  1  0  0  0  0
  1 24  3  0  0  0  0
  2  3  1  0  0  0  0
  2  4  2  0  0  0  0
  3  5  2  0  0  0  0
  4 10  1  0  0  0  0
  5 11  1  0  0  0  0
  6  8  2  0  0  0  0
  6 12  1  0  0  0  0
  7  9  1  0  0  0  0
  7 12  2  0  0  0  0
  8 13  1  0  0  0  0
  9 13  2  0  0  0  0
 10 11  2  0  0  0  0
 10 14  1  0  0  0  0
 11 15  1  0  0  0  0
 12 23  1  0  0  0  0
 13 27  1  0  0  0  0
 14 16  2  0  0  0  0
 14 25  1  4  0  0  0
 15 25  2  0  0  0  0
 15 28  1  0  0  0  0
 16 17  1  0  0  0  0
 17 26  1  0  0  0  0
 17 29  2  0  0  0  0
 18 27  1  0  0  0  0
 18 28  1  0  0  0  0
 18 30  2  0  0  0  0
 19 20  1  0  0  0  0
 19 21  1  0  0  0  0
 20 22  1  0  0  0  0
 21 26  1  0  0  0  0
 22 26  1  0  0  0  0
  2 31  1  0  0  0  0
  3 32  1  0  0  0  0
  4 33  1  0  0  0  0
  5 34  1  0  0  0  0
  6 35  1  0  0  0  0
  7 36  1  0  0  0  0
  8 37  1  0  0  0  0
  9 38  1  0  0  0  0
 19 39  1  0  0  0  0
 19 40  1  0  0  0  0
 20 41  1  0  0  0  0
 20 42  1  0  0  0  0
 21 43  1  0  0  0  0
 21 44  1  0  0  0  0
 22 45  1  0  0  0  0
 22 46  1  0  0  0  0
 23 47  1  0  0  0  0
 23 48  1  0  0  0  0
 23 49  1  0  0  0  0
 27 50  1  0  0  0  0
 28 51  1  0  0  0  0
M  END
> <Catalog ID>
Z56336012

> <MW>
399.445

> <MW (desalted)>
399.445

> <ClogP>
3.144

> <logS>
-5.5

> <HBD>
2

> <HBA>
4

> <TPSA>
97.59

> <RotBonds>
2

> <ROCS_ShapeQuery>
A71EV2A-x0451_0A_A71EV2A-x0310_0A_A71EV2A-x0416_0A_peptide

> <ROCS_TanimotoCombo>
0.521 

> <ROCS_ShapeTanimoto>
0.364 

> <ROCS_ColorTanimoto>
0.156 

> <ROCS_RefTversky>
0.331 

> <ROCS_RefColorTversky>
0.180 

> <ROCS_RefTverskyCombo>
0.512 

> <ROCS_FitTversky>
1.373 

> <ROCS_FitColorTversky>
0.542 

> <ROCS_FitTverskyCombo>
1.916 

> <ROCS_ColorScore>
-5.510

> <ROCS_Overlap>
2308.773

> <ROCS_Rank>
408                 

$$$$
untitled-dbase-11019_602
  -OEChem-11132309573D

 44 45  0     0  0  0  0  0  0999 V2000
   14.2484   16.3747   18.5191 C   0  0  0  0  0  0  0  0  0  0  0  0
   13.2671   15.4456   18.1735 C   0  0  0  0  0  0  0  0  0  0  0  0
   14.4089   16.7570   19.8509 C   0  0  0  0  0  0  0  0  0  0  0  0
    9.3353   10.2823   23.5228 C   0  0  0  0  0  0  0  0  0  0  0  0
    8.2523    9.6005   24.0776 C   0  0  0  0  0  0  0  0  0  0  0  0
    8.3511   12.3864   24.1872 C   0  0  0  0  0  0  0  0  0  0  0  0
   12.4462   14.8988   19.1598 C   0  0  0  0  0  0  0  0  0  0  0  0
   13.5880   16.2102   20.8372 C   0  0  0  0  0  0  0  0  0  0  0  0
    9.3847   11.6753   23.5777 C   0  0  0  0  0  0  0  0  0  0  0  0
    7.2680   11.7046   24.7419 C   0  0  0  0  0  0  0  0  0  0  0  0
   12.6066   15.2811   20.4917 C   0  0  0  0  0  0  0  0  0  0  0  0
    7.2186   10.3116   24.6871 C   0  0  0  0  0  0  0  0  0  0  0  0
    4.8880   14.8341   27.6306 C   0  0  0  0  0  0  0  0  0  0  0  0
    4.9797   14.0813   26.5299 C   0  0  0  0  0  0  0  0  0  0  0  0
    6.3114   13.6513   26.0132 C   0  0  0  0  0  0  0  0  0  0  0  0
   11.0046   13.5726   23.4315 C   0  0  0  0  0  0  0  0  0  0  0  0
   12.1725   13.9949   22.5896 C   0  0  0  0  0  0  0  0  0  0  0  0
   11.4038   13.9058   18.7585 C   0  0  0  0  0  0  0  0  0  0  0  0
   13.7848   16.6396   22.2550 C   0  0  0  0  0  0  0  0  0  0  0  0
   10.4826   12.3662   23.0152 N   0  0  0  0  0  0  0  0  0  0  0  0
    6.2353   12.4181   25.3515 N   0  0  0  0  0  0  0  0  0  0  0  0
   11.7830   14.7330   21.4811 N   0  0  0  0  0  0  0  0  0  0  0  0
    7.3109   14.3398   26.1819 O   0  0  0  0  0  0  0  0  0  0  0  0
   10.6724   14.3285   24.3292 O   0  0  0  0  0  0  0  0  0  0  0  0
   13.2770   13.6371   22.9632 O   0  0  0  0  0  0  0  0  0  0  0  0
    6.1827    9.6456   25.2165 F   0  0  0  0  0  0  0  0  0  0  0  0
   14.8879   16.8004   17.7512 H   0  0  0  0  0  0  0  0  0  0  0  0
   13.1497   15.1547   17.1330 H   0  0  0  0  0  0  0  0  0  0  0  0
   15.1769   17.4812   20.1095 H   0  0  0  0  0  0  0  0  0  0  0  0
   10.1351    9.7175   23.0503 H   0  0  0  0  0  0  0  0  0  0  0  0
    8.2136    8.5160   24.0356 H   0  0  0  0  0  0  0  0  0  0  0  0
    8.3901   13.4732   24.2296 H   0  0  0  0  0  0  0  0  0  0  0  0
    3.9382   15.1654   28.0353 H   0  0  0  0  0  0  0  0  0  0  0  0
    5.7873   15.1379   28.1562 H   0  0  0  0  0  0  0  0  0  0  0  0
    4.0812   13.7769   26.0040 H   0  0  0  0  0  0  0  0  0  0  0  0
   11.8141   12.8904   18.7947 H   0  0  0  0  0  0  0  0  0  0  0  0
   10.5333   13.9560   19.4233 H   0  0  0  0  0  0  0  0  0  0  0  0
   11.0420   14.1016   17.7419 H   0  0  0  0  0  0  0  0  0  0  0  0
   13.1604   17.5124   22.4768 H   0  0  0  0  0  0  0  0  0  0  0  0
   13.5222   15.8348   22.9520 H   0  0  0  0  0  0  0  0  0  0  0  0
   14.8326   16.9004   22.4473 H   0  0  0  0  0  0  0  0  0  0  0  0
   10.9277   11.9129   22.2198 H   0  0  0  0  0  0  0  0  0  0  0  0
    5.3043   11.9863   25.3100 H   0  0  0  0  0  0  0  0  0  0  0  0
   10.7770   14.8960   21.3778 H   0  0  0  0  0  0  0  0  0  0  0  0
  1  2  2  0  0  0  0
  1  3  1  0  0  0  0
  2  7  1  0  0  0  0
  3  8  2  0  0  0  0
  4  5  2  0  0  0  0
  4  9  1  0  0  0  0
  5 12  1  0  0  0  0
  6  9  2  0  0  0  0
  6 10  1  0  0  0  0
  7 11  2  0  0  0  0
  7 18  1  0  0  0  0
  8 11  1  0  0  0  0
  8 19  1  0  0  0  0
  9 20  1  0  0  0  0
 10 12  2  0  0  0  0
 10 21  1  0  0  0  0
 11 22  1  0  0  0  0
 12 26  1  0  0  0  0
 13 14  2  0  0  0  0
 14 15  1  0  0  0  0
 15 21  1  0  0  0  0
 15 23  2  0  0  0  0
 16 17  1  0  0  0  0
 16 20  1  0  0  0  0
 16 24  2  0  0  0  0
 17 22  1  0  0  0  0
 17 25  2  0  0  0  0
  1 27  1  0  0  0  0
  2 28  1  0  0  0  0
  3 29  1  0  0  0  0
  4 30  1  0  0  0  0
  5 31  1  0  0  0  0
  6 32  1  0  0  0  0
 13 33  1  0  0  0  0
 13 34  1  0  0  0  0
 14 35  1  0  0  0  0
 18 36  1  0  0  0  0
 18 37  1  0  0  0  0
 18 38  1  0  0  0  0
 19 39  1  0  0  0  0
 19 40  1  0  0  0  0
 19 41  1  0  0  0  0
 20 42  1  0  0  0  0
 21 43  1  0  0  0  0
 22 44  1  0  0  0  0
M  END
> <Catalog ID>
Z1440224191

> <MW>
355.363

> <MW (desalted)>
355.363

> <ClogP>
1.543

> <logS>
-5.351

> <HBD>
3

> <HBA>
3

> <TPSA>
87.3

> <RotBonds>
5

> <ROCS_ShapeQuery>
A71EV2A-x0451_0A_A71EV2A-x0310_0A_A71EV2A-x0416_0A_peptide

> <ROCS_TanimotoCombo>
0.521 

> <ROCS_ShapeTanimoto>
0.354 

> <ROCS_ColorTanimoto>
0.166 

> <ROCS_RefTversky>
0.317 

> <ROCS_RefColorTversky>
0.190 

> <ROCS_RefTverskyCombo>
0.507 

> <ROCS_FitTversky>
1.496 

> <ROCS_FitColorTversky>
0.572 

> <ROCS_FitTverskyCombo>
2.069 

> <ROCS_ColorScore>
-5.801

> <ROCS_Overlap>
2205.471

> <ROCS_Rank>
409                 

$$$$
untitled-dbase-644_174
  -OEChem-11132309573D

 35 36  0     0  0  0  0  0  0999 V2000
   13.3554   13.7394   22.6749 C   0  0  0  0  0  0  0  0  0  0  0  0
    7.2882   10.1157   24.7857 C   0  0  0  0  0  0  0  0  0  0  0  0
   14.3793   16.8673   19.8580 C   0  0  0  0  0  0  0  0  0  0  0  0
    8.2958    9.4319   24.1054 C   0  0  0  0  0  0  0  0  0  0  0  0
   14.2140   16.5634   18.5068 C   0  0  0  0  0  0  0  0  0  0  0  0
   12.3505   15.1277   19.0577 C   0  0  0  0  0  0  0  0  0  0  0  0
    8.3356   12.2189   24.2227 C   0  0  0  0  0  0  0  0  0  0  0  0
   12.5159   15.4316   20.4090 C   0  0  0  0  0  0  0  0  0  0  0  0
    7.3081   11.5093   24.8443 C   0  0  0  0  0  0  0  0  0  0  0  0
    9.3432   11.5350   23.5425 C   0  0  0  0  0  0  0  0  0  0  0  0
   13.5303   16.3014   20.8092 C   0  0  0  0  0  0  0  0  0  0  0  0
    9.3232   10.1415   23.4838 C   0  0  0  0  0  0  0  0  0  0  0  0
   13.1996   15.6936   18.1066 C   0  0  0  0  0  0  0  0  0  0  0  0
   11.6168   14.8279   21.3834 C   0  0  0  0  0  0  0  0  0  0  0  0
   11.9819   14.0413   22.4262 C   0  0  0  0  0  0  0  0  0  0  0  0
   10.8775   13.5201   23.3207 C   0  0  0  0  0  0  0  0  0  0  0  0
    6.2305   12.2401   25.5714 C   0  0  0  0  0  0  0  0  0  0  0  0
   14.4703   13.4920   22.8816 N   0  0  0  0  0  0  0  0  0  0  0  0
   10.3738   12.2866   22.9226 N   0  0  0  0  0  0  0  0  0  0  0  0
   10.5041   14.1736   24.2916 O   0  0  0  0  0  0  0  0  0  0  0  0
   13.7150   16.6143   22.1235 O   0  0  0  0  0  0  0  0  0  0  0  0
    5.2925   11.4189   26.1298 F   0  0  0  0  0  0  0  0  0  0  0  0
    6.6907   13.0079   26.6032 F   0  0  0  0  0  0  0  0  0  0  0  0
    5.5358   13.0923   24.7626 F   0  0  0  0  0  0  0  0  0  0  0  0
   10.5509    9.2544   22.6526 Cl  0  0  0  0  0  0  0  0  0  0  0  0
   12.9762   15.2827   16.2754 Br  0  0  0  0  0  0  0  0  0  0  0  0
    6.4918    9.5544   25.2671 H   0  0  0  0  0  0  0  0  0  0  0  0
   15.1718   17.5456   20.1632 H   0  0  0  0  0  0  0  0  0  0  0  0
    8.2646    8.3458   24.0683 H   0  0  0  0  0  0  0  0  0  0  0  0
   14.8840   17.0132   17.7788 H   0  0  0  0  0  0  0  0  0  0  0  0
   11.5588   14.4492   18.7455 H   0  0  0  0  0  0  0  0  0  0  0  0
    8.3482   13.3058   24.2711 H   0  0  0  0  0  0  0  0  0  0  0  0
   10.5633   15.0756   21.2266 H   0  0  0  0  0  0  0  0  0  0  0  0
   10.7922   11.8766   22.0919 H   0  0  0  0  0  0  0  0  0  0  0  0
   14.4603   17.2272   22.2192 H   0  0  0  0  0  0  0  0  0  0  0  0
  1 15  1  0  0  0  0
  1 18  3  0  0  0  0
  2  4  2  0  0  0  0
  2  9  1  0  0  0  0
  3  5  2  0  0  0  0
  3 11  1  0  0  0  0
  4 12  1  0  0  0  0
  5 13  1  0  0  0  0
  6  8  1  0  0  0  0
  6 13  2  0  0  0  0
  7  9  2  0  0  0  0
  7 10  1  0  0  0  0
  8 11  2  0  0  0  0
  8 14  1  4  0  0  0
  9 17  1  0  0  0  0
 10 12  2  0  0  0  0
 10 19  1  0  0  0  0
 11 21  1  0  0  0  0
 12 25  1  0  0  0  0
 13 26  1  0  0  0  0
 14 15  2  0  0  0  0
 15 16  1  0  0  0  0
 16 19  1  0  0  0  0
 16 20  2  0  0  0  0
 17 22  1  0  0  0  0
 17 23  1  0  0  0  0
 17 24  1  0  0  0  0
  2 27  1  0  0  0  0
  3 28  1  0  0  0  0
  4 29  1  0  0  0  0
  5 30  1  0  0  0  0
  6 31  1  0  0  0  0
  7 32  1  0  0  0  0
 14 33  1  0  0  0  0
 19 34  1  0  0  0  0
 21 35  1  0  0  0  0
M  END
> <Catalog ID>
Z54317847

> <MW>
445.618

> <MW (desalted)>
445.618

> <ClogP>
4.767

> <logS>
-6.54

> <HBD>
2

> <HBA>
3

> <TPSA>
73.12

> <RotBonds>
4

> <ROCS_ShapeQuery>
A71EV2A-x0451_0A_A71EV2A-x0310_0A_A71EV2A-x0416_0A_peptide

> <ROCS_TanimotoCombo>
0.521 

> <ROCS_ShapeTanimoto>
0.367 

> <ROCS_ColorTanimoto>
0.153 

> <ROCS_RefTversky>
0.325 

> <ROCS_RefColorTversky>
0.173 

> <ROCS_RefTverskyCombo>
0.498 

> <ROCS_FitTversky>
1.551 

> <ROCS_FitColorTversky>
0.574 

> <ROCS_FitTverskyCombo>
2.125 

> <ROCS_ColorScore>
-5.276

> <ROCS_Overlap>
2259.529

> <ROCS_Rank>
410                 

$$$$
untitled-dbase-11476_1572
  -OEChem-11132309573D

 38 39  0     0  0  0  0  0  0999 V2000
   13.3620   13.7126   22.5804 C   0  0  0  0  0  0  0  0  0  0  0  0
   12.2889   15.1525   18.9971 C   0  0  0  0  0  0  0  0  0  0  0  0
   13.5028   16.2842   20.7529 C   0  0  0  0  0  0  0  0  0  0  0  0
    7.3213   10.1309   24.8340 C   0  0  0  0  0  0  0  0  0  0  0  0
   13.1287   15.7294   18.0446 C   0  0  0  0  0  0  0  0  0  0  0  0
   14.3427   16.8611   19.8004 C   0  0  0  0  0  0  0  0  0  0  0  0
    8.3027    9.4427   24.1207 C   0  0  0  0  0  0  0  0  0  0  0  0
    8.3729   12.2282   24.2573 C   0  0  0  0  0  0  0  0  0  0  0  0
   12.4758   15.4299   20.3513 C   0  0  0  0  0  0  0  0  0  0  0  0
    7.3564   11.5237   24.9022 C   0  0  0  0  0  0  0  0  0  0  0  0
    9.3543   11.5400   23.5440 C   0  0  0  0  0  0  0  0  0  0  0  0
   14.1557   16.5836   18.4462 C   0  0  0  0  0  0  0  0  0  0  0  0
    9.3192   10.1472   23.4758 C   0  0  0  0  0  0  0  0  0  0  0  0
   11.6000   14.8284   21.3445 C   0  0  0  0  0  0  0  0  0  0  0  0
   11.9850   14.0295   22.3725 C   0  0  0  0  0  0  0  0  0  0  0  0
   10.9010   13.5120   23.2938 C   0  0  0  0  0  0  0  0  0  0  0  0
   15.7306   16.2670   16.6922 C   0  0  0  0  0  0  0  0  0  0  0  0
    6.3067   12.2592   25.6646 C   0  0  0  0  0  0  0  0  0  0  0  0
   14.4797   13.4531   22.7539 N   0  0  0  0  0  0  0  0  0  0  0  0
   10.3744   12.2864   22.9010 N   0  0  0  0  0  0  0  0  0  0  0  0
   10.5614   14.1617   24.2796 O   0  0  0  0  0  0  0  0  0  0  0  0
   14.9753   17.1466   17.5167 O   0  0  0  0  0  0  0  0  0  0  0  0
   15.9762   15.1414   17.4112 F   0  0  0  0  0  0  0  0  0  0  0  0
   14.9732   15.8902   15.6328 F   0  0  0  0  0  0  0  0  0  0  0  0
    5.3767   11.4428   26.2430 F   0  0  0  0  0  0  0  0  0  0  0  0
    6.8029   13.0148   26.6887 F   0  0  0  0  0  0  0  0  0  0  0  0
    5.5979   13.1241   24.8818 F   0  0  0  0  0  0  0  0  0  0  0  0
   10.5144    9.2548   22.6040 Cl  0  0  0  0  0  0  0  0  0  0  0  0
   11.4928   14.4886   18.6686 H   0  0  0  0  0  0  0  0  0  0  0  0
   13.6611   16.5100   21.8048 H   0  0  0  0  0  0  0  0  0  0  0  0
    6.5333    9.5735   25.3334 H   0  0  0  0  0  0  0  0  0  0  0  0
   12.9782   15.5096   16.9912 H   0  0  0  0  0  0  0  0  0  0  0  0
   15.1410   17.5257   20.1193 H   0  0  0  0  0  0  0  0  0  0  0  0
    8.2599    8.3573   24.0766 H   0  0  0  0  0  0  0  0  0  0  0  0
    8.3974   13.3145   24.3133 H   0  0  0  0  0  0  0  0  0  0  0  0
   10.5435   15.0862   21.2208 H   0  0  0  0  0  0  0  0  0  0  0  0
   16.6872   16.6894   16.3665 H   0  0  0  0  0  0  0  0  0  0  0  0
   10.7655   11.8788   22.0559 H   0  0  0  0  0  0  0  0  0  0  0  0
  1 15  1  0  0  0  0
  1 19  3  0  0  0  0
  2  5  2  0  0  0  0
  2  9  1  0  0  0  0
  3  6  1  0  0  0  0
  3  9  2  0  0  0  0
  4  7  2  0  0  0  0
  4 10  1  0  0  0  0
  5 12  1  0  0  0  0
  6 12  2  0  0  0  0
  7 13  1  0  0  0  0
  8 10  2  0  0  0  0
  8 11  1  0  0  0  0
  9 14  1  4  0  0  0
 10 18  1  0  0  0  0
 11 13  2  0  0  0  0
 11 20  1  0  0  0  0
 12 22  1  0  0  0  0
 13 28  1  0  0  0  0
 14 15  2  0  0  0  0
 15 16  1  0  0  0  0
 16 20  1  0  0  0  0
 16 21  2  0  0  0  0
 17 22  1  0  0  0  0
 17 23  1  0  0  0  0
 17 24  1  0  0  0  0
 18 25  1  0  0  0  0
 18 26  1  0  0  0  0
 18 27  1  0  0  0  0
  2 29  1  0  0  0  0
  3 30  1  0  0  0  0
  4 31  1  0  0  0  0
  5 32  1  0  0  0  0
  6 33  1  0  0  0  0
  7 34  1  0  0  0  0
  8 35  1  0  0  0  0
 14 36  1  0  0  0  0
 17 37  1  0  0  0  0
 20 38  1  0  0  0  0
M  END
> <Catalog ID>
Z44308241

> <MW>
416.729

> <MW (desalted)>
416.729

> <ClogP>
4.639

> <logS>
-6.52

> <HBD>
1

> <HBA>
3

> <TPSA>
62.12

> <RotBonds>
6

> <ROCS_ShapeQuery>
A71EV2A-x0451_0A_A71EV2A-x0310_0A_A71EV2A-x0416_0A_peptide

> <ROCS_TanimotoCombo>
0.521 

> <ROCS_ShapeTanimoto>
0.359 

> <ROCS_ColorTanimoto>
0.161 

> <ROCS_RefTversky>
0.323 

> <ROCS_RefColorTversky>
0.172 

> <ROCS_RefTverskyCombo>
0.496 

> <ROCS_FitTversky>
1.447 

> <ROCS_FitColorTversky>
0.719 

> <ROCS_FitTverskyCombo>
2.166 

> <ROCS_ColorScore>
-5.238

> <ROCS_Overlap>
2250.244

> <ROCS_Rank>
411                 

$$$$
untitled-dbase-1609_11181
  -OEChem-11132309573D

 55 57  0     1  0  0  0  0  0999 V2000
    6.7941   10.5979   25.2478 C   0  0  0  0  0  0  0  0  0  0  0  0
    6.0339   11.6145   25.8225 C   0  0  0  0  0  0  0  0  0  0  0  0
    7.6503   13.2362   25.0671 C   0  0  0  0  0  0  0  0  0  0  0  0
    7.9887   10.8888   24.5677 C   0  0  0  0  0  0  0  0  0  0  0  0
    8.4354   12.2235   24.4841 C   0  0  0  0  0  0  0  0  0  0  0  0
    6.4612   12.9340   25.7308 C   0  0  0  0  0  0  0  0  0  0  0  0
   12.0855   17.5279   17.0938 C   0  0  0  0  0  0  0  0  0  0  0  0
   13.3846   17.2906   16.9005 C   0  0  0  0  0  0  0  0  0  0  0  0
   14.2925   17.3014   18.0648 C   0  0  0  0  0  0  0  0  0  0  0  0
   11.2589   14.8316   21.9109 C   0  0  0  0  0  0  0  0  0  0  0  0
    8.7861    9.7400   24.0015 C   0  0  0  0  0  0  0  0  0  0  0  0
    9.8371   10.1704   22.9842 C   0  0  0  0  0  0  0  0  0  0  0  0
   10.6213   11.3607   23.5160 C   0  0  0  0  0  0  0  0  0  0  0  0
   12.1869   14.8490   19.6104 C   0  0  0  0  0  0  0  0  0  0  0  0
   13.1620   16.3223   21.3994 C   0  0  0  0  0  0  0  0  0  0  0  0
   13.4295   15.1008   18.7625 C   0  0  0  0  0  0  0  0  0  0  0  0
   14.3813   16.5675   20.5103 C   0  0  0  0  0  0  0  0  0  0  0  0
   12.5101   14.9715   21.1002 C   0  0  0  0  0  0  0  0  0  0  0  0
    9.7167   12.5855   23.7466 C   0  0  1  0  0  0  0  0  0  0  0  0
    4.5159   13.5511   26.9517 C   0  0  0  0  0  0  0  0  0  0  0  0
    9.3807   13.2838   22.4199 C   0  0  0  0  0  0  0  0  0  0  0  0
   14.0466   16.3898   19.0890 N   0  0  0  0  0  0  0  0  0  0  0  0
   10.5848   13.6212   21.7450 N   0  0  0  0  0  0  0  0  0  0  0  0
   15.2120   18.1218   18.0617 O   0  0  0  0  0  0  0  0  0  0  0  0
   10.9098   15.7476   22.6461 O   0  0  0  0  0  0  0  0  0  0  0  0
   10.4648   13.5081   24.5483 O   0  0  0  0  0  0  0  0  0  0  0  0
    5.7207   13.9306   26.2880 O   0  0  0  0  0  0  0  0  0  0  0  0
    6.4506    9.5696   25.3331 H   0  0  0  0  0  0  0  0  0  0  0  0
    5.1111   11.3692   26.3409 H   0  0  0  0  0  0  0  0  0  0  0  0
    7.9665   14.2755   25.0019 H   0  0  0  0  0  0  0  0  0  0  0  0
   11.3698   17.5333   16.2785 H   0  0  0  0  0  0  0  0  0  0  0  0
   11.7109   17.7243   18.0928 H   0  0  0  0  0  0  0  0  0  0  0  0
   13.7956   17.0903   15.9196 H   0  0  0  0  0  0  0  0  0  0  0  0
    9.2803    9.2276   24.8368 H   0  0  0  0  0  0  0  0  0  0  0  0
    8.1128    9.0174   23.5246 H   0  0  0  0  0  0  0  0  0  0  0  0
   10.5144    9.3329   22.7817 H   0  0  0  0  0  0  0  0  0  0  0  0
    9.3573   10.4253   22.0322 H   0  0  0  0  0  0  0  0  0  0  0  0
   11.1149   11.0795   24.4570 H   0  0  0  0  0  0  0  0  0  0  0  0
   11.4358   11.6146   22.8259 H   0  0  0  0  0  0  0  0  0  0  0  0
   11.4075   15.5570   19.3286 H   0  0  0  0  0  0  0  0  0  0  0  0
   11.8149   13.8447   19.4015 H   0  0  0  0  0  0  0  0  0  0  0  0
   13.4802   16.3497   22.4452 H   0  0  0  0  0  0  0  0  0  0  0  0
   12.4431   17.1320   21.2544 H   0  0  0  0  0  0  0  0  0  0  0  0
   14.1451   14.2794   18.9076 H   0  0  0  0  0  0  0  0  0  0  0  0
   13.1793   15.1157   17.6911 H   0  0  0  0  0  0  0  0  0  0  0  0
   14.7423   17.5989   20.6267 H   0  0  0  0  0  0  0  0  0  0  0  0
   15.2084   15.9263   20.8261 H   0  0  0  0  0  0  0  0  0  0  0  0
   13.1713   14.1771   21.3983 H   0  0  0  0  0  0  0  0  0  0  0  0
    4.0227   14.4411   27.3502 H   0  0  0  0  0  0  0  0  0  0  0  0
    4.7489   12.8566   27.7628 H   0  0  0  0  0  0  0  0  0  0  0  0
    3.8538   13.0610   26.2340 H   0  0  0  0  0  0  0  0  0  0  0  0
    8.7907   12.5825   21.8373 H   0  0  0  0  0  0  0  0  0  0  0  0
    8.8113   14.1741   22.6698 H   0  0  0  0  0  0  0  0  0  0  0  0
   10.9831   12.9323   21.0958 H   0  0  0  0  0  0  0  0  0  0  0  0
   10.6524   13.0502   25.3797 H   0  0  0  0  0  0  0  0  0  0  0  0
  1  2  2  0  0  0  0
  1  4  1  0  0  0  0
  2  6  1  0  0  0  0
  3  5  1  0  0  0  0
  3  6  2  0  0  0  0
  4  5  2  0  0  0  0
  4 11  1  0  0  0  0
  5 19  1  0  0  0  0
  6 27  1  0  0  0  0
  7  8  2  0  0  0  0
  8  9  1  0  0  0  0
  9 22  1  0  0  0  0
  9 24  2  0  0  0  0
 10 18  1  0  0  0  0
 10 23  1  0  0  0  0
 10 25  2  0  0  0  0
 11 12  1  0  0  0  0
 12 13  1  0  0  0  0
 13 19  1  0  0  0  0
 14 16  1  0  0  0  0
 14 18  1  0  0  0  0
 15 17  1  0  0  0  0
 15 18  1  0  0  0  0
 16 22  1  0  0  0  0
 17 22  1  0  0  0  0
 19 21  1  0  0  0  0
 19 26  1  0  0  0  0
 20 27  1  0  0  0  0
 21 23  1  0  0  0  0
  1 28  1  0  0  0  0
  2 29  1  0  0  0  0
  3 30  1  0  0  0  0
  7 31  1  0  0  0  0
  7 32  1  0  0  0  0
  8 33  1  0  0  0  0
 11 34  1  0  0  0  0
 11 35  1  0  0  0  0
 12 36  1  0  0  0  0
 12 37  1  0  0  0  0
 13 38  1  0  0  0  0
 13 39  1  0  0  0  0
 14 40  1  0  0  0  0
 14 41  1  0  0  0  0
 15 42  1  0  0  0  0
 15 43  1  0  0  0  0
 16 44  1  0  0  0  0
 16 45  1  0  0  0  0
 17 46  1  0  0  0  0
 17 47  1  0  0  0  0
 18 48  1  0  0  0  0
 20 49  1  0  0  0  0
 20 50  1  0  0  0  0
 20 51  1  0  0  0  0
 21 52  1  0  0  0  0
 21 53  1  0  0  0  0
 23 54  1  0  0  0  0
 26 55  1  0  0  0  0
M  END
> <Catalog ID>
Z1566887723

> <MW>
372.458

> <MW (desalted)>
372.458

> <ClogP>
0.97

> <logS>
-3.605

> <HBD>
2

> <HBA>
4

> <TPSA>
78.87

> <RotBonds>
5

> <ROCS_ShapeQuery>
A71EV2A-x0451_0A_A71EV2A-x0310_0A_A71EV2A-x0416_0A_peptide

> <ROCS_TanimotoCombo>
0.521 

> <ROCS_ShapeTanimoto>
0.349 

> <ROCS_ColorTanimoto>
0.172 

> <ROCS_RefTversky>
0.315 

> <ROCS_RefColorTversky>
0.199 

> <ROCS_RefTverskyCombo>
0.514 

> <ROCS_FitTversky>
1.456 

> <ROCS_FitColorTversky>
0.551 

> <ROCS_FitTverskyCombo>
2.006 

> <ROCS_ColorScore>
-6.109

> <ROCS_Overlap>
2188.408

> <ROCS_Rank>
412                 

$$$$
untitled-dbase-5750_608
  -OEChem-11132309573D

 41 43  0     0  0  0  0  0  0999 V2000
   14.4018   16.5038   18.4346 C   0  0  0  0  0  0  0  0  0  0  0  0
   13.0773   16.9173   18.3273 C   0  0  0  0  0  0  0  0  0  0  0  0
   14.7774   15.6183   19.4453 C   0  0  0  0  0  0  0  0  0  0  0  0
   12.1233   16.4471   19.2301 C   0  0  0  0  0  0  0  0  0  0  0  0
   14.1907   14.2431   21.3862 C   0  0  0  0  0  0  0  0  0  0  0  0
   13.2367   13.7729   22.2891 C   0  0  0  0  0  0  0  0  0  0  0  0
    9.1908   10.3927   23.3097 C   0  0  0  0  0  0  0  0  0  0  0  0
    8.1954    9.6901   23.9886 C   0  0  0  0  0  0  0  0  0  0  0  0
    8.3823   12.4599   24.2636 C   0  0  0  0  0  0  0  0  0  0  0  0
   13.8304   15.1348   20.3628 C   0  0  0  0  0  0  0  0  0  0  0  0
   12.4835   15.5554   20.2536 C   0  0  0  0  0  0  0  0  0  0  0  0
   11.9122   14.1865   22.1818 C   0  0  0  0  0  0  0  0  0  0  0  0
    9.2843   11.7777   23.4472 C   0  0  0  0  0  0  0  0  0  0  0  0
    7.3868   11.7573   24.9425 C   0  0  0  0  0  0  0  0  0  0  0  0
   11.5366   15.0719   21.1712 C   0  0  0  0  0  0  0  0  0  0  0  0
    7.2934   10.3723   24.8050 C   0  0  0  0  0  0  0  0  0  0  0  0
    3.8436   12.6688   28.1701 C   0  0  0  0  0  0  0  0  0  0  0  0
    4.9471   13.0164   27.5007 C   0  0  0  0  0  0  0  0  0  0  0  0
   10.9369   13.6796   23.1378 C   0  0  0  0  0  0  0  0  0  0  0  0
    5.8360   11.9745   26.9094 C   0  0  0  0  0  0  0  0  0  0  0  0
   10.2961   12.4916   22.7569 N   0  0  0  0  0  0  0  0  0  0  0  0
    6.4858   12.4420   25.7589 N   0  0  0  0  0  0  0  0  0  0  0  0
   10.6810   14.2850   24.1864 O   0  0  0  0  0  0  0  0  0  0  0  0
    5.9392   10.8644   27.4178 O   0  0  0  0  0  0  0  0  0  0  0  0
   10.2279   15.4616   21.0886 O   0  0  0  0  0  0  0  0  0  0  0  0
    6.3407    9.6865   25.4524 F   0  0  0  0  0  0  0  0  0  0  0  0
   15.1439   16.8706   17.7317 H   0  0  0  0  0  0  0  0  0  0  0  0
   12.7857   17.6066   17.5402 H   0  0  0  0  0  0  0  0  0  0  0  0
   15.8186   15.3093   19.5104 H   0  0  0  0  0  0  0  0  0  0  0  0
   11.0976   16.7910   19.1171 H   0  0  0  0  0  0  0  0  0  0  0  0
   15.2203   13.9069   21.4891 H   0  0  0  0  0  0  0  0  0  0  0  0
   13.5413   13.0833   23.0724 H   0  0  0  0  0  0  0  0  0  0  0  0
    9.8882    9.8503   22.6761 H   0  0  0  0  0  0  0  0  0  0  0  0
    8.1225    8.6118   23.8823 H   0  0  0  0  0  0  0  0  0  0  0  0
    8.4556   13.5405   24.3704 H   0  0  0  0  0  0  0  0  0  0  0  0
    3.1742   13.3976   28.6133 H   0  0  0  0  0  0  0  0  0  0  0  0
    3.5881   11.6208   28.2875 H   0  0  0  0  0  0  0  0  0  0  0  0
    5.2031   14.0638   27.3827 H   0  0  0  0  0  0  0  0  0  0  0  0
   10.5958   12.0908   21.8715 H   0  0  0  0  0  0  0  0  0  0  0  0
    6.2725   13.4080   25.4826 H   0  0  0  0  0  0  0  0  0  0  0  0
    9.7134   15.0390   21.7914 H   0  0  0  0  0  0  0  0  0  0  0  0
  1  2  1  0  0  0  0
  1  3  2  0  0  0  0
  2  4  2  0  0  0  0
  3 10  1  0  0  0  0
  4 11  1  0  0  0  0
  5  6  1  0  0  0  0
  5 10  2  0  0  0  0
  6 12  2  0  0  0  0
  7  8  2  0  0  0  0
  7 13  1  0  0  0  0
  8 16  1  0  0  0  0
  9 13  2  0  0  0  0
  9 14  1  0  0  0  0
 10 11  1  0  0  0  0
 11 15  2  0  0  0  0
 12 15  1  0  0  0  0
 12 19  1  0  0  0  0
 13 21  1  0  0  0  0
 14 16  2  0  0  0  0
 14 22  1  0  0  0  0
 15 25  1  0  0  0  0
 16 26  1  0  0  0  0
 17 18  2  0  0  0  0
 18 20  1  0  0  0  0
 19 21  1  0  0  0  0
 19 23  2  0  0  0  0
 20 22  1  0  0  0  0
 20 24  2  0  0  0  0
  1 27  1  0  0  0  0
  2 28  1  0  0  0  0
  3 29  1  0  0  0  0
  4 30  1  0  0  0  0
  5 31  1  0  0  0  0
  6 32  1  0  0  0  0
  7 33  1  0  0  0  0
  8 34  1  0  0  0  0
  9 35  1  0  0  0  0
 17 36  1  0  0  0  0
 17 37  1  0  0  0  0
 18 38  1  0  0  0  0
 21 39  1  0  0  0  0
 22 40  1  0  0  0  0
 25 41  1  0  0  0  0
M  END
> <Catalog ID>
Z1571125167

> <MW>
350.343

> <MW (desalted)>
350.343

> <ClogP>
3.598

> <logS>
-6.071

> <HBD>
3

> <HBA>
3

> <TPSA>
78.43

> <RotBonds>
4

> <ROCS_ShapeQuery>
A71EV2A-x0451_0A_A71EV2A-x0310_0A_A71EV2A-x0416_0A_peptide

> <ROCS_TanimotoCombo>
0.520 

> <ROCS_ShapeTanimoto>
0.364 

> <ROCS_ColorTanimoto>
0.157 

> <ROCS_RefTversky>
0.324 

> <ROCS_RefColorTversky>
0.184 

> <ROCS_RefTverskyCombo>
0.509 

> <ROCS_FitTversky>
1.505 

> <ROCS_FitColorTversky>
0.509 

> <ROCS_FitTverskyCombo>
2.014 

> <ROCS_ColorScore>
-5.646

> <ROCS_Overlap>
2256.059

> <ROCS_Rank>
413                 

$$$$
untitled-dbase-3154_16486
  -OEChem-11132309573D

 39 40  0     1  0  0  0  0  0999 V2000
    7.7603   12.4337   24.5273 C   0  0  0  0  0  0  0  0  0  0  0  0
    9.1991   10.6533   23.8818 C   0  0  0  0  0  0  0  0  0  0  0  0
    7.0628   10.1603   24.5683 C   0  0  0  0  0  0  0  0  0  0  0  0
    9.0027   12.0123   24.0666 C   0  0  0  0  0  0  0  0  0  0  0  0
    6.7663   11.4963   24.7855 C   0  0  0  0  0  0  0  0  0  0  0  0
   10.0855   12.9887   23.7814 C   0  0  0  0  0  0  0  0  0  0  0  0
   12.2640   16.8256   20.6200 C   0  0  0  0  0  0  0  0  0  0  0  0
   12.7300   15.4460   21.0770 C   0  0  0  0  0  0  0  0  0  0  0  0
   10.7302   16.8365   22.6063 C   0  0  0  0  0  0  0  0  0  0  0  0
   11.7583   17.6454   21.8120 C   0  0  2  0  0  0  0  0  0  0  0  0
   11.6456   14.7589   21.9087 C   0  0  1  0  0  0  0  0  0  0  0  0
   11.1768   18.9793   21.3565 C   0  0  0  0  0  0  0  0  0  0  0  0
   12.1394   13.4287   22.4607 C   0  0  0  0  0  0  0  0  0  0  0  0
    8.2578    9.7131   24.1216 N   0  0  0  0  0  0  0  0  0  0  0  0
   11.0298   12.6107   22.8247 N   0  0  0  0  0  0  0  0  0  0  0  0
   10.1142   14.0502   24.3986 O   0  0  0  0  0  0  0  0  0  0  0  0
    5.6073   14.0951   26.4379 O   0  0  0  0  0  0  0  0  0  0  0  0
    4.0839   12.2404   27.2597 O   0  0  0  0  0  0  0  0  0  0  0  0
   11.2794   15.5844   23.0187 O   0  0  0  0  0  0  0  0  0  0  0  0
    5.5454   11.8780   25.2354 O   0  0  0  0  0  0  0  0  0  0  0  0
    6.4645   12.1764   27.6124 F   0  0  0  0  0  0  0  0  0  0  0  0
    5.3157   12.6900   26.6423 S   0  0  0  0  0  0  0  0  0  0  0  0
    7.5627   13.4909   24.6867 H   0  0  0  0  0  0  0  0  0  0  0  0
   10.1478   10.2641   23.5246 H   0  0  0  0  0  0  0  0  0  0  0  0
    6.3251    9.3858   24.7533 H   0  0  0  0  0  0  0  0  0  0  0  0
   13.0881   17.3483   20.1207 H   0  0  0  0  0  0  0  0  0  0  0  0
   11.4628   16.7081   19.8792 H   0  0  0  0  0  0  0  0  0  0  0  0
   12.9968   14.8340   20.2082 H   0  0  0  0  0  0  0  0  0  0  0  0
   13.6364   15.5714   21.6831 H   0  0  0  0  0  0  0  0  0  0  0  0
   10.4399   17.3810   23.5112 H   0  0  0  0  0  0  0  0  0  0  0  0
    9.8175   16.6575   22.0247 H   0  0  0  0  0  0  0  0  0  0  0  0
   12.6172   17.8435   22.4673 H   0  0  0  0  0  0  0  0  0  0  0  0
   10.7542   14.5752   21.2955 H   0  0  0  0  0  0  0  0  0  0  0  0
   10.3213   18.8081   20.7037 H   0  0  0  0  0  0  0  0  0  0  0  0
   11.9308   19.5466   20.8116 H   0  0  0  0  0  0  0  0  0  0  0  0
   10.8531   19.5582   22.2210 H   0  0  0  0  0  0  0  0  0  0  0  0
   12.7267   12.9474   21.6787 H   0  0  0  0  0  0  0  0  0  0  0  0
   12.7553   13.6449   23.3338 H   0  0  0  0  0  0  0  0  0  0  0  0
   10.9613   11.6789   22.4061 H   0  0  0  0  0  0  0  0  0  0  0  0
  1  4  2  0  0  0  0
  1  5  1  0  0  0  0
  2  4  1  0  0  0  0
  2 14  2  0  0  0  0
  3  5  2  0  0  0  0
  3 14  1  0  0  0  0
  4  6  1  0  0  0  0
  5 20  1  0  0  0  0
  6 15  1  0  0  0  0
  6 16  2  0  0  0  0
  7  8  1  0  0  0  0
  7 10  1  0  0  0  0
  8 11  1  0  0  0  0
  9 10  1  0  0  0  0
  9 19  1  0  0  0  0
 10 12  1  6  0  0  0
 11 13  1  1  0  0  0
 11 19  1  0  0  0  0
 13 15  1  0  0  0  0
 17 22  2  0  0  0  0
 18 22  2  0  0  0  0
 20 22  1  0  0  0  0
 21 22  1  0  0  0  0
  1 23  1  0  0  0  0
  2 24  1  0  0  0  0
  3 25  1  0  0  0  0
  7 26  1  0  0  0  0
  7 27  1  0  0  0  0
  8 28  1  0  0  0  0
  8 29  1  0  0  0  0
  9 30  1  0  0  0  0
  9 31  1  0  0  0  0
 10 32  1  0  0  0  0
 11 33  1  0  0  0  0
 12 34  1  0  0  0  0
 12 35  1  0  0  0  0
 12 36  1  0  0  0  0
 13 37  1  0  0  0  0
 13 38  1  0  0  0  0
 15 39  1  0  0  0  0
M  END
> <Catalog ID>
Z4262489230

> <MW>
332.348

> <MW (desalted)>
332.348

> <ClogP>
0.121

> <logS>
-2.747

> <HBD>
1

> <HBA>
5

> <TPSA>
94.59

> <RotBonds>
5

> <ROCS_ShapeQuery>
A71EV2A-x0451_0A_A71EV2A-x0310_0A_A71EV2A-x0416_0A_peptide

> <ROCS_TanimotoCombo>
0.520 

> <ROCS_ShapeTanimoto>
0.313 

> <ROCS_ColorTanimoto>
0.208 

> <ROCS_RefTversky>
0.282 

> <ROCS_RefColorTversky>
0.224 

> <ROCS_RefTverskyCombo>
0.505 

> <ROCS_FitTversky>
1.544 

> <ROCS_FitColorTversky>
0.743 

> <ROCS_FitTverskyCombo>
2.287 

> <ROCS_ColorScore>
-6.824

> <ROCS_Overlap>
1957.188

> <ROCS_Rank>
414                 

$$$$
untitled-dbase-1896_8275
  -OEChem-11132309573D

 46 47  0     0  0  0  0  0  0999 V2000
    9.5248   10.8144   23.2652 C   0  0  0  0  0  0  0  0  0  0  0  0
    8.6020    9.8292   23.6164 C   0  0  0  0  0  0  0  0  0  0  0  0
    8.3228   12.4203   24.6117 C   0  0  0  0  0  0  0  0  0  0  0  0
    9.3852   12.1100   23.7629 C   0  0  0  0  0  0  0  0  0  0  0  0
    7.5396   10.1395   24.4653 C   0  0  0  0  0  0  0  0  0  0  0  0
    7.4000   11.4351   24.9630 C   0  0  0  0  0  0  0  0  0  0  0  0
    8.6050   16.5811   23.7774 C   0  0  0  0  0  0  0  0  0  0  0  0
    9.6900   17.2420   23.3626 C   0  0  0  0  0  0  0  0  0  0  0  0
   10.3472   13.1372   23.3961 C   0  0  0  0  0  0  0  0  0  0  0  0
   10.8327   16.5079   22.7563 C   0  0  0  0  0  0  0  0  0  0  0  0
    6.2259   11.0458   27.0902 C   0  0  0  0  0  0  0  0  0  0  0  0
    5.0718   12.2421   25.2509 C   0  0  0  0  0  0  0  0  0  0  0  0
    5.3747   11.8549   28.0622 C   0  0  0  0  0  0  0  0  0  0  0  0
    4.2817   12.9870   26.3212 C   0  0  0  0  0  0  0  0  0  0  0  0
    6.5641    9.0653   24.8222 C   0  0  0  0  0  0  0  0  0  0  0  0
   12.0003   13.9071   21.6759 C   0  0  0  0  0  0  0  0  0  0  0  0
   11.3886   15.0253   20.8489 C   0  0  0  0  0  0  0  0  0  0  0  0
    6.3395   11.7641   25.8135 N   0  0  0  0  0  0  0  0  0  0  0  0
   11.0027   12.9848   22.1688 N   0  0  0  0  0  0  0  0  0  0  0  0
   10.4606   15.8145   21.6128 N   0  0  0  0  0  0  0  0  0  0  0  0
   10.5774   14.0891   24.1629 O   0  0  0  0  0  0  0  0  0  0  0  0
   11.9612   16.5300   23.2370 O   0  0  0  0  0  0  0  0  0  0  0  0
    4.1108   12.1681   27.4774 O   0  0  0  0  0  0  0  0  0  0  0  0
   10.3491   10.5616   22.6033 H   0  0  0  0  0  0  0  0  0  0  0  0
    8.7205    8.8226   23.2240 H   0  0  0  0  0  0  0  0  0  0  0  0
    8.2132   13.4314   24.9985 H   0  0  0  0  0  0  0  0  0  0  0  0
    7.7759   17.1234   24.2197 H   0  0  0  0  0  0  0  0  0  0  0  0
    8.5082   15.5044   23.6916 H   0  0  0  0  0  0  0  0  0  0  0  0
    9.7465   18.3201   23.4664 H   0  0  0  0  0  0  0  0  0  0  0  0
    7.2162   10.8729   27.5278 H   0  0  0  0  0  0  0  0  0  0  0  0
    5.7532   10.0715   26.9120 H   0  0  0  0  0  0  0  0  0  0  0  0
    4.4891   11.3817   24.8970 H   0  0  0  0  0  0  0  0  0  0  0  0
    5.2507   12.9081   24.3986 H   0  0  0  0  0  0  0  0  0  0  0  0
    5.1864   11.2675   28.9666 H   0  0  0  0  0  0  0  0  0  0  0  0
    5.8812   12.7779   28.3690 H   0  0  0  0  0  0  0  0  0  0  0  0
    4.7710   13.9280   26.6009 H   0  0  0  0  0  0  0  0  0  0  0  0
    3.2862   13.2355   25.9394 H   0  0  0  0  0  0  0  0  0  0  0  0
    6.8926    8.5400   25.7261 H   0  0  0  0  0  0  0  0  0  0  0  0
    5.5656    9.4816   25.0024 H   0  0  0  0  0  0  0  0  0  0  0  0
    6.4645    8.3355   24.0095 H   0  0  0  0  0  0  0  0  0  0  0  0
   12.5388   14.3008   22.5438 H   0  0  0  0  0  0  0  0  0  0  0  0
   12.6997   13.3274   21.0655 H   0  0  0  0  0  0  0  0  0  0  0  0
   12.1698   15.7037   20.4923 H   0  0  0  0  0  0  0  0  0  0  0  0
   10.8492   14.6308   19.9818 H   0  0  0  0  0  0  0  0  0  0  0  0
   10.8238   12.1566   21.6104 H   0  0  0  0  0  0  0  0  0  0  0  0
    9.4879   15.8327   21.3091 H   0  0  0  0  0  0  0  0  0  0  0  0
  1  2  2  0  0  0  0
  1  4  1  0  0  0  0
  2  5  1  0  0  0  0
  3  4  2  0  0  0  0
  3  6  1  0  0  0  0
  4  9  1  0  0  0  0
  5  6  2  0  0  0  0
  5 15  1  0  0  0  0
  6 18  1  0  0  0  0
  7  8  2  0  0  0  0
  8 10  1  0  0  0  0
  9 19  1  0  0  0  0
  9 21  2  0  0  0  0
 10 20  1  0  0  0  0
 10 22  2  0  0  0  0
 11 13  1  0  0  0  0
 11 18  1  0  0  0  0
 12 14  1  0  0  0  0
 12 18  1  0  0  0  0
 13 23  1  0  0  0  0
 14 23  1  0  0  0  0
 16 17  1  0  0  0  0
 16 19  1  0  0  0  0
 17 20  1  0  0  0  0
  1 24  1  0  0  0  0
  2 25  1  0  0  0  0
  3 26  1  0  0  0  0
  7 27  1  0  0  0  0
  7 28  1  0  0  0  0
  8 29  1  0  0  0  0
 11 30  1  0  0  0  0
 11 31  1  0  0  0  0
 12 32  1  0  0  0  0
 12 33  1  0  0  0  0
 13 34  1  0  0  0  0
 13 35  1  0  0  0  0
 14 36  1  0  0  0  0
 14 37  1  0  0  0  0
 15 38  1  0  0  0  0
 15 39  1  0  0  0  0
 15 40  1  0  0  0  0
 16 41  1  0  0  0  0
 16 42  1  0  0  0  0
 17 43  1  0  0  0  0
 17 44  1  0  0  0  0
 19 45  1  0  0  0  0
 20 46  1  0  0  0  0
M  END
> <Catalog ID>
Z2770063774

> <MW>
317.383

> <MW (desalted)>
317.383

> <ClogP>
0.792

> <logS>
-3.263

> <HBD>
2

> <HBA>
4

> <TPSA>
70.67

> <RotBonds>
6

> <ROCS_ShapeQuery>
A71EV2A-x0451_0A_A71EV2A-x0310_0A_A71EV2A-x0416_0A_peptide

> <ROCS_TanimotoCombo>
0.520 

> <ROCS_ShapeTanimoto>
0.326 

> <ROCS_ColorTanimoto>
0.194 

> <ROCS_RefTversky>
0.293 

> <ROCS_RefColorTversky>
0.211 

> <ROCS_RefTverskyCombo>
0.504 

> <ROCS_FitTversky>
1.541 

> <ROCS_FitColorTversky>
0.702 

> <ROCS_FitTverskyCombo>
2.244 

> <ROCS_ColorScore>
-6.451

> <ROCS_Overlap>
2034.525

> <ROCS_Rank>
415                 

$$$$
untitled-dbase-3696_1842
  -OEChem-11132309573D

 45 47  0     0  0  0  0  0  0999 V2000
   11.0989   13.7579   24.9080 C   0  0  0  0  0  0  0  0  0  0  0  0
   11.1962    7.9853   23.8573 C   0  0  0  0  0  0  0  0  0  0  0  0
    6.6845   12.6569   25.8641 C   0  0  0  0  0  0  0  0  0  0  0  0
   13.9690   16.7496   18.4378 C   0  0  0  0  0  0  0  0  0  0  0  0
    6.3069   11.3385   26.1107 C   0  0  0  0  0  0  0  0  0  0  0  0
   14.2272   16.9772   19.7895 C   0  0  0  0  0  0  0  0  0  0  0  0
    7.7268   12.9496   24.9771 C   0  0  0  0  0  0  0  0  0  0  0  0
   13.0537   15.7678   18.0582 C   0  0  0  0  0  0  0  0  0  0  0  0
    6.9563   10.2729   25.4810 C   0  0  0  0  0  0  0  0  0  0  0  0
   13.5703   16.2229   20.7617 C   0  0  0  0  0  0  0  0  0  0  0  0
    9.6929   10.4915   23.1188 C   0  0  0  0  0  0  0  0  0  0  0  0
    8.3964   11.8917   24.3304 C   0  0  0  0  0  0  0  0  0  0  0  0
    9.4673   11.8201   23.3961 C   0  0  0  0  0  0  0  0  0  0  0  0
   12.3967   15.0135   19.0304 C   0  0  0  0  0  0  0  0  0  0  0  0
    7.9965   10.5804   24.5968 C   0  0  0  0  0  0  0  0  0  0  0  0
   12.6550   15.2411   20.3822 C   0  0  0  0  0  0  0  0  0  0  0  0
   10.1958   12.8881   22.8278 C   0  0  0  0  0  0  0  0  0  0  0  0
   10.9675   13.8271   23.4876 C   0  0  0  0  0  0  0  0  0  0  0  0
   11.6701   14.8930   22.6740 C   0  0  0  0  0  0  0  0  0  0  0  0
    9.9423    7.6465   23.1689 C   0  0  0  0  0  0  0  0  0  0  0  0
    8.7273    8.3067   23.8219 C   0  0  0  0  0  0  0  0  0  0  0  0
   11.4215   13.9685   18.5947 C   0  0  0  0  0  0  0  0  0  0  0  0
   11.2094   13.7052   26.0621 N   0  0  0  0  0  0  0  0  0  0  0  0
   12.1866    8.2510   24.4001 N   0  0  0  0  0  0  0  0  0  0  0  0
    8.8007    9.7516   23.8474 N   0  0  0  0  0  0  0  0  0  0  0  0
   11.9976   14.4848   21.3857 N   0  0  0  0  0  0  0  0  0  0  0  0
   11.9025   15.9955   23.1635 O   0  0  0  0  0  0  0  0  0  0  0  0
   11.2892   13.8784   17.2393 F   0  0  0  0  0  0  0  0  0  0  0  0
   11.7521   12.7103   19.0072 F   0  0  0  0  0  0  0  0  0  0  0  0
   10.1647   14.1951   19.0734 F   0  0  0  0  0  0  0  0  0  0  0  0
    6.1644   13.4687   26.3653 H   0  0  0  0  0  0  0  0  0  0  0  0
   14.4807   17.3362   17.6807 H   0  0  0  0  0  0  0  0  0  0  0  0
    5.4947   11.1340   26.8035 H   0  0  0  0  0  0  0  0  0  0  0  0
   14.9406   17.7412   20.0850 H   0  0  0  0  0  0  0  0  0  0  0  0
    8.0082   13.9832   24.7973 H   0  0  0  0  0  0  0  0  0  0  0  0
   12.8598   15.5981   17.0025 H   0  0  0  0  0  0  0  0  0  0  0  0
    6.6581    9.2481   25.6765 H   0  0  0  0  0  0  0  0  0  0  0  0
   13.7800   16.4101   21.8117 H   0  0  0  0  0  0  0  0  0  0  0  0
   10.4097   10.0092   22.4663 H   0  0  0  0  0  0  0  0  0  0  0  0
   10.1553   12.9702   21.7193 H   0  0  0  0  0  0  0  0  0  0  0  0
   10.0087    7.9855   22.1284 H   0  0  0  0  0  0  0  0  0  0  0  0
    9.8203    6.5575   23.1417 H   0  0  0  0  0  0  0  0  0  0  0  0
    8.6376    7.9773   24.8645 H   0  0  0  0  0  0  0  0  0  0  0  0
    7.7974    8.0214   23.3149 H   0  0  0  0  0  0  0  0  0  0  0  0
   11.7356   13.5353   21.1343 H   0  0  0  0  0  0  0  0  0  0  0  0
  1 18  1  0  0  0  0
  1 23  3  0  0  0  0
  2 20  1  0  0  0  0
  2 24  3  0  0  0  0
  3  5  1  0  0  0  0
  3  7  2  0  0  0  0
  4  6  1  0  0  0  0
  4  8  2  0  0  0  0
  5  9  2  0  0  0  0
  6 10  2  0  0  0  0
  7 12  1  0  0  0  0
  8 14  1  0  0  0  0
  9 15  1  0  0  0  0
 10 16  1  0  0  0  0
 11 13  2  0  0  0  0
 11 25  1  0  0  0  0
 12 13  1  0  0  0  0
 12 15  2  0  0  0  0
 13 17  1  4  0  0  0
 14 16  2  0  0  0  0
 14 22  1  0  0  0  0
 15 25  1  0  0  0  0
 16 26  1  0  0  0  0
 17 18  2  0  0  0  0
 18 19  1  0  0  0  0
 19 26  1  0  0  0  0
 19 27  2  0  0  0  0
 20 21  1  0  0  0  0
 21 25  1  0  0  0  0
 22 28  1  0  0  0  0
 22 29  1  0  0  0  0
 22 30  1  0  0  0  0
  3 31  1  0  0  0  0
  4 32  1  0  0  0  0
  5 33  1  0  0  0  0
  6 34  1  0  0  0  0
  7 35  1  0  0  0  0
  8 36  1  0  0  0  0
  9 37  1  0  0  0  0
 10 38  1  0  0  0  0
 11 39  1  0  0  0  0
 17 40  1  0  0  0  0
 20 41  1  0  0  0  0
 20 42  1  0  0  0  0
 21 43  1  0  0  0  0
 21 44  1  0  0  0  0
 26 45  1  0  0  0  0
M  END
> <Catalog ID>
Z44411266

> <MW>
408.376

> <MW (desalted)>
408.376

> <ClogP>
2.782

> <logS>
-5.598

> <HBD>
1

> <HBA>
3

> <TPSA>
81.61

> <RotBonds>
6

> <ROCS_ShapeQuery>
A71EV2A-x0451_0A_A71EV2A-x0310_0A_A71EV2A-x0416_0A_peptide

> <ROCS_TanimotoCombo>
0.520 

> <ROCS_ShapeTanimoto>
0.383 

> <ROCS_ColorTanimoto>
0.137 

> <ROCS_RefTversky>
0.343 

> <ROCS_RefColorTversky>
0.154 

> <ROCS_RefTverskyCombo>
0.497 

> <ROCS_FitTversky>
1.436 

> <ROCS_FitColorTversky>
0.567 

> <ROCS_FitTverskyCombo>
2.002 

> <ROCS_ColorScore>
-4.678

> <ROCS_Overlap>
2389.709

> <ROCS_Rank>
416                 

$$$$
untitled-dbase-5767_601
  -OEChem-11132309573D

 51 52  0     0  0  0  0  0  0999 V2000
    8.5490    6.9233   23.5271 C   0  0  0  0  0  0  0  0  0  0  0  0
    9.7040    6.9388   22.7532 C   0  0  0  0  0  0  0  0  0  0  0  0
    8.0310    8.1170   24.0169 C   0  0  0  0  0  0  0  0  0  0  0  0
    7.8656   12.6004   24.6659 C   0  0  0  0  0  0  0  0  0  0  0  0
   10.2985    8.1644   22.4998 C   0  0  0  0  0  0  0  0  0  0  0  0
    6.8795   11.7693   25.2304 C   0  0  0  0  0  0  0  0  0  0  0  0
    8.7004    9.2899   23.7071 C   0  0  0  0  0  0  0  0  0  0  0  0
    8.7015   11.7378   23.9999 C   0  0  0  0  0  0  0  0  0  0  0  0
   15.1986   16.5095   22.6980 C   0  0  0  0  0  0  0  0  0  0  0  0
   13.9214   16.1586   22.5161 C   0  0  0  0  0  0  0  0  0  0  0  0
   13.4701   14.7788   22.8549 C   0  0  0  0  0  0  0  0  0  0  0  0
   10.7837   13.0315   23.4209 C   0  0  0  0  0  0  0  0  0  0  0  0
   10.5613   15.7662   21.5666 C   0  0  0  0  0  0  0  0  0  0  0  0
    5.2237   13.6124   25.6853 C   0  0  0  0  0  0  0  0  0  0  0  0
    6.0801   12.1952   27.5812 C   0  0  0  0  0  0  0  0  0  0  0  0
    4.4501   11.2645   25.9508 C   0  0  0  0  0  0  0  0  0  0  0  0
   11.8941   12.9407   22.3921 C   0  0  0  0  0  0  0  0  0  0  0  0
   11.7186   14.9934   21.0319 C   0  0  0  0  0  0  0  0  0  0  0  0
    5.7284   12.1753   26.0541 C   0  0  0  0  0  0  0  0  0  0  0  0
    9.8248    9.3446   22.9584 N   0  0  0  0  0  0  0  0  0  0  0  0
    7.0698   10.4779   24.9474 N   0  0  0  0  0  0  0  0  0  0  0  0
    8.1852   10.4910   24.1979 N   0  0  0  0  0  0  0  0  0  0  0  0
    9.8697   11.9962   23.2439 N   0  0  0  0  0  0  0  0  0  0  0  0
   12.4092   14.2720   22.0990 N   0  0  0  0  0  0  0  0  0  0  0  0
   14.0154   14.1663   23.7745 O   0  0  0  0  0  0  0  0  0  0  0  0
   10.7538   13.9122   24.2746 O   0  0  0  0  0  0  0  0  0  0  0  0
    8.0532    5.9826   23.7474 H   0  0  0  0  0  0  0  0  0  0  0  0
   10.1263    6.0202   22.3621 H   0  0  0  0  0  0  0  0  0  0  0  0
    7.1293    8.1113   24.6216 H   0  0  0  0  0  0  0  0  0  0  0  0
    7.9568   13.6752   24.7331 H   0  0  0  0  0  0  0  0  0  0  0  0
   11.2011    8.2305   21.9012 H   0  0  0  0  0  0  0  0  0  0  0  0
   15.5713   17.5010   22.4657 H   0  0  0  0  0  0  0  0  0  0  0  0
   15.9066   15.7912   23.0984 H   0  0  0  0  0  0  0  0  0  0  0  0
   13.2095   16.8921   22.1582 H   0  0  0  0  0  0  0  0  0  0  0  0
   10.9175   16.4919   22.3126 H   0  0  0  0  0  0  0  0  0  0  0  0
   10.0654   16.3007   20.7429 H   0  0  0  0  0  0  0  0  0  0  0  0
    9.8465   15.0762   22.0388 H   0  0  0  0  0  0  0  0  0  0  0  0
    4.3661   13.9394   26.2848 H   0  0  0  0  0  0  0  0  0  0  0  0
    6.0144   14.3577   25.8251 H   0  0  0  0  0  0  0  0  0  0  0  0
    4.9250   13.6436   24.6308 H   0  0  0  0  0  0  0  0  0  0  0  0
    5.2161   12.4986   28.1825 H   0  0  0  0  0  0  0  0  0  0  0  0
    6.4109   11.2226   27.9640 H   0  0  0  0  0  0  0  0  0  0  0  0
    6.8824   12.9183   27.7697 H   0  0  0  0  0  0  0  0  0  0  0  0
    3.6213   11.6074   26.5818 H   0  0  0  0  0  0  0  0  0  0  0  0
    4.0794   11.2377   24.9194 H   0  0  0  0  0  0  0  0  0  0  0  0
    4.6839   10.2380   26.2566 H   0  0  0  0  0  0  0  0  0  0  0  0
   11.5105   12.4865   21.4731 H   0  0  0  0  0  0  0  0  0  0  0  0
   12.6965   12.3109   22.7890 H   0  0  0  0  0  0  0  0  0  0  0  0
   11.3543   14.2705   20.2872 H   0  0  0  0  0  0  0  0  0  0  0  0
   12.4242   15.6886   20.5535 H   0  0  0  0  0  0  0  0  0  0  0  0
   10.0505   11.3410   22.4863 H   0  0  0  0  0  0  0  0  0  0  0  0
  1  2  1  0  0  0  0
  1  3  2  0  0  0  0
  2  5  2  0  0  0  0
  3  7  1  0  0  0  0
  4  6  1  0  0  0  0
  4  8  2  0  0  0  0
  5 20  1  0  0  0  0
  6 19  1  0  0  0  0
  6 21  2  0  0  0  0
  7 20  2  0  0  0  0
  7 22  1  0  0  0  0
  8 22  1  0  0  0  0
  8 23  1  0  0  0  0
  9 10  2  0  0  0  0
 10 11  1  0  0  0  0
 11 24  1  0  0  0  0
 11 25  2  0  0  0  0
 12 17  1  0  0  0  0
 12 23  1  0  0  0  0
 12 26  2  0  0  0  0
 13 18  1  0  0  0  0
 14 19  1  0  0  0  0
 15 19  1  0  0  0  0
 16 19  1  0  0  0  0
 17 24  1  0  0  0  0
 18 24  1  0  0  0  0
 21 22  1  0  0  0  0
  1 27  1  0  0  0  0
  2 28  1  0  0  0  0
  3 29  1  0  0  0  0
  4 30  1  0  0  0  0
  5 31  1  0  0  0  0
  9 32  1  0  0  0  0
  9 33  1  0  0  0  0
 10 34  1  0  0  0  0
 13 35  1  0  0  0  0
 13 36  1  0  0  0  0
 13 37  1  0  0  0  0
 14 38  1  0  0  0  0
 14 39  1  0  0  0  0
 14 40  1  0  0  0  0
 15 41  1  0  0  0  0
 15 42  1  0  0  0  0
 15 43  1  0  0  0  0
 16 44  1  0  0  0  0
 16 45  1  0  0  0  0
 16 46  1  0  0  0  0
 17 47  1  0  0  0  0
 17 48  1  0  0  0  0
 18 49  1  0  0  0  0
 18 50  1  0  0  0  0
 23 51  1  0  0  0  0
M  END
> <Catalog ID>
Z2892091685

> <MW>
355.434

> <MW (desalted)>
355.434

> <ClogP>
2.502

> <logS>
-4.07

> <HBD>
1

> <HBA>
4

> <TPSA>
80.12

> <RotBonds>
7

> <ROCS_ShapeQuery>
A71EV2A-x0451_0A_A71EV2A-x0310_0A_A71EV2A-x0416_0A_peptide

> <ROCS_TanimotoCombo>
0.520 

> <ROCS_ShapeTanimoto>
0.374 

> <ROCS_ColorTanimoto>
0.146 

> <ROCS_RefTversky>
0.330 

> <ROCS_RefColorTversky>
0.170 

> <ROCS_RefTverskyCombo>
0.499 

> <ROCS_FitTversky>
1.564 

> <ROCS_FitColorTversky>
0.512 

> <ROCS_FitTverskyCombo>
2.076 

> <ROCS_ColorScore>
-5.186

> <ROCS_Overlap>
2293.699

> <ROCS_Rank>
417                 

$$$$
untitled-dbase-4541_7786
  -OEChem-11132309573D

 38 39  0     0  0  0  0  0  0999 V2000
   13.3562   13.7350   22.6673 C   0  0  0  0  0  0  0  0  0  0  0  0
   13.1979   15.6907   18.0995 C   0  0  0  0  0  0  0  0  0  0  0  0
   14.2168   16.5565   18.4969 C   0  0  0  0  0  0  0  0  0  0  0  0
    8.3241    9.4198   24.0758 C   0  0  0  0  0  0  0  0  0  0  0  0
   12.3491   15.1283   19.0528 C   0  0  0  0  0  0  0  0  0  0  0  0
    7.3063   10.0770   24.7670 C   0  0  0  0  0  0  0  0  0  0  0  0
    9.3391   10.1551   23.4637 C   0  0  0  0  0  0  0  0  0  0  0  0
   14.3869   16.8597   19.8477 C   0  0  0  0  0  0  0  0  0  0  0  0
    8.3185   12.2050   24.2339 C   0  0  0  0  0  0  0  0  0  0  0  0
   12.5192   15.4315   20.4037 C   0  0  0  0  0  0  0  0  0  0  0  0
    7.3035   11.4696   24.8461 C   0  0  0  0  0  0  0  0  0  0  0  0
    9.3363   11.5478   23.5427 C   0  0  0  0  0  0  0  0  0  0  0  0
   13.5382   16.2972   20.8011 C   0  0  0  0  0  0  0  0  0  0  0  0
   11.6196   14.8315   21.3798 C   0  0  0  0  0  0  0  0  0  0  0  0
   11.9835   14.0430   22.4216 C   0  0  0  0  0  0  0  0  0  0  0  0
   10.8787   13.5262   23.3183 C   0  0  0  0  0  0  0  0  0  0  0  0
   12.6507   17.2394   22.7966 C   0  0  0  0  0  0  0  0  0  0  0  0
    6.2151   12.1717   25.5851 C   0  0  0  0  0  0  0  0  0  0  0  0
   14.4704   13.4826   22.8715 N   0  0  0  0  0  0  0  0  0  0  0  0
   10.3688   12.2951   22.9209 N   0  0  0  0  0  0  0  0  0  0  0  0
   10.5102   14.1811   24.2902 O   0  0  0  0  0  0  0  0  0  0  0  0
   13.7275   16.6099   22.1149 O   0  0  0  0  0  0  0  0  0  0  0  0
   11.6327   17.3797   21.9088 F   0  0  0  0  0  0  0  0  0  0  0  0
   12.1992   16.4151   23.7736 F   0  0  0  0  0  0  0  0  0  0  0  0
    5.2915   11.3271   26.1325 F   0  0  0  0  0  0  0  0  0  0  0  0
    6.6640   12.9318   26.6276 F   0  0  0  0  0  0  0  0  0  0  0  0
    5.5052   13.0242   24.7898 F   0  0  0  0  0  0  0  0  0  0  0  0
   13.0667   15.4538   17.0477 H   0  0  0  0  0  0  0  0  0  0  0  0
   14.8771   16.9936   17.7539 H   0  0  0  0  0  0  0  0  0  0  0  0
    8.3266    8.3354   24.0145 H   0  0  0  0  0  0  0  0  0  0  0  0
   11.5607   14.4545   18.7258 H   0  0  0  0  0  0  0  0  0  0  0  0
    6.5197    9.4956   25.2399 H   0  0  0  0  0  0  0  0  0  0  0  0
   10.1272    9.6324   22.9275 H   0  0  0  0  0  0  0  0  0  0  0  0
   15.1824   17.5356   20.1500 H   0  0  0  0  0  0  0  0  0  0  0  0
    8.3137   13.2911   24.2963 H   0  0  0  0  0  0  0  0  0  0  0  0
   10.5668   15.0837   21.2254 H   0  0  0  0  0  0  0  0  0  0  0  0
   12.9048   18.2271   23.1960 H   0  0  0  0  0  0  0  0  0  0  0  0
   10.7837   11.8835   22.0892 H   0  0  0  0  0  0  0  0  0  0  0  0
  1 15  1  0  0  0  0
  1 19  3  0  0  0  0
  2  3  1  0  0  0  0
  2  5  2  0  0  0  0
  3  8  2  0  0  0  0
  4  6  1  0  0  0  0
  4  7  2  0  0  0  0
  5 10  1  0  0  0  0
  6 11  2  0  0  0  0
  7 12  1  0  0  0  0
  8 13  1  0  0  0  0
  9 11  1  0  0  0  0
  9 12  2  0  0  0  0
 10 13  2  0  0  0  0
 10 14  1  4  0  0  0
 11 18  1  0  0  0  0
 12 20  1  0  0  0  0
 13 22  1  0  0  0  0
 14 15  2  0  0  0  0
 15 16  1  0  0  0  0
 16 20  1  0  0  0  0
 16 21  2  0  0  0  0
 17 22  1  0  0  0  0
 17 23  1  0  0  0  0
 17 24  1  0  0  0  0
 18 25  1  0  0  0  0
 18 26  1  0  0  0  0
 18 27  1  0  0  0  0
  2 28  1  0  0  0  0
  3 29  1  0  0  0  0
  4 30  1  0  0  0  0
  5 31  1  0  0  0  0
  6 32  1  0  0  0  0
  7 33  1  0  0  0  0
  8 34  1  0  0  0  0
  9 35  1  0  0  0  0
 14 36  1  0  0  0  0
 17 37  1  0  0  0  0
 20 38  1  0  0  0  0
M  END
> <Catalog ID>
Z44308698

> <MW>
382.284

> <MW (desalted)>
382.284

> <ClogP>
4.686

> <logS>
-5.822

> <HBD>
1

> <HBA>
3

> <TPSA>
62.12

> <RotBonds>
6

> <ROCS_ShapeQuery>
A71EV2A-x0451_0A_A71EV2A-x0310_0A_A71EV2A-x0416_0A_peptide

> <ROCS_TanimotoCombo>
0.520 

> <ROCS_ShapeTanimoto>
0.358 

> <ROCS_ColorTanimoto>
0.162 

> <ROCS_RefTversky>
0.321 

> <ROCS_RefColorTversky>
0.173 

> <ROCS_RefTverskyCombo>
0.494 

> <ROCS_FitTversky>
1.469 

> <ROCS_FitColorTversky>
0.722 

> <ROCS_FitTverskyCombo>
2.192 

> <ROCS_ColorScore>
-5.263

> <ROCS_Overlap>
2235.953

> <ROCS_Rank>
418                 

$$$$
untitled-dbase-844_13897
  -OEChem-11132309573D

 49 51  0     0  0  0  0  0  0999 V2000
   10.4433   15.7124   21.9219 C   0  0  0  0  0  0  0  0  0  0  0  0
    8.5553    9.5022   23.5113 C   0  0  0  0  0  0  0  0  0  0  0  0
   12.4161   16.2884   18.1395 C   0  0  0  0  0  0  0  0  0  0  0  0
    7.5546   10.0626   24.3051 C   0  0  0  0  0  0  0  0  0  0  0  0
   13.8108   16.2844   18.1201 C   0  0  0  0  0  0  0  0  0  0  0  0
    9.5847   10.3038   23.0176 C   0  0  0  0  0  0  0  0  0  0  0  0
   11.7336   15.9105   19.2959 C   0  0  0  0  0  0  0  0  0  0  0  0
    8.6125   12.2261   24.1115 C   0  0  0  0  0  0  0  0  0  0  0  0
   13.8406   15.5244   20.4132 C   0  0  0  0  0  0  0  0  0  0  0  0
    7.5831   11.4245   24.6052 C   0  0  0  0  0  0  0  0  0  0  0  0
   14.5231   15.9024   19.2569 C   0  0  0  0  0  0  0  0  0  0  0  0
    9.6132   11.6657   23.3177 C   0  0  0  0  0  0  0  0  0  0  0  0
   12.4459   15.5285   20.4327 C   0  0  0  0  0  0  0  0  0  0  0  0
    6.5392   12.0073   25.4329 C   0  0  0  0  0  0  0  0  0  0  0  0
   11.1989   13.6209   23.4010 C   0  0  0  0  0  0  0  0  0  0  0  0
    5.5975   14.6833   27.3478 C   0  0  0  0  0  0  0  0  0  0  0  0
    5.3586   15.5852   26.1739 C   0  0  0  0  0  0  0  0  0  0  0  0
    5.2709   14.0934   26.0032 C   0  0  0  0  0  0  0  0  0  0  0  0
   16.6057   17.2356   19.6714 C   0  0  0  0  0  0  0  0  0  0  0  0
   16.0142   15.8975   19.2355 C   0  0  0  0  0  0  0  0  0  0  0  0
   12.3034   14.1893   22.5310 C   0  0  0  0  0  0  0  0  0  0  0  0
    9.4028   16.1507   22.1900 N   0  0  0  0  0  0  0  0  0  0  0  0
   10.6431   12.4672   22.8240 N   0  0  0  0  0  0  0  0  0  0  0  0
    6.2619   13.3662   25.2430 N   0  0  0  0  0  0  0  0  0  0  0  0
   11.7545   15.1461   21.6040 N   0  0  0  0  0  0  0  0  0  0  0  0
    5.9460   11.3166   26.2804 O   0  0  0  0  0  0  0  0  0  0  0  0
   10.8777   14.1340   24.4681 O   0  0  0  0  0  0  0  0  0  0  0  0
    8.5334    8.4418   23.2778 H   0  0  0  0  0  0  0  0  0  0  0  0
   11.8615   16.5860   17.2542 H   0  0  0  0  0  0  0  0  0  0  0  0
    6.7570    9.4284   24.6832 H   0  0  0  0  0  0  0  0  0  0  0  0
   14.3344   16.5804   17.2146 H   0  0  0  0  0  0  0  0  0  0  0  0
   10.3592    9.8565   22.3994 H   0  0  0  0  0  0  0  0  0  0  0  0
   10.6466   15.9176   19.3002 H   0  0  0  0  0  0  0  0  0  0  0  0
    8.6342   13.2887   24.3447 H   0  0  0  0  0  0  0  0  0  0  0  0
   14.3975   15.2271   21.2989 H   0  0  0  0  0  0  0  0  0  0  0  0
    6.6120   14.5966   27.7174 H   0  0  0  0  0  0  0  0  0  0  0  0
    4.8348   14.6409   28.1157 H   0  0  0  0  0  0  0  0  0  0  0  0
    4.4349   16.1504   26.1511 H   0  0  0  0  0  0  0  0  0  0  0  0
    6.2127   16.1038   25.7558 H   0  0  0  0  0  0  0  0  0  0  0  0
    4.2772   13.6751   25.8840 H   0  0  0  0  0  0  0  0  0  0  0  0
   16.2371   18.0520   19.0411 H   0  0  0  0  0  0  0  0  0  0  0  0
   17.6977   17.2184   19.5998 H   0  0  0  0  0  0  0  0  0  0  0  0
   16.3373   17.4644   20.7084 H   0  0  0  0  0  0  0  0  0  0  0  0
   16.4052   15.1013   19.8891 H   0  0  0  0  0  0  0  0  0  0  0  0
   16.3831   15.6528   18.2263 H   0  0  0  0  0  0  0  0  0  0  0  0
   12.7905   13.3809   21.9767 H   0  0  0  0  0  0  0  0  0  0  0  0
   13.0459   14.6758   23.1712 H   0  0  0  0  0  0  0  0  0  0  0  0
   11.0499   12.1820   21.9257 H   0  0  0  0  0  0  0  0  0  0  0  0
    6.8188   13.8984   24.5824 H   0  0  0  0  0  0  0  0  0  0  0  0
  1 22  3  0  0  0  0
  1 25  1  0  0  0  0
  2  4  1  0  0  0  0
  2  6  2  0  0  0  0
  3  5  2  0  0  0  0
  3  7  1  0  0  0  0
  4 10  2  0  0  0  0
  5 11  1  0  0  0  0
  6 12  1  0  0  0  0
  7 13  2  0  0  0  0
  8 10  1  0  0  0  0
  8 12  2  0  0  0  0
  9 11  2  0  0  0  0
  9 13  1  0  0  0  0
 10 14  1  0  0  0  0
 11 20  1  0  0  0  0
 12 23  1  0  0  0  0
 13 25  1  0  0  0  0
 14 24  1  0  0  0  0
 14 26  2  0  0  0  0
 15 21  1  0  0  0  0
 15 23  1  0  0  0  0
 15 27  2  0  0  0  0
 16 17  1  0  0  0  0
 16 18  1  0  0  0  0
 17 18  1  0  0  0  0
 18 24  1  0  0  0  0
 19 20  1  0  0  0  0
 21 25  1  0  0  0  0
  2 28  1  0  0  0  0
  3 29  1  0  0  0  0
  4 30  1  0  0  0  0
  5 31  1  0  0  0  0
  6 32  1  0  0  0  0
  7 33  1  0  0  0  0
  8 34  1  0  0  0  0
  9 35  1  0  0  0  0
 16 36  1  0  0  0  0
 16 37  1  0  0  0  0
 17 38  1  0  0  0  0
 17 39  1  0  0  0  0
 18 40  1  0  0  0  0
 19 41  1  0  0  0  0
 19 42  1  0  0  0  0
 19 43  1  0  0  0  0
 20 44  1  0  0  0  0
 20 45  1  0  0  0  0
 21 46  1  0  0  0  0
 21 47  1  0  0  0  0
 23 48  1  0  0  0  0
 24 49  1  0  0  0  0
M  END
> <Catalog ID>
Z1362453844

> <MW>
362.425

> <MW (desalted)>
362.425

> <ClogP>
3.099

> <logS>
-5.504

> <HBD>
2

> <HBA>
4

> <TPSA>
85.23

> <RotBonds>
7

> <ROCS_ShapeQuery>
A71EV2A-x0451_0A_A71EV2A-x0310_0A_A71EV2A-x0416_0A_peptide

> <ROCS_TanimotoCombo>
0.520 

> <ROCS_ShapeTanimoto>
0.353 

> <ROCS_ColorTanimoto>
0.168 

> <ROCS_RefTversky>
0.317 

> <ROCS_RefColorTversky>
0.191 

> <ROCS_RefTverskyCombo>
0.508 

> <ROCS_FitTversky>
1.470 

> <ROCS_FitColorTversky>
0.577 

> <ROCS_FitTverskyCombo>
2.046 

> <ROCS_ColorScore>
-5.844

> <ROCS_Overlap>
2204.672

> <ROCS_Rank>
419                 

$$$$
untitled-dbase-1439_882
  -OEChem-11132309573D

 47 49  0     1  0  0  0  0  0999 V2000
    6.0816   10.6599   26.0011 C   0  0  0  0  0  0  0  0  0  0  0  0
    6.3351   12.0217   26.1346 C   0  0  0  0  0  0  0  0  0  0  0  0
    6.8916    9.8759   25.1789 C   0  0  0  0  0  0  0  0  0  0  0  0
    7.3995   12.6050   25.4466 C   0  0  0  0  0  0  0  0  0  0  0  0
    8.7928    9.6722   23.6471 C   0  0  0  0  0  0  0  0  0  0  0  0
    9.8571   10.2554   22.9589 C   0  0  0  0  0  0  0  0  0  0  0  0
    9.3006   12.4013   23.9146 C   0  0  0  0  0  0  0  0  0  0  0  0
    7.9672   10.4461   24.4789 C   0  0  0  0  0  0  0  0  0  0  0  0
    8.2250   11.8311   24.6147 C   0  0  0  0  0  0  0  0  0  0  0  0
   10.1105   11.6174   23.0925 C   0  0  0  0  0  0  0  0  0  0  0  0
   10.6022   14.5703   21.7822 C   0  0  0  0  0  0  0  0  0  0  0  0
   13.5892   12.8523   24.6327 C   0  0  0  0  0  0  0  0  0  0  0  0
   12.9879   17.1239   20.8033 C   0  0  0  0  0  0  0  0  0  0  0  0
   13.1672   16.1046   21.9124 C   0  0  0  0  0  0  0  0  0  0  0  0
   10.6511   16.9525   20.9923 C   0  0  0  0  0  0  0  0  0  0  0  0
   10.8052   16.0046   22.1755 C   0  0  2  0  0  0  0  0  0  0  0  0
   13.7748   12.7694   26.1263 C   0  0  0  0  0  0  0  0  0  0  0  0
   12.6311   11.6329   22.6995 C   0  0  0  0  0  0  0  0  0  0  0  0
   11.2491   12.2390   22.3562 C   0  0  2  0  0  0  0  0  0  0  0  0
   11.3038   13.7009   22.5654 N   0  0  0  0  0  0  0  0  0  0  0  0
   12.9304   11.7527   24.1026 N   0  0  0  0  0  0  0  0  0  0  0  0
    9.8634   14.3002   20.8425 O   0  0  0  0  0  0  0  0  0  0  0  0
   13.9803   13.8204   23.9831 O   0  0  0  0  0  0  0  0  0  0  0  0
   11.7704   16.8550   20.1087 O   0  0  0  0  0  0  0  0  0  0  0  0
   12.0636   16.1627   22.8174 O   0  0  0  0  0  0  0  0  0  0  0  0
   15.3205   11.9646   26.4391 Cl  0  0  0  0  0  0  0  0  0  0  0  0
    5.2527   10.2069   26.5368 H   0  0  0  0  0  0  0  0  0  0  0  0
    5.7038   12.6314   26.7744 H   0  0  0  0  0  0  0  0  0  0  0  0
    6.6747    8.8133   25.0900 H   0  0  0  0  0  0  0  0  0  0  0  0
    7.5788   13.6716   25.5657 H   0  0  0  0  0  0  0  0  0  0  0  0
    8.6130    8.6056   23.5276 H   0  0  0  0  0  0  0  0  0  0  0  0
   10.4830    9.6377   22.3204 H   0  0  0  0  0  0  0  0  0  0  0  0
    9.5100   13.4656   24.0105 H   0  0  0  0  0  0  0  0  0  0  0  0
   12.9543   18.1451   21.2002 H   0  0  0  0  0  0  0  0  0  0  0  0
   13.8119   17.0602   20.0865 H   0  0  0  0  0  0  0  0  0  0  0  0
   13.2428   15.0894   21.5070 H   0  0  0  0  0  0  0  0  0  0  0  0
   14.0805   16.3113   22.4783 H   0  0  0  0  0  0  0  0  0  0  0  0
    9.7472   16.7256   20.4161 H   0  0  0  0  0  0  0  0  0  0  0  0
   10.5766   17.9930   21.3331 H   0  0  0  0  0  0  0  0  0  0  0  0
   10.0291   16.2293   22.9165 H   0  0  0  0  0  0  0  0  0  0  0  0
   13.7892   13.7528   26.6028 H   0  0  0  0  0  0  0  0  0  0  0  0
   12.9668   12.1741   26.5603 H   0  0  0  0  0  0  0  0  0  0  0  0
   12.6696   10.5628   22.4657 H   0  0  0  0  0  0  0  0  0  0  0  0
   13.4420   12.1217   22.1492 H   0  0  0  0  0  0  0  0  0  0  0  0
   11.1074   12.1003   21.2673 H   0  0  0  0  0  0  0  0  0  0  0  0
   11.8729   14.0644   23.3044 H   0  0  0  0  0  0  0  0  0  0  0  0
   12.6480   11.0023   24.7293 H   0  0  0  0  0  0  0  0  0  0  0  0
  1  2  1  0  0  0  0
  1  3  2  0  0  0  0
  2  4  2  0  0  0  0
  3  8  1  0  0  0  0
  4  9  1  0  0  0  0
  5  6  2  0  0  0  0
  5  8  1  0  0  0  0
  6 10  1  0  0  0  0
  7  9  1  0  0  0  0
  7 10  2  0  0  0  0
  8  9  2  0  0  0  0
 10 19  1  0  0  0  0
 11 16  1  0  0  0  0
 11 20  1  0  0  0  0
 11 22  2  0  0  0  0
 12 17  1  0  0  0  0
 12 21  1  0  0  0  0
 12 23  2  0  0  0  0
 13 14  1  0  0  0  0
 13 24  1  0  0  0  0
 14 25  1  0  0  0  0
 15 16  1  0  0  0  0
 15 24  1  0  0  0  0
 16 25  1  0  0  0  0
 17 26  1  0  0  0  0
 18 19  1  0  0  0  0
 18 21  1  0  0  0  0
 19 20  1  0  0  0  0
  1 27  1  0  0  0  0
  2 28  1  0  0  0  0
  3 29  1  0  0  0  0
  4 30  1  0  0  0  0
  5 31  1  0  0  0  0
  6 32  1  0  0  0  0
  7 33  1  0  0  0  0
 13 34  1  0  0  0  0
 13 35  1  0  0  0  0
 14 36  1  0  0  0  0
 14 37  1  0  0  0  0
 15 38  1  0  0  0  0
 15 39  1  0  0  0  0
 16 40  1  0  0  0  0
 17 41  1  0  0  0  0
 17 42  1  0  0  0  0
 18 43  1  0  0  0  0
 18 44  1  0  0  0  0
 19 45  1  0  0  0  0
 20 46  1  0  0  0  0
 21 47  1  0  0  0  0
M  END
> <Catalog ID>
Z4425210446

> <MW>
376.834

> <MW (desalted)>
376.834

> <ClogP>
1.795

> <logS>
-4.804

> <HBD>
2

> <HBA>
4

> <TPSA>
76.66

> <RotBonds>
6

> <ROCS_ShapeQuery>
A71EV2A-x0451_0A_A71EV2A-x0310_0A_A71EV2A-x0416_0A_peptide

> <ROCS_TanimotoCombo>
0.520 

> <ROCS_ShapeTanimoto>
0.362 

> <ROCS_ColorTanimoto>
0.158 

> <ROCS_RefTversky>
0.322 

> <ROCS_RefColorTversky>
0.182 

> <ROCS_RefTverskyCombo>
0.504 

> <ROCS_FitTversky>
1.530 

> <ROCS_FitColorTversky>
0.548 

> <ROCS_FitTverskyCombo>
2.078 

> <ROCS_ColorScore>
-5.562

> <ROCS_Overlap>
2237.210

> <ROCS_Rank>
420                 

$$$$
untitled-dbase-9138_1519
  -OEChem-11132309573D

 55 58  0     1  0  0  0  0  0999 V2000
    7.7224    9.7336   24.8007 C   0  0  0  0  0  0  0  0  0  0  0  0
    8.8204    9.9212   23.9612 C   0  0  0  0  0  0  0  0  0  0  0  0
    6.9902   10.8335   25.2477 C   0  0  0  0  0  0  0  0  0  0  0  0
    8.4542   12.3087   24.0158 C   0  0  0  0  0  0  0  0  0  0  0  0
    9.1864   11.2087   23.5688 C   0  0  0  0  0  0  0  0  0  0  0  0
    7.3562   12.1210   24.8553 C   0  0  0  0  0  0  0  0  0  0  0  0
    5.7936   15.5269   26.9593 C   0  0  0  0  0  0  0  0  0  0  0  0
    5.0046   14.6129   26.3857 C   0  0  0  0  0  0  0  0  0  0  0  0
   10.3417   11.4046   22.6855 C   0  0  0  0  0  0  0  0  0  0  0  0
    5.5010   13.2275   26.1418 C   0  0  0  0  0  0  0  0  0  0  0  0
   14.1819   16.1590   18.5607 C   0  0  0  0  0  0  0  0  0  0  0  0
   14.4246   16.5066   20.0207 C   0  0  0  0  0  0  0  0  0  0  0  0
   12.6872   16.1046   18.2822 C   0  0  0  0  0  0  0  0  0  0  0  0
   13.6711   15.5507   20.9479 C   0  0  0  0  0  0  0  0  0  0  0  0
   11.7936   13.2665   21.7219 C   0  0  0  0  0  0  0  0  0  0  0  0
   10.4587   15.2156   18.9562 C   0  0  0  0  0  0  0  0  0  0  0  0
    9.9177   14.8943   21.2033 C   0  0  0  0  0  0  0  0  0  0  0  0
   11.5068   15.3621   23.0748 C   0  0  0  0  0  0  0  0  0  0  0  0
   11.1458   13.2582   24.1039 C   0  0  0  0  0  0  0  0  0  0  0  0
   11.9585   15.1720   19.2651 C   0  0  2  0  0  0  0  0  0  0  0  0
   11.4041   14.7696   21.6439 C   0  0  1  0  0  0  0  0  0  0  0  0
   11.0642   12.5935   22.8082 N   0  0  0  0  0  0  0  0  0  0  0  0
   12.2240   15.5517   20.6732 N   0  0  1  0  0  0  0  0  0  0  0  0
    6.6235   13.2210   25.3023 N   0  0  0  0  0  0  0  0  0  0  0  0
   10.5861   10.4920   21.8984 O   0  0  0  0  0  0  0  0  0  0  0  0
    4.9478   12.2566   26.6446 O   0  0  0  0  0  0  0  0  0  0  0  0
    9.7331   14.4089   19.8759 O   0  0  0  0  0  0  0  0  0  0  0  0
   10.7043   14.6117   23.9948 O   0  0  0  0  0  0  0  0  0  0  0  0
    7.4371    8.7311   25.1060 H   0  0  0  0  0  0  0  0  0  0  0  0
    9.3839    9.0566   23.6201 H   0  0  0  0  0  0  0  0  0  0  0  0
    6.1365   10.6756   25.9022 H   0  0  0  0  0  0  0  0  0  0  0  0
    8.7403   13.3131   23.7106 H   0  0  0  0  0  0  0  0  0  0  0  0
    5.4676   16.5428   27.1523 H   0  0  0  0  0  0  0  0  0  0  0  0
    6.8049   15.2636   27.2514 H   0  0  0  0  0  0  0  0  0  0  0  0
    3.9935   14.8751   26.0937 H   0  0  0  0  0  0  0  0  0  0  0  0
   14.6595   16.9012   17.9116 H   0  0  0  0  0  0  0  0  0  0  0  0
   14.6359   15.1876   18.3303 H   0  0  0  0  0  0  0  0  0  0  0  0
   15.4981   16.4600   20.2366 H   0  0  0  0  0  0  0  0  0  0  0  0
   14.1039   17.5380   20.2142 H   0  0  0  0  0  0  0  0  0  0  0  0
   12.2730   17.1194   18.3507 H   0  0  0  0  0  0  0  0  0  0  0  0
   12.5241   15.7649   17.2522 H   0  0  0  0  0  0  0  0  0  0  0  0
   14.0949   14.5459   20.8350 H   0  0  0  0  0  0  0  0  0  0  0  0
   13.8792   15.8807   21.9693 H   0  0  0  0  0  0  0  0  0  0  0  0
   11.6272   12.7600   20.7684 H   0  0  0  0  0  0  0  0  0  0  0  0
   12.8544   13.1436   21.9682 H   0  0  0  0  0  0  0  0  0  0  0  0
   10.0634   16.2391   18.9809 H   0  0  0  0  0  0  0  0  0  0  0  0
   10.2696   14.8189   17.9528 H   0  0  0  0  0  0  0  0  0  0  0  0
    9.2530   14.3104   21.8485 H   0  0  0  0  0  0  0  0  0  0  0  0
    9.5687   15.9344   21.2592 H   0  0  0  0  0  0  0  0  0  0  0  0
   12.5308   15.3672   23.4619 H   0  0  0  0  0  0  0  0  0  0  0  0
   11.1470   16.3972   23.0934 H   0  0  0  0  0  0  0  0  0  0  0  0
   10.5142   12.7555   24.8417 H   0  0  0  0  0  0  0  0  0  0  0  0
   12.1823   13.2227   24.4593 H   0  0  0  0  0  0  0  0  0  0  0  0
   12.3149   14.1463   19.1008 H   0  0  0  0  0  0  0  0  0  0  0  0
    6.9467   14.1398   24.9759 H   0  0  0  0  0  0  0  0  0  0  0  0
  1  2  1  0  0  0  0
  1  3  2  0  0  0  0
  2  5  2  0  0  0  0
  3  6  1  0  0  0  0
  4  5  1  0  0  0  0
  4  6  2  0  0  0  0
  5  9  1  0  0  0  0
  6 24  1  0  0  0  0
  7  8  2  0  0  0  0
  8 10  1  0  0  0  0
  9 22  1  0  0  0  0
  9 25  2  0  0  0  0
 10 24  1  0  0  0  0
 10 26  2  0  0  0  0
 11 12  1  0  0  0  0
 11 13  1  0  0  0  0
 12 14  1  0  0  0  0
 13 20  1  0  0  0  0
 14 23  1  0  0  0  0
 15 21  1  0  0  0  0
 15 22  1  0  0  0  0
 16 20  1  0  0  0  0
 16 27  1  0  0  0  0
 17 21  1  0  0  0  0
 17 27  1  0  0  0  0
 18 21  1  0  0  0  0
 18 28  1  0  0  0  0
 19 22  1  0  0  0  0
 19 28  1  0  0  0  0
 20 23  1  1  0  0  0
 21 23  1  1  0  0  0
  1 29  1  0  0  0  0
  2 30  1  0  0  0  0
  3 31  1  0  0  0  0
  4 32  1  0  0  0  0
  7 33  1  0  0  0  0
  7 34  1  0  0  0  0
  8 35  1  0  0  0  0
 11 36  1  0  0  0  0
 11 37  1  0  0  0  0
 12 38  1  0  0  0  0
 12 39  1  0  0  0  0
 13 40  1  0  0  0  0
 13 41  1  0  0  0  0
 14 42  1  0  0  0  0
 14 43  1  0  0  0  0
 15 44  1  0  0  0  0
 15 45  1  0  0  0  0
 16 46  1  0  0  0  0
 16 47  1  0  0  0  0
 17 48  1  0  0  0  0
 17 49  1  0  0  0  0
 18 50  1  0  0  0  0
 18 51  1  0  0  0  0
 19 52  1  0  0  0  0
 19 53  1  0  0  0  0
 20 54  1  0  0  0  0
 24 55  1  0  0  0  0
M  END
> <Catalog ID>
Z3634129181

> <MW>
385.457

> <MW (desalted)>
385.457

> <ClogP>
1.601

> <logS>
-3.829

> <HBD>
1

> <HBA>
5

> <TPSA>
71.11

> <RotBonds>
3

> <ROCS_ShapeQuery>
A71EV2A-x0451_0A_A71EV2A-x0310_0A_A71EV2A-x0416_0A_peptide

> <ROCS_TanimotoCombo>
0.520 

> <ROCS_ShapeTanimoto>
0.384 

> <ROCS_ColorTanimoto>
0.136 

> <ROCS_RefTversky>
0.340 

> <ROCS_RefColorTversky>
0.167 

> <ROCS_RefTverskyCombo>
0.507 

> <ROCS_FitTversky>
1.512 

> <ROCS_FitColorTversky>
0.424 

> <ROCS_FitTverskyCombo>
1.936 

> <ROCS_ColorScore>
-5.110

> <ROCS_Overlap>
2366.801

> <ROCS_Rank>
421                 

$$$$
untitled-dbase-2489_15746
  -OEChem-11132309573D

 56 58  0     1  0  0  0  0  0999 V2000
   14.6884   16.4366   19.3380 C   0  0  0  0  0  0  0  0  0  0  0  0
   14.1097   16.0562   20.5436 C   0  0  0  0  0  0  0  0  0  0  0  0
    6.7379   10.4884   24.0942 C   0  0  0  0  0  0  0  0  0  0  0  0
    7.7670    9.6583   23.6500 C   0  0  0  0  0  0  0  0  0  0  0  0
    8.2444   12.3769   24.0553 C   0  0  0  0  0  0  0  0  0  0  0  0
   13.9151   16.3502   18.1916 C   0  0  0  0  0  0  0  0  0  0  0  0
   12.7939   15.6073   20.5657 C   0  0  0  0  0  0  0  0  0  0  0  0
    9.2735   11.5467   23.6111 C   0  0  0  0  0  0  0  0  0  0  0  0
    6.9766   11.8478   24.2969 C   0  0  0  0  0  0  0  0  0  0  0  0
    9.0348   10.1874   23.4084 C   0  0  0  0  0  0  0  0  0  0  0  0
   12.1053   15.5582   19.3644 C   0  0  0  0  0  0  0  0  0  0  0  0
   12.2008   15.2080   21.8670 C   0  0  0  0  0  0  0  0  0  0  0  0
   11.1235   13.2049   24.0206 C   0  0  0  0  0  0  0  0  0  0  0  0
    5.2871   12.0053   29.3422 C   0  0  0  0  0  0  0  0  0  0  0  0
    6.5484   11.6115   28.5785 C   0  0  0  0  0  0  0  0  0  0  0  0
    4.0637   11.9477   28.4317 C   0  0  0  0  0  0  0  0  0  0  0  0
    6.7190   12.4532   27.3181 C   0  0  0  0  0  0  0  0  0  0  0  0
    4.2688   12.7837   27.1728 C   0  0  0  0  0  0  0  0  0  0  0  0
   13.4389   12.3023   23.5920 C   0  0  0  0  0  0  0  0  0  0  0  0
   10.3986   14.2969   17.6296 C   0  0  0  0  0  0  0  0  0  0  0  0
   12.5164   13.5064   23.4735 C   0  0  1  0  0  0  0  0  0  0  0  0
   12.6339   15.9193   18.1736 N   0  0  0  0  0  0  0  0  0  0  0  0
    5.5011   12.3283   26.4640 N   0  0  0  0  0  0  0  0  0  0  0  0
   10.5325   12.1084   23.3778 N   0  0  0  0  0  0  0  0  0  0  0  0
   11.6091   15.9851   22.6001 O   0  0  0  0  0  0  0  0  0  0  0  0
   10.6383   13.8724   24.9297 O   0  0  0  0  0  0  0  0  0  0  0  0
    6.1790   14.2532   24.8892 O   0  0  0  0  0  0  0  0  0  0  0  0
    4.4792   12.5642   24.1110 O   0  0  0  0  0  0  0  0  0  0  0  0
   12.4099   13.8832   22.1098 O   0  0  0  0  0  0  0  0  0  0  0  0
   10.4082   14.9953   19.2939 S   0  0  0  0  0  0  0  0  0  0  0  0
    5.6732   12.8982   24.8566 S   0  0  0  0  0  0  0  0  0  0  0  0
   10.2806    9.1237   22.8593 Cl  0  0  0  0  0  0  0  0  0  0  0  0
   15.7124   16.7893   19.2967 H   0  0  0  0  0  0  0  0  0  0  0  0
   14.6951   16.1148   21.4577 H   0  0  0  0  0  0  0  0  0  0  0  0
    5.7538   10.0660   24.2782 H   0  0  0  0  0  0  0  0  0  0  0  0
    7.5641    8.6011   23.4967 H   0  0  0  0  0  0  0  0  0  0  0  0
    8.4274   13.4375   24.2136 H   0  0  0  0  0  0  0  0  0  0  0  0
   14.3202   16.6343   17.2260 H   0  0  0  0  0  0  0  0  0  0  0  0
    5.1451   11.3265   30.1922 H   0  0  0  0  0  0  0  0  0  0  0  0
    5.3996   13.0154   29.7514 H   0  0  0  0  0  0  0  0  0  0  0  0
    7.4210   11.7465   29.2298 H   0  0  0  0  0  0  0  0  0  0  0  0
    6.5046   10.5496   28.3127 H   0  0  0  0  0  0  0  0  0  0  0  0
    3.8550   10.9078   28.1566 H   0  0  0  0  0  0  0  0  0  0  0  0
    3.1884   12.3190   28.9797 H   0  0  0  0  0  0  0  0  0  0  0  0
    6.8569   13.5011   27.6056 H   0  0  0  0  0  0  0  0  0  0  0  0
    7.6006   12.1301   26.7528 H   0  0  0  0  0  0  0  0  0  0  0  0
    3.4046   12.6963   26.5041 H   0  0  0  0  0  0  0  0  0  0  0  0
    4.3801   13.8355   27.4583 H   0  0  0  0  0  0  0  0  0  0  0  0
   13.0291   11.4418   23.0509 H   0  0  0  0  0  0  0  0  0  0  0  0
   13.5884   12.0048   24.6342 H   0  0  0  0  0  0  0  0  0  0  0  0
   14.4155   12.5223   23.1478 H   0  0  0  0  0  0  0  0  0  0  0  0
    9.4098   13.8911   17.4024 H   0  0  0  0  0  0  0  0  0  0  0  0
   11.1377   13.4949   17.5595 H   0  0  0  0  0  0  0  0  0  0  0  0
   10.6429   15.0728   16.9001 H   0  0  0  0  0  0  0  0  0  0  0  0
   12.9361   14.3595   24.0177 H   0  0  0  0  0  0  0  0  0  0  0  0
   11.0979   11.6603   22.6496 H   0  0  0  0  0  0  0  0  0  0  0  0
  1  2  2  0  0  0  0
  1  6  1  0  0  0  0
  2  7  1  0  0  0  0
  3  4  2  0  0  0  0
  3  9  1  0  0  0  0
  4 10  1  0  0  0  0
  5  8  1  0  0  0  0
  5  9  2  0  0  0  0
  6 22  2  0  0  0  0
  7 11  2  0  0  0  0
  7 12  1  0  0  0  0
  8 10  2  0  0  0  0
  8 24  1  0  0  0  0
  9 31  1  0  0  0  0
 10 32  1  0  0  0  0
 11 22  1  0  0  0  0
 11 30  1  0  0  0  0
 12 25  2  0  0  0  0
 12 29  1  0  0  0  0
 13 21  1  0  0  0  0
 13 24  1  0  0  0  0
 13 26  2  0  0  0  0
 14 15  1  0  0  0  0
 14 16  1  0  0  0  0
 15 17  1  0  0  0  0
 16 18  1  0  0  0  0
 17 23  1  0  0  0  0
 18 23  1  0  0  0  0
 19 21  1  0  0  0  0
 20 30  1  0  0  0  0
 21 29  1  0  0  0  0
 23 31  1  0  0  0  0
 27 31  2  0  0  0  0
 28 31  2  0  0  0  0
  1 33  1  0  0  0  0
  2 34  1  0  0  0  0
  3 35  1  0  0  0  0
  4 36  1  0  0  0  0
  5 37  1  0  0  0  0
  6 38  1  0  0  0  0
 14 39  1  0  0  0  0
 14 40  1  0  0  0  0
 15 41  1  0  0  0  0
 15 42  1  0  0  0  0
 16 43  1  0  0  0  0
 16 44  1  0  0  0  0
 17 45  1  0  0  0  0
 17 46  1  0  0  0  0
 18 47  1  0  0  0  0
 18 48  1  0  0  0  0
 19 49  1  0  0  0  0
 19 50  1  0  0  0  0
 19 51  1  0  0  0  0
 20 52  1  0  0  0  0
 20 53  1  0  0  0  0
 20 54  1  0  0  0  0
 21 55  1  0  0  0  0
 24 56  1  0  0  0  0
M  END
> <Catalog ID>
Z18837341

> <MW>
498.015

> <MW (desalted)>
498.015

> <ClogP>
3.627

> <logS>
-5.72

> <HBD>
1

> <HBA>
5

> <TPSA>
105.67

> <RotBonds>
7

> <ROCS_ShapeQuery>
A71EV2A-x0451_0A_A71EV2A-x0310_0A_A71EV2A-x0416_0A_peptide

> <ROCS_TanimotoCombo>
0.520 

> <ROCS_ShapeTanimoto>
0.369 

> <ROCS_ColorTanimoto>
0.151 

> <ROCS_RefTversky>
0.335 

> <ROCS_RefColorTversky>
0.179 

> <ROCS_RefTverskyCombo>
0.513 

> <ROCS_FitTversky>
1.390 

> <ROCS_FitColorTversky>
0.493 

> <ROCS_FitTverskyCombo>
1.883 

> <ROCS_ColorScore>
-5.469

> <ROCS_Overlap>
2331.034

> <ROCS_Rank>
422                 

$$$$
untitled-dbase-1731_6216
  -OEChem-11132309573D

 43 45  0     0  0  0  0  0  0999 V2000
   14.9051   17.3278   17.5354 B   0  0  0  0  0  0  0  0  0  0  0  0
    6.6518   12.3867   26.2205 C   0  0  0  0  0  0  0  0  0  0  0  0
   14.3773   17.0194   19.9937 C   0  0  0  0  0  0  0  0  0  0  0  0
   13.6622   16.4878   21.0668 C   0  0  0  0  0  0  0  0  0  0  0  0
    6.8622   11.0305   25.9699 C   0  0  0  0  0  0  0  0  0  0  0  0
   12.2617   15.2621   19.5262 C   0  0  0  0  0  0  0  0  0  0  0  0
    7.3036   13.3275   25.4294 C   0  0  0  0  0  0  0  0  0  0  0  0
   14.0346   16.6725   18.6868 C   0  0  0  0  0  0  0  0  0  0  0  0
   12.6044   15.6091   20.8331 C   0  0  0  0  0  0  0  0  0  0  0  0
   12.9768   15.7938   18.4531 C   0  0  0  0  0  0  0  0  0  0  0  0
    7.7298   10.6996   24.9213 C   0  0  0  0  0  0  0  0  0  0  0  0
    8.3135   11.7401   24.2119 C   0  0  0  0  0  0  0  0  0  0  0  0
    8.9582    9.7827   23.4372 C   0  0  0  0  0  0  0  0  0  0  0  0
   12.5651   15.3895   17.1107 C   0  0  0  0  0  0  0  0  0  0  0  0
   11.8435   15.0428   21.9765 C   0  0  0  0  0  0  0  0  0  0  0  0
    9.9090   11.8024   22.2802 C   0  0  0  0  0  0  0  0  0  0  0  0
   10.4552   13.1422   22.7616 C   0  0  0  0  0  0  0  0  0  0  0  0
    9.6681    8.8102   22.5806 C   0  0  0  0  0  0  0  0  0  0  0  0
    8.1503   13.0592   24.4056 N   0  0  0  0  0  0  0  0  0  0  0  0
    8.1417    9.4862   24.4262 N   0  0  0  0  0  0  0  0  0  0  0  0
    9.0946   11.1345   23.2686 N   0  0  0  0  0  0  0  0  0  0  0  0
   11.2446   13.8075   21.7605 N   0  0  0  0  0  0  0  0  0  0  0  0
   11.6319   14.6146   16.9043 O   0  0  0  0  0  0  0  0  0  0  0  0
   11.7647   15.6840   23.0212 O   0  0  0  0  0  0  0  0  0  0  0  0
   16.2603   17.1045   17.4811 O   0  0  0  0  0  0  0  0  0  0  0  0
   14.3092   18.1227   16.5856 O   0  0  0  0  0  0  0  0  0  0  0  0
    9.4141    7.4986   22.8911 F   0  0  0  0  0  0  0  0  0  0  0  0
    9.3651    8.9122   21.2469 F   0  0  0  0  0  0  0  0  0  0  0  0
   11.0315    8.9309   22.6438 F   0  0  0  0  0  0  0  0  0  0  0  0
    5.9900   12.7019   27.0201 H   0  0  0  0  0  0  0  0  0  0  0  0
   15.1968   17.7017   20.2132 H   0  0  0  0  0  0  0  0  0  0  0  0
   13.9365   16.7656   22.0816 H   0  0  0  0  0  0  0  0  0  0  0  0
    6.3719   10.2688   26.5657 H   0  0  0  0  0  0  0  0  0  0  0  0
   11.4364   14.5757   19.3473 H   0  0  0  0  0  0  0  0  0  0  0  0
    7.1476   14.3869   25.6144 H   0  0  0  0  0  0  0  0  0  0  0  0
   13.1347   15.8132   16.2591 H   0  0  0  0  0  0  0  0  0  0  0  0
    9.2807   11.9479   21.3932 H   0  0  0  0  0  0  0  0  0  0  0  0
   10.7203   11.1225   21.9943 H   0  0  0  0  0  0  0  0  0  0  0  0
    9.6291   13.8147   23.0121 H   0  0  0  0  0  0  0  0  0  0  0  0
   11.0836   13.0238   23.6502 H   0  0  0  0  0  0  0  0  0  0  0  0
   11.3051   13.3694   20.8435 H   0  0  0  0  0  0  0  0  0  0  0  0
   16.5865   16.5310   18.1944 H   0  0  0  0  0  0  0  0  0  0  0  0
   14.9329   18.4726   15.9279 H   0  0  0  0  0  0  0  0  0  0  0  0
  1  8  1  0  0  0  0
  1 25  1  0  0  0  0
  1 26  1  0  0  0  0
  2  5  2  0  0  0  0
  2  7  1  0  0  0  0
  3  4  2  0  0  0  0
  3  8  1  0  0  0  0
  4  9  1  0  0  0  0
  5 11  1  0  0  0  0
  6  9  2  0  0  0  0
  6 10  1  0  0  0  0
  7 19  2  0  0  0  0
  8 10  2  0  0  0  0
  9 15  1  0  0  0  0
 10 14  1  0  0  0  0
 11 12  2  0  0  0  0
 11 20  1  0  0  0  0
 12 19  1  0  0  0  0
 12 21  1  0  0  0  0
 13 18  1  0  0  0  0
 13 20  2  0  0  0  0
 13 21  1  0  0  0  0
 14 23  2  0  0  0  0
 15 22  1  0  0  0  0
 15 24  2  0  0  0  0
 16 17  1  0  0  0  0
 16 21  1  0  0  0  0
 17 22  1  0  0  0  0
 18 27  1  0  0  0  0
 18 28  1  0  0  0  0
 18 29  1  0  0  0  0
  2 30  1  0  0  0  0
  3 31  1  0  0  0  0
  4 32  1  0  0  0  0
  5 33  1  0  0  0  0
  6 34  1  0  0  0  0
  7 35  1  0  0  0  0
 14 36  1  0  0  0  0
 16 37  1  0  0  0  0
 16 38  1  0  0  0  0
 17 39  1  0  0  0  0
 17 40  1  0  0  0  0
 22 41  1  0  0  0  0
 25 42  1  0  0  0  0
 26 43  1  0  0  0  0
M  END
> <Catalog ID>
Z7158434150

> <MW>
406.124

> <MW (desalted)>
406.124

> <ClogP>
1.605

> <logS>
-2.914

> <HBD>
3

> <HBA>
6

> <TPSA>
117.34

> <RotBonds>
7

> <ROCS_ShapeQuery>
A71EV2A-x0451_0A_A71EV2A-x0310_0A_A71EV2A-x0416_0A_peptide

> <ROCS_TanimotoCombo>
0.520 

> <ROCS_ShapeTanimoto>
0.365 

> <ROCS_ColorTanimoto>
0.155 

> <ROCS_RefTversky>
0.330 

> <ROCS_RefColorTversky>
0.179 

> <ROCS_RefTverskyCombo>
0.509 

> <ROCS_FitTversky>
1.408 

> <ROCS_FitColorTversky>
0.539 

> <ROCS_FitTverskyCombo>
1.947 

> <ROCS_ColorScore>
-5.475

> <ROCS_Overlap>
2297.736

> <ROCS_Rank>
423                 

$$$$
untitled-dbase-8558_56
  -OEChem-11132309573D

 32 34  0     0  0  0  0  0  0999 V2000
    9.3099   15.1030   22.7177 C   0  0  0  0  0  0  0  0  0  0  0  0
   10.6267   15.5888   22.5350 C   0  0  0  0  0  0  0  0  0  0  0  0
    7.3700   13.6138   25.0094 C   0  0  0  0  0  0  0  0  0  0  0  0
    6.6249   11.3175   25.3797 C   0  0  0  0  0  0  0  0  0  0  0  0
    8.4537   13.1900   24.2325 C   0  0  0  0  0  0  0  0  0  0  0  0
    6.4725   12.6982   25.5725 C   0  0  0  0  0  0  0  0  0  0  0  0
    7.7059   10.8761   24.6034 C   0  0  0  0  0  0  0  0  0  0  0  0
    8.5716   11.8160   24.0637 C   0  0  0  0  0  0  0  0  0  0  0  0
    9.4040   14.0787   23.6309 C   0  0  0  0  0  0  0  0  0  0  0  0
   11.4314   14.8269   23.3498 C   0  0  0  0  0  0  0  0  0  0  0  0
    9.1832    9.8362   23.5150 C   0  0  0  0  0  0  0  0  0  0  0  0
   12.8350   14.8556   23.5830 C   0  0  0  0  0  0  0  0  0  0  0  0
    5.3602   13.1850   26.3746 C   0  0  0  0  0  0  0  0  0  0  0  0
   10.0555    8.8572   22.8484 C   0  0  0  0  0  0  0  0  0  0  0  0
    3.4587   12.5087   27.6457 C   0  0  0  0  0  0  0  0  0  0  0  0
    8.1110    9.6137   24.2430 N   0  0  0  0  0  0  0  0  0  0  0  0
   13.4353   14.0867   24.3669 O   0  0  0  0  0  0  0  0  0  0  0  0
    5.1357   14.3798   26.6070 O   0  0  0  0  0  0  0  0  0  0  0  0
    9.5290   11.1447   23.3586 O   0  0  0  0  0  0  0  0  0  0  0  0
   10.6938   13.9041   24.0213 O   0  0  0  0  0  0  0  0  0  0  0  0
    4.5892   12.1560   26.8413 O   0  0  0  0  0  0  0  0  0  0  0  0
    8.4080   15.4579   22.2396 H   0  0  0  0  0  0  0  0  0  0  0  0
   10.9449   16.3939   21.8879 H   0  0  0  0  0  0  0  0  0  0  0  0
    7.2210   14.6796   25.1803 H   0  0  0  0  0  0  0  0  0  0  0  0
    5.9291   10.6080   25.8165 H   0  0  0  0  0  0  0  0  0  0  0  0
   13.4610   15.6145   23.0341 H   0  0  0  0  0  0  0  0  0  0  0  0
    9.7097    8.6435   21.8218 H   0  0  0  0  0  0  0  0  0  0  0  0
   11.1016    9.2072   22.7789 H   0  0  0  0  0  0  0  0  0  0  0  0
   10.0963    7.8949   23.3909 H   0  0  0  0  0  0  0  0  0  0  0  0
    2.9312   11.6020   27.9519 H   0  0  0  0  0  0  0  0  0  0  0  0
    2.7902   13.1560   27.0724 H   0  0  0  0  0  0  0  0  0  0  0  0
    3.8066   13.0424   28.5333 H   0  0  0  0  0  0  0  0  0  0  0  0
  1  2  1  0  0  0  0
  1  9  2  0  0  0  0
  2 10  2  0  0  0  0
  3  5  2  0  0  0  0
  3  6  1  0  0  0  0
  4  6  2  0  0  0  0
  4  7  1  0  0  0  0
  5  8  1  0  0  0  0
  5  9  1  0  0  0  0
  6 13  1  0  0  0  0
  7  8  2  0  0  0  0
  7 16  1  0  0  0  0
  8 19  1  0  0  0  0
  9 20  1  0  0  0  0
 10 12  1  0  0  0  0
 10 20  1  0  0  0  0
 11 14  1  0  0  0  0
 11 16  2  0  0  0  0
 11 19  1  0  0  0  0
 12 17  2  0  0  0  0
 13 18  2  0  0  0  0
 13 21  1  0  0  0  0
 15 21  1  0  0  0  0
  1 22  1  0  0  0  0
  2 23  1  0  0  0  0
  3 24  1  0  0  0  0
  4 25  1  0  0  0  0
 12 26  1  0  0  0  0
 14 27  1  0  0  0  0
 14 28  1  0  0  0  0
 14 29  1  0  0  0  0
 15 30  1  0  0  0  0
 15 31  1  0  0  0  0
 15 32  1  0  0  0  0
M  END
> <Catalog ID>
Z6214371666

> <MW>
285.252

> <MW (desalted)>
285.252

> <ClogP>
2.408

> <logS>
-3.145

> <HBD>
0

> <HBA>
3

> <TPSA>
82.54

> <RotBonds>
4

> <ROCS_ShapeQuery>
A71EV2A-x0451_0A_A71EV2A-x0310_0A_A71EV2A-x0416_0A_peptide

> <ROCS_TanimotoCombo>
0.520 

> <ROCS_ShapeTanimoto>
0.328 

> <ROCS_ColorTanimoto>
0.192 

> <ROCS_RefTversky>
0.293 

> <ROCS_RefColorTversky>
0.205 

> <ROCS_RefTverskyCombo>
0.498 

> <ROCS_FitTversky>
1.566 

> <ROCS_FitColorTversky>
0.756 

> <ROCS_FitTverskyCombo>
2.321 

> <ROCS_ColorScore>
-6.240

> <ROCS_Overlap>
2037.120

> <ROCS_Rank>
424                 

$$$$
untitled-dbase-9077_447
  -OEChem-11132309573D

 35 36  0     0  0  0  0  0  0999 V2000
    8.7103    7.5585   22.3556 C   0  0  0  0  0  0  0  0  0  0  0  0
    8.6234    8.6138   22.9218 C   0  0  0  0  0  0  0  0  0  0  0  0
   12.3954   15.1990   19.6464 C   0  0  0  0  0  0  0  0  0  0  0  0
   13.4523   15.6076   21.7802 C   0  0  0  0  0  0  0  0  0  0  0  0
   11.4988   14.3229   20.2582 C   0  0  0  0  0  0  0  0  0  0  0  0
   12.5557   14.7315   22.3921 C   0  0  0  0  0  0  0  0  0  0  0  0
    9.3808   10.9148   23.2593 C   0  0  0  0  0  0  0  0  0  0  0  0
    7.5577   10.0510   24.5887 C   0  0  0  0  0  0  0  0  0  0  0  0
    8.3170   12.3219   24.9103 C   0  0  0  0  0  0  0  0  0  0  0  0
    8.5200    9.8699   23.5953 C   0  0  0  0  0  0  0  0  0  0  0  0
    9.2793   12.1408   23.9169 C   0  0  0  0  0  0  0  0  0  0  0  0
   13.3721   15.8413   20.4074 C   0  0  0  0  0  0  0  0  0  0  0  0
   11.5790   14.0892   21.6310 C   0  0  0  0  0  0  0  0  0  0  0  0
    7.4562   11.2770   25.2462 C   0  0  0  0  0  0  0  0  0  0  0  0
   10.1780   13.2298   23.5681 C   0  0  0  0  0  0  0  0  0  0  0  0
   14.3307   16.7780   19.7532 C   0  0  0  0  0  0  0  0  0  0  0  0
   10.6677   13.1990   22.2532 N   0  0  0  0  0  0  0  0  0  0  0  0
   10.5051   14.0939   24.3934 O   0  0  0  0  0  0  0  0  0  0  0  0
    4.2614   12.2286   27.0304 O   0  0  0  0  0  0  0  0  0  0  0  0
    5.9408   13.9059   26.1346 O   0  0  0  0  0  0  0  0  0  0  0  0
    6.5184   11.4529   26.2170 O   0  0  0  0  0  0  0  0  0  0  0  0
   14.1351   16.9102   18.4078 F   0  0  0  0  0  0  0  0  0  0  0  0
   14.2757   18.0501   20.2475 F   0  0  0  0  0  0  0  0  0  0  0  0
   15.6299   16.3851   19.8972 F   0  0  0  0  0  0  0  0  0  0  0  0
    4.7212   12.4294   24.6759 F   0  0  0  0  0  0  0  0  0  0  0  0
    5.3399   12.5869   26.1308 S   0  0  0  0  0  0  0  0  0  0  0  0
    8.7871    6.6228   21.8531 H   0  0  0  0  0  0  0  0  0  0  0  0
   12.3271   15.3735   18.5759 H   0  0  0  0  0  0  0  0  0  0  0  0
   14.2106   16.1032   22.3807 H   0  0  0  0  0  0  0  0  0  0  0  0
   10.7414   13.8281   19.6554 H   0  0  0  0  0  0  0  0  0  0  0  0
   12.6278   14.5557   23.4625 H   0  0  0  0  0  0  0  0  0  0  0  0
   10.1329   10.7781   22.4848 H   0  0  0  0  0  0  0  0  0  0  0  0
    6.8827    9.2414   24.8578 H   0  0  0  0  0  0  0  0  0  0  0  0
    8.2351   13.2754   25.4268 H   0  0  0  0  0  0  0  0  0  0  0  0
   10.3242   12.4392   21.6709 H   0  0  0  0  0  0  0  0  0  0  0  0
  1  2  3  0  0  0  0
  2 10  1  0  0  0  0
  3  5  2  0  0  0  0
  3 12  1  0  0  0  0
  4  6  1  0  0  0  0
  4 12  2  0  0  0  0
  5 13  1  0  0  0  0
  6 13  2  0  0  0  0
  7 10  1  0  0  0  0
  7 11  2  0  0  0  0
  8 10  2  0  0  0  0
  8 14  1  0  0  0  0
  9 11  1  0  0  0  0
  9 14  2  0  0  0  0
 11 15  1  0  0  0  0
 12 16  1  0  0  0  0
 13 17  1  0  0  0  0
 14 21  1  0  0  0  0
 15 17  1  0  0  0  0
 15 18  2  0  0  0  0
 16 22  1  0  0  0  0
 16 23  1  0  0  0  0
 16 24  1  0  0  0  0
 19 26  2  0  0  0  0
 20 26  2  0  0  0  0
 21 26  1  0  0  0  0
 25 26  1  0  0  0  0
  1 27  1  0  0  0  0
  3 28  1  0  0  0  0
  4 29  1  0  0  0  0
  5 30  1  0  0  0  0
  6 31  1  0  0  0  0
  7 32  1  0  0  0  0
  8 33  1  0  0  0  0
  9 34  1  0  0  0  0
 17 35  1  0  0  0  0
M  END
> <Catalog ID>
Z4386044746

> <MW>
387.306

> <MW (desalted)>
387.306

> <ClogP>
2.678

> <logS>
-6

> <HBD>
1

> <HBA>
3

> <TPSA>
72.47

> <RotBonds>
5

> <ROCS_ShapeQuery>
A71EV2A-x0451_0A_A71EV2A-x0310_0A_A71EV2A-x0416_0A_peptide

> <ROCS_TanimotoCombo>
0.520 

> <ROCS_ShapeTanimoto>
0.358 

> <ROCS_ColorTanimoto>
0.162 

> <ROCS_RefTversky>
0.319 

> <ROCS_RefColorTversky>
0.177 

> <ROCS_RefTverskyCombo>
0.496 

> <ROCS_FitTversky>
1.512 

> <ROCS_FitColorTversky>
0.656 

> <ROCS_FitTverskyCombo>
2.168 

> <ROCS_ColorScore>
-5.403

> <ROCS_Overlap>
2219.513

> <ROCS_Rank>
425                 

$$$$
untitled-dbase-1996_6883
  -OEChem-11132309573D

 46 48  0     1  0  0  0  0  0999 V2000
   14.5454   15.5780   18.8373 C   0  0  0  0  0  0  0  0  0  0  0  0
   14.7840   15.4137   20.1980 C   0  0  0  0  0  0  0  0  0  0  0  0
    6.9402   12.5671   25.6572 C   0  0  0  0  0  0  0  0  0  0  0  0
   13.2359   15.6546   18.3647 C   0  0  0  0  0  0  0  0  0  0  0  0
   13.7132   15.3271   21.0870 C   0  0  0  0  0  0  0  0  0  0  0  0
    7.9523   12.6333   24.6997 C   0  0  0  0  0  0  0  0  0  0  0  0
    6.8502   10.1669   25.3963 C   0  0  0  0  0  0  0  0  0  0  0  0
    6.3892   11.3339   26.0056 C   0  0  0  0  0  0  0  0  0  0  0  0
   12.1484   15.5592   19.2472 C   0  0  0  0  0  0  0  0  0  0  0  0
   12.3880   15.4039   20.6259 C   0  0  0  0  0  0  0  0  0  0  0  0
    8.4133   11.4663   24.0904 C   0  0  0  0  0  0  0  0  0  0  0  0
    7.8623   10.2331   24.4387 C   0  0  0  0  0  0  0  0  0  0  0  0
    5.3354   11.2649   27.0055 C   0  0  0  0  0  0  0  0  0  0  0  0
   10.6648   13.5905   23.3456 C   0  0  0  0  0  0  0  0  0  0  0  0
   10.7514   15.6950   18.6951 C   0  0  0  0  0  0  0  0  0  0  0  0
    9.6670   15.2187   19.6582 C   0  0  0  0  0  0  0  0  0  0  0  0
    9.9137   15.7746   21.0571 C   0  0  0  0  0  0  0  0  0  0  0  0
   11.2525   15.2811   21.6187 C   0  0  1  0  0  0  0  0  0  0  0  0
    9.3878    8.4094   24.4891 C   0  0  0  0  0  0  0  0  0  0  0  0
   10.6457   12.0922   23.5607 C   0  0  0  0  0  0  0  0  0  0  0  0
   11.1327   13.9162   22.0849 N   0  0  0  0  0  0  0  0  0  0  0  0
    4.8866   12.2599   27.5813 O   0  0  0  0  0  0  0  0  0  0  0  0
   10.3023   14.3894   24.2049 O   0  0  0  0  0  0  0  0  0  0  0  0
    8.3056    9.0860   23.8527 O   0  0  0  0  0  0  0  0  0  0  0  0
    9.4115   11.5449   23.1481 O   0  0  0  0  0  0  0  0  0  0  0  0
   15.3780   15.6492   18.1438 H   0  0  0  0  0  0  0  0  0  0  0  0
   15.8032   15.3533   20.5681 H   0  0  0  0  0  0  0  0  0  0  0  0
    6.5889   13.4829   26.1256 H   0  0  0  0  0  0  0  0  0  0  0  0
   13.0653   15.7927   17.2996 H   0  0  0  0  0  0  0  0  0  0  0  0
   13.9171   15.1986   22.1475 H   0  0  0  0  0  0  0  0  0  0  0  0
    8.3773   13.5969   24.4325 H   0  0  0  0  0  0  0  0  0  0  0  0
    6.4243    9.2036   25.6673 H   0  0  0  0  0  0  0  0  0  0  0  0
    4.9274   10.2600   27.2500 H   0  0  0  0  0  0  0  0  0  0  0  0
   10.5833   16.7533   18.4587 H   0  0  0  0  0  0  0  0  0  0  0  0
   10.6632   15.1299   17.7594 H   0  0  0  0  0  0  0  0  0  0  0  0
    8.6853   15.5406   19.2927 H   0  0  0  0  0  0  0  0  0  0  0  0
    9.6505   14.1222   19.6901 H   0  0  0  0  0  0  0  0  0  0  0  0
    9.9230   16.8717   21.0087 H   0  0  0  0  0  0  0  0  0  0  0  0
    9.0883   15.5034   21.7263 H   0  0  0  0  0  0  0  0  0  0  0  0
   11.4872   15.8846   22.5067 H   0  0  0  0  0  0  0  0  0  0  0  0
    9.6424    7.5118   23.9202 H   0  0  0  0  0  0  0  0  0  0  0  0
    9.1004    8.1384   25.5082 H   0  0  0  0  0  0  0  0  0  0  0  0
   10.2535    9.0752   24.5216 H   0  0  0  0  0  0  0  0  0  0  0  0
   11.4440   11.6326   22.9701 H   0  0  0  0  0  0  0  0  0  0  0  0
   10.8061   11.8625   24.6187 H   0  0  0  0  0  0  0  0  0  0  0  0
   11.4037   13.1655   21.4600 H   0  0  0  0  0  0  0  0  0  0  0  0
  1  2  1  0  0  0  0
  1  4  2  0  0  0  0
  2  5  2  0  0  0  0
  3  6  2  0  0  0  0
  3  8  1  0  0  0  0
  4  9  1  0  0  0  0
  5 10  1  0  0  0  0
  6 11  1  0  0  0  0
  7  8  2  0  0  0  0
  7 12  1  0  0  0  0
  8 13  1  0  0  0  0
  9 10  2  0  0  0  0
  9 15  1  0  0  0  0
 10 18  1  0  0  0  0
 11 12  2  0  0  0  0
 11 25  1  0  0  0  0
 12 24  1  0  0  0  0
 13 22  2  0  0  0  0
 14 20  1  0  0  0  0
 14 21  1  0  0  0  0
 14 23  2  0  0  0  0
 15 16  1  0  0  0  0
 16 17  1  0  0  0  0
 17 18  1  0  0  0  0
 18 21  1  0  0  0  0
 19 24  1  0  0  0  0
 20 25  1  0  0  0  0
  1 26  1  0  0  0  0
  2 27  1  0  0  0  0
  3 28  1  0  0  0  0
  4 29  1  0  0  0  0
  5 30  1  0  0  0  0
  6 31  1  0  0  0  0
  7 32  1  0  0  0  0
 13 33  1  0  0  0  0
 15 34  1  0  0  0  0
 15 35  1  0  0  0  0
 16 36  1  0  0  0  0
 16 37  1  0  0  0  0
 17 38  1  0  0  0  0
 17 39  1  0  0  0  0
 18 40  1  0  0  0  0
 19 41  1  0  0  0  0
 19 42  1  0  0  0  0
 19 43  1  0  0  0  0
 20 44  1  0  0  0  0
 20 45  1  0  0  0  0
 21 46  1  0  0  0  0
M  END
> <Catalog ID>
Z19660139

> <MW>
339.385

> <MW (desalted)>
339.385

> <ClogP>
3.065

> <logS>
-4.315

> <HBD>
1

> <HBA>
4

> <TPSA>
64.63

> <RotBonds>
6

> <ROCS_ShapeQuery>
A71EV2A-x0451_0A_A71EV2A-x0310_0A_A71EV2A-x0416_0A_peptide

> <ROCS_TanimotoCombo>
0.520 

> <ROCS_ShapeTanimoto>
0.363 

> <ROCS_ColorTanimoto>
0.157 

> <ROCS_RefTversky>
0.321 

> <ROCS_RefColorTversky>
0.176 

> <ROCS_RefTverskyCombo>
0.498 

> <ROCS_FitTversky>
1.565 

> <ROCS_FitColorTversky>
0.586 

> <ROCS_FitTverskyCombo>
2.151 

> <ROCS_ColorScore>
-5.384

> <ROCS_Overlap>
2232.512

> <ROCS_Rank>
426                 

$$$$
untitled-dbase-8185_6249
  -OEChem-11132309573D

 62 65  0     1  0  0  0  0  0999 V2000
    4.5299   13.2207   28.7982 C   0  0  0  0  0  0  0  0  0  0  0  0
    5.1757   12.0415   29.1699 C   0  0  0  0  0  0  0  0  0  0  0  0
    4.3258   13.5085   27.4487 C   0  0  0  0  0  0  0  0  0  0  0  0
    5.6176   11.1503   28.1921 C   0  0  0  0  0  0  0  0  0  0  0  0
    4.7676   12.6173   26.4709 C   0  0  0  0  0  0  0  0  0  0  0  0
    5.4135   11.4382   26.8426 C   0  0  0  0  0  0  0  0  0  0  0  0
   17.1410   10.6442   26.1555 C   0  0  0  0  0  0  0  0  0  0  0  0
   16.2901   11.1623   25.2672 C   0  0  0  0  0  0  0  0  0  0  0  0
   15.5931   12.4211   25.5976 C   0  0  0  0  0  0  0  0  0  0  0  0
   11.1275   13.5678   23.3906 C   0  0  0  0  0  0  0  0  0  0  0  0
   10.2371    8.6535   23.1081 C   0  0  0  0  0  0  0  0  0  0  0  0
   10.4414    9.7938   24.1242 C   0  0  0  0  0  0  0  0  0  0  0  0
    9.1837    9.5451   22.4219 C   0  0  0  0  0  0  0  0  0  0  0  0
   13.2826   14.6137   24.0614 C   0  0  0  0  0  0  0  0  0  0  0  0
   13.2583   12.3717   22.8521 C   0  0  0  0  0  0  0  0  0  0  0  0
   13.6065   13.8615   25.3524 C   0  0  0  0  0  0  0  0  0  0  0  0
   13.5885   11.7015   24.1857 C   0  0  0  0  0  0  0  0  0  0  0  0
    7.3128   11.8712   24.4013 C   0  0  0  0  0  0  0  0  0  0  0  0
    7.8809    9.6330   24.6795 C   0  0  0  0  0  0  0  0  0  0  0  0
   12.5742   13.7330   23.0255 C   0  0  0  0  0  0  0  0  0  0  0  0
    8.7597   11.7782   23.9142 C   0  0  1  0  0  0  0  0  0  0  0  0
    8.9863   10.2630   23.8029 C   0  0  0  0  0  0  0  0  0  0  0  0
    5.8891   10.4795   25.7895 C   0  0  0  0  0  0  0  0  0  0  0  0
    8.9868   12.5560   22.6314 C   0  0  0  0  0  0  0  0  0  0  0  0
   14.3282   12.6244   25.0542 N   0  0  0  0  0  0  0  0  0  0  0  0
    7.2504   10.7692   25.3641 N   0  0  2  0  0  0  0  0  0  0  0  0
   10.3746   12.8319   22.4769 N   0  0  0  0  0  0  0  0  0  0  0  0
   16.1769   13.2195   26.3325 O   0  0  0  0  0  0  0  0  0  0  0  0
   10.7054   14.0658   24.4277 O   0  0  0  0  0  0  0  0  0  0  0  0
    4.1846   13.9138   29.5598 H   0  0  0  0  0  0  0  0  0  0  0  0
    5.3337   11.8167   30.2207 H   0  0  0  0  0  0  0  0  0  0  0  0
    3.8220   14.4259   27.1590 H   0  0  0  0  0  0  0  0  0  0  0  0
    6.1200   10.2341   28.4910 H   0  0  0  0  0  0  0  0  0  0  0  0
    4.6044   12.8500   25.4219 H   0  0  0  0  0  0  0  0  0  0  0  0
   17.6824    9.7226   25.9700 H   0  0  0  0  0  0  0  0  0  0  0  0
   17.3120   11.1461   27.1020 H   0  0  0  0  0  0  0  0  0  0  0  0
   16.0936   10.6915   24.3128 H   0  0  0  0  0  0  0  0  0  0  0  0
   11.1090    8.3954   22.5016 H   0  0  0  0  0  0  0  0  0  0  0  0
    9.8249    7.7368   23.5454 H   0  0  0  0  0  0  0  0  0  0  0  0
   10.6482    9.4792   25.1526 H   0  0  0  0  0  0  0  0  0  0  0  0
   11.2269   10.4995   23.8208 H   0  0  0  0  0  0  0  0  0  0  0  0
    9.6083   10.1832   21.6401 H   0  0  0  0  0  0  0  0  0  0  0  0
    8.3137    9.0235   22.0191 H   0  0  0  0  0  0  0  0  0  0  0  0
   12.6669   15.4899   24.3009 H   0  0  0  0  0  0  0  0  0  0  0  0
   14.2192   14.9937   23.6321 H   0  0  0  0  0  0  0  0  0  0  0  0
   14.1901   12.5043   22.2863 H   0  0  0  0  0  0  0  0  0  0  0  0
   12.6216   11.7014   22.2610 H   0  0  0  0  0  0  0  0  0  0  0  0
   14.1928   14.5075   26.0137 H   0  0  0  0  0  0  0  0  0  0  0  0
   12.6898   13.5922   25.8897 H   0  0  0  0  0  0  0  0  0  0  0  0
   12.6693   11.4275   24.7167 H   0  0  0  0  0  0  0  0  0  0  0  0
   14.1266   10.7692   24.0114 H   0  0  0  0  0  0  0  0  0  0  0  0
    7.1475   12.8351   24.8909 H   0  0  0  0  0  0  0  0  0  0  0  0
    6.5928   11.7500   23.5920 H   0  0  0  0  0  0  0  0  0  0  0  0
    7.1316    9.1251   24.0681 H   0  0  0  0  0  0  0  0  0  0  0  0
    8.3051    8.9089   25.3807 H   0  0  0  0  0  0  0  0  0  0  0  0
   12.5804   14.2558   22.0602 H   0  0  0  0  0  0  0  0  0  0  0  0
    9.4317   12.2271   24.7028 H   0  0  0  0  0  0  0  0  0  0  0  0
    5.8648    9.4506   26.1648 H   0  0  0  0  0  0  0  0  0  0  0  0
    5.2462   10.5179   24.9039 H   0  0  0  0  0  0  0  0  0  0  0  0
    8.6236   11.9376   21.8132 H   0  0  0  0  0  0  0  0  0  0  0  0
    8.4171   13.4794   22.7115 H   0  0  0  0  0  0  0  0  0  0  0  0
   10.8491   12.4674   21.6436 H   0  0  0  0  0  0  0  0  0  0  0  0
  1  2  1  0  0  0  0
  1  3  2  0  0  0  0
  2  4  2  0  0  0  0
  3  5  1  0  0  0  0
  4  6  1  0  0  0  0
  5  6  2  0  0  0  0
  6 23  1  0  0  0  0
  7  8  2  0  0  0  0
  8  9  1  0  0  0  0
  9 25  1  0  0  0  0
  9 28  2  0  0  0  0
 10 20  1  0  0  0  0
 10 27  1  0  0  0  0
 10 29  2  0  0  0  0
 11 12  1  0  0  0  0
 11 13  1  0  0  0  0
 12 22  1  0  0  0  0
 13 22  1  0  0  0  0
 14 16  1  0  0  0  0
 14 20  1  0  0  0  0
 15 17  1  0  0  0  0
 15 20  1  0  0  0  0
 16 25  1  0  0  0  0
 17 25  1  0  0  0  0
 18 21  1  0  0  0  0
 18 26  1  0  0  0  0
 19 22  1  0  0  0  0
 19 26  1  0  0  0  0
 21 22  1  0  0  0  0
 21 24  1  0  0  0  0
 23 26  1  0  0  0  0
 24 27  1  0  0  0  0
  1 30  1  0  0  0  0
  2 31  1  0  0  0  0
  3 32  1  0  0  0  0
  4 33  1  0  0  0  0
  5 34  1  0  0  0  0
  7 35  1  0  0  0  0
  7 36  1  0  0  0  0
  8 37  1  0  0  0  0
 11 38  1  0  0  0  0
 11 39  1  0  0  0  0
 12 40  1  0  0  0  0
 12 41  1  0  0  0  0
 13 42  1  0  0  0  0
 13 43  1  0  0  0  0
 14 44  1  0  0  0  0
 14 45  1  0  0  0  0
 15 46  1  0  0  0  0
 15 47  1  0  0  0  0
 16 48  1  0  0  0  0
 16 49  1  0  0  0  0
 17 50  1  0  0  0  0
 17 51  1  0  0  0  0
 18 52  1  0  0  0  0
 18 53  1  0  0  0  0
 19 54  1  0  0  0  0
 19 55  1  0  0  0  0
 20 56  1  0  0  0  0
 21 57  1  0  0  0  0
 23 58  1  0  0  0  0
 23 59  1  0  0  0  0
 24 60  1  0  0  0  0
 24 61  1  0  0  0  0
 27 62  1  0  0  0  0
M  END
> <Catalog ID>
Z2647432053

> <MW>
395.538

> <MW (desalted)>
395.538

> <ClogP>
1.404

> <logS>
-3.591

> <HBD>
1

> <HBA>
3

> <TPSA>
52.65

> <RotBonds>
6

> <ROCS_ShapeQuery>
A71EV2A-x0451_0A_A71EV2A-x0310_0A_A71EV2A-x0416_0A_peptide

> <ROCS_TanimotoCombo>
0.520 

> <ROCS_ShapeTanimoto>
0.355 

> <ROCS_ColorTanimoto>
0.165 

> <ROCS_RefTversky>
0.321 

> <ROCS_RefColorTversky>
0.189 

> <ROCS_RefTverskyCombo>
0.510 

> <ROCS_FitTversky>
1.413 

> <ROCS_FitColorTversky>
0.569 

> <ROCS_FitTverskyCombo>
1.982 

> <ROCS_ColorScore>
-5.775

> <ROCS_Overlap>
2237.411

> <ROCS_Rank>
427                 

$$$$
untitled-dbase-8108_11706
  -OEChem-11132309573D

 43 45  0     0  0  0  0  0  0999 V2000
    7.8304   13.0074   25.0113 C   0  0  0  0  0  0  0  0  0  0  0  0
    6.9719   10.3923   25.8602 C   0  0  0  0  0  0  0  0  0  0  0  0
    9.2153   10.2199   23.1269 C   0  0  0  0  0  0  0  0  0  0  0  0
    8.2939   11.8482   24.3592 C   0  0  0  0  0  0  0  0  0  0  0  0
    6.9383   12.8264   26.0645 C   0  0  0  0  0  0  0  0  0  0  0  0
    6.5219   11.5530   26.4758 C   0  0  0  0  0  0  0  0  0  0  0  0
    9.1751   11.5865   23.2757 C   0  0  0  0  0  0  0  0  0  0  0  0
    7.8561   10.5976   24.7990 C   0  0  0  0  0  0  0  0  0  0  0  0
   14.6182    9.9770   26.8308 C   0  0  0  0  0  0  0  0  0  0  0  0
   15.0802   10.6409   25.7669 C   0  0  0  0  0  0  0  0  0  0  0  0
   14.9454   12.1199   25.6857 C   0  0  0  0  0  0  0  0  0  0  0  0
   10.8376   13.4874   23.2644 C   0  0  0  0  0  0  0  0  0  0  0  0
    6.3364   13.8885   26.9329 C   0  0  0  0  0  0  0  0  0  0  0  0
    5.6041   11.6517   27.6562 C   0  0  0  0  0  0  0  0  0  0  0  0
    5.1731   13.1229   27.5785 C   0  0  0  0  0  0  0  0  0  0  0  0
    9.9065   12.5769   22.4632 C   0  0  0  0  0  0  0  0  0  0  0  0
   13.3996   13.8820   24.8790 C   0  0  0  0  0  0  0  0  0  0  0  0
   13.2070   14.2187   23.4099 C   0  0  0  0  0  0  0  0  0  0  0  0
   13.7583   12.5033   25.0774 N   0  0  0  0  0  0  0  0  0  0  0  0
   12.1482   13.4405   22.8108 N   0  0  0  0  0  0  0  0  0  0  0  0
   15.8034   12.8855   26.1133 O   0  0  0  0  0  0  0  0  0  0  0  0
   10.4404   14.1767   24.2004 O   0  0  0  0  0  0  0  0  0  0  0  0
    8.4212    9.6117   24.0452 O   0  0  0  0  0  0  0  0  0  0  0  0
    8.1531   13.9983   24.7102 H   0  0  0  0  0  0  0  0  0  0  0  0
    6.6659    9.4034   26.1761 H   0  0  0  0  0  0  0  0  0  0  0  0
    9.7358    9.5568   22.4509 H   0  0  0  0  0  0  0  0  0  0  0  0
   14.7192    8.8979   26.8824 H   0  0  0  0  0  0  0  0  0  0  0  0
   14.1365   10.4738   27.6658 H   0  0  0  0  0  0  0  0  0  0  0  0
   15.5565   10.1055   24.9528 H   0  0  0  0  0  0  0  0  0  0  0  0
    7.0621   14.2141   27.6853 H   0  0  0  0  0  0  0  0  0  0  0  0
    5.9789   14.7474   26.3579 H   0  0  0  0  0  0  0  0  0  0  0  0
    4.7452   10.9794   27.5766 H   0  0  0  0  0  0  0  0  0  0  0  0
    6.1569   11.4494   28.5795 H   0  0  0  0  0  0  0  0  0  0  0  0
    4.8969   13.5295   28.5563 H   0  0  0  0  0  0  0  0  0  0  0  0
    4.2876   13.2039   26.9327 H   0  0  0  0  0  0  0  0  0  0  0  0
   10.5192   12.0795   21.6853 H   0  0  0  0  0  0  0  0  0  0  0  0
    9.2086   13.2320   21.9049 H   0  0  0  0  0  0  0  0  0  0  0  0
   12.4873   14.0686   25.4545 H   0  0  0  0  0  0  0  0  0  0  0  0
   14.2076   14.4879   25.3008 H   0  0  0  0  0  0  0  0  0  0  0  0
   12.9355   15.2726   23.2952 H   0  0  0  0  0  0  0  0  0  0  0  0
   14.1194   14.0307   22.8348 H   0  0  0  0  0  0  0  0  0  0  0  0
   13.1210   11.7903   24.7257 H   0  0  0  0  0  0  0  0  0  0  0  0
   12.3717   12.8348   22.0265 H   0  0  0  0  0  0  0  0  0  0  0  0
  1  4  1  0  0  0  0
  1  5  2  0  0  0  0
  2  6  2  0  0  0  0
  2  8  1  0  0  0  0
  3  7  2  0  0  0  0
  3 23  1  0  0  0  0
  4  7  1  0  0  0  0
  4  8  2  0  0  0  0
  5  6  1  0  0  0  0
  5 13  1  0  0  0  0
  6 14  1  0  0  0  0
  7 16  1  0  0  0  0
  8 23  1  0  0  0  0
  9 10  2  0  0  0  0
 10 11  1  0  0  0  0
 11 19  1  0  0  0  0
 11 21  2  0  0  0  0
 12 16  1  0  0  0  0
 12 20  1  0  0  0  0
 12 22  2  0  0  0  0
 13 15  1  0  0  0  0
 14 15  1  0  0  0  0
 17 18  1  0  0  0  0
 17 19  1  0  0  0  0
 18 20  1  0  0  0  0
  1 24  1  0  0  0  0
  2 25  1  0  0  0  0
  3 26  1  0  0  0  0
  9 27  1  0  0  0  0
  9 28  1  0  0  0  0
 10 29  1  0  0  0  0
 13 30  1  0  0  0  0
 13 31  1  0  0  0  0
 14 32  1  0  0  0  0
 14 33  1  0  0  0  0
 15 34  1  0  0  0  0
 15 35  1  0  0  0  0
 16 36  1  0  0  0  0
 16 37  1  0  0  0  0
 17 38  1  0  0  0  0
 17 39  1  0  0  0  0
 18 40  1  0  0  0  0
 18 41  1  0  0  0  0
 19 42  1  0  0  0  0
 20 43  1  0  0  0  0
M  END
> <Catalog ID>
Z1171855459

> <MW>
312.363

> <MW (desalted)>
312.363

> <ClogP>
2.226

> <logS>
-4.276

> <HBD>
2

> <HBA>
2

> <TPSA>
71.34

> <RotBonds>
6

> <ROCS_ShapeQuery>
A71EV2A-x0451_0A_A71EV2A-x0310_0A_A71EV2A-x0416_0A_peptide

> <ROCS_TanimotoCombo>
0.520 

> <ROCS_ShapeTanimoto>
0.335 

> <ROCS_ColorTanimoto>
0.185 

> <ROCS_RefTversky>
0.299 

> <ROCS_RefColorTversky>
0.208 

> <ROCS_RefTverskyCombo>
0.508 

> <ROCS_FitTversky>
1.546 

> <ROCS_FitColorTversky>
0.626 

> <ROCS_FitTverskyCombo>
2.172 

> <ROCS_ColorScore>
-6.368

> <ROCS_Overlap>
2080.208

> <ROCS_Rank>
428                 

$$$$
untitled-dbase-11641_7022
  -OEChem-11132309573D

 57 58  0     0  0  0  0  0  0999 V2000
    9.8615   10.7432   23.0776 C   0  0  0  0  0  0  0  0  0  0  0  0
    9.5468   12.0046   23.6175 C   0  0  0  0  0  0  0  0  0  0  0  0
    8.8121    9.9389   23.4495 C   0  0  0  0  0  0  0  0  0  0  0  0
   10.3455   13.2535   23.5209 C   0  0  0  0  0  0  0  0  0  0  0  0
   13.5349   13.1735   22.9527 C   0  0  0  0  0  0  0  0  0  0  0  0
   14.3660   16.4974   18.9743 C   0  0  0  0  0  0  0  0  0  0  0  0
   13.2891   15.8983   18.0759 C   0  0  0  0  0  0  0  0  0  0  0  0
   14.7398   15.6598   20.1966 C   0  0  0  0  0  0  0  0  0  0  0  0
   11.9855   15.5192   18.7784 C   0  0  0  0  0  0  0  0  0  0  0  0
   13.6413   15.6537   21.2597 C   0  0  0  0  0  0  0  0  0  0  0  0
   12.1320   14.2768   19.6589 C   0  0  0  0  0  0  0  0  0  0  0  0
   12.5838   14.5370   21.1137 C   0  0  0  0  0  0  0  0  0  0  0  0
    8.5481    8.5111   23.1943 C   0  0  0  0  0  0  0  0  0  0  0  0
    6.9585    9.2292   25.8027 C   0  0  0  0  0  0  0  0  0  0  0  0
    5.7386    9.8475   23.6792 C   0  0  0  0  0  0  0  0  0  0  0  0
    5.9942   11.5007   25.5152 C   0  0  0  0  0  0  0  0  0  0  0  0
   14.0448   11.7927   23.2778 C   0  0  0  0  0  0  0  0  0  0  0  0
   11.3651   14.9084   21.9790 C   0  0  0  0  0  0  0  0  0  0  0  0
    6.7127   10.3499   24.7682 C   0  0  0  0  0  0  0  0  0  0  0  0
    8.3880   12.0065   24.2818 N   0  0  0  0  0  0  0  0  0  0  0  0
    7.9654   10.7365   24.1616 N   0  0  0  0  0  0  0  0  0  0  0  0
   10.5982   13.7413   22.2335 N   0  0  0  0  0  0  0  0  0  0  0  0
   13.1307   13.2905   21.6420 N   0  0  0  0  0  0  0  0  0  0  0  0
   10.7586   13.7826   24.5495 O   0  0  0  0  0  0  0  0  0  0  0  0
   13.4870   14.0635   23.8000 O   0  0  0  0  0  0  0  0  0  0  0  0
   13.0296   11.1268   24.5664 Cl  0  0  0  0  0  0  0  0  0  0  0  0
   10.7283   10.4559   22.4998 H   0  0  0  0  0  0  0  0  0  0  0  0
   15.2681   16.6463   18.3678 H   0  0  0  0  0  0  0  0  0  0  0  0
   14.0512   17.4976   19.2976 H   0  0  0  0  0  0  0  0  0  0  0  0
   13.0585   16.6304   17.2917 H   0  0  0  0  0  0  0  0  0  0  0  0
   13.6968   15.0205   17.5590 H   0  0  0  0  0  0  0  0  0  0  0  0
   15.0276   14.6445   19.9031 H   0  0  0  0  0  0  0  0  0  0  0  0
   15.6325   16.1174   20.6419 H   0  0  0  0  0  0  0  0  0  0  0  0
   11.5791   16.3687   19.3379 H   0  0  0  0  0  0  0  0  0  0  0  0
   11.2526   15.2865   17.9952 H   0  0  0  0  0  0  0  0  0  0  0  0
   14.1164   15.5549   22.2465 H   0  0  0  0  0  0  0  0  0  0  0  0
   13.1545   16.6379   21.2816 H   0  0  0  0  0  0  0  0  0  0  0  0
   11.1663   13.7530   19.6778 H   0  0  0  0  0  0  0  0  0  0  0  0
   12.8264   13.5805   19.1691 H   0  0  0  0  0  0  0  0  0  0  0  0
    8.9727    7.8780   23.9915 H   0  0  0  0  0  0  0  0  0  0  0  0
    7.4676    8.2924   23.1345 H   0  0  0  0  0  0  0  0  0  0  0  0
    8.9791    8.1738   22.2352 H   0  0  0  0  0  0  0  0  0  0  0  0
    7.6477    9.5604   26.5880 H   0  0  0  0  0  0  0  0  0  0  0  0
    6.0352    8.9141   26.3005 H   0  0  0  0  0  0  0  0  0  0  0  0
    7.3940    8.3434   25.3259 H   0  0  0  0  0  0  0  0  0  0  0  0
    5.5339   10.6108   22.9211 H   0  0  0  0  0  0  0  0  0  0  0  0
    6.1480    8.9773   23.1533 H   0  0  0  0  0  0  0  0  0  0  0  0
    4.7779    9.5529   24.1176 H   0  0  0  0  0  0  0  0  0  0  0  0
    5.7851   12.3389   24.8393 H   0  0  0  0  0  0  0  0  0  0  0  0
    5.0322   11.1759   25.9282 H   0  0  0  0  0  0  0  0  0  0  0  0
    6.6067   11.8950   26.3343 H   0  0  0  0  0  0  0  0  0  0  0  0
   14.0075   11.1183   22.4187 H   0  0  0  0  0  0  0  0  0  0  0  0
   15.0764   11.8610   23.6337 H   0  0  0  0  0  0  0  0  0  0  0  0
   11.7562   15.3296   22.8989 H   0  0  0  0  0  0  0  0  0  0  0  0
   10.7949   15.6372   21.4130 H   0  0  0  0  0  0  0  0  0  0  0  0
   10.2632   13.1940   21.4320 H   0  0  0  0  0  0  0  0  0  0  0  0
   13.2146   12.4934   21.0298 H   0  0  0  0  0  0  0  0  0  0  0  0
  1  2  1  0  0  0  0
  1  3  2  0  0  0  0
  2  4  1  0  0  0  0
  2 20  2  0  0  0  0
  3 13  1  0  0  0  0
  3 21  1  0  0  0  0
  4 22  1  0  0  0  0
  4 24  2  0  0  0  0
  5 17  1  0  0  0  0
  5 23  1  0  0  0  0
  5 25  2  0  0  0  0
  6  7  1  0  0  0  0
  6  8  1  0  0  0  0
  7  9  1  0  0  0  0
  8 10  1  0  0  0  0
  9 11  1  0  0  0  0
 10 12  1  0  0  0  0
 11 12  1  0  0  0  0
 12 18  1  0  0  0  0
 12 23  1  0  0  0  0
 14 19  1  0  0  0  0
 15 19  1  0  0  0  0
 16 19  1  0  0  0  0
 17 26  1  0  0  0  0
 18 22  1  0  0  0  0
 19 21  1  0  0  0  0
 20 21  1  0  0  0  0
  1 27  1  0  0  0  0
  6 28  1  0  0  0  0
  6 29  1  0  0  0  0
  7 30  1  0  0  0  0
  7 31  1  0  0  0  0
  8 32  1  0  0  0  0
  8 33  1  0  0  0  0
  9 34  1  0  0  0  0
  9 35  1  0  0  0  0
 10 36  1  0  0  0  0
 10 37  1  0  0  0  0
 11 38  1  0  0  0  0
 11 39  1  0  0  0  0
 13 40  1  0  0  0  0
 13 41  1  0  0  0  0
 13 42  1  0  0  0  0
 14 43  1  0  0  0  0
 14 44  1  0  0  0  0
 14 45  1  0  0  0  0
 15 46  1  0  0  0  0
 15 47  1  0  0  0  0
 15 48  1  0  0  0  0
 16 49  1  0  0  0  0
 16 50  1  0  0  0  0
 16 51  1  0  0  0  0
 17 52  1  0  0  0  0
 17 53  1  0  0  0  0
 18 54  1  0  0  0  0
 18 55  1  0  0  0  0
 22 56  1  0  0  0  0
 23 57  1  0  0  0  0
M  END
> <Catalog ID>
Z4425211163

> <MW>
382.928

> <MW (desalted)>
382.928

> <ClogP>
3.503

> <logS>
-4.048

> <HBD>
2

> <HBA>
3

> <TPSA>
76.02

> <RotBonds>
6

> <ROCS_ShapeQuery>
A71EV2A-x0451_0A_A71EV2A-x0310_0A_A71EV2A-x0416_0A_peptide

> <ROCS_TanimotoCombo>
0.520 

> <ROCS_ShapeTanimoto>
0.352 

> <ROCS_ColorTanimoto>
0.168 

> <ROCS_RefTversky>
0.314 

> <ROCS_RefColorTversky>
0.187 

> <ROCS_RefTverskyCombo>
0.501 

> <ROCS_FitTversky>
1.524 

> <ROCS_FitColorTversky>
0.622 

> <ROCS_FitTverskyCombo>
2.146 

> <ROCS_ColorScore>
-5.718

> <ROCS_Overlap>
2181.708

> <ROCS_Rank>
429                 

$$$$
untitled-dbase-5104_4851
  -OEChem-11132309573D

 46 49  0     1  0  0  0  0  0999 V2000
   12.2871   16.2478   17.8559 B   0  0  0  0  0  0  0  0  0  0  0  0
   11.0644   14.5321   19.2625 C   0  0  0  0  0  0  0  0  0  0  0  0
   10.6896   13.9312   20.4641 C   0  0  0  0  0  0  0  0  0  0  0  0
   12.0230   15.5359   21.6824 C   0  0  0  0  0  0  0  0  0  0  0  0
   11.9186   15.6348   19.2707 C   0  0  0  0  0  0  0  0  0  0  0  0
   11.1689   14.4331   21.6741 C   0  0  0  0  0  0  0  0  0  0  0  0
   12.3979   16.1367   20.4807 C   0  0  0  0  0  0  0  0  0  0  0  0
   13.2952   17.2872   20.5609 C   0  0  0  0  0  0  0  0  0  0  0  0
   10.7688   13.7930   22.9537 C   0  0  0  0  0  0  0  0  0  0  0  0
    8.7447   13.5268   25.3612 C   0  0  0  0  0  0  0  0  0  0  0  0
    8.6493   10.1433   22.5350 C   0  0  0  0  0  0  0  0  0  0  0  0
    7.4385   11.0804   22.7054 C   0  0  0  0  0  0  0  0  0  0  0  0
    8.8311    9.8370   25.0057 C   0  0  0  0  0  0  0  0  0  0  0  0
    9.6213   10.2203   23.7314 C   0  0  2  0  0  0  0  0  0  0  0  0
    7.4186   11.7714   24.0406 C   0  0  1  0  0  0  0  0  0  0  0  0
    8.0036   11.0721   25.2355 C   0  0  2  0  0  0  0  0  0  0  0  0
   10.0084   11.6924   24.0332 C   0  0  2  0  0  0  0  0  0  0  0  0
    8.7303   12.2454   24.6406 C   0  0  2  0  0  0  0  0  0  0  0  0
    9.1936   14.4915   27.4712 C   0  0  0  0  0  0  0  0  0  0  0  0
   10.4371   12.4432   22.8882 N   0  0  0  0  0  0  0  0  0  0  0  0
   14.4181   17.2236   21.0599 O   0  0  0  0  0  0  0  0  0  0  0  0
   10.7304   14.4706   23.9773 O   0  0  0  0  0  0  0  0  0  0  0  0
    8.4476   14.6007   24.8556 O   0  0  0  0  0  0  0  0  0  0  0  0
   11.5099   17.2410   17.3092 O   0  0  0  0  0  0  0  0  0  0  0  0
   13.3855   15.7891   17.1688 O   0  0  0  0  0  0  0  0  0  0  0  0
    9.1348   13.3200   26.6512 O   0  0  0  0  0  0  0  0  0  0  0  0
   10.6711   14.1142   18.3373 H   0  0  0  0  0  0  0  0  0  0  0  0
   10.0245   13.0713   20.4467 H   0  0  0  0  0  0  0  0  0  0  0  0
   12.3944   15.9256   22.6281 H   0  0  0  0  0  0  0  0  0  0  0  0
   12.9239   18.2465   20.1475 H   0  0  0  0  0  0  0  0  0  0  0  0
    8.2936    9.1117   22.4186 H   0  0  0  0  0  0  0  0  0  0  0  0
    9.1715   10.3860   21.6016 H   0  0  0  0  0  0  0  0  0  0  0  0
    7.4470   11.8378   21.9131 H   0  0  0  0  0  0  0  0  0  0  0  0
    6.5127   10.5071   22.5798 H   0  0  0  0  0  0  0  0  0  0  0  0
    8.2115    8.9454   24.8703 H   0  0  0  0  0  0  0  0  0  0  0  0
    9.5088    9.6751   25.8511 H   0  0  0  0  0  0  0  0  0  0  0  0
   10.4906    9.5757   23.5710 H   0  0  0  0  0  0  0  0  0  0  0  0
    6.5322   12.3757   24.1849 H   0  0  0  0  0  0  0  0  0  0  0  0
    7.5237   11.1446   26.1979 H   0  0  0  0  0  0  0  0  0  0  0  0
   10.8174   11.7264   24.7729 H   0  0  0  0  0  0  0  0  0  0  0  0
    9.5148   14.2162   28.4787 H   0  0  0  0  0  0  0  0  0  0  0  0
    8.2077   14.9618   27.5073 H   0  0  0  0  0  0  0  0  0  0  0  0
    9.9134   15.1913   27.0402 H   0  0  0  0  0  0  0  0  0  0  0  0
   10.4351   11.9695   21.9853 H   0  0  0  0  0  0  0  0  0  0  0  0
   11.8244   17.5443   16.4414 H   0  0  0  0  0  0  0  0  0  0  0  0
   13.8691   15.0883   17.6367 H   0  0  0  0  0  0  0  0  0  0  0  0
  1  5  1  0  0  0  0
  1 24  1  0  0  0  0
  1 25  1  0  0  0  0
  2  3  2  0  0  0  0
  2  5  1  0  0  0  0
  3  6  1  0  0  0  0
  4  6  2  0  0  0  0
  4  7  1  0  0  0  0
  5  7  2  0  0  0  0
  6  9  1  0  0  0  0
  7  8  1  0  0  0  0
  8 21  2  0  0  0  0
  9 20  1  0  0  0  0
  9 22  2  0  0  0  0
 10 18  1  0  0  0  0
 10 23  2  0  0  0  0
 10 26  1  0  0  0  0
 11 12  1  0  0  0  0
 11 14  1  0  0  0  0
 12 15  1  0  0  0  0
 13 14  1  0  0  0  0
 13 16  1  0  0  0  0
 14 17  1  0  0  0  0
 15 16  1  0  0  0  0
 15 18  1  0  0  0  0
 16 18  1  0  0  0  0
 17 18  1  0  0  0  0
 17 20  1  0  0  0  0
 19 26  1  0  0  0  0
  2 27  1  0  0  0  0
  3 28  1  0  0  0  0
  4 29  1  0  0  0  0
  8 30  1  0  0  0  0
 11 31  1  0  0  0  0
 11 32  1  0  0  0  0
 12 33  1  0  0  0  0
 12 34  1  0  0  0  0
 13 35  1  0  0  0  0
 13 36  1  0  0  0  0
 14 37  1  0  0  0  0
 15 38  1  0  0  0  0
 16 39  1  0  0  0  0
 17 40  1  0  0  0  0
 19 41  1  0  0  0  0
 19 42  1  0  0  0  0
 19 43  1  0  0  0  0
 20 44  1  0  0  0  0
 24 45  1  0  0  0  0
 25 46  1  0  0  0  0
M  END
> <Catalog ID>
Z7158433652

> <MW>
357.166

> <MW (desalted)>
357.166

> <ClogP>
1.473

> <logS>
-2.566

> <HBD>
3

> <HBA>
5

> <TPSA>
112.93

> <RotBonds>
6

> <ROCS_ShapeQuery>
A71EV2A-x0451_0A_A71EV2A-x0310_0A_A71EV2A-x0416_0A_peptide

> <ROCS_TanimotoCombo>
0.520 

> <ROCS_ShapeTanimoto>
0.308 

> <ROCS_ColorTanimoto>
0.212 

> <ROCS_RefTversky>
0.286 

> <ROCS_RefColorTversky>
0.344 

> <ROCS_RefTverskyCombo>
0.630 

> <ROCS_FitTversky>
1.341 

> <ROCS_FitColorTversky>
0.355 

> <ROCS_FitTverskyCombo>
1.696 

> <ROCS_ColorScore>
-10.881

> <ROCS_Overlap>
1989.005

> <ROCS_Rank>
430                 

$$$$
untitled-dbase-9524_3470
  -OEChem-11132309573D

 49 52  0     1  0  0  0  0  0999 V2000
   13.4220   13.7584   22.6027 C   0  0  0  0  0  0  0  0  0  0  0  0
    4.5206   13.6079   28.9085 C   0  0  0  0  0  0  0  0  0  0  0  0
    5.5965   12.7908   29.2553 C   0  0  0  0  0  0  0  0  0  0  0  0
    3.6049   13.1839   27.9455 C   0  0  0  0  0  0  0  0  0  0  0  0
   12.3324   15.1984   19.0377 C   0  0  0  0  0  0  0  0  0  0  0  0
    5.7569   11.5498   28.6391 C   0  0  0  0  0  0  0  0  0  0  0  0
    3.7652   11.9428   27.3292 C   0  0  0  0  0  0  0  0  0  0  0  0
   13.1476   15.7742   18.0633 C   0  0  0  0  0  0  0  0  0  0  0  0
   14.3806   16.9395   19.7835 C   0  0  0  0  0  0  0  0  0  0  0  0
   12.5412   15.4931   20.3850 C   0  0  0  0  0  0  0  0  0  0  0  0
    4.8412   11.1257   27.6760 C   0  0  0  0  0  0  0  0  0  0  0  0
   14.1717   16.6448   18.4362 C   0  0  0  0  0  0  0  0  0  0  0  0
   13.5653   16.3636   20.7579 C   0  0  0  0  0  0  0  0  0  0  0  0
    7.8566   10.8017   24.8293 C   0  0  0  0  0  0  0  0  0  0  0  0
    7.8773    9.7605   23.9257 C   0  0  0  0  0  0  0  0  0  0  0  0
    9.4289   11.5266   23.4904 C   0  0  0  0  0  0  0  0  0  0  0  0
   11.6510   14.8613   21.3714 C   0  0  0  0  0  0  0  0  0  0  0  0
   12.0439   14.0613   22.3825 C   0  0  0  0  0  0  0  0  0  0  0  0
   10.9555   13.5192   23.2843 C   0  0  0  0  0  0  0  0  0  0  0  0
    6.9563   10.8179   26.0176 C   0  0  0  0  0  0  0  0  0  0  0  0
    6.9767    8.5793   23.9997 C   0  0  0  0  0  0  0  0  0  0  0  0
    6.2949    8.5396   25.3857 C   0  0  0  0  0  0  0  0  0  0  0  0
    5.0133    9.7901   27.0122 C   0  0  0  0  0  0  0  0  0  0  0  0
   14.5407   13.5101   22.7862 N   0  0  0  0  0  0  0  0  0  0  0  0
    8.7545   11.8188   24.5833 N   0  0  0  0  0  0  0  0  0  0  0  0
    5.8281    9.8819   25.8006 N   0  0  1  0  0  0  0  0  0  0  0  0
   10.4138   12.2663   22.8911 N   0  0  0  0  0  0  0  0  0  0  0  0
   10.5964   14.1522   24.2741 O   0  0  0  0  0  0  0  0  0  0  0  0
    9.0332   10.0412   22.7150 S   0  0  0  0  0  0  0  0  0  0  0  0
   15.1776   17.3538   17.2332 Cl  0  0  0  0  0  0  0  0  0  0  0  0
   13.8664   16.7633   22.4134 Cl  0  0  0  0  0  0  0  0  0  0  0  0
    4.3951   14.5736   29.3894 H   0  0  0  0  0  0  0  0  0  0  0  0
    6.3090   13.1203   30.0060 H   0  0  0  0  0  0  0  0  0  0  0  0
    2.7664   13.8193   27.6760 H   0  0  0  0  0  0  0  0  0  0  0  0
   11.5389   14.5225   18.7274 H   0  0  0  0  0  0  0  0  0  0  0  0
    6.5983   10.9199   28.9155 H   0  0  0  0  0  0  0  0  0  0  0  0
    3.0469   11.6208   26.5799 H   0  0  0  0  0  0  0  0  0  0  0  0
   12.9729   15.5349   17.0174 H   0  0  0  0  0  0  0  0  0  0  0  0
   15.1799   17.6187   20.0726 H   0  0  0  0  0  0  0  0  0  0  0  0
   10.6032   15.1152   21.2271 H   0  0  0  0  0  0  0  0  0  0  0  0
    7.5231   10.5116   26.9044 H   0  0  0  0  0  0  0  0  0  0  0  0
    6.5961   11.8422   26.1760 H   0  0  0  0  0  0  0  0  0  0  0  0
    6.2131    8.6123   23.2149 H   0  0  0  0  0  0  0  0  0  0  0  0
    7.5690    7.6672   23.8572 H   0  0  0  0  0  0  0  0  0  0  0  0
    5.4515    7.8358   25.3653 H   0  0  0  0  0  0  0  0  0  0  0  0
    7.0236    8.1491   26.1068 H   0  0  0  0  0  0  0  0  0  0  0  0
    5.4982    9.0808   27.6918 H   0  0  0  0  0  0  0  0  0  0  0  0
    4.0447    9.3625   26.7327 H   0  0  0  0  0  0  0  0  0  0  0  0
   10.8205   11.8543   22.0305 H   0  0  0  0  0  0  0  0  0  0  0  0
  1 18  1  0  0  0  0
  1 24  3  0  0  0  0
  2  3  1  0  0  0  0
  2  4  2  0  0  0  0
  3  6  2  0  0  0  0
  4  7  1  0  0  0  0
  5  8  2  0  0  0  0
  5 10  1  0  0  0  0
  6 11  1  0  0  0  0
  7 11  2  0  0  0  0
  8 12  1  0  0  0  0
  9 12  2  0  0  0  0
  9 13  1  0  0  0  0
 10 13  2  0  0  0  0
 10 17  1  4  0  0  0
 11 23  1  0  0  0  0
 12 30  1  0  0  0  0
 13 31  1  0  0  0  0
 14 15  2  0  0  0  0
 14 20  1  0  0  0  0
 14 25  1  0  0  0  0
 15 21  1  0  0  0  0
 15 29  1  0  0  0  0
 16 25  2  0  0  0  0
 16 27  1  0  0  0  0
 16 29  1  0  0  0  0
 17 18  2  0  0  0  0
 18 19  1  0  0  0  0
 19 27  1  0  0  0  0
 19 28  2  0  0  0  0
 20 26  1  0  0  0  0
 21 22  1  0  0  0  0
 22 26  1  0  0  0  0
 23 26  1  0  0  0  0
  2 32  1  0  0  0  0
  3 33  1  0  0  0  0
  4 34  1  0  0  0  0
  5 35  1  0  0  0  0
  6 36  1  0  0  0  0
  7 37  1  0  0  0  0
  8 38  1  0  0  0  0
  9 39  1  0  0  0  0
 17 40  1  0  0  0  0
 20 41  1  0  0  0  0
 20 42  1  0  0  0  0
 21 43  1  0  0  0  0
 21 44  1  0  0  0  0
 22 45  1  0  0  0  0
 22 46  1  0  0  0  0
 23 47  1  0  0  0  0
 23 48  1  0  0  0  0
 27 49  1  0  0  0  0
M  END
> <Catalog ID>
Z56798452

> <MW>
469.386

> <MW (desalted)>
469.386

> <ClogP>
5.536

> <logS>
-6.95

> <HBD>
1

> <HBA>
4

> <TPSA>
69.02

> <RotBonds>
5

> <ROCS_ShapeQuery>
A71EV2A-x0451_0A_A71EV2A-x0310_0A_A71EV2A-x0416_0A_peptide

> <ROCS_TanimotoCombo>
0.520 

> <ROCS_ShapeTanimoto>
0.341 

> <ROCS_ColorTanimoto>
0.179 

> <ROCS_RefTversky>
0.315 

> <ROCS_RefColorTversky>
0.202 

> <ROCS_RefTverskyCombo>
0.517 

> <ROCS_FitTversky>
1.318 

> <ROCS_FitColorTversky>
0.609 

> <ROCS_FitTverskyCombo>
1.927 

> <ROCS_ColorScore>
-6.179

> <ROCS_Overlap>
2195.059

> <ROCS_Rank>
431                 

$$$$
untitled-dbase-10950_12
  -OEChem-11132309573D

 47 50  0     1  0  0  0  0  0999 V2000
   13.1808   16.4477   20.2258 C   0  0  0  0  0  0  0  0  0  0  0  0
   13.1149   16.9180   22.5946 C   0  0  0  0  0  0  0  0  0  0  0  0
   12.4302   15.2908   20.4345 C   0  0  0  0  0  0  0  0  0  0  0  0
   12.3642   15.7610   22.8034 C   0  0  0  0  0  0  0  0  0  0  0  0
   13.5232   17.2613   21.3058 C   0  0  0  0  0  0  0  0  0  0  0  0
   12.0219   14.9474   21.7233 C   0  0  0  0  0  0  0  0  0  0  0  0
   14.7838   18.9656   19.9802 C   0  0  0  0  0  0  0  0  0  0  0  0
   10.7684   13.2783   23.1458 C   0  0  0  0  0  0  0  0  0  0  0  0
   15.3822   20.1146   20.8138 C   0  0  0  0  0  0  0  0  0  0  0  0
    7.2290   10.2214   25.5828 C   0  0  0  0  0  0  0  0  0  0  0  0
    7.9933   11.4751   26.0334 C   0  0  0  0  0  0  0  0  0  0  0  0
    7.0882   11.8529   23.8698 C   0  0  0  0  0  0  0  0  0  0  0  0
   14.7573   19.4065   22.0327 C   0  0  0  0  0  0  0  0  0  0  0  0
    7.2389   10.3396   24.0486 C   0  0  1  0  0  0  0  0  0  0  0  0
    8.3348   12.1679   24.7017 C   0  0  2  0  0  0  0  0  0  0  0  0
    8.6540   10.1201   23.4593 C   0  0  1  0  0  0  0  0  0  0  0  0
    9.4358   11.3422   23.9970 C   0  0  1  0  0  0  0  0  0  0  0  0
    9.3062    8.7896   23.8045 C   0  0  0  0  0  0  0  0  0  0  0  0
   14.2743   18.4184   21.0973 N   0  0  0  0  0  0  0  0  0  0  0  0
   11.2607   13.7743   21.9353 N   0  0  0  0  0  0  0  0  0  0  0  0
   10.0612   12.0883   22.9339 N   0  0  0  0  0  0  0  0  0  0  0  0
   14.7637   18.6560   18.8111 O   0  0  0  0  0  0  0  0  0  0  0  0
   10.9124   13.7827   24.2568 O   0  0  0  0  0  0  0  0  0  0  0  0
    8.4836    7.7412   23.3220 O   0  0  0  0  0  0  0  0  0  0  0  0
   13.4934   16.7052   19.2170 H   0  0  0  0  0  0  0  0  0  0  0  0
   13.3758   17.5449   23.4435 H   0  0  0  0  0  0  0  0  0  0  0  0
   12.1698   14.6643   19.5850 H   0  0  0  0  0  0  0  0  0  0  0  0
   12.0521   15.5028   23.8119 H   0  0  0  0  0  0  0  0  0  0  0  0
   16.4743   20.1484   20.8011 H   0  0  0  0  0  0  0  0  0  0  0  0
   14.9655   21.0967   20.5780 H   0  0  0  0  0  0  0  0  0  0  0  0
    7.6815    9.2996   25.9563 H   0  0  0  0  0  0  0  0  0  0  0  0
    6.2007   10.2597   25.9616 H   0  0  0  0  0  0  0  0  0  0  0  0
    7.3458   12.1099   26.6489 H   0  0  0  0  0  0  0  0  0  0  0  0
    8.8831   11.2263   26.6200 H   0  0  0  0  0  0  0  0  0  0  0  0
    7.1650   12.1782   22.8273 H   0  0  0  0  0  0  0  0  0  0  0  0
    6.1660   12.2501   24.3073 H   0  0  0  0  0  0  0  0  0  0  0  0
   15.4717   19.0103   22.7598 H   0  0  0  0  0  0  0  0  0  0  0  0
   13.9602   19.9600   22.5365 H   0  0  0  0  0  0  0  0  0  0  0  0
    6.4679    9.7389   23.5607 H   0  0  0  0  0  0  0  0  0  0  0  0
    8.5712   13.2281   24.8202 H   0  0  0  0  0  0  0  0  0  0  0  0
    8.5723   10.1729   22.3644 H   0  0  0  0  0  0  0  0  0  0  0  0
   10.2349   11.0604   24.6915 H   0  0  0  0  0  0  0  0  0  0  0  0
    9.4119    8.6920   24.8864 H   0  0  0  0  0  0  0  0  0  0  0  0
   10.2885    8.7187   23.3343 H   0  0  0  0  0  0  0  0  0  0  0  0
   11.0480   13.2296   21.1034 H   0  0  0  0  0  0  0  0  0  0  0  0
    9.9852   11.7334   21.9842 H   0  0  0  0  0  0  0  0  0  0  0  0
    8.9222    6.9056   23.5551 H   0  0  0  0  0  0  0  0  0  0  0  0
  1  3  2  0  0  0  0
  1  5  1  0  0  0  0
  2  4  1  0  0  0  0
  2  5  2  0  0  0  0
  3  6  1  0  0  0  0
  4  6  2  0  0  0  0
  5 19  1  0  0  0  0
  6 20  1  0  0  0  0
  7  9  1  0  0  0  0
  7 19  1  0  0  0  0
  7 22  2  0  0  0  0
  8 20  1  0  0  0  0
  8 21  1  0  0  0  0
  8 23  2  0  0  0  0
  9 13  1  0  0  0  0
 10 11  1  0  0  0  0
 10 14  1  0  0  0  0
 11 15  1  0  0  0  0
 12 14  1  0  0  0  0
 12 15  1  0  0  0  0
 13 19  1  0  0  0  0
 14 16  1  0  0  0  0
 15 17  1  0  0  0  0
 16 17  1  0  0  0  0
 16 18  1  0  0  0  0
 17 21  1  0  0  0  0
 18 24  1  0  0  0  0
  1 25  1  0  0  0  0
  2 26  1  0  0  0  0
  3 27  1  0  0  0  0
  4 28  1  0  0  0  0
  9 29  1  0  0  0  0
  9 30  1  0  0  0  0
 10 31  1  0  0  0  0
 10 32  1  0  0  0  0
 11 33  1  0  0  0  0
 11 34  1  0  0  0  0
 12 35  1  0  0  0  0
 12 36  1  0  0  0  0
 13 37  1  0  0  0  0
 13 38  1  0  0  0  0
 14 39  1  0  0  0  0
 15 40  1  0  0  0  0
 16 41  1  0  0  0  0
 17 42  1  0  0  0  0
 18 43  1  0  0  0  0
 18 44  1  0  0  0  0
 20 45  1  0  0  0  0
 21 46  1  0  0  0  0
 24 47  1  0  0  0  0
M  END
> <Catalog ID>
Z1991609809

> <MW>
329.394

> <MW (desalted)>
329.394

> <ClogP>
1.982

> <logS>
-3.95

> <HBD>
3

> <HBA>
3

> <TPSA>
81.67

> <RotBonds>
4

> <ROCS_ShapeQuery>
A71EV2A-x0451_0A_A71EV2A-x0310_0A_A71EV2A-x0416_0A_peptide

> <ROCS_TanimotoCombo>
0.520 

> <ROCS_ShapeTanimoto>
0.308 

> <ROCS_ColorTanimoto>
0.212 

> <ROCS_RefTversky>
0.283 

> <ROCS_RefColorTversky>
0.261 

> <ROCS_RefTverskyCombo>
0.544 

> <ROCS_FitTversky>
1.404 

> <ROCS_FitColorTversky>
0.531 

> <ROCS_FitTverskyCombo>
1.934 

> <ROCS_ColorScore>
-8.057

> <ROCS_Overlap>
1964.684

> <ROCS_Rank>
432                 

$$$$
untitled-dbase-767_129
  -OEChem-11132309573D

 33 35  0     0  0  0  0  0  0999 V2000
   10.4749   15.8493   21.4490 C   0  0  0  0  0  0  0  0  0  0  0  0
    9.8388    9.2832   23.8049 C   0  0  0  0  0  0  0  0  0  0  0  0
    6.6596   13.0383   24.8000 C   0  0  0  0  0  0  0  0  0  0  0  0
   15.0340   12.2344   22.8998 C   0  0  0  0  0  0  0  0  0  0  0  0
    7.8376   12.9547   24.0719 C   0  0  0  0  0  0  0  0  0  0  0  0
    8.6505    9.4005   24.5302 C   0  0  0  0  0  0  0  0  0  0  0  0
   10.3720   10.3925   23.1604 C   0  0  0  0  0  0  0  0  0  0  0  0
   14.3170   12.8929   21.8724 C   0  0  0  0  0  0  0  0  0  0  0  0
    6.2021   11.8869   25.4081 C   0  0  0  0  0  0  0  0  0  0  0  0
   14.6473   12.8301   24.0777 C   0  0  0  0  0  0  0  0  0  0  0  0
    8.5197   11.7345   23.9724 C   0  0  0  0  0  0  0  0  0  0  0  0
    7.9726   10.6125   24.6295 C   0  0  0  0  0  0  0  0  0  0  0  0
    9.7149   11.6168   23.2429 C   0  0  0  0  0  0  0  0  0  0  0  0
   13.5430   13.8438   22.4958 C   0  0  0  0  0  0  0  0  0  0  0  0
   12.6164   14.7945   21.8618 C   0  0  0  0  0  0  0  0  0  0  0  0
   11.2965   14.8913   22.1173 C   0  0  0  0  0  0  0  0  0  0  0  0
   10.7258   13.9209   23.1293 C   0  0  0  0  0  0  0  0  0  0  0  0
    9.8030   16.6256   20.9079 N   0  0  0  0  0  0  0  0  0  0  0  0
    6.8295   10.6906   25.3367 N   0  0  0  0  0  0  0  0  0  0  0  0
   10.2859   12.7092   22.5790 N   0  0  0  0  0  0  0  0  0  0  0  0
   10.6753   14.2226   24.3192 O   0  0  0  0  0  0  0  0  0  0  0  0
   13.7385   13.8120   23.8402 O   0  0  0  0  0  0  0  0  0  0  0  0
   10.3449    8.3240   23.7463 H   0  0  0  0  0  0  0  0  0  0  0  0
    6.1191   13.9736   24.8868 H   0  0  0  0  0  0  0  0  0  0  0  0
   15.7458   11.4286   22.7941 H   0  0  0  0  0  0  0  0  0  0  0  0
    8.2067   13.8564   23.5893 H   0  0  0  0  0  0  0  0  0  0  0  0
    8.2533    8.5164   25.0262 H   0  0  0  0  0  0  0  0  0  0  0  0
   11.2971   10.2911   22.5989 H   0  0  0  0  0  0  0  0  0  0  0  0
   14.3663   12.6924   20.8110 H   0  0  0  0  0  0  0  0  0  0  0  0
    5.2867   11.8918   25.9907 H   0  0  0  0  0  0  0  0  0  0  0  0
   14.9134   12.6800   25.1139 H   0  0  0  0  0  0  0  0  0  0  0  0
   13.1035   15.4575   21.1501 H   0  0  0  0  0  0  0  0  0  0  0  0
   10.3957   12.6108   21.5656 H   0  0  0  0  0  0  0  0  0  0  0  0
  1 16  1  0  0  0  0
  1 18  3  0  0  0  0
  2  6  1  0  0  0  0
  2  7  2  0  0  0  0
  3  5  2  0  0  0  0
  3  9  1  0  0  0  0
  4  8  1  0  0  0  0
  4 10  2  0  0  0  0
  5 11  1  0  0  0  0
  6 12  2  0  0  0  0
  7 13  1  0  0  0  0
  8 14  2  0  0  0  0
  9 19  2  0  0  0  0
 10 22  1  0  0  0  0
 11 12  1  0  0  0  0
 11 13  2  0  0  0  0
 12 19  1  0  0  0  0
 13 20  1  0  0  0  0
 14 15  1  4  0  0  0
 14 22  1  0  0  0  0
 15 16  2  0  0  0  0
 16 17  1  0  0  0  0
 17 20  1  0  0  0  0
 17 21  2  0  0  0  0
  2 23  1  0  0  0  0
  3 24  1  0  0  0  0
  4 25  1  0  0  0  0
  5 26  1  0  0  0  0
  6 27  1  0  0  0  0
  7 28  1  0  0  0  0
  8 29  1  0  0  0  0
  9 30  1  0  0  0  0
 10 31  1  0  0  0  0
 15 32  1  0  0  0  0
 20 33  1  0  0  0  0
M  END
> <Catalog ID>
Z56838424

> <MW>
289.288

> <MW (desalted)>
289.288

> <ClogP>
2.671

> <logS>
-4.26

> <HBD>
1

> <HBA>
3

> <TPSA>
78.92

> <RotBonds>
3

> <ROCS_ShapeQuery>
A71EV2A-x0451_0A_A71EV2A-x0310_0A_A71EV2A-x0416_0A_peptide

> <ROCS_TanimotoCombo>
0.520 

> <ROCS_ShapeTanimoto>
0.338 

> <ROCS_ColorTanimoto>
0.182 

> <ROCS_RefTversky>
0.301 

> <ROCS_RefColorTversky>
0.200 

> <ROCS_RefTverskyCombo>
0.501 

> <ROCS_FitTversky>
1.569 

> <ROCS_FitColorTversky>
0.665 

> <ROCS_FitTverskyCombo>
2.234 

> <ROCS_ColorScore>
-6.114

> <ROCS_Overlap>
2091.479

> <ROCS_Rank>
433                 

$$$$
untitled-dbase-4916_8423
  -OEChem-11132309573D

 47 48  0     1  0  0  0  0  0999 V2000
   14.4898   15.5422   19.0966 C   0  0  0  0  0  0  0  0  0  0  0  0
   13.3880   15.8075   18.2835 C   0  0  0  0  0  0  0  0  0  0  0  0
   14.3277   15.4355   20.4780 C   0  0  0  0  0  0  0  0  0  0  0  0
   12.1240   15.9662   18.8517 C   0  0  0  0  0  0  0  0  0  0  0  0
    8.6069   10.4280   23.6237 C   0  0  0  0  0  0  0  0  0  0  0  0
    8.2962   12.6094   24.6147 C   0  0  0  0  0  0  0  0  0  0  0  0
    7.5206    9.9425   24.3516 C   0  0  0  0  0  0  0  0  0  0  0  0
    7.2098   12.1239   25.3426 C   0  0  0  0  0  0  0  0  0  0  0  0
   13.0637   15.5942   21.0462 C   0  0  0  0  0  0  0  0  0  0  0  0
   11.9618   15.8596   20.2330 C   0  0  0  0  0  0  0  0  0  0  0  0
    8.9947   11.7615   23.7553 C   0  0  0  0  0  0  0  0  0  0  0  0
    6.8221   10.7905   25.2110 C   0  0  0  0  0  0  0  0  0  0  0  0
   10.9788   13.2773   23.3781 C   0  0  0  0  0  0  0  0  0  0  0  0
   13.6202   14.1393   24.6003 C   0  0  0  0  0  0  0  0  0  0  0  0
   12.6563   11.9809   22.0285 C   0  0  0  0  0  0  0  0  0  0  0  0
   12.9121   15.4733   22.5436 C   0  0  0  0  0  0  0  0  0  0  0  0
   13.3400   14.1022   23.0979 C   0  0  2  0  0  0  0  0  0  0  0  0
   10.5990   16.0341   20.8186 C   0  0  0  0  0  0  0  0  0  0  0  0
   10.0983   12.2548   23.0159 N   0  0  0  0  0  0  0  0  0  0  0  0
   12.2824   13.1241   22.8514 N   0  0  0  0  0  0  0  0  0  0  0  0
   10.6687   14.2469   24.0737 O   0  0  0  0  0  0  0  0  0  0  0  0
    6.5237   11.1676   28.1694 O   0  0  0  0  0  0  0  0  0  0  0  0
    4.2837   11.8909   27.2230 O   0  0  0  0  0  0  0  0  0  0  0  0
    5.7621   10.3168   25.9214 O   0  0  0  0  0  0  0  0  0  0  0  0
    9.6338   16.2884   19.8873 F   0  0  0  0  0  0  0  0  0  0  0  0
   10.1561   14.9393   21.5032 F   0  0  0  0  0  0  0  0  0  0  0  0
   10.5387   17.0706   21.7033 F   0  0  0  0  0  0  0  0  0  0  0  0
    4.6260    9.6868   28.1285 F   0  0  0  0  0  0  0  0  0  0  0  0
    5.3314   10.9031   27.3887 S   0  0  0  0  0  0  0  0  0  0  0  0
   15.4738   15.4195   18.6540 H   0  0  0  0  0  0  0  0  0  0  0  0
   13.5150   15.8907   17.2080 H   0  0  0  0  0  0  0  0  0  0  0  0
   15.1928   15.2301   21.1029 H   0  0  0  0  0  0  0  0  0  0  0  0
   11.2715   16.1723   18.2097 H   0  0  0  0  0  0  0  0  0  0  0  0
    9.1440    9.7584   22.9567 H   0  0  0  0  0  0  0  0  0  0  0  0
    8.5894   13.6503   24.7253 H   0  0  0  0  0  0  0  0  0  0  0  0
    7.2233    8.9029   24.2448 H   0  0  0  0  0  0  0  0  0  0  0  0
    6.6696   12.7893   26.0106 H   0  0  0  0  0  0  0  0  0  0  0  0
   12.7389   14.4836   25.1538 H   0  0  0  0  0  0  0  0  0  0  0  0
   14.4518   14.8119   24.8389 H   0  0  0  0  0  0  0  0  0  0  0  0
   13.8706   13.1437   24.9804 H   0  0  0  0  0  0  0  0  0  0  0  0
   12.4678   12.2131   20.9700 H   0  0  0  0  0  0  0  0  0  0  0  0
   13.7246   11.7606   22.1708 H   0  0  0  0  0  0  0  0  0  0  0  0
   12.0589   11.1057   22.3238 H   0  0  0  0  0  0  0  0  0  0  0  0
   13.4764   16.2744   23.0398 H   0  0  0  0  0  0  0  0  0  0  0  0
   11.8571   15.6638   22.7852 H   0  0  0  0  0  0  0  0  0  0  0  0
   14.2439   13.7538   22.5848 H   0  0  0  0  0  0  0  0  0  0  0  0
   10.2692   11.8136   22.1179 H   0  0  0  0  0  0  0  0  0  0  0  0
  1  2  1  0  0  0  0
  1  3  2  0  0  0  0
  2  4  2  0  0  0  0
  3  9  1  0  0  0  0
  4 10  1  0  0  0  0
  5  7  2  0  0  0  0
  5 11  1  0  0  0  0
  6  8  1  0  0  0  0
  6 11  2  0  0  0  0
  7 12  1  0  0  0  0
  8 12  2  0  0  0  0
  9 10  2  0  0  0  0
  9 16  1  0  0  0  0
 10 18  1  0  0  0  0
 11 19  1  0  0  0  0
 12 24  1  0  0  0  0
 13 19  1  0  0  0  0
 13 20  1  0  0  0  0
 13 21  2  0  0  0  0
 14 17  1  0  0  0  0
 15 20  1  0  0  0  0
 16 17  1  0  0  0  0
 17 20  1  0  0  0  0
 18 25  1  0  0  0  0
 18 26  1  0  0  0  0
 18 27  1  0  0  0  0
 22 29  2  0  0  0  0
 23 29  2  0  0  0  0
 24 29  1  0  0  0  0
 28 29  1  0  0  0  0
  1 30  1  0  0  0  0
  2 31  1  0  0  0  0
  3 32  1  0  0  0  0
  4 33  1  0  0  0  0
  5 34  1  0  0  0  0
  6 35  1  0  0  0  0
  7 36  1  0  0  0  0
  8 37  1  0  0  0  0
 14 38  1  0  0  0  0
 14 39  1  0  0  0  0
 14 40  1  0  0  0  0
 15 41  1  0  0  0  0
 15 42  1  0  0  0  0
 15 43  1  0  0  0  0
 16 44  1  0  0  0  0
 16 45  1  0  0  0  0
 17 46  1  0  0  0  0
 19 47  1  0  0  0  0
M  END
> <Catalog ID>
Z4607560623

> <MW>
434.405

> <MW (desalted)>
434.405

> <ClogP>
2.45

> <logS>
-5.117

> <HBD>
1

> <HBA>
3

> <TPSA>
75.71

> <RotBonds>
7

> <ROCS_ShapeQuery>
A71EV2A-x0451_0A_A71EV2A-x0310_0A_A71EV2A-x0416_0A_peptide

> <ROCS_TanimotoCombo>
0.520 

> <ROCS_ShapeTanimoto>
0.342 

> <ROCS_ColorTanimoto>
0.178 

> <ROCS_RefTversky>
0.313 

> <ROCS_RefColorTversky>
0.187 

> <ROCS_RefTverskyCombo>
0.500 

> <ROCS_FitTversky>
1.374 

> <ROCS_FitColorTversky>
0.781 

> <ROCS_FitTverskyCombo>
2.156 

> <ROCS_ColorScore>
-5.695

> <ROCS_Overlap>
2177.838

> <ROCS_Rank>
434                 

$$$$
untitled-dbase-11300_2752
  -OEChem-11132309573D

 55 58  0     0  0  0  0  0  0999 V2000
   14.3035   15.8984   15.8998 C   0  0  0  0  0  0  0  0  0  0  0  0
   13.0196   15.6074   16.3608 C   0  0  0  0  0  0  0  0  0  0  0  0
   15.3699   15.9581   16.7970 C   0  0  0  0  0  0  0  0  0  0  0  0
   12.8021   15.3761   17.7191 C   0  0  0  0  0  0  0  0  0  0  0  0
   15.1523   15.7268   18.1553 C   0  0  0  0  0  0  0  0  0  0  0  0
    6.2634   10.7074   25.2579 C   0  0  0  0  0  0  0  0  0  0  0  0
    5.6805   11.8715   25.7649 C   0  0  0  0  0  0  0  0  0  0  0  0
    7.5997   13.1310   25.0527 C   0  0  0  0  0  0  0  0  0  0  0  0
    9.9947   10.8042   23.4310 C   0  0  0  0  0  0  0  0  0  0  0  0
    8.1857   11.9600   24.5428 C   0  0  0  0  0  0  0  0  0  0  0  0
   13.8684   15.4358   18.6163 C   0  0  0  0  0  0  0  0  0  0  0  0
    7.5124   10.7245   24.6433 C   0  0  0  0  0  0  0  0  0  0  0  0
    9.4431   11.9777   23.9244 C   0  0  0  0  0  0  0  0  0  0  0  0
    6.3492   13.0850   25.6624 C   0  0  0  0  0  0  0  0  0  0  0  0
    9.2611    9.6442   23.5755 C   0  0  0  0  0  0  0  0  0  0  0  0
   13.6392   15.1917   20.0510 C   0  0  0  0  0  0  0  0  0  0  0  0
   13.3120   16.1349   20.9429 C   0  0  0  0  0  0  0  0  0  0  0  0
   10.0435   14.0205   22.6104 C   0  0  0  0  0  0  0  0  0  0  0  0
   11.3965   13.3711   24.5658 C   0  0  0  0  0  0  0  0  0  0  0  0
   11.2405   13.8062   21.6880 C   0  0  0  0  0  0  0  0  0  0  0  0
   12.6080   13.1558   23.6569 C   0  0  0  0  0  0  0  0  0  0  0  0
    9.8149    8.3580   23.0597 C   0  0  0  0  0  0  0  0  0  0  0  0
    4.5015   14.0965   26.7663 C   0  0  0  0  0  0  0  0  0  0  0  0
    8.0453    9.5840   24.1654 N   0  0  0  0  0  0  0  0  0  0  0  0
   10.1733   13.1524   23.7843 N   0  0  0  0  0  0  0  0  0  0  0  0
   12.5132   14.0189   22.4414 N   0  0  0  0  0  0  0  0  0  0  0  0
   14.3763   15.5805   23.2302 O   0  0  0  0  0  0  0  0  0  0  0  0
   12.0084   16.4229   23.1539 O   0  0  0  0  0  0  0  0  0  0  0  0
    5.7851   14.2205   26.1548 O   0  0  0  0  0  0  0  0  0  0  0  0
   13.0777   15.6246   22.5812 S   0  0  0  0  0  0  0  0  0  0  0  0
   14.4731   16.0772   14.8421 H   0  0  0  0  0  0  0  0  0  0  0  0
   12.1893   15.5597   15.6622 H   0  0  0  0  0  0  0  0  0  0  0  0
   16.3698   16.1836   16.4381 H   0  0  0  0  0  0  0  0  0  0  0  0
   11.7956   15.1504   18.0634 H   0  0  0  0  0  0  0  0  0  0  0  0
   15.9938   15.7769   18.8422 H   0  0  0  0  0  0  0  0  0  0  0  0
    5.7191    9.7693   25.3508 H   0  0  0  0  0  0  0  0  0  0  0  0
    4.7038   11.8198   26.2383 H   0  0  0  0  0  0  0  0  0  0  0  0
    8.1056   14.0916   24.9832 H   0  0  0  0  0  0  0  0  0  0  0  0
   10.9672   10.7969   22.9488 H   0  0  0  0  0  0  0  0  0  0  0  0
   13.7349   14.1556   20.3696 H   0  0  0  0  0  0  0  0  0  0  0  0
   13.1788   17.1806   20.6975 H   0  0  0  0  0  0  0  0  0  0  0  0
    9.9996   15.0668   22.9270 H   0  0  0  0  0  0  0  0  0  0  0  0
    9.1274   13.7885   22.0611 H   0  0  0  0  0  0  0  0  0  0  0  0
   11.4501   12.6716   25.3998 H   0  0  0  0  0  0  0  0  0  0  0  0
   11.4057   14.3885   24.9594 H   0  0  0  0  0  0  0  0  0  0  0  0
   11.2263   12.7950   21.2590 H   0  0  0  0  0  0  0  0  0  0  0  0
   11.1847   14.5258   20.8611 H   0  0  0  0  0  0  0  0  0  0  0  0
   13.5192   13.4131   24.2148 H   0  0  0  0  0  0  0  0  0  0  0  0
   12.6843   12.1000   23.3582 H   0  0  0  0  0  0  0  0  0  0  0  0
   10.4058    7.8586   23.8369 H   0  0  0  0  0  0  0  0  0  0  0  0
    9.0135    7.6795   22.7410 H   0  0  0  0  0  0  0  0  0  0  0  0
   10.4577    8.5241   22.1857 H   0  0  0  0  0  0  0  0  0  0  0  0
    4.1674   15.0765   27.1158 H   0  0  0  0  0  0  0  0  0  0  0  0
    4.5628   13.3997   27.6061 H   0  0  0  0  0  0  0  0  0  0  0  0
    3.7920   13.7138   26.0289 H   0  0  0  0  0  0  0  0  0  0  0  0
  1  2  1  0  0  0  0
  1  3  2  0  0  0  0
  2  4  2  0  0  0  0
  3  5  1  0  0  0  0
  4 11  1  0  0  0  0
  5 11  2  0  0  0  0
  6  7  2  0  0  0  0
  6 12  1  0  0  0  0
  7 14  1  0  0  0  0
  8 10  1  0  0  0  0
  8 14  2  0  0  0  0
  9 13  2  0  0  0  0
  9 15  1  0  0  0  0
 10 12  2  0  0  0  0
 10 13  1  0  0  0  0
 11 16  1  0  0  0  0
 12 24  1  0  0  0  0
 13 25  1  0  0  0  0
 14 29  1  0  0  0  0
 15 22  1  0  0  0  0
 15 24  2  0  0  0  0
 16 17  2  0  0  0  0
 17 30  1  4  0  0  0
 18 20  1  0  0  0  0
 18 25  1  0  0  0  0
 19 21  1  0  0  0  0
 19 25  1  0  0  0  0
 20 26  1  0  0  0  0
 21 26  1  0  0  0  0
 23 29  1  0  0  0  0
 26 30  1  0  0  0  0
 27 30  2  0  0  0  0
 28 30  2  0  0  0  0
  1 31  1  0  0  0  0
  2 32  1  0  0  0  0
  3 33  1  0  0  0  0
  4 34  1  0  0  0  0
  5 35  1  0  0  0  0
  6 36  1  0  0  0  0
  7 37  1  0  0  0  0
  8 38  1  0  0  0  0
  9 39  1  0  0  0  0
 16 40  1  0  0  0  0
 17 41  1  0  0  0  0
 18 42  1  0  0  0  0
 18 43  1  0  0  0  0
 19 44  1  0  0  0  0
 19 45  1  0  0  0  0
 20 46  1  0  0  0  0
 20 47  1  0  0  0  0
 21 48  1  0  0  0  0
 21 49  1  0  0  0  0
 22 50  1  0  0  0  0
 22 51  1  0  0  0  0
 22 52  1  0  0  0  0
 23 53  1  0  0  0  0
 23 54  1  0  0  0  0
 23 55  1  0  0  0  0
M  END
> <Catalog ID>
Z31104766

> <MW>
423.528

> <MW (desalted)>
423.528

> <ClogP>
5.07

> <logS>
-4.95

> <HBD>
0

> <HBA>
5

> <TPSA>
62.74

> <RotBonds>
4

> <ROCS_ShapeQuery>
A71EV2A-x0451_0A_A71EV2A-x0310_0A_A71EV2A-x0416_0A_peptide

> <ROCS_TanimotoCombo>
0.520 

> <ROCS_ShapeTanimoto>
0.387 

> <ROCS_ColorTanimoto>
0.133 

> <ROCS_RefTversky>
0.345 

> <ROCS_RefColorTversky>
0.153 

> <ROCS_RefTverskyCombo>
0.498 

> <ROCS_FitTversky>
1.461 

> <ROCS_FitColorTversky>
0.508 

> <ROCS_FitTverskyCombo>
1.969 

> <ROCS_ColorScore>
-4.671

> <ROCS_Overlap>
2398.961

> <ROCS_Rank>
435                 

$$$$
untitled-dbase-7782_2078
  -OEChem-11132309573D

 52 55  0     1  0  0  0  0  0999 V2000
    4.6291   12.9396   28.3156 C   0  0  0  0  0  0  0  0  0  0  0  0
    5.3396   11.7730   28.5979 C   0  0  0  0  0  0  0  0  0  0  0  0
    4.7491   13.5437   27.0640 C   0  0  0  0  0  0  0  0  0  0  0  0
   11.3121   13.7154   20.1168 C   0  0  0  0  0  0  0  0  0  0  0  0
   11.1114   13.1007   21.3527 C   0  0  0  0  0  0  0  0  0  0  0  0
    6.1702   11.2105   27.6287 C   0  0  0  0  0  0  0  0  0  0  0  0
    5.5797   12.9812   26.0948 C   0  0  0  0  0  0  0  0  0  0  0  0
   10.8249   15.0028   19.8909 C   0  0  0  0  0  0  0  0  0  0  0  0
    9.9362   15.0606   22.1368 C   0  0  0  0  0  0  0  0  0  0  0  0
   10.4234   13.7732   22.3627 C   0  0  0  0  0  0  0  0  0  0  0  0
    6.2903   11.8146   26.3771 C   0  0  0  0  0  0  0  0  0  0  0  0
   10.1369   15.6754   20.9009 C   0  0  0  0  0  0  0  0  0  0  0  0
    9.5594   19.9147   20.4973 C   0  0  0  0  0  0  0  0  0  0  0  0
    8.5977   19.0975   20.9380 C   0  0  0  0  0  0  0  0  0  0  0  0
   10.2129   13.1248   23.6634 C   0  0  0  0  0  0  0  0  0  0  0  0
    8.9423   17.7867   21.5612 C   0  0  0  0  0  0  0  0  0  0  0  0
    9.4265    9.6229   23.8394 C   0  0  0  0  0  0  0  0  0  0  0  0
    8.4742   10.0821   22.7216 C   0  0  0  0  0  0  0  0  0  0  0  0
    8.6931   11.1168   25.7878 C   0  0  0  0  0  0  0  0  0  0  0  0
    7.1095   11.8968   23.9130 C   0  0  0  0  0  0  0  0  0  0  0  0
    9.7131   10.8891   24.6512 C   0  0  2  0  0  0  0  0  0  0  0  0
    8.2850   11.5828   22.9621 C   0  0  1  0  0  0  0  0  0  0  0  0
    7.2040   11.1965   25.3105 C   0  0  0  0  0  0  0  0  0  0  0  0
    9.5044   11.9382   23.6736 N   0  0  0  0  0  0  0  0  0  0  0  0
    9.6500   16.9632   20.6748 N   0  0  0  0  0  0  0  0  0  0  0  0
   10.6780   13.6848   24.6536 O   0  0  0  0  0  0  0  0  0  0  0  0
    8.6155   17.5253   22.7129 O   0  0  0  0  0  0  0  0  0  0  0  0
    6.7377    9.8460   25.1529 O   0  0  0  0  0  0  0  0  0  0  0  0
    3.9813   13.3767   29.0699 H   0  0  0  0  0  0  0  0  0  0  0  0
    5.2454   11.3018   29.5719 H   0  0  0  0  0  0  0  0  0  0  0  0
    4.1952   14.4514   26.8435 H   0  0  0  0  0  0  0  0  0  0  0  0
   11.8480   13.1920   19.3304 H   0  0  0  0  0  0  0  0  0  0  0  0
   11.4946   12.0969   21.5167 H   0  0  0  0  0  0  0  0  0  0  0  0
    6.7202   10.3014   27.8576 H   0  0  0  0  0  0  0  0  0  0  0  0
    5.6671   13.4589   25.1226 H   0  0  0  0  0  0  0  0  0  0  0  0
   10.9866   15.4722   18.9236 H   0  0  0  0  0  0  0  0  0  0  0  0
    9.3986   15.5849   22.9243 H   0  0  0  0  0  0  0  0  0  0  0  0
    9.3472   20.8743   20.0394 H   0  0  0  0  0  0  0  0  0  0  0  0
   10.6012   19.6264   20.5911 H   0  0  0  0  0  0  0  0  0  0  0  0
    7.5561   19.3852   20.8449 H   0  0  0  0  0  0  0  0  0  0  0  0
    8.9985    8.8153   24.4409 H   0  0  0  0  0  0  0  0  0  0  0  0
   10.3522    9.2441   23.3899 H   0  0  0  0  0  0  0  0  0  0  0  0
    8.9545    9.9125   21.7504 H   0  0  0  0  0  0  0  0  0  0  0  0
    7.5326    9.5250   22.7237 H   0  0  0  0  0  0  0  0  0  0  0  0
    8.8021   10.3132   26.5276 H   0  0  0  0  0  0  0  0  0  0  0  0
    8.9638   12.0523   26.2972 H   0  0  0  0  0  0  0  0  0  0  0  0
    7.0693   12.9863   24.0507 H   0  0  0  0  0  0  0  0  0  0  0  0
    6.1712   11.6067   23.4221 H   0  0  0  0  0  0  0  0  0  0  0  0
   10.7330   10.9058   25.0488 H   0  0  0  0  0  0  0  0  0  0  0  0
    8.1738   12.1359   22.0251 H   0  0  0  0  0  0  0  0  0  0  0  0
    9.8327   17.3564   19.7436 H   0  0  0  0  0  0  0  0  0  0  0  0
    6.8289    9.4210   26.0193 H   0  0  0  0  0  0  0  0  0  0  0  0
  1  2  1  0  0  0  0
  1  3  2  0  0  0  0
  2  6  2  0  0  0  0
  3  7  1  0  0  0  0
  4  5  2  0  0  0  0
  4  8  1  0  0  0  0
  5 10  1  0  0  0  0
  6 11  1  0  0  0  0
  7 11  2  0  0  0  0
  8 12  2  0  0  0  0
  9 10  2  0  0  0  0
  9 12  1  0  0  0  0
 10 15  1  0  0  0  0
 11 23  1  0  0  0  0
 12 25  1  0  0  0  0
 13 14  2  0  0  0  0
 14 16  1  0  0  0  0
 15 24  1  0  0  0  0
 15 26  2  0  0  0  0
 16 25  1  0  0  0  0
 16 27  2  0  0  0  0
 17 18  1  0  0  0  0
 17 21  1  0  0  0  0
 18 22  1  0  0  0  0
 19 21  1  0  0  0  0
 19 23  1  0  0  0  0
 20 22  1  0  0  0  0
 20 23  1  0  0  0  0
 21 24  1  0  0  0  0
 22 24  1  0  0  0  0
 23 28  1  0  0  0  0
  1 29  1  0  0  0  0
  2 30  1  0  0  0  0
  3 31  1  0  0  0  0
  4 32  1  0  0  0  0
  5 33  1  0  0  0  0
  6 34  1  0  0  0  0
  7 35  1  0  0  0  0
  8 36  1  0  0  0  0
  9 37  1  0  0  0  0
 13 38  1  0  0  0  0
 13 39  1  0  0  0  0
 14 40  1  0  0  0  0
 17 41  1  0  0  0  0
 17 42  1  0  0  0  0
 18 43  1  0  0  0  0
 18 44  1  0  0  0  0
 19 45  1  0  0  0  0
 19 46  1  0  0  0  0
 20 47  1  0  0  0  0
 20 48  1  0  0  0  0
 21 49  1  0  0  0  0
 22 50  1  0  0  0  0
 25 51  1  0  0  0  0
 28 52  1  0  0  0  0
M  END
> <Catalog ID>
Z2892539891

> <MW>
376.448

> <MW (desalted)>
376.448

> <ClogP>
1.628

> <logS>
-5.103

> <HBD>
2

> <HBA>
3

> <TPSA>
69.64

> <RotBonds>
4

> <ROCS_ShapeQuery>
A71EV2A-x0451_0A_A71EV2A-x0310_0A_A71EV2A-x0416_0A_peptide

> <ROCS_TanimotoCombo>
0.520 

> <ROCS_ShapeTanimoto>
0.323 

> <ROCS_ColorTanimoto>
0.196 

> <ROCS_RefTversky>
0.300 

> <ROCS_RefColorTversky>
0.242 

> <ROCS_RefTverskyCombo>
0.542 

> <ROCS_FitTversky>
1.322 

> <ROCS_FitColorTversky>
0.508 

> <ROCS_FitTverskyCombo>
1.831 

> <ROCS_ColorScore>
-7.471

> <ROCS_Overlap>
2086.139

> <ROCS_Rank>
436                 

$$$$
untitled-dbase-5447_716
  -OEChem-11132309573D

 37 38  0     1  0  0  0  0  0999 V2000
    8.1984   12.3286   25.0975 C   0  0  0  0  0  0  0  0  0  0  0  0
    9.2542   10.8011   23.6112 C   0  0  0  0  0  0  0  0  0  0  0  0
    7.4755   10.0742   24.8706 C   0  0  0  0  0  0  0  0  0  0  0  0
    9.1852   12.0753   24.1512 C   0  0  0  0  0  0  0  0  0  0  0  0
    7.3232   11.3143   25.4697 C   0  0  0  0  0  0  0  0  0  0  0  0
   10.1355   13.1375   23.7320 C   0  0  0  0  0  0  0  0  0  0  0  0
   11.4485   14.0767   20.3977 C   0  0  0  0  0  0  0  0  0  0  0  0
   12.5406   14.9647   19.8129 C   0  0  0  0  0  0  0  0  0  0  0  0
   14.0498   14.4508   21.5597 C   0  0  0  0  0  0  0  0  0  0  0  0
   11.6139   13.9495   21.9125 C   0  0  2  0  0  0  0  0  0  0  0  0
   13.0481   13.5389   22.2617 C   0  0  2  0  0  0  0  0  0  0  0  0
   14.3650   12.8265   24.0732 C   0  0  0  0  0  0  0  0  0  0  0  0
    8.4218    9.7905   23.9478 N   0  0  0  0  0  0  0  0  0  0  0  0
   10.6598   13.0114   22.4546 N   0  0  0  0  0  0  0  0  0  0  0  0
   10.4171   14.0359   24.5207 O   0  0  0  0  0  0  0  0  0  0  0  0
    4.0595   12.3296   27.0804 O   0  0  0  0  0  0  0  0  0  0  0  0
    5.7603   13.9748   26.1657 O   0  0  0  0  0  0  0  0  0  0  0  0
   13.8333   14.4632   20.1513 O   0  0  0  0  0  0  0  0  0  0  0  0
    6.3514   11.5323   26.3899 O   0  0  0  0  0  0  0  0  0  0  0  0
   13.2661   13.6290   23.6640 O   0  0  0  0  0  0  0  0  0  0  0  0
    4.6021   12.4217   24.7368 F   0  0  0  0  0  0  0  0  0  0  0  0
    5.1675   12.6527   26.2035 S   0  0  0  0  0  0  0  0  0  0  0  0
    8.1082   13.3143   25.5472 H   0  0  0  0  0  0  0  0  0  0  0  0
   10.0032   10.5432   22.8687 H   0  0  0  0  0  0  0  0  0  0  0  0
    6.8208    9.2461   25.1233 H   0  0  0  0  0  0  0  0  0  0  0  0
   10.4623   14.4844   20.1489 H   0  0  0  0  0  0  0  0  0  0  0  0
   11.5237   13.0810   19.9414 H   0  0  0  0  0  0  0  0  0  0  0  0
   12.4638   14.9787   18.7211 H   0  0  0  0  0  0  0  0  0  0  0  0
   12.4457   15.9987   20.1650 H   0  0  0  0  0  0  0  0  0  0  0  0
   14.0056   15.4746   21.9526 H   0  0  0  0  0  0  0  0  0  0  0  0
   15.0698   14.0962   21.7450 H   0  0  0  0  0  0  0  0  0  0  0  0
   11.3857   14.9100   22.3921 H   0  0  0  0  0  0  0  0  0  0  0  0
   13.2288   12.5041   21.9446 H   0  0  0  0  0  0  0  0  0  0  0  0
   14.5031   12.9198   25.1531 H   0  0  0  0  0  0  0  0  0  0  0  0
   15.2684   13.1503   23.5503 H   0  0  0  0  0  0  0  0  0  0  0  0
   14.1560   11.7836   23.8236 H   0  0  0  0  0  0  0  0  0  0  0  0
   10.4270   12.2052   21.8827 H   0  0  0  0  0  0  0  0  0  0  0  0
  1  4  2  0  0  0  0
  1  5  1  0  0  0  0
  2  4  1  0  0  0  0
  2 13  2  0  0  0  0
  3  5  2  0  0  0  0
  3 13  1  0  0  0  0
  4  6  1  0  0  0  0
  5 19  1  0  0  0  0
  6 14  1  0  0  0  0
  6 15  2  0  0  0  0
  7  8  1  0  0  0  0
  7 10  1  0  0  0  0
  8 18  1  0  0  0  0
  9 11  1  0  0  0  0
  9 18  1  0  0  0  0
 10 11  1  0  0  0  0
 10 14  1  0  0  0  0
 11 20  1  0  0  0  0
 12 20  1  0  0  0  0
 16 22  2  0  0  0  0
 17 22  2  0  0  0  0
 19 22  1  0  0  0  0
 21 22  1  0  0  0  0
  1 23  1  0  0  0  0
  2 24  1  0  0  0  0
  3 25  1  0  0  0  0
  7 26  1  0  0  0  0
  7 27  1  0  0  0  0
  8 28  1  0  0  0  0
  8 29  1  0  0  0  0
  9 30  1  0  0  0  0
  9 31  1  0  0  0  0
 10 32  1  0  0  0  0
 11 33  1  0  0  0  0
 12 34  1  0  0  0  0
 12 35  1  0  0  0  0
 12 36  1  0  0  0  0
 14 37  1  0  0  0  0
M  END
> <Catalog ID>
Z4262561554

> <MW>
334.321

> <MW (desalted)>
334.321

> <ClogP>
-1.442

> <logS>
-1.983

> <HBD>
1

> <HBA>
6

> <TPSA>
103.82

> <RotBonds>
5

> <ROCS_ShapeQuery>
A71EV2A-x0451_0A_A71EV2A-x0310_0A_A71EV2A-x0416_0A_peptide

> <ROCS_TanimotoCombo>
0.520 

> <ROCS_ShapeTanimoto>
0.313 

> <ROCS_ColorTanimoto>
0.207 

> <ROCS_RefTversky>
0.282 

> <ROCS_RefColorTversky>
0.228 

> <ROCS_RefTverskyCombo>
0.510 

> <ROCS_FitTversky>
1.538 

> <ROCS_FitColorTversky>
0.688 

> <ROCS_FitTverskyCombo>
2.226 

> <ROCS_ColorScore>
-6.975

> <ROCS_Overlap>
1959.303

> <ROCS_Rank>
437                 

$$$$
untitled-dbase-468_1693
  -OEChem-11132309573D

 53 56  0     0  0  0  0  0  0999 V2000
   14.0847   18.5081   21.4015 C   0  0  0  0  0  0  0  0  0  0  0  0
   14.9852   18.3033   20.3544 C   0  0  0  0  0  0  0  0  0  0  0  0
    9.1199    9.1676   23.3699 C   0  0  0  0  0  0  0  0  0  0  0  0
   12.9520   17.6974   21.5465 C   0  0  0  0  0  0  0  0  0  0  0  0
    7.9229    9.5469   23.9769 C   0  0  0  0  0  0  0  0  0  0  0  0
   10.1405   10.0996   23.2003 C   0  0  0  0  0  0  0  0  0  0  0  0
   14.7866   17.2841   19.4173 C   0  0  0  0  0  0  0  0  0  0  0  0
   12.7388   16.6692   20.6132 C   0  0  0  0  0  0  0  0  0  0  0  0
    7.7371   10.8624   24.4260 C   0  0  0  0  0  0  0  0  0  0  0  0
    8.7746   11.7961   24.2673 C   0  0  0  0  0  0  0  0  0  0  0  0
    9.9679   11.4106   23.6424 C   0  0  0  0  0  0  0  0  0  0  0  0
   13.6513   16.4871   19.5800 C   0  0  0  0  0  0  0  0  0  0  0  0
   11.7668   15.6677   20.4020 C   0  0  0  0  0  0  0  0  0  0  0  0
    3.3756   11.8539   26.6258 C   0  0  0  0  0  0  0  0  0  0  0  0
    3.8813   12.5539   25.6081 C   0  0  0  0  0  0  0  0  0  0  0  0
    5.1398   13.3018   25.8117 C   0  0  0  0  0  0  0  0  0  0  0  0
   10.8313   14.6693   22.5246 C   0  0  0  0  0  0  0  0  0  0  0  0
    8.5841   13.2158   24.7255 C   0  0  0  0  0  0  0  0  0  0  0  0
    6.4202   11.2444   25.0568 C   0  0  0  0  0  0  0  0  0  0  0  0
    7.6013   13.2791   25.8874 C   0  0  0  0  0  0  0  0  0  0  0  0
   13.7688   14.8476   17.6773 C   0  0  0  0  0  0  0  0  0  0  0  0
   11.0931   12.3735   23.4361 C   0  0  0  0  0  0  0  0  0  0  0  0
   10.5359   15.3916   21.2241 C   0  0  0  0  0  0  0  0  0  0  0  0
   12.0267   14.9103   19.3339 N   0  0  0  0  0  0  0  0  0  0  0  0
   13.1710   15.4284   18.8575 N   0  0  0  0  0  0  0  0  0  0  0  0
    6.3347   12.6334   25.5392 N   0  0  0  0  0  0  0  0  0  0  0  0
   10.8342   13.2893   22.3561 N   0  0  0  0  0  0  0  0  0  0  0  0
    5.0582   14.4627   26.2152 O   0  0  0  0  0  0  0  0  0  0  0  0
   11.0441   15.2467   23.5876 O   0  0  0  0  0  0  0  0  0  0  0  0
   14.2654   19.3073   22.1158 H   0  0  0  0  0  0  0  0  0  0  0  0
   15.8566   18.9473   20.2641 H   0  0  0  0  0  0  0  0  0  0  0  0
    9.2574    8.1438   23.0346 H   0  0  0  0  0  0  0  0  0  0  0  0
   12.2598   17.8673   22.3656 H   0  0  0  0  0  0  0  0  0  0  0  0
    7.1341    8.8095   24.1036 H   0  0  0  0  0  0  0  0  0  0  0  0
   11.0690    9.7933   22.7255 H   0  0  0  0  0  0  0  0  0  0  0  0
   15.4870   17.1266   18.6046 H   0  0  0  0  0  0  0  0  0  0  0  0
    2.4559   11.2853   26.5376 H   0  0  0  0  0  0  0  0  0  0  0  0
    3.8860   11.8392   27.5830 H   0  0  0  0  0  0  0  0  0  0  0  0
    3.4018   12.5927   24.6388 H   0  0  0  0  0  0  0  0  0  0  0  0
    9.5543   13.6308   25.0234 H   0  0  0  0  0  0  0  0  0  0  0  0
    8.1850   13.8375   23.9164 H   0  0  0  0  0  0  0  0  0  0  0  0
    5.6156   11.1169   24.3227 H   0  0  0  0  0  0  0  0  0  0  0  0
    6.2395   10.5683   25.8994 H   0  0  0  0  0  0  0  0  0  0  0  0
    8.0466   12.8157   26.7739 H   0  0  0  0  0  0  0  0  0  0  0  0
    7.3696   14.3199   26.1480 H   0  0  0  0  0  0  0  0  0  0  0  0
   14.4522   14.0575   17.9994 H   0  0  0  0  0  0  0  0  0  0  0  0
   12.9840   14.4365   17.0362 H   0  0  0  0  0  0  0  0  0  0  0  0
   14.3106   15.6226   17.1279 H   0  0  0  0  0  0  0  0  0  0  0  0
   11.2713   12.9683   24.3413 H   0  0  0  0  0  0  0  0  0  0  0  0
   12.0298   11.8497   23.2076 H   0  0  0  0  0  0  0  0  0  0  0  0
   10.0266   16.3366   21.4523 H   0  0  0  0  0  0  0  0  0  0  0  0
    9.8284   14.7884   20.6411 H   0  0  0  0  0  0  0  0  0  0  0  0
   10.6454   12.9106   21.4303 H   0  0  0  0  0  0  0  0  0  0  0  0
  1  2  1  0  0  0  0
  1  4  2  0  0  0  0
  2  7  2  0  0  0  0
  3  5  1  0  0  0  0
  3  6  2  0  0  0  0
  4  8  1  0  0  0  0
  5  9  2  0  0  0  0
  6 11  1  0  0  0  0
  7 12  1  0  0  0  0
  8 12  2  0  0  0  0
  8 13  1  0  0  0  0
  9 10  1  0  0  0  0
  9 19  1  0  0  0  0
 10 11  2  0  0  0  0
 10 18  1  0  0  0  0
 11 22  1  0  0  0  0
 12 25  1  0  0  0  0
 13 23  1  0  0  0  0
 13 24  2  0  0  0  0
 14 15  2  0  0  0  0
 15 16  1  0  0  0  0
 16 26  1  0  0  0  0
 16 28  2  0  0  0  0
 17 23  1  0  0  0  0
 17 27  1  0  0  0  0
 17 29  2  0  0  0  0
 18 20  1  0  0  0  0
 19 26  1  0  0  0  0
 20 26  1  0  0  0  0
 21 25  1  0  0  0  0
 22 27  1  0  0  0  0
 24 25  1  0  0  0  0
  1 30  1  0  0  0  0
  2 31  1  0  0  0  0
  3 32  1  0  0  0  0
  4 33  1  0  0  0  0
  5 34  1  0  0  0  0
  6 35  1  0  0  0  0
  7 36  1  0  0  0  0
 14 37  1  0  0  0  0
 14 38  1  0  0  0  0
 15 39  1  0  0  0  0
 18 40  1  0  0  0  0
 18 41  1  0  0  0  0
 19 42  1  0  0  0  0
 19 43  1  0  0  0  0
 20 44  1  0  0  0  0
 20 45  1  0  0  0  0
 21 46  1  0  0  0  0
 21 47  1  0  0  0  0
 21 48  1  0  0  0  0
 22 49  1  0  0  0  0
 22 50  1  0  0  0  0
 23 51  1  0  0  0  0
 23 52  1  0  0  0  0
 27 53  1  0  0  0  0
M  END
> <Catalog ID>
Z4942812886

> <MW>
388.462

> <MW (desalted)>
388.462

> <ClogP>
1.461

> <logS>
-4.093

> <HBD>
1

> <HBA>
3

> <TPSA>
67.23

> <RotBonds>
5

> <ROCS_ShapeQuery>
A71EV2A-x0451_0A_A71EV2A-x0310_0A_A71EV2A-x0416_0A_peptide

> <ROCS_TanimotoCombo>
0.520 

> <ROCS_ShapeTanimoto>
0.364 

> <ROCS_ColorTanimoto>
0.156 

> <ROCS_RefTversky>
0.329 

> <ROCS_RefColorTversky>
0.179 

> <ROCS_RefTverskyCombo>
0.509 

> <ROCS_FitTversky>
1.413 

> <ROCS_FitColorTversky>
0.540 

> <ROCS_FitTverskyCombo>
1.953 

> <ROCS_ColorScore>
-5.482

> <ROCS_Overlap>
2292.002

> <ROCS_Rank>
438                 

$$$$
untitled-dbase-5286_780
  -OEChem-11132309573D

 43 43  0     1  0  0  0  0  0999 V2000
   14.0445   14.9564   24.6383 C   0  0  0  0  0  0  0  0  0  0  0  0
   13.2959   14.3785   23.6932 C   0  0  0  0  0  0  0  0  0  0  0  0
   12.3209   15.1912   22.9115 C   0  0  0  0  0  0  0  0  0  0  0  0
   10.3813   13.0662   23.3724 C   0  0  0  0  0  0  0  0  0  0  0  0
    8.2007   12.2484   24.2084 C   0  0  0  0  0  0  0  0  0  0  0  0
    9.4659   10.7935   22.6905 C   0  0  0  0  0  0  0  0  0  0  0  0
    7.9761   11.0511   25.1302 C   0  0  1  0  0  0  0  0  0  0  0  0
    9.1988    9.6044   23.6299 C   0  0  0  0  0  0  0  0  0  0  0  0
    8.9386    8.3460   22.7921 C   0  0  0  0  0  0  0  0  0  0  0  0
   10.3905    9.3353   24.5605 C   0  0  0  0  0  0  0  0  0  0  0  0
    9.7144   15.7614   20.9221 C   0  0  0  0  0  0  0  0  0  0  0  0
   11.2027   13.1455   22.1106 C   0  0  0  0  0  0  0  0  0  0  0  0
   11.0664   15.1714   20.7062 C   0  0  0  0  0  0  0  0  0  0  0  0
    6.6192   11.1448   25.8168 C   0  0  0  0  0  0  0  0  0  0  0  0
    9.4197   12.0600   23.4261 N   0  0  0  0  0  0  0  0  0  0  0  0
   11.5631   14.5190   21.9298 N   0  0  0  0  0  0  0  0  0  0  0  0
   12.2272   16.4016   23.1219 O   0  0  0  0  0  0  0  0  0  0  0  0
   10.5924   13.8712   24.2830 O   0  0  0  0  0  0  0  0  0  0  0  0
    7.9955    9.8294   24.3839 O   0  0  0  0  0  0  0  0  0  0  0  0
    6.5573   12.2538   26.5715 F   0  0  0  0  0  0  0  0  0  0  0  0
    5.6384   11.1906   24.9007 F   0  0  0  0  0  0  0  0  0  0  0  0
    6.4240   10.0751   26.6049 F   0  0  0  0  0  0  0  0  0  0  0  0
   14.7660   14.4050   25.2310 H   0  0  0  0  0  0  0  0  0  0  0  0
   13.9469   16.0195   24.8327 H   0  0  0  0  0  0  0  0  0  0  0  0
   13.4288   13.3265   23.4726 H   0  0  0  0  0  0  0  0  0  0  0  0
    7.3809   12.3390   23.4851 H   0  0  0  0  0  0  0  0  0  0  0  0
    8.2417   13.1776   24.7855 H   0  0  0  0  0  0  0  0  0  0  0  0
   10.4102   10.6582   22.1585 H   0  0  0  0  0  0  0  0  0  0  0  0
    8.6745   10.8650   21.9333 H   0  0  0  0  0  0  0  0  0  0  0  0
    8.7465   11.0157   25.9084 H   0  0  0  0  0  0  0  0  0  0  0  0
    8.7495    7.5040   23.4522 H   0  0  0  0  0  0  0  0  0  0  0  0
    9.8082    8.1348   22.1760 H   0  0  0  0  0  0  0  0  0  0  0  0
    8.0737    8.5076   22.1546 H   0  0  0  0  0  0  0  0  0  0  0  0
   10.1617    8.4915   25.2046 H   0  0  0  0  0  0  0  0  0  0  0  0
   10.5794   10.2153   25.1681 H   0  0  0  0  0  0  0  0  0  0  0  0
   11.2697    9.1096   23.9644 H   0  0  0  0  0  0  0  0  0  0  0  0
    9.7644   16.5091   21.7274 H   0  0  0  0  0  0  0  0  0  0  0  0
    9.3728   16.2441   19.9945 H   0  0  0  0  0  0  0  0  0  0  0  0
    9.0082   14.9664   21.2033 H   0  0  0  0  0  0  0  0  0  0  0  0
   10.5935   12.7865   21.2864 H   0  0  0  0  0  0  0  0  0  0  0  0
   12.0820   12.5211   22.2384 H   0  0  0  0  0  0  0  0  0  0  0  0
   11.0080   14.4253   19.9000 H   0  0  0  0  0  0  0  0  0  0  0  0
   11.7648   15.9703   20.4165 H   0  0  0  0  0  0  0  0  0  0  0  0
  1  2  2  0  0  0  0
  2  3  1  0  0  0  0
  3 16  1  0  0  0  0
  3 17  2  0  0  0  0
  4 12  1  0  0  0  0
  4 15  1  0  0  0  0
  4 18  2  0  0  0  0
  5  7  1  0  0  0  0
  5 15  1  0  0  0  0
  6  8  1  0  0  0  0
  6 15  1  0  0  0  0
  7 14  1  0  0  0  0
  7 19  1  0  0  0  0
  8  9  1  0  0  0  0
  8 10  1  0  0  0  0
  8 19  1  0  0  0  0
 11 13  1  0  0  0  0
 12 16  1  0  0  0  0
 13 16  1  0  0  0  0
 14 20  1  0  0  0  0
 14 21  1  0  0  0  0
 14 22  1  0  0  0  0
  1 23  1  0  0  0  0
  1 24  1  0  0  0  0
  2 25  1  0  0  0  0
  5 26  1  0  0  0  0
  5 27  1  0  0  0  0
  6 28  1  0  0  0  0
  6 29  1  0  0  0  0
  7 30  1  0  0  0  0
  9 31  1  0  0  0  0
  9 32  1  0  0  0  0
  9 33  1  0  0  0  0
 10 34  1  0  0  0  0
 10 35  1  0  0  0  0
 10 36  1  0  0  0  0
 11 37  1  0  0  0  0
 11 38  1  0  0  0  0
 11 39  1  0  0  0  0
 12 40  1  0  0  0  0
 12 41  1  0  0  0  0
 13 42  1  0  0  0  0
 13 43  1  0  0  0  0
M  END
> <Catalog ID>
Z2909038373

> <MW>
322.323

> <MW (desalted)>
322.323

> <ClogP>
2.391

> <logS>
-3.406

> <HBD>
0

> <HBA>
3

> <TPSA>
49.85

> <RotBonds>
5

> <ROCS_ShapeQuery>
A71EV2A-x0451_0A_A71EV2A-x0310_0A_A71EV2A-x0416_0A_peptide

> <ROCS_TanimotoCombo>
0.520 

> <ROCS_ShapeTanimoto>
0.357 

> <ROCS_ColorTanimoto>
0.163 

> <ROCS_RefTversky>
0.311 

> <ROCS_RefColorTversky>
0.174 

> <ROCS_RefTverskyCombo>
0.485 

> <ROCS_FitTversky>
1.691 

> <ROCS_FitColorTversky>
0.725 

> <ROCS_FitTverskyCombo>
2.416 

> <ROCS_ColorScore>
-5.281

> <ROCS_Overlap>
2162.643

> <ROCS_Rank>
439                 

$$$$
untitled-dbase-9812_2598
  -OEChem-11132309573D

 46 48  0     1  0  0  0  0  0999 V2000
    6.0991   10.9029   25.8353 C   0  0  0  0  0  0  0  0  0  0  0  0
    6.9049    9.9661   25.1800 C   0  0  0  0  0  0  0  0  0  0  0  0
    7.5913   12.7225   25.2152 C   0  0  0  0  0  0  0  0  0  0  0  0
    8.4109   11.7936   24.5524 C   0  0  0  0  0  0  0  0  0  0  0  0
    6.4347   12.2580   25.8539 C   0  0  0  0  0  0  0  0  0  0  0  0
    8.0532   10.4500   24.5494 C   0  0  0  0  0  0  0  0  0  0  0  0
    9.6136   11.8371   23.8150 C   0  0  0  0  0  0  0  0  0  0  0  0
   13.6393   16.5195   18.0647 C   0  0  0  0  0  0  0  0  0  0  0  0
   12.8636   16.3443   19.1365 C   0  0  0  0  0  0  0  0  0  0  0  0
    5.5695   13.2033   26.5429 C   0  0  0  0  0  0  0  0  0  0  0  0
   10.4336   13.0145   23.5042 C   0  0  0  0  0  0  0  0  0  0  0  0
   11.7090   15.4264   19.0398 C   0  0  0  0  0  0  0  0  0  0  0  0
   10.7823   12.3215   21.0820 C   0  0  0  0  0  0  0  0  0  0  0  0
   10.6188   13.3277   19.9458 C   0  0  0  0  0  0  0  0  0  0  0  0
   12.8327   14.0906   20.7845 C   0  0  0  0  0  0  0  0  0  0  0  0
   12.3971   13.8285   22.2354 C   0  0  2  0  0  0  0  0  0  0  0  0
   13.5410   13.1731   23.0127 C   0  0  0  0  0  0  0  0  0  0  0  0
    4.0383   13.4484   28.3554 C   0  0  0  0  0  0  0  0  0  0  0  0
    9.9967   10.6358   23.3768 N   0  0  0  0  0  0  0  0  0  0  0  0
    9.0351    9.8174   23.8355 N   0  0  0  0  0  0  0  0  0  0  0  0
   11.1719   13.0140   22.3149 N   0  0  0  0  0  0  0  0  0  0  0  0
   11.6882   14.3339   19.9058 N   0  0  0  0  0  0  0  0  0  0  0  0
    5.4319   14.3901   26.2192 O   0  0  0  0  0  0  0  0  0  0  0  0
   10.4151   13.9251   24.3315 O   0  0  0  0  0  0  0  0  0  0  0  0
   10.8388   15.6817   18.2064 O   0  0  0  0  0  0  0  0  0  0  0  0
    4.9230   12.6172   27.5964 O   0  0  0  0  0  0  0  0  0  0  0  0
    5.1959   10.5576   26.3346 H   0  0  0  0  0  0  0  0  0  0  0  0
    6.6449    8.9134   25.1645 H   0  0  0  0  0  0  0  0  0  0  0  0
    7.8511   13.7772   25.2311 H   0  0  0  0  0  0  0  0  0  0  0  0
   14.5002   17.1795   18.0741 H   0  0  0  0  0  0  0  0  0  0  0  0
   13.4195   15.9931   17.1419 H   0  0  0  0  0  0  0  0  0  0  0  0
   13.0507   16.8510   20.0742 H   0  0  0  0  0  0  0  0  0  0  0  0
    9.8563   11.7761   21.2068 H   0  0  0  0  0  0  0  0  0  0  0  0
   11.5723   11.6154   20.8453 H   0  0  0  0  0  0  0  0  0  0  0  0
   10.5580   12.7901   18.9850 H   0  0  0  0  0  0  0  0  0  0  0  0
    9.6653   13.8742   20.0538 H   0  0  0  0  0  0  0  0  0  0  0  0
   13.4525   14.9990   20.7507 H   0  0  0  0  0  0  0  0  0  0  0  0
   13.4767   13.2827   20.4252 H   0  0  0  0  0  0  0  0  0  0  0  0
   12.2090   14.7992   22.7003 H   0  0  0  0  0  0  0  0  0  0  0  0
   13.7637   12.1993   22.5829 H   0  0  0  0  0  0  0  0  0  0  0  0
   13.2512   13.0491   24.0534 H   0  0  0  0  0  0  0  0  0  0  0  0
   14.4267   13.8016   22.9581 H   0  0  0  0  0  0  0  0  0  0  0  0
    3.5892   12.8631   29.1615 H   0  0  0  0  0  0  0  0  0  0  0  0
    3.2583   13.8452   27.7006 H   0  0  0  0  0  0  0  0  0  0  0  0
    4.6082   14.2765   28.7833 H   0  0  0  0  0  0  0  0  0  0  0  0
    9.1083    8.8297   23.6260 H   0  0  0  0  0  0  0  0  0  0  0  0
  1  2  2  0  0  0  0
  1  5  1  0  0  0  0
  2  6  1  0  0  0  0
  3  4  1  0  0  0  0
  3  5  2  0  0  0  0
  4  6  2  0  0  0  0
  4  7  1  0  0  0  0
  5 10  1  0  0  0  0
  6 20  1  0  0  0  0
  7 11  1  0  0  0  0
  7 19  2  0  0  0  0
  8  9  2  0  0  0  0
  9 12  1  0  0  0  0
 10 23  2  0  0  0  0
 10 26  1  0  0  0  0
 11 21  1  0  0  0  0
 11 24  2  0  0  0  0
 12 22  1  0  0  0  0
 12 25  2  0  0  0  0
 13 14  1  0  0  0  0
 13 21  1  0  0  0  0
 14 22  1  0  0  0  0
 15 16  1  0  0  0  0
 15 22  1  0  0  0  0
 16 17  1  1  0  0  0
 16 21  1  0  0  0  0
 18 26  1  0  0  0  0
 19 20  1  0  0  0  0
  1 27  1  0  0  0  0
  2 28  1  0  0  0  0
  3 29  1  0  0  0  0
  8 30  1  0  0  0  0
  8 31  1  0  0  0  0
  9 32  1  0  0  0  0
 13 33  1  0  0  0  0
 13 34  1  0  0  0  0
 14 35  1  0  0  0  0
 14 36  1  0  0  0  0
 15 37  1  0  0  0  0
 15 38  1  0  0  0  0
 16 39  1  0  0  0  0
 17 40  1  0  0  0  0
 17 41  1  0  0  0  0
 17 42  1  0  0  0  0
 18 43  1  0  0  0  0
 18 44  1  0  0  0  0
 18 45  1  0  0  0  0
 20 46  1  0  0  0  0
M  END
> <Catalog ID>
Z4230316649

> <MW>
356.376

> <MW (desalted)>
356.376

> <ClogP>
1.824

> <logS>
-4.228

> <HBD>
1

> <HBA>
4

> <TPSA>
95.6

> <RotBonds>
4

> <ROCS_ShapeQuery>
A71EV2A-x0451_0A_A71EV2A-x0310_0A_A71EV2A-x0416_0A_peptide

> <ROCS_TanimotoCombo>
0.520 

> <ROCS_ShapeTanimoto>
0.362 

> <ROCS_ColorTanimoto>
0.157 

> <ROCS_RefTversky>
0.323 

> <ROCS_RefColorTversky>
0.181 

> <ROCS_RefTverskyCombo>
0.504 

> <ROCS_FitTversky>
1.506 

> <ROCS_FitColorTversky>
0.545 

> <ROCS_FitTverskyCombo>
2.051 

> <ROCS_ColorScore>
-5.538

> <ROCS_Overlap>
2246.545

> <ROCS_Rank>
440                 

$$$$
untitled-dbase-7225_120
  -OEChem-11132309573D

 42 44  0     1  0  0  0  0  0999 V2000
   14.0397   16.0799   18.3705 C   0  0  0  0  0  0  0  0  0  0  0  0
   12.7895   15.4615   18.3741 C   0  0  0  0  0  0  0  0  0  0  0  0
   14.6550   16.4162   19.5764 C   0  0  0  0  0  0  0  0  0  0  0  0
    8.2447    9.3264   24.1635 C   0  0  0  0  0  0  0  0  0  0  0  0
   12.1544   15.1794   19.5836 C   0  0  0  0  0  0  0  0  0  0  0  0
   14.0199   16.1341   20.7858 C   0  0  0  0  0  0  0  0  0  0  0  0
    7.4945    9.9024   25.1887 C   0  0  0  0  0  0  0  0  0  0  0  0
    9.0580   10.1260   23.3605 C   0  0  0  0  0  0  0  0  0  0  0  0
    8.3708   12.0777   24.6077 C   0  0  0  0  0  0  0  0  0  0  0  0
   12.7696   15.5157   20.7894 C   0  0  0  0  0  0  0  0  0  0  0  0
    7.5575   11.2781   25.4108 C   0  0  0  0  0  0  0  0  0  0  0  0
    9.1210   11.5017   23.5826 C   0  0  0  0  0  0  0  0  0  0  0  0
    6.6890   13.1257   26.8540 C   0  0  0  0  0  0  0  0  0  0  0  0
   10.5951   13.4994   23.1172 C   0  0  0  0  0  0  0  0  0  0  0  0
    5.7058   12.6763   27.9514 C   0  0  0  0  0  0  0  0  0  0  0  0
    5.9113   11.2525   27.3964 C   0  0  0  0  0  0  0  0  0  0  0  0
   11.1886   16.3543   22.5787 C   0  0  0  0  0  0  0  0  0  0  0  0
   12.0910   15.2146   22.0830 C   0  0  1  0  0  0  0  0  0  0  0  0
    6.8072   11.8535   26.4367 N   0  0  0  0  0  0  0  0  0  0  0  0
    9.9460   12.3119   22.7680 N   0  0  0  0  0  0  0  0  0  0  0  0
   11.3113   13.9897   22.0262 N   0  0  0  0  0  0  0  0  0  0  0  0
    7.1728   14.1741   26.4936 O   0  0  0  0  0  0  0  0  0  0  0  0
   10.5631   14.0573   24.2114 O   0  0  0  0  0  0  0  0  0  0  0  0
   14.5347   16.2983   17.4287 H   0  0  0  0  0  0  0  0  0  0  0  0
   12.3107   15.1986   17.4353 H   0  0  0  0  0  0  0  0  0  0  0  0
   15.6289   16.8967   19.5740 H   0  0  0  0  0  0  0  0  0  0  0  0
    8.1965    8.2553   23.9912 H   0  0  0  0  0  0  0  0  0  0  0  0
   11.1803   14.6975   19.5767 H   0  0  0  0  0  0  0  0  0  0  0  0
   14.5068   16.3998   21.7204 H   0  0  0  0  0  0  0  0  0  0  0  0
    6.8636    9.2692   25.8075 H   0  0  0  0  0  0  0  0  0  0  0  0
    9.6374    9.6657   22.5640 H   0  0  0  0  0  0  0  0  0  0  0  0
    8.4196   13.1509   24.7808 H   0  0  0  0  0  0  0  0  0  0  0  0
    6.0721   12.8399   28.9678 H   0  0  0  0  0  0  0  0  0  0  0  0
    4.6981   13.0829   27.8370 H   0  0  0  0  0  0  0  0  0  0  0  0
    6.4031   10.5521   28.0772 H   0  0  0  0  0  0  0  0  0  0  0  0
    5.0269   10.7952   26.9443 H   0  0  0  0  0  0  0  0  0  0  0  0
   10.4171   16.5875   21.8366 H   0  0  0  0  0  0  0  0  0  0  0  0
   10.6880   16.0859   23.5158 H   0  0  0  0  0  0  0  0  0  0  0  0
   11.7608   17.2690   22.7701 H   0  0  0  0  0  0  0  0  0  0  0  0
   12.8403   15.0325   22.8736 H   0  0  0  0  0  0  0  0  0  0  0  0
   10.0805   11.9866   21.8139 H   0  0  0  0  0  0  0  0  0  0  0  0
   11.2872   13.4709   21.1585 H   0  0  0  0  0  0  0  0  0  0  0  0
  1  2  1  0  0  0  0
  1  3  2  0  0  0  0
  2  5  2  0  0  0  0
  3  6  1  0  0  0  0
  4  7  1  0  0  0  0
  4  8  2  0  0  0  0
  5 10  1  0  0  0  0
  6 10  2  0  0  0  0
  7 11  2  0  0  0  0
  8 12  1  0  0  0  0
  9 11  1  0  0  0  0
  9 12  2  0  0  0  0
 10 18  1  0  0  0  0
 11 19  1  0  0  0  0
 12 20  1  0  0  0  0
 13 15  1  0  0  0  0
 13 19  1  0  0  0  0
 13 22  2  0  0  0  0
 14 20  1  0  0  0  0
 14 21  1  0  0  0  0
 14 23  2  0  0  0  0
 15 16  1  0  0  0  0
 16 19  1  0  0  0  0
 17 18  1  6  0  0  0
 18 21  1  0  0  0  0
  1 24  1  0  0  0  0
  2 25  1  0  0  0  0
  3 26  1  0  0  0  0
  4 27  1  0  0  0  0
  5 28  1  0  0  0  0
  6 29  1  0  0  0  0
  7 30  1  0  0  0  0
  8 31  1  0  0  0  0
  9 32  1  0  0  0  0
 15 33  1  0  0  0  0
 15 34  1  0  0  0  0
 16 35  1  0  0  0  0
 16 36  1  0  0  0  0
 17 37  1  0  0  0  0
 17 38  1  0  0  0  0
 17 39  1  0  0  0  0
 18 40  1  0  0  0  0
 20 41  1  0  0  0  0
 21 42  1  0  0  0  0
M  END
> <Catalog ID>
Z1931368482

> <MW>
309.362

> <MW (desalted)>
309.362

> <ClogP>
2.579

> <logS>
-4.335

> <HBD>
2

> <HBA>
2

> <TPSA>
61.44

> <RotBonds>
4

> <ROCS_ShapeQuery>
A71EV2A-x0451_0A_A71EV2A-x0310_0A_A71EV2A-x0416_0A_peptide

> <ROCS_TanimotoCombo>
0.520 

> <ROCS_ShapeTanimoto>
0.344 

> <ROCS_ColorTanimoto>
0.175 

> <ROCS_RefTversky>
0.306 

> <ROCS_RefColorTversky>
0.190 

> <ROCS_RefTverskyCombo>
0.495 

> <ROCS_FitTversky>
1.574 

> <ROCS_FitColorTversky>
0.701 

> <ROCS_FitTverskyCombo>
2.275 

> <ROCS_ColorScore>
-5.778

> <ROCS_Overlap>
2125.020

> <ROCS_Rank>
441                 

$$$$
untitled-dbase-4455_1327
  -OEChem-11132309573D

 50 52  0     1  0  0  0  0  0999 V2000
    9.6509    8.0924   24.2882 C   0  0  0  0  0  0  0  0  0  0  0  0
   10.4559    8.7373   23.3443 C   0  0  0  0  0  0  0  0  0  0  0  0
    8.5895    8.7614   24.9119 C   0  0  0  0  0  0  0  0  0  0  0  0
   10.2325   10.0719   22.9878 C   0  0  0  0  0  0  0  0  0  0  0  0
    8.3550   10.0995   24.5634 C   0  0  0  0  0  0  0  0  0  0  0  0
    9.1710   10.7131   23.6229 C   0  0  0  0  0  0  0  0  0  0  0  0
   10.3783   13.6459   23.2592 C   0  0  0  0  0  0  0  0  0  0  0  0
   15.2640   12.0103   25.4367 C   0  0  0  0  0  0  0  0  0  0  0  0
   11.0840   15.7158   20.3985 C   0  0  0  0  0  0  0  0  0  0  0  0
   11.9045   16.6583   21.2824 C   0  0  0  0  0  0  0  0  0  0  0  0
   11.0699   14.2743   20.9038 C   0  0  0  0  0  0  0  0  0  0  0  0
   13.0816   15.9504   21.9704 C   0  0  1  0  0  0  0  0  0  0  0  0
   12.5508   14.7835   22.8528 C   0  0  2  0  0  0  0  0  0  0  0  0
   14.1632   15.5720   20.9520 C   0  0  0  0  0  0  0  0  0  0  0  0
    9.1140   13.0708   22.7080 C   0  0  0  0  0  0  0  0  0  0  0  0
   16.1381   10.7917   25.5880 C   0  0  0  0  0  0  0  0  0  0  0  0
   13.5761   13.6799   23.1214 C   0  0  0  0  0  0  0  0  0  0  0  0
   13.2060   12.8283   24.3241 C   0  0  0  0  0  0  0  0  0  0  0  0
    7.4103   10.9917   24.9971 N   0  0  0  0  0  0  0  0  0  0  0  0
    7.6071   12.1414   24.3609 N   0  0  0  0  0  0  0  0  0  0  0  0
    8.6581   11.9753   23.5408 N   0  0  0  0  0  0  0  0  0  0  0  0
   11.2825   14.2124   22.3497 N   0  0  0  0  0  0  0  0  0  0  0  0
   14.1782   11.8059   24.5954 N   0  0  0  0  0  0  0  0  0  0  0  0
   10.5531   13.5919   24.4741 O   0  0  0  0  0  0  0  0  0  0  0  0
   15.5078   13.0610   26.0274 O   0  0  0  0  0  0  0  0  0  0  0  0
   15.5277    9.8504   26.9578 Cl  0  0  0  0  0  0  0  0  0  0  0  0
    9.8510    7.0547   24.5431 H   0  0  0  0  0  0  0  0  0  0  0  0
   11.2722    8.1915   22.8775 H   0  0  0  0  0  0  0  0  0  0  0  0
    7.9701    8.2528   25.6433 H   0  0  0  0  0  0  0  0  0  0  0  0
   10.8556   10.5732   22.2563 H   0  0  0  0  0  0  0  0  0  0  0  0
   10.0476   16.0875   20.3327 H   0  0  0  0  0  0  0  0  0  0  0  0
   11.4818   15.7403   19.3714 H   0  0  0  0  0  0  0  0  0  0  0  0
   12.2694   17.5043   20.6733 H   0  0  0  0  0  0  0  0  0  0  0  0
   11.2386   17.1036   22.0424 H   0  0  0  0  0  0  0  0  0  0  0  0
   10.1234   13.8061   20.6270 H   0  0  0  0  0  0  0  0  0  0  0  0
   11.8676   13.6985   20.4281 H   0  0  0  0  0  0  0  0  0  0  0  0
   13.5296   16.6855   22.6619 H   0  0  0  0  0  0  0  0  0  0  0  0
   12.3526   15.2420   23.8520 H   0  0  0  0  0  0  0  0  0  0  0  0
   13.7649   14.8458   20.2464 H   0  0  0  0  0  0  0  0  0  0  0  0
   15.0176   15.1389   21.4679 H   0  0  0  0  0  0  0  0  0  0  0  0
   14.4837   16.4596   20.4102 H   0  0  0  0  0  0  0  0  0  0  0  0
    9.3050   12.7071   21.7013 H   0  0  0  0  0  0  0  0  0  0  0  0
    8.3558   13.8500   22.6851 H   0  0  0  0  0  0  0  0  0  0  0  0
   16.1331   10.1581   24.6977 H   0  0  0  0  0  0  0  0  0  0  0  0
   17.1646   11.1047   25.7977 H   0  0  0  0  0  0  0  0  0  0  0  0
   14.5449   14.1533   23.2972 H   0  0  0  0  0  0  0  0  0  0  0  0
   13.6654   13.0615   22.2249 H   0  0  0  0  0  0  0  0  0  0  0  0
   13.1476   13.4591   25.2167 H   0  0  0  0  0  0  0  0  0  0  0  0
   12.2357   12.3405   24.1876 H   0  0  0  0  0  0  0  0  0  0  0  0
   14.0667   10.8947   24.1530 H   0  0  0  0  0  0  0  0  0  0  0  0
  1  2  1  0  0  0  0
  1  3  2  0  0  0  0
  2  4  2  0  0  0  0
  3  5  1  0  0  0  0
  4  6  1  0  0  0  0
  5  6  2  0  0  0  0
  5 19  1  0  0  0  0
  6 21  1  0  0  0  0
  7 15  1  0  0  0  0
  7 22  1  0  0  0  0
  7 24  2  0  0  0  0
  8 16  1  0  0  0  0
  8 23  1  0  0  0  0
  8 25  2  0  0  0  0
  9 10  1  0  0  0  0
  9 11  1  0  0  0  0
 10 12  1  0  0  0  0
 11 22  1  0  0  0  0
 12 13  1  0  0  0  0
 12 14  1  0  0  0  0
 13 17  1  0  0  0  0
 13 22  1  0  0  0  0
 15 21  1  0  0  0  0
 16 26  1  0  0  0  0
 17 18  1  0  0  0  0
 18 23  1  0  0  0  0
 19 20  2  0  0  0  0
 20 21  1  0  0  0  0
  1 27  1  0  0  0  0
  2 28  1  0  0  0  0
  3 29  1  0  0  0  0
  4 30  1  0  0  0  0
  9 31  1  0  0  0  0
  9 32  1  0  0  0  0
 10 33  1  0  0  0  0
 10 34  1  0  0  0  0
 11 35  1  0  0  0  0
 11 36  1  0  0  0  0
 12 37  1  0  0  0  0
 13 38  1  0  0  0  0
 14 39  1  0  0  0  0
 14 40  1  0  0  0  0
 14 41  1  0  0  0  0
 15 42  1  0  0  0  0
 15 43  1  0  0  0  0
 16 44  1  0  0  0  0
 16 45  1  0  0  0  0
 17 46  1  0  0  0  0
 17 47  1  0  0  0  0
 18 48  1  0  0  0  0
 18 49  1  0  0  0  0
 23 50  1  0  0  0  0
M  END
> <Catalog ID>
Z4425210677

> <MW>
377.868

> <MW (desalted)>
377.868

> <ClogP>
2.478

> <logS>
-3.203

> <HBD>
1

> <HBA>
4

> <TPSA>
80.12

> <RotBonds>
6

> <ROCS_ShapeQuery>
A71EV2A-x0451_0A_A71EV2A-x0310_0A_A71EV2A-x0416_0A_peptide

> <ROCS_TanimotoCombo>
0.520 

> <ROCS_ShapeTanimoto>
0.356 

> <ROCS_ColorTanimoto>
0.164 

> <ROCS_RefTversky>
0.317 

> <ROCS_RefColorTversky>
0.185 

> <ROCS_RefTverskyCombo>
0.502 

> <ROCS_FitTversky>
1.513 

> <ROCS_FitColorTversky>
0.593 

> <ROCS_FitTverskyCombo>
2.106 

> <ROCS_ColorScore>
-5.650

> <ROCS_Overlap>
2206.091

> <ROCS_Rank>
442                 

$$$$
untitled-dbase-3891_705
  -OEChem-11132309573D

 37 38  0     1  0  0  0  0  0999 V2000
    8.1923   12.3260   25.1018 C   0  0  0  0  0  0  0  0  0  0  0  0
    9.2477   10.7975   23.6165 C   0  0  0  0  0  0  0  0  0  0  0  0
    7.4670   10.0725   24.8741 C   0  0  0  0  0  0  0  0  0  0  0  0
    9.1796   12.0717   24.1564 C   0  0  0  0  0  0  0  0  0  0  0  0
    7.3156   11.3127   25.4731 C   0  0  0  0  0  0  0  0  0  0  0  0
   10.1315   13.1329   23.7383 C   0  0  0  0  0  0  0  0  0  0  0  0
   11.4380   14.0710   20.4048 C   0  0  0  0  0  0  0  0  0  0  0  0
   12.5261   14.9540   19.8070 C   0  0  0  0  0  0  0  0  0  0  0  0
   14.0491   14.4420   21.5393 C   0  0  0  0  0  0  0  0  0  0  0  0
   11.6136   13.9443   21.9197 C   0  0  2  0  0  0  0  0  0  0  0  0
   13.0529   13.5358   22.2574 C   0  0  2  0  0  0  0  0  0  0  0  0
   14.3958   12.8412   24.0569 C   0  0  0  0  0  0  0  0  0  0  0  0
    8.4139    9.7877   23.9522 N   0  0  0  0  0  0  0  0  0  0  0  0
   10.6570   13.0063   22.4613 N   0  0  0  0  0  0  0  0  0  0  0  0
   10.4134   14.0309   24.5273 O   0  0  0  0  0  0  0  0  0  0  0  0
    4.0514   12.3316   27.0807 O   0  0  0  0  0  0  0  0  0  0  0  0
    5.7550   13.9749   26.1677 O   0  0  0  0  0  0  0  0  0  0  0  0
   13.8196   14.4482   20.1335 O   0  0  0  0  0  0  0  0  0  0  0  0
    6.3430   11.5318   26.3924 O   0  0  0  0  0  0  0  0  0  0  0  0
   13.2917   13.6406   23.6555 O   0  0  0  0  0  0  0  0  0  0  0  0
    4.5964   12.4232   24.7376 F   0  0  0  0  0  0  0  0  0  0  0  0
    5.1606   12.6535   26.2049 S   0  0  0  0  0  0  0  0  0  0  0  0
    8.1027   13.3118   25.5515 H   0  0  0  0  0  0  0  0  0  0  0  0
    9.9972   10.5387   22.8747 H   0  0  0  0  0  0  0  0  0  0  0  0
    6.8112    9.2450   25.1261 H   0  0  0  0  0  0  0  0  0  0  0  0
   10.4504   14.4801   20.1635 H   0  0  0  0  0  0  0  0  0  0  0  0
   11.5067   13.0742   19.9499 H   0  0  0  0  0  0  0  0  0  0  0  0
   12.4381   14.9662   18.7160 H   0  0  0  0  0  0  0  0  0  0  0  0
   12.4381   15.9888   20.1581 H   0  0  0  0  0  0  0  0  0  0  0  0
   14.0117   15.4678   21.9279 H   0  0  0  0  0  0  0  0  0  0  0  0
   15.0701   14.0859   21.7164 H   0  0  0  0  0  0  0  0  0  0  0  0
   11.3863   14.9048   22.3987 H   0  0  0  0  0  0  0  0  0  0  0  0
   13.2320   12.4997   21.9479 H   0  0  0  0  0  0  0  0  0  0  0  0
   14.5500   12.9458   25.1336 H   0  0  0  0  0  0  0  0  0  0  0  0
   15.2917   13.1584   23.5172 H   0  0  0  0  0  0  0  0  0  0  0  0
   14.1821   11.7959   23.8215 H   0  0  0  0  0  0  0  0  0  0  0  0
   10.4238   12.2003   21.8892 H   0  0  0  0  0  0  0  0  0  0  0  0
  1  4  2  0  0  0  0
  1  5  1  0  0  0  0
  2  4  1  0  0  0  0
  2 13  2  0  0  0  0
  3  5  2  0  0  0  0
  3 13  1  0  0  0  0
  4  6  1  0  0  0  0
  5 19  1  0  0  0  0
  6 14  1  0  0  0  0
  6 15  2  0  0  0  0
  7  8  1  0  0  0  0
  7 10  1  0  0  0  0
  8 18  1  0  0  0  0
  9 11  1  0  0  0  0
  9 18  1  0  0  0  0
 10 11  1  0  0  0  0
 10 14  1  1  0  0  0
 11 20  1  6  0  0  0
 12 20  1  0  0  0  0
 16 22  2  0  0  0  0
 17 22  2  0  0  0  0
 19 22  1  0  0  0  0
 21 22  1  0  0  0  0
  1 23  1  0  0  0  0
  2 24  1  0  0  0  0
  3 25  1  0  0  0  0
  7 26  1  0  0  0  0
  7 27  1  0  0  0  0
  8 28  1  0  0  0  0
  8 29  1  0  0  0  0
  9 30  1  0  0  0  0
  9 31  1  0  0  0  0
 10 32  1  0  0  0  0
 11 33  1  0  0  0  0
 12 34  1  0  0  0  0
 12 35  1  0  0  0  0
 12 36  1  0  0  0  0
 14 37  1  0  0  0  0
M  END
> <Catalog ID>
Z4262508048

> <MW>
334.321

> <MW (desalted)>
334.321

> <ClogP>
-1.442

> <logS>
-2.106

> <HBD>
1

> <HBA>
6

> <TPSA>
103.82

> <RotBonds>
5

> <ROCS_ShapeQuery>
A71EV2A-x0451_0A_A71EV2A-x0310_0A_A71EV2A-x0416_0A_peptide

> <ROCS_TanimotoCombo>
0.520 

> <ROCS_ShapeTanimoto>
0.312 

> <ROCS_ColorTanimoto>
0.207 

> <ROCS_RefTversky>
0.282 

> <ROCS_RefColorTversky>
0.229 

> <ROCS_RefTverskyCombo>
0.510 

> <ROCS_FitTversky>
1.535 

> <ROCS_FitColorTversky>
0.689 

> <ROCS_FitTverskyCombo>
2.225 

> <ROCS_ColorScore>
-6.987

> <ROCS_Overlap>
1956.125

> <ROCS_Rank>
443                 

$$$$
untitled-dbase-10621_675
  -OEChem-11132309573D

 43 44  0     0  0  0  0  0  0999 V2000
    7.1658   10.4817   24.8712 C   0  0  0  0  0  0  0  0  0  0  0  0
    8.0889    9.7080   24.1678 C   0  0  0  0  0  0  0  0  0  0  0  0
    8.3518   12.4847   24.2243 C   0  0  0  0  0  0  0  0  0  0  0  0
    7.2972   11.8702   24.8994 C   0  0  0  0  0  0  0  0  0  0  0  0
    9.2750   11.7110   23.5210 C   0  0  0  0  0  0  0  0  0  0  0  0
    9.1435   10.3226   23.4927 C   0  0  0  0  0  0  0  0  0  0  0  0
    4.4557   13.5475   28.4932 C   0  0  0  0  0  0  0  0  0  0  0  0
    4.7583   13.4019   27.1993 C   0  0  0  0  0  0  0  0  0  0  0  0
    5.6459   12.2911   26.7479 C   0  0  0  0  0  0  0  0  0  0  0  0
   10.9474   13.5231   23.2066 C   0  0  0  0  0  0  0  0  0  0  0  0
   13.7173   15.8008   20.7461 C   0  0  0  0  0  0  0  0  0  0  0  0
   12.1551   15.7024   18.9162 C   0  0  0  0  0  0  0  0  0  0  0  0
   14.8281   16.1029   19.7443 C   0  0  0  0  0  0  0  0  0  0  0  0
   13.3029   16.0057   17.9575 C   0  0  0  0  0  0  0  0  0  0  0  0
   12.0564   13.8639   22.2162 C   0  0  0  0  0  0  0  0  0  0  0  0
   11.5862   14.7087   21.0396 C   0  0  0  0  0  0  0  0  0  0  0  0
   12.6676   15.0000   20.1008 N   0  0  0  0  0  0  0  0  0  0  0  0
    6.3738   12.6439   25.6031 N   0  0  0  0  0  0  0  0  0  0  0  0
   10.3303   12.3289   22.8452 N   0  0  0  0  0  0  0  0  0  0  0  0
    5.6855   11.2247   27.3501 O   0  0  0  0  0  0  0  0  0  0  0  0
   10.6835   14.2488   24.1591 O   0  0  0  0  0  0  0  0  0  0  0  0
   14.3010   16.7917   18.6097 O   0  0  0  0  0  0  0  0  0  0  0  0
   10.0247    9.5686   22.8204 F   0  0  0  0  0  0  0  0  0  0  0  0
    6.3480    9.9917   25.3937 H   0  0  0  0  0  0  0  0  0  0  0  0
    7.9867    8.6270   24.1452 H   0  0  0  0  0  0  0  0  0  0  0  0
    8.4540   13.5681   24.2467 H   0  0  0  0  0  0  0  0  0  0  0  0
    3.8145   14.3420   28.8581 H   0  0  0  0  0  0  0  0  0  0  0  0
    4.8570   12.8545   29.2253 H   0  0  0  0  0  0  0  0  0  0  0  0
    4.3573   14.0940   26.4668 H   0  0  0  0  0  0  0  0  0  0  0  0
   14.1428   15.2554   21.5962 H   0  0  0  0  0  0  0  0  0  0  0  0
   13.2989   16.7438   21.1216 H   0  0  0  0  0  0  0  0  0  0  0  0
   11.6685   16.6412   19.2115 H   0  0  0  0  0  0  0  0  0  0  0  0
   11.4139   15.0834   18.3980 H   0  0  0  0  0  0  0  0  0  0  0  0
   15.5804   16.7498   20.2071 H   0  0  0  0  0  0  0  0  0  0  0  0
   15.3346   15.1878   19.4145 H   0  0  0  0  0  0  0  0  0  0  0  0
   13.7581   15.0874   17.5663 H   0  0  0  0  0  0  0  0  0  0  0  0
   12.9329   16.5810   17.1029 H   0  0  0  0  0  0  0  0  0  0  0  0
   12.4574   12.9165   21.8357 H   0  0  0  0  0  0  0  0  0  0  0  0
   12.8611   14.3790   22.7549 H   0  0  0  0  0  0  0  0  0  0  0  0
   11.1699   15.6647   21.3728 H   0  0  0  0  0  0  0  0  0  0  0  0
   10.8138   14.1744   20.4776 H   0  0  0  0  0  0  0  0  0  0  0  0
    6.2067   13.5890   25.2370 H   0  0  0  0  0  0  0  0  0  0  0  0
   10.6804   11.8625   22.0113 H   0  0  0  0  0  0  0  0  0  0  0  0
  1  2  2  0  0  0  0
  1  4  1  0  0  0  0
  2  6  1  0  0  0  0
  3  4  2  0  0  0  0
  3  5  1  0  0  0  0
  4 18  1  0  0  0  0
  5  6  2  0  0  0  0
  5 19  1  0  0  0  0
  6 23  1  0  0  0  0
  7  8  2  0  0  0  0
  8  9  1  0  0  0  0
  9 18  1  0  0  0  0
  9 20  2  0  0  0  0
 10 15  1  0  0  0  0
 10 19  1  0  0  0  0
 10 21  2  0  0  0  0
 11 13  1  0  0  0  0
 11 17  1  0  0  0  0
 12 14  1  0  0  0  0
 12 17  1  0  0  0  0
 13 22  1  0  0  0  0
 14 22  1  0  0  0  0
 15 16  1  0  0  0  0
 16 17  1  0  0  0  0
  1 24  1  0  0  0  0
  2 25  1  0  0  0  0
  3 26  1  0  0  0  0
  7 27  1  0  0  0  0
  7 28  1  0  0  0  0
  8 29  1  0  0  0  0
 11 30  1  0  0  0  0
 11 31  1  0  0  0  0
 12 32  1  0  0  0  0
 12 33  1  0  0  0  0
 13 34  1  0  0  0  0
 13 35  1  0  0  0  0
 14 36  1  0  0  0  0
 14 37  1  0  0  0  0
 15 38  1  0  0  0  0
 15 39  1  0  0  0  0
 16 40  1  0  0  0  0
 16 41  1  0  0  0  0
 18 42  1  0  0  0  0
 19 43  1  0  0  0  0
M  END
> <Catalog ID>
Z1937946736

> <MW>
321.347

> <MW (desalted)>
321.347

> <ClogP>
0.639

> <logS>
-2.622

> <HBD>
2

> <HBA>
4

> <TPSA>
70.67

> <RotBonds>
6

> <ROCS_ShapeQuery>
A71EV2A-x0451_0A_A71EV2A-x0310_0A_A71EV2A-x0416_0A_peptide

> <ROCS_TanimotoCombo>
0.520 

> <ROCS_ShapeTanimoto>
0.361 

> <ROCS_ColorTanimoto>
0.159 

> <ROCS_RefTversky>
0.316 

> <ROCS_RefColorTversky>
0.183 

> <ROCS_RefTverskyCombo>
0.498 

> <ROCS_FitTversky>
1.656 

> <ROCS_FitColorTversky>
0.551 

> <ROCS_FitTverskyCombo>
2.207 

> <ROCS_ColorScore>
-5.582

> <ROCS_Overlap>
2191.940

> <ROCS_Rank>
444                 

$$$$
untitled-dbase-11585_1280
  -OEChem-11132309573D

 43 45  0     1  0  0  0  0  0999 V2000
    4.8907   12.1338   28.4095 C   0  0  0  0  0  0  0  0  0  0  0  0
    9.8361    7.9531   23.2703 C   0  0  0  0  0  0  0  0  0  0  0  0
   10.8999    8.7754   22.8577 C   0  0  0  0  0  0  0  0  0  0  0  0
    4.3706   12.0051   27.1217 C   0  0  0  0  0  0  0  0  0  0  0  0
    6.1946   12.5947   28.5923 C   0  0  0  0  0  0  0  0  0  0  0  0
    8.6966    8.5032   23.8584 C   0  0  0  0  0  0  0  0  0  0  0  0
   10.8415   10.1631   23.0246 C   0  0  0  0  0  0  0  0  0  0  0  0
    5.1543   12.3372   26.0166 C   0  0  0  0  0  0  0  0  0  0  0  0
    6.9782   12.9268   27.4872 C   0  0  0  0  0  0  0  0  0  0  0  0
    8.6637    9.8761   24.0108 C   0  0  0  0  0  0  0  0  0  0  0  0
    9.7081   10.7073   23.6028 C   0  0  0  0  0  0  0  0  0  0  0  0
    6.4581   12.7980   26.1993 C   0  0  0  0  0  0  0  0  0  0  0  0
    7.6092   10.7072   24.5991 C   0  0  0  0  0  0  0  0  0  0  0  0
   11.3527   14.5079   22.7576 C   0  0  0  0  0  0  0  0  0  0  0  0
    9.3848   12.1417   23.9015 C   0  0  1  0  0  0  0  0  0  0  0  0
   13.6222   13.4224   22.5713 C   0  0  0  0  0  0  0  0  0  0  0  0
    7.3023   13.1554   25.0103 C   0  0  0  0  0  0  0  0  0  0  0  0
    9.3715   13.0101   22.6503 C   0  0  0  0  0  0  0  0  0  0  0  0
   12.7748   14.6404   22.2405 C   0  0  1  0  0  0  0  0  0  0  0  0
    8.0616   12.0209   24.5236 N   0  0  0  0  0  0  0  0  0  0  0  0
   10.7048   13.3618   22.2885 N   0  0  0  0  0  0  0  0  0  0  0  0
    6.5710   10.2654   25.0563 O   0  0  0  0  0  0  0  0  0  0  0  0
   10.8461   15.3248   23.5237 O   0  0  0  0  0  0  0  0  0  0  0  0
   12.6614   14.8322   20.4709 Cl  0  0  0  0  0  0  0  0  0  0  0  0
    4.2799   11.8765   29.2699 H   0  0  0  0  0  0  0  0  0  0  0  0
    9.9054    6.8776   23.1306 H   0  0  0  0  0  0  0  0  0  0  0  0
   11.7791    8.3251   22.4043 H   0  0  0  0  0  0  0  0  0  0  0  0
    3.3551   11.6473   26.9792 H   0  0  0  0  0  0  0  0  0  0  0  0
    6.5995   12.6961   29.5948 H   0  0  0  0  0  0  0  0  0  0  0  0
    7.8772    7.8712   24.1807 H   0  0  0  0  0  0  0  0  0  0  0  0
   11.6678   10.7895   22.7066 H   0  0  0  0  0  0  0  0  0  0  0  0
    4.7407   12.2335   25.0169 H   0  0  0  0  0  0  0  0  0  0  0  0
    7.9930   13.2849   27.6392 H   0  0  0  0  0  0  0  0  0  0  0  0
   10.0774   12.5360   24.6536 H   0  0  0  0  0  0  0  0  0  0  0  0
   13.1607   12.5140   22.1690 H   0  0  0  0  0  0  0  0  0  0  0  0
   14.6282   13.4950   22.1428 H   0  0  0  0  0  0  0  0  0  0  0  0
   13.7232   13.2966   23.6545 H   0  0  0  0  0  0  0  0  0  0  0  0
    6.6767   13.5202   24.1883 H   0  0  0  0  0  0  0  0  0  0  0  0
    8.0118   13.9520   25.2573 H   0  0  0  0  0  0  0  0  0  0  0  0
    8.9012   12.4311   21.8557 H   0  0  0  0  0  0  0  0  0  0  0  0
    8.7905   13.9035   22.8787 H   0  0  0  0  0  0  0  0  0  0  0  0
   13.2450   15.5418   22.6470 H   0  0  0  0  0  0  0  0  0  0  0  0
   11.2146   12.7421   21.6514 H   0  0  0  0  0  0  0  0  0  0  0  0
  1  4  1  0  0  0  0
  1  5  2  0  0  0  0
  2  3  1  0  0  0  0
  2  6  2  0  0  0  0
  3  7  2  0  0  0  0
  4  8  2  0  0  0  0
  5  9  1  0  0  0  0
  6 10  1  0  0  0  0
  7 11  1  0  0  0  0
  8 12  1  0  0  0  0
  9 12  2  0  0  0  0
 10 11  2  0  0  0  0
 10 13  1  0  0  0  0
 11 15  1  0  0  0  0
 12 17  1  0  0  0  0
 13 20  1  0  0  0  0
 13 22  2  0  0  0  0
 14 19  1  0  0  0  0
 14 21  1  0  0  0  0
 14 23  2  0  0  0  0
 15 18  1  0  0  0  0
 15 20  1  0  0  0  0
 16 19  1  0  0  0  0
 17 20  1  0  0  0  0
 18 21  1  0  0  0  0
 19 24  1  0  0  0  0
  1 25  1  0  0  0  0
  2 26  1  0  0  0  0
  3 27  1  0  0  0  0
  4 28  1  0  0  0  0
  5 29  1  0  0  0  0
  6 30  1  0  0  0  0
  7 31  1  0  0  0  0
  8 32  1  0  0  0  0
  9 33  1  0  0  0  0
 15 34  1  0  0  0  0
 16 35  1  0  0  0  0
 16 36  1  0  0  0  0
 16 37  1  0  0  0  0
 17 38  1  0  0  0  0
 17 39  1  0  0  0  0
 18 40  1  0  0  0  0
 18 41  1  0  0  0  0
 19 42  1  0  0  0  0
 21 43  1  0  0  0  0
M  END
> <Catalog ID>
Z3775050392

> <MW>
342.819

> <MW (desalted)>
342.819

> <ClogP>
3.134

> <logS>
-5.203

> <HBD>
1

> <HBA>
2

> <TPSA>
49.41

> <RotBonds>
5

> <ROCS_ShapeQuery>
A71EV2A-x0451_0A_A71EV2A-x0310_0A_A71EV2A-x0416_0A_peptide

> <ROCS_TanimotoCombo>
0.520 

> <ROCS_ShapeTanimoto>
0.381 

> <ROCS_ColorTanimoto>
0.138 

> <ROCS_RefTversky>
0.331 

> <ROCS_RefColorTversky>
0.151 

> <ROCS_RefTverskyCombo>
0.482 

> <ROCS_FitTversky>
1.663 

> <ROCS_FitColorTversky>
0.628 

> <ROCS_FitTverskyCombo>
2.291 

> <ROCS_ColorScore>
-4.585

> <ROCS_Overlap>
2299.736

> <ROCS_Rank>
445                 

$$$$
untitled-dbase-2758_7282
  -OEChem-11132309573D

 50 53  0     1  0  0  0  0  0999 V2000
    5.0258   12.7757   29.0334 C   0  0  0  0  0  0  0  0  0  0  0  0
    6.3010   12.3009   28.7270 C   0  0  0  0  0  0  0  0  0  0  0  0
    3.9811   12.6051   28.1249 C   0  0  0  0  0  0  0  0  0  0  0  0
    6.5317   11.6556   27.5120 C   0  0  0  0  0  0  0  0  0  0  0  0
    4.2117   11.9599   26.9099 C   0  0  0  0  0  0  0  0  0  0  0  0
   12.1706   14.4757   22.4976 C   0  0  0  0  0  0  0  0  0  0  0  0
   11.7999   13.2180   20.4684 C   0  0  0  0  0  0  0  0  0  0  0  0
   13.1674   15.2130   21.8585 C   0  0  0  0  0  0  0  0  0  0  0  0
   12.7967   13.9553   19.8293 C   0  0  0  0  0  0  0  0  0  0  0  0
    8.9841   11.8902   24.1529 C   0  0  0  0  0  0  0  0  0  0  0  0
    5.4870   11.4851   26.6035 C   0  0  0  0  0  0  0  0  0  0  0  0
   11.4869   13.4781   21.8025 C   0  0  0  0  0  0  0  0  0  0  0  0
   13.4804   14.9529   20.5244 C   0  0  0  0  0  0  0  0  0  0  0  0
    9.0249   10.4831   24.1641 C   0  0  0  0  0  0  0  0  0  0  0  0
    7.7186   12.2005   24.5873 C   0  0  0  0  0  0  0  0  0  0  0  0
   12.5677   17.0966   17.7699 C   0  0  0  0  0  0  0  0  0  0  0  0
   10.0032   12.8261   23.7805 C   0  0  0  0  0  0  0  0  0  0  0  0
   14.0787   16.8257   17.6898 C   0  0  0  0  0  0  0  0  0  0  0  0
   14.0500   16.8674   19.2336 C   0  0  1  0  0  0  0  0  0  0  0  0
   10.1485    9.6090   23.7832 C   0  0  0  0  0  0  0  0  0  0  0  0
    5.7330   10.7955   25.3041 C   0  0  0  0  0  0  0  0  0  0  0  0
    7.8766    9.9372   24.5734 N   0  0  0  0  0  0  0  0  0  0  0  0
    7.1024   11.0069   24.8235 N   0  0  0  0  0  0  0  0  0  0  0  0
   12.6146   17.0990   19.1276 N   0  0  0  0  0  0  0  0  0  0  0  0
    7.0841   13.3756   24.7844 N   0  0  0  0  0  0  0  0  0  0  0  0
   10.4738   12.7287   22.4520 N   0  0  0  0  0  0  0  0  0  0  0  0
   11.6622   17.2508   16.9834 O   0  0  0  0  0  0  0  0  0  0  0  0
   10.4783   13.6582   24.5836 O   0  0  0  0  0  0  0  0  0  0  0  0
   14.4531   15.6723   19.9007 O   0  0  0  0  0  0  0  0  0  0  0  0
    4.8460   13.2769   29.9800 H   0  0  0  0  0  0  0  0  0  0  0  0
    7.1143   12.4326   29.4347 H   0  0  0  0  0  0  0  0  0  0  0  0
    2.9879   12.9737   28.3636 H   0  0  0  0  0  0  0  0  0  0  0  0
    7.5286   11.2891   27.2817 H   0  0  0  0  0  0  0  0  0  0  0  0
    3.3918   11.8316   26.2082 H   0  0  0  0  0  0  0  0  0  0  0  0
   11.9348   14.6871   23.5375 H   0  0  0  0  0  0  0  0  0  0  0  0
   11.2738   12.4429   19.9168 H   0  0  0  0  0  0  0  0  0  0  0  0
   13.6965   15.9889   22.4052 H   0  0  0  0  0  0  0  0  0  0  0  0
   13.0361   13.7479   18.7898 H   0  0  0  0  0  0  0  0  0  0  0  0
   14.3283   15.8591   17.2445 H   0  0  0  0  0  0  0  0  0  0  0  0
   14.6519   17.6235   17.2110 H   0  0  0  0  0  0  0  0  0  0  0  0
   14.5626   17.7384   19.6574 H   0  0  0  0  0  0  0  0  0  0  0  0
   10.7956    9.3896   24.6493 H   0  0  0  0  0  0  0  0  0  0  0  0
    9.8040    8.6438   23.3717 H   0  0  0  0  0  0  0  0  0  0  0  0
   10.7819   10.0628   23.0005 H   0  0  0  0  0  0  0  0  0  0  0  0
    5.5706    9.7085   25.3804 H   0  0  0  0  0  0  0  0  0  0  0  0
    5.0462   11.1468   24.5176 H   0  0  0  0  0  0  0  0  0  0  0  0
   11.8805   17.2418   19.8075 H   0  0  0  0  0  0  0  0  0  0  0  0
    7.5559   14.2825   24.6522 H   0  0  0  0  0  0  0  0  0  0  0  0
    6.1281   13.4249   25.1668 H   0  0  0  0  0  0  0  0  0  0  0  0
   10.0213   12.0198   21.8800 H   0  0  0  0  0  0  0  0  0  0  0  0
  1  2  1  0  0  0  0
  1  3  2  0  0  0  0
  2  4  2  0  0  0  0
  3  5  1  0  0  0  0
  4 11  1  0  0  0  0
  5 11  2  0  0  0  0
  6  8  2  0  0  0  0
  6 12  1  0  0  0  0
  7  9  1  0  0  0  0
  7 12  2  0  0  0  0
  8 13  1  0  0  0  0
  9 13  2  0  0  0  0
 10 14  1  0  0  0  0
 10 15  2  0  0  0  0
 10 17  1  0  0  0  0
 11 21  1  0  0  0  0
 12 26  1  0  0  0  0
 13 29  1  0  0  0  0
 14 20  1  0  0  0  0
 14 22  2  0  0  0  0
 15 23  1  0  0  0  0
 15 25  1  0  0  0  0
 16 18  1  0  0  0  0
 16 24  1  0  0  0  0
 16 27  2  0  0  0  0
 17 26  1  0  0  0  0
 17 28  2  0  0  0  0
 18 19  1  0  0  0  0
 19 24  1  0  0  0  0
 19 29  1  0  0  0  0
 21 23  1  0  0  0  0
 22 23  1  0  0  0  0
  1 30  1  0  0  0  0
  2 31  1  0  0  0  0
  3 32  1  0  0  0  0
  4 33  1  0  0  0  0
  5 34  1  0  0  0  0
  6 35  1  0  0  0  0
  7 36  1  0  0  0  0
  8 37  1  0  0  0  0
  9 38  1  0  0  0  0
 18 39  1  0  0  0  0
 18 40  1  0  0  0  0
 19 41  1  0  0  0  0
 20 42  1  0  0  0  0
 20 43  1  0  0  0  0
 20 44  1  0  0  0  0
 21 45  1  0  0  0  0
 21 46  1  0  0  0  0
 24 47  1  0  0  0  0
 25 48  1  0  0  0  0
 25 49  1  0  0  0  0
 26 50  1  0  0  0  0
M  END
> <Catalog ID>
Z3709602883

> <MW>
391.423

> <MW (desalted)>
391.423

> <ClogP>
1.393

> <logS>
-4.371

> <HBD>
3

> <HBA>
5

> <TPSA>
111.27

> <RotBonds>
6

> <ROCS_ShapeQuery>
A71EV2A-x0451_0A_A71EV2A-x0310_0A_A71EV2A-x0416_0A_peptide

> <ROCS_TanimotoCombo>
0.520 

> <ROCS_ShapeTanimoto>
0.349 

> <ROCS_ColorTanimoto>
0.170 

> <ROCS_RefTversky>
0.320 

> <ROCS_RefColorTversky>
0.207 

> <ROCS_RefTverskyCombo>
0.527 

> <ROCS_FitTversky>
1.362 

> <ROCS_FitColorTversky>
0.490 

> <ROCS_FitTverskyCombo>
1.852 

> <ROCS_ColorScore>
-6.363

> <ROCS_Overlap>
2224.746

> <ROCS_Rank>
446                 

$$$$
untitled-dbase-10140_633
  -OEChem-11132309573D

 45 48  0     1  0  0  0  0  0999 V2000
    4.7212   12.6936   28.4584 C   0  0  0  0  0  0  0  0  0  0  0  0
    5.5389   11.5921   28.7103 C   0  0  0  0  0  0  0  0  0  0  0  0
    4.7278   13.2938   27.1992 C   0  0  0  0  0  0  0  0  0  0  0  0
    6.3634   11.0907   27.7031 C   0  0  0  0  0  0  0  0  0  0  0  0
    5.5523   12.7924   26.1920 C   0  0  0  0  0  0  0  0  0  0  0  0
   11.2498   14.3354   21.5290 C   0  0  0  0  0  0  0  0  0  0  0  0
    9.4483   14.8639   20.2860 C   0  0  0  0  0  0  0  0  0  0  0  0
    6.3701   11.6909   26.4439 C   0  0  0  0  0  0  0  0  0  0  0  0
   10.8245   14.9167   20.3091 C   0  0  0  0  0  0  0  0  0  0  0  0
   10.1204   13.9449   22.2143 C   0  0  0  0  0  0  0  0  0  0  0  0
   10.0298   13.2936   23.5274 C   0  0  0  0  0  0  0  0  0  0  0  0
    9.5452    9.7407   23.7616 C   0  0  0  0  0  0  0  0  0  0  0  0
    8.5033   10.1095   22.6912 C   0  0  0  0  0  0  0  0  0  0  0  0
    8.7897   11.1876   25.7368 C   0  0  0  0  0  0  0  0  0  0  0  0
    7.0549   11.8169   23.9409 C   0  0  0  0  0  0  0  0  0  0  0  0
    9.7667   11.0338   24.5510 C   0  0  2  0  0  0  0  0  0  0  0  0
    8.2031   11.5917   22.9331 C   0  0  1  0  0  0  0  0  0  0  0  0
    7.2771   11.1400   25.3355 C   0  0  0  0  0  0  0  0  0  0  0  0
    9.0313   14.2709   21.4490 N   0  0  0  0  0  0  0  0  0  0  0  0
    9.4231   12.0530   23.5799 N   0  0  0  0  0  0  0  0  0  0  0  0
   10.4962   13.8993   24.4897 O   0  0  0  0  0  0  0  0  0  0  0  0
   11.0659   16.5224   18.2931 O   0  0  0  0  0  0  0  0  0  0  0  0
   13.1175   15.9375   19.6756 O   0  0  0  0  0  0  0  0  0  0  0  0
    6.9166    9.7543   25.2088 O   0  0  0  0  0  0  0  0  0  0  0  0
   12.1975   14.4018   18.0539 F   0  0  0  0  0  0  0  0  0  0  0  0
   11.8282   15.5631   19.0932 S   0  0  0  0  0  0  0  0  0  0  0  0
    4.0782   13.0831   29.2423 H   0  0  0  0  0  0  0  0  0  0  0  0
    5.5330   11.1240   29.6903 H   0  0  0  0  0  0  0  0  0  0  0  0
    4.0904   14.1507   27.0024 H   0  0  0  0  0  0  0  0  0  0  0  0
    6.9974   10.2322   27.9085 H   0  0  0  0  0  0  0  0  0  0  0  0
    5.5510   13.2665   25.2140 H   0  0  0  0  0  0  0  0  0  0  0  0
   12.2691   14.2147   21.8709 H   0  0  0  0  0  0  0  0  0  0  0  0
    8.7285   15.1933   19.5495 H   0  0  0  0  0  0  0  0  0  0  0  0
    9.2168    8.9067   24.3889 H   0  0  0  0  0  0  0  0  0  0  0  0
   10.4758    9.4354   23.2684 H   0  0  0  0  0  0  0  0  0  0  0  0
    8.9463    9.9708   21.6976 H   0  0  0  0  0  0  0  0  0  0  0  0
    7.6123    9.4768   22.7443 H   0  0  0  0  0  0  0  0  0  0  0  0
    9.0015   10.4024   26.4741 H   0  0  0  0  0  0  0  0  0  0  0  0
    9.0078   12.1468   26.2269 H   0  0  0  0  0  0  0  0  0  0  0  0
    6.9318   12.9007   24.0744 H   0  0  0  0  0  0  0  0  0  0  0  0
    6.1202   11.4458   23.5002 H   0  0  0  0  0  0  0  0  0  0  0  0
   10.8003   11.1358   24.8966 H   0  0  0  0  0  0  0  0  0  0  0  0
    7.9981   12.1236   21.9996 H   0  0  0  0  0  0  0  0  0  0  0  0
    8.0672   14.1013   21.7012 H   0  0  0  0  0  0  0  0  0  0  0  0
    7.0860    9.3466   26.0717 H   0  0  0  0  0  0  0  0  0  0  0  0
  1  2  1  0  0  0  0
  1  3  2  0  0  0  0
  2  4  2  0  0  0  0
  3  5  1  0  0  0  0
  4  8  1  0  0  0  0
  5  8  2  0  0  0  0
  6  9  1  0  0  0  0
  6 10  2  0  0  0  0
  7  9  2  0  0  0  0
  7 19  1  0  0  0  0
  8 18  1  0  0  0  0
  9 26  1  0  0  0  0
 10 11  1  0  0  0  0
 10 19  1  0  0  0  0
 11 20  1  0  0  0  0
 11 21  2  0  0  0  0
 12 13  1  0  0  0  0
 12 16  1  0  0  0  0
 13 17  1  0  0  0  0
 14 16  1  0  0  0  0
 14 18  1  0  0  0  0
 15 17  1  0  0  0  0
 15 18  1  0  0  0  0
 16 20  1  0  0  0  0
 17 20  1  0  0  0  0
 18 24  1  0  0  0  0
 22 26  2  0  0  0  0
 23 26  2  0  0  0  0
 25 26  1  0  0  0  0
  1 27  1  0  0  0  0
  2 28  1  0  0  0  0
  3 29  1  0  0  0  0
  4 30  1  0  0  0  0
  5 31  1  0  0  0  0
  6 32  1  0  0  0  0
  7 33  1  0  0  0  0
 12 34  1  0  0  0  0
 12 35  1  0  0  0  0
 13 36  1  0  0  0  0
 13 37  1  0  0  0  0
 14 38  1  0  0  0  0
 14 39  1  0  0  0  0
 15 40  1  0  0  0  0
 15 41  1  0  0  0  0
 16 42  1  0  0  0  0
 17 43  1  0  0  0  0
 19 44  1  0  0  0  0
 24 45  1  0  0  0  0
M  END
> <Catalog ID>
Z3190516423

> <MW>
378.418

> <MW (desalted)>
378.418

> <ClogP>
1.422

> <logS>
-4.066

> <HBD>
2

> <HBA>
4

> <TPSA>
90.47

> <RotBonds>
3

> <ROCS_ShapeQuery>
A71EV2A-x0451_0A_A71EV2A-x0310_0A_A71EV2A-x0416_0A_peptide

> <ROCS_TanimotoCombo>
0.520 

> <ROCS_ShapeTanimoto>
0.331 

> <ROCS_ColorTanimoto>
0.189 

> <ROCS_RefTversky>
0.302 

> <ROCS_RefColorTversky>
0.225 

> <ROCS_RefTverskyCombo>
0.526 

> <ROCS_FitTversky>
1.415 

> <ROCS_FitColorTversky>
0.540 

> <ROCS_FitTverskyCombo>
1.954 

> <ROCS_ColorScore>
-6.903

> <ROCS_Overlap>
2098.010

> <ROCS_Rank>
447                 

$$$$
untitled-dbase-3502_1686
  -OEChem-11132309573D

 52 55  0     1  0  0  0  0  0999 V2000
   13.4093   13.7559   22.5758 C   0  0  0  0  0  0  0  0  0  0  0  0
    4.5288   13.6224   28.9114 C   0  0  0  0  0  0  0  0  0  0  0  0
   14.3730   16.9471   19.8781 C   0  0  0  0  0  0  0  0  0  0  0  0
    5.6080   12.8103   29.2599 C   0  0  0  0  0  0  0  0  0  0  0  0
    3.6111   13.1900   27.9541 C   0  0  0  0  0  0  0  0  0  0  0  0
   14.2257   16.6956   18.5140 C   0  0  0  0  0  0  0  0  0  0  0  0
   13.5186   16.3364   20.7962 C   0  0  0  0  0  0  0  0  0  0  0  0
    5.7695   11.5658   28.6510 C   0  0  0  0  0  0  0  0  0  0  0  0
    3.7726   11.9455   27.3452 C   0  0  0  0  0  0  0  0  0  0  0  0
   13.2239   15.8335   18.0680 C   0  0  0  0  0  0  0  0  0  0  0  0
   12.5169   15.4743   20.3502 C   0  0  0  0  0  0  0  0  0  0  0  0
    4.8518   11.1334   27.6936 C   0  0  0  0  0  0  0  0  0  0  0  0
   12.3695   15.2228   18.9861 C   0  0  0  0  0  0  0  0  0  0  0  0
    7.8587   10.7991   24.8391 C   0  0  0  0  0  0  0  0  0  0  0  0
    7.8792    9.7523   23.9420 C   0  0  0  0  0  0  0  0  0  0  0  0
    9.4248   11.5195   23.4905 C   0  0  0  0  0  0  0  0  0  0  0  0
   11.6315   14.8465   21.3434 C   0  0  0  0  0  0  0  0  0  0  0  0
   12.0297   14.0539   22.3582 C   0  0  0  0  0  0  0  0  0  0  0  0
   10.9456   13.5147   23.2669 C   0  0  0  0  0  0  0  0  0  0  0  0
    6.9622   10.8205   26.0303 C   0  0  0  0  0  0  0  0  0  0  0  0
    6.9818    8.5694   24.0263 C   0  0  0  0  0  0  0  0  0  0  0  0
    6.3047    8.5366   25.4148 C   0  0  0  0  0  0  0  0  0  0  0  0
    5.0252    9.7941   27.0376 C   0  0  0  0  0  0  0  0  0  0  0  0
   11.3066   14.3059   18.4718 C   0  0  0  0  0  0  0  0  0  0  0  0
   14.5292   13.5116   22.7572 N   0  0  0  0  0  0  0  0  0  0  0  0
    8.7532   11.8169   24.5837 N   0  0  0  0  0  0  0  0  0  0  0  0
    5.8357    9.8803   25.8228 N   0  0  1  0  0  0  0  0  0  0  0  0
   10.4058   12.2580   22.8834 N   0  0  0  0  0  0  0  0  0  0  0  0
   10.5881   14.1530   24.2539 O   0  0  0  0  0  0  0  0  0  0  0  0
   11.3087   14.1787   17.1132 F   0  0  0  0  0  0  0  0  0  0  0  0
   11.4085   13.0328   18.9519 F   0  0  0  0  0  0  0  0  0  0  0  0
   10.0517   14.7255   18.8013 F   0  0  0  0  0  0  0  0  0  0  0  0
    9.0304   10.0283   22.7257 S   0  0  0  0  0  0  0  0  0  0  0  0
    4.4025   14.5908   29.3867 H   0  0  0  0  0  0  0  0  0  0  0  0
   15.1528   17.6189   20.2253 H   0  0  0  0  0  0  0  0  0  0  0  0
    6.3221   13.1463   30.0061 H   0  0  0  0  0  0  0  0  0  0  0  0
    2.7701   13.8216   27.6834 H   0  0  0  0  0  0  0  0  0  0  0  0
   14.8909   17.1716   17.8000 H   0  0  0  0  0  0  0  0  0  0  0  0
   13.6470   16.5438   21.8559 H   0  0  0  0  0  0  0  0  0  0  0  0
    6.6135   10.9398   28.9286 H   0  0  0  0  0  0  0  0  0  0  0  0
    3.0527   11.6170   26.6002 H   0  0  0  0  0  0  0  0  0  0  0  0
   13.1165   15.6449   17.0031 H   0  0  0  0  0  0  0  0  0  0  0  0
   10.5825   15.0968   21.2009 H   0  0  0  0  0  0  0  0  0  0  0  0
    7.5327   10.5212   26.9171 H   0  0  0  0  0  0  0  0  0  0  0  0
    6.6000   11.8449   26.1833 H   0  0  0  0  0  0  0  0  0  0  0  0
    6.2156    8.5954   23.2438 H   0  0  0  0  0  0  0  0  0  0  0  0
    7.5760    7.6578   23.8877 H   0  0  0  0  0  0  0  0  0  0  0  0
    5.4630    7.8305   25.4016 H   0  0  0  0  0  0  0  0  0  0  0  0
    7.0367    8.1525   26.1360 H   0  0  0  0  0  0  0  0  0  0  0  0
    5.5140    9.0903   27.7200 H   0  0  0  0  0  0  0  0  0  0  0  0
    4.0568    9.3622   26.7639 H   0  0  0  0  0  0  0  0  0  0  0  0
   10.8108   11.8416   22.0241 H   0  0  0  0  0  0  0  0  0  0  0  0
  1 18  1  0  0  0  0
  1 25  3  0  0  0  0
  2  4  1  0  0  0  0
  2  5  2  0  0  0  0
  3  6  1  0  0  0  0
  3  7  2  0  0  0  0
  4  8  2  0  0  0  0
  5  9  1  0  0  0  0
  6 10  2  0  0  0  0
  7 11  1  0  0  0  0
  8 12  1  0  0  0  0
  9 12  2  0  0  0  0
 10 13  1  0  0  0  0
 11 13  2  0  0  0  0
 11 17  1  4  0  0  0
 12 23  1  0  0  0  0
 13 24  1  0  0  0  0
 14 15  2  0  0  0  0
 14 20  1  0  0  0  0
 14 26  1  0  0  0  0
 15 21  1  0  0  0  0
 15 33  1  0  0  0  0
 16 26  2  0  0  0  0
 16 28  1  0  0  0  0
 16 33  1  0  0  0  0
 17 18  2  0  0  0  0
 18 19  1  0  0  0  0
 19 28  1  0  0  0  0
 19 29  2  0  0  0  0
 20 27  1  0  0  0  0
 21 22  1  0  0  0  0
 22 27  1  0  0  0  0
 23 27  1  0  0  0  0
 24 30  1  0  0  0  0
 24 31  1  0  0  0  0
 24 32  1  0  0  0  0
  2 34  1  0  0  0  0
  3 35  1  0  0  0  0
  4 36  1  0  0  0  0
  5 37  1  0  0  0  0
  6 38  1  0  0  0  0
  7 39  1  0  0  0  0
  8 40  1  0  0  0  0
  9 41  1  0  0  0  0
 10 42  1  0  0  0  0
 17 43  1  0  0  0  0
 20 44  1  0  0  0  0
 20 45  1  0  0  0  0
 21 46  1  0  0  0  0
 21 47  1  0  0  0  0
 22 48  1  0  0  0  0
 22 49  1  0  0  0  0
 23 50  1  0  0  0  0
 23 51  1  0  0  0  0
 28 52  1  0  0  0  0
M  END
> <Catalog ID>
Z56798491

> <MW>
468.494

> <MW (desalted)>
468.494

> <ClogP>
4.993

> <logS>
-6.51

> <HBD>
1

> <HBA>
4

> <TPSA>
69.02

> <RotBonds>
6

> <ROCS_ShapeQuery>
A71EV2A-x0451_0A_A71EV2A-x0310_0A_A71EV2A-x0416_0A_peptide

> <ROCS_TanimotoCombo>
0.519 

> <ROCS_ShapeTanimoto>
0.341 

> <ROCS_ColorTanimoto>
0.179 

> <ROCS_RefTversky>
0.319 

> <ROCS_RefColorTversky>
0.202 

> <ROCS_RefTverskyCombo>
0.521 

> <ROCS_FitTversky>
1.249 

> <ROCS_FitColorTversky>
0.608 

> <ROCS_FitTverskyCombo>
1.857 

> <ROCS_ColorScore>
-6.171

> <ROCS_Overlap>
2225.023

> <ROCS_Rank>
448                 

$$$$
untitled-dbase-242_2424
  -OEChem-11132309573D

 29 30  0     0  0  0  0  0  0999 V2000
   13.8726   14.9041   20.5978 C   0  0  0  0  0  0  0  0  0  0  0  0
   14.2224   14.0807   21.6680 C   0  0  0  0  0  0  0  0  0  0  0  0
   11.5568   14.8063   21.2794 C   0  0  0  0  0  0  0  0  0  0  0  0
    8.2663   12.2647   24.2796 C   0  0  0  0  0  0  0  0  0  0  0  0
    9.1621   10.2033   23.5021 C   0  0  0  0  0  0  0  0  0  0  0  0
    7.2630   10.1709   24.7946 C   0  0  0  0  0  0  0  0  0  0  0  0
   11.9066   13.9828   22.3495 C   0  0  0  0  0  0  0  0  0  0  0  0
    9.2422   11.5853   23.5590 C   0  0  0  0  0  0  0  0  0  0  0  0
    7.2543   11.5514   24.9123 C   0  0  0  0  0  0  0  0  0  0  0  0
   12.5398   15.2669   20.4035 C   0  0  0  0  0  0  0  0  0  0  0  0
   13.2394   13.6200   22.5438 C   0  0  0  0  0  0  0  0  0  0  0  0
   10.8791   13.5052   23.2612 C   0  0  0  0  0  0  0  0  0  0  0  0
    8.1941    9.4759   24.1035 N   0  0  0  0  0  0  0  0  0  0  0  0
   10.2857   12.2850   22.9021 N   0  0  0  0  0  0  0  0  0  0  0  0
   10.5392   14.1568   24.2585 O   0  0  0  0  0  0  0  0  0  0  0  0
    6.5117   11.2126   27.9372 O   0  0  0  0  0  0  0  0  0  0  0  0
    4.3258   12.2708   27.2035 O   0  0  0  0  0  0  0  0  0  0  0  0
    6.2889   12.1874   25.6209 O   0  0  0  0  0  0  0  0  0  0  0  0
   12.2038   16.0582   19.3763 F   0  0  0  0  0  0  0  0  0  0  0  0
   13.5871   12.8296   23.5692 F   0  0  0  0  0  0  0  0  0  0  0  0
    5.0153   10.1047   26.4110 F   0  0  0  0  0  0  0  0  0  0  0  0
    5.5317   11.5205   26.9145 S   0  0  0  0  0  0  0  0  0  0  0  0
   14.6375   15.2631   19.9155 H   0  0  0  0  0  0  0  0  0  0  0  0
   15.2602   13.7995   21.8197 H   0  0  0  0  0  0  0  0  0  0  0  0
   10.5217   15.0956   21.1179 H   0  0  0  0  0  0  0  0  0  0  0  0
    8.2903   13.3492   24.3504 H   0  0  0  0  0  0  0  0  0  0  0  0
    9.8957    9.6176   22.9558 H   0  0  0  0  0  0  0  0  0  0  0  0
    6.4980    9.5637   25.2686 H   0  0  0  0  0  0  0  0  0  0  0  0
   10.6521   11.8455   22.0613 H   0  0  0  0  0  0  0  0  0  0  0  0
  1  2  2  0  0  0  0
  1 10  1  0  0  0  0
  2 11  1  0  0  0  0
  3  7  1  0  0  0  0
  3 10  2  0  0  0  0
  4  8  2  0  0  0  0
  4  9  1  0  0  0  0
  5  8  1  0  0  0  0
  5 13  2  0  0  0  0
  6  9  2  0  0  0  0
  6 13  1  0  0  0  0
  7 11  2  0  0  0  0
  7 12  1  0  0  0  0
  8 14  1  0  0  0  0
  9 18  1  0  0  0  0
 10 19  1  0  0  0  0
 11 20  1  0  0  0  0
 12 14  1  0  0  0  0
 12 15  2  0  0  0  0
 16 22  2  0  0  0  0
 17 22  2  0  0  0  0
 18 22  1  0  0  0  0
 21 22  1  0  0  0  0
  1 23  1  0  0  0  0
  2 24  1  0  0  0  0
  3 25  1  0  0  0  0
  4 26  1  0  0  0  0
  5 27  1  0  0  0  0
  6 28  1  0  0  0  0
 14 29  1  0  0  0  0
M  END
> <Catalog ID>
Z4607528883

> <MW>
332.255

> <MW (desalted)>
332.255

> <ClogP>
0.376

> <logS>
-3.575

> <HBD>
1

> <HBA>
4

> <TPSA>
85.36

> <RotBonds>
4

> <ROCS_ShapeQuery>
A71EV2A-x0451_0A_A71EV2A-x0310_0A_A71EV2A-x0416_0A_peptide

> <ROCS_TanimotoCombo>
0.519 

> <ROCS_ShapeTanimoto>
0.335 

> <ROCS_ColorTanimoto>
0.184 

> <ROCS_RefTversky>
0.298 

> <ROCS_RefColorTversky>
0.198 

> <ROCS_RefTverskyCombo>
0.496 

> <ROCS_FitTversky>
1.592 

> <ROCS_FitColorTversky>
0.731 

> <ROCS_FitTverskyCombo>
2.323 

> <ROCS_ColorScore>
-6.021

> <ROCS_Overlap>
2070.049

> <ROCS_Rank>
449                 

$$$$
untitled-dbase-1353_353
  -OEChem-11132309573D

 42 44  0     1  0  0  0  0  0999 V2000
   13.6245   16.2834   18.2268 C   0  0  0  0  0  0  0  0  0  0  0  0
    9.1283   10.3430   23.6984 C   0  0  0  0  0  0  0  0  0  0  0  0
    8.0624    9.8056   24.4199 C   0  0  0  0  0  0  0  0  0  0  0  0
   12.6984   15.2733   18.4922 C   0  0  0  0  0  0  0  0  0  0  0  0
   14.0689   16.5429   20.5992 C   0  0  0  0  0  0  0  0  0  0  0  0
    8.3225   12.5717   24.1680 C   0  0  0  0  0  0  0  0  0  0  0  0
   13.1542   15.5291   20.8615 C   0  0  0  0  0  0  0  0  0  0  0  0
   14.3067   16.9147   19.2745 C   0  0  0  0  0  0  0  0  0  0  0  0
    9.2584   11.7261   23.5725 C   0  0  0  0  0  0  0  0  0  0  0  0
    7.2565   12.0343   24.8895 C   0  0  0  0  0  0  0  0  0  0  0  0
    7.1265   10.6512   25.0154 C   0  0  0  0  0  0  0  0  0  0  0  0
   12.4743   14.9062   19.8117 C   0  0  0  0  0  0  0  0  0  0  0  0
    3.8846   13.7925   28.0303 C   0  0  0  0  0  0  0  0  0  0  0  0
    4.6795   13.8150   26.9559 C   0  0  0  0  0  0  0  0  0  0  0  0
    5.5735   12.6609   26.6490 C   0  0  0  0  0  0  0  0  0  0  0  0
   10.9725   13.4901   23.0486 C   0  0  0  0  0  0  0  0  0  0  0  0
   12.7560   15.0627   22.2320 C   0  0  0  0  0  0  0  0  0  0  0  0
   12.0708   13.7006   22.0625 C   0  0  2  0  0  0  0  0  0  0  0  0
   15.2989   17.9876   18.9720 C   0  0  0  0  0  0  0  0  0  0  0  0
    6.3217   12.8822   25.4847 N   0  0  0  0  0  0  0  0  0  0  0  0
   10.3398   12.2712   22.8404 N   0  0  0  0  0  0  0  0  0  0  0  0
    5.6013   11.6698   27.3689 O   0  0  0  0  0  0  0  0  0  0  0  0
   10.7265   14.3339   23.9045 O   0  0  0  0  0  0  0  0  0  0  0  0
    6.1061   10.1232   25.7061 F   0  0  0  0  0  0  0  0  0  0  0  0
   11.3579   13.6614   20.3889 S   0  0  0  0  0  0  0  0  0  0  0  0
   13.8133   16.5752   17.1965 H   0  0  0  0  0  0  0  0  0  0  0  0
    9.8515    9.6742   23.2385 H   0  0  0  0  0  0  0  0  0  0  0  0
    7.9609    8.7289   24.5186 H   0  0  0  0  0  0  0  0  0  0  0  0
   12.1695   14.7932   17.6750 H   0  0  0  0  0  0  0  0  0  0  0  0
   14.5922   17.0342   21.4143 H   0  0  0  0  0  0  0  0  0  0  0  0
    8.4243   13.6508   24.0694 H   0  0  0  0  0  0  0  0  0  0  0  0
    3.2220   14.6121   28.2851 H   0  0  0  0  0  0  0  0  0  0  0  0
    3.8864   12.9297   28.6883 H   0  0  0  0  0  0  0  0  0  0  0  0
    4.6781   14.6769   26.2975 H   0  0  0  0  0  0  0  0  0  0  0  0
   13.6617   14.9533   22.8385 H   0  0  0  0  0  0  0  0  0  0  0  0
   12.0979   15.7905   22.7170 H   0  0  0  0  0  0  0  0  0  0  0  0
   12.7961   12.8776   22.1889 H   0  0  0  0  0  0  0  0  0  0  0  0
   14.8070   18.9675   18.9545 H   0  0  0  0  0  0  0  0  0  0  0  0
   16.0989   18.0124   19.7227 H   0  0  0  0  0  0  0  0  0  0  0  0
   15.7799   17.8214   17.9996 H   0  0  0  0  0  0  0  0  0  0  0  0
    6.1621   13.7795   25.0109 H   0  0  0  0  0  0  0  0  0  0  0  0
   10.6845   11.6931   22.0768 H   0  0  0  0  0  0  0  0  0  0  0  0
  1  4  2  0  0  0  0
  1  8  1  0  0  0  0
  2  3  2  0  0  0  0
  2  9  1  0  0  0  0
  3 11  1  0  0  0  0
  4 12  1  0  0  0  0
  5  7  1  0  0  0  0
  5  8  2  0  0  0  0
  6  9  2  0  0  0  0
  6 10  1  0  0  0  0
  7 12  2  0  0  0  0
  7 17  1  0  0  0  0
  8 19  1  0  0  0  0
  9 21  1  0  0  0  0
 10 11  2  0  0  0  0
 10 20  1  0  0  0  0
 11 24  1  0  0  0  0
 12 25  1  0  0  0  0
 13 14  2  0  0  0  0
 14 15  1  0  0  0  0
 15 20  1  0  0  0  0
 15 22  2  0  0  0  0
 16 18  1  0  0  0  0
 16 21  1  0  0  0  0
 16 23  2  0  0  0  0
 17 18  1  0  0  0  0
 18 25  1  0  0  0  0
  1 26  1  0  0  0  0
  2 27  1  0  0  0  0
  3 28  1  0  0  0  0
  4 29  1  0  0  0  0
  5 30  1  0  0  0  0
  6 31  1  0  0  0  0
 13 32  1  0  0  0  0
 13 33  1  0  0  0  0
 14 34  1  0  0  0  0
 17 35  1  0  0  0  0
 17 36  1  0  0  0  0
 18 37  1  0  0  0  0
 19 38  1  0  0  0  0
 19 39  1  0  0  0  0
 19 40  1  0  0  0  0
 20 41  1  0  0  0  0
 21 42  1  0  0  0  0
M  END
> <Catalog ID>
Z3886495968

> <MW>
356.414

> <MW (desalted)>
356.414

> <ClogP>
2.775

> <logS>
-6.366

> <HBD>
2

> <HBA>
2

> <TPSA>
58.2

> <RotBonds>
4

> <ROCS_ShapeQuery>
A71EV2A-x0451_0A_A71EV2A-x0310_0A_A71EV2A-x0416_0A_peptide

> <ROCS_TanimotoCombo>
0.519 

> <ROCS_ShapeTanimoto>
0.352 

> <ROCS_ColorTanimoto>
0.168 

> <ROCS_RefTversky>
0.313 

> <ROCS_RefColorTversky>
0.187 

> <ROCS_RefTverskyCombo>
0.500 

> <ROCS_FitTversky>
1.532 

> <ROCS_FitColorTversky>
0.621 

> <ROCS_FitTverskyCombo>
2.153 

> <ROCS_ColorScore>
-5.709

> <ROCS_Overlap>
2177.853

> <ROCS_Rank>
450                 

$$$$
untitled-dbase-1332_1732
  -OEChem-11132309573D

 35 37  0     1  0  0  0  0  0999 V2000
    4.6668   12.1222   26.9904 C   0  0  0  0  0  0  0  0  0  0  0  0
    6.3378   12.7993   25.3987 C   0  0  0  0  0  0  0  0  0  0  0  0
    5.1989   10.8446   26.9243 C   0  0  0  0  0  0  0  0  0  0  0  0
    5.2528   13.1125   26.2099 C   0  0  0  0  0  0  0  0  0  0  0  0
    6.7952   11.4914   25.4040 C   0  0  0  0  0  0  0  0  0  0  0  0
    7.9126   11.1116   24.5866 C   0  0  0  0  0  0  0  0  0  0  0  0
    9.7075   11.2717   23.5331 C   0  0  0  0  0  0  0  0  0  0  0  0
   10.7764   14.1296   23.3276 C   0  0  0  0  0  0  0  0  0  0  0  0
   11.5908   15.7040   21.4631 C   0  0  0  0  0  0  0  0  0  0  0  0
   10.7527   15.4696   22.6702 C   0  0  2  0  0  0  0  0  0  0  0  0
    4.7203   14.5046   26.2422 C   0  0  0  0  0  0  0  0  0  0  0  0
   12.2181   11.4549   23.7688 C   0  0  0  0  0  0  0  0  0  0  0  0
   11.0031   11.6952   22.8752 C   0  0  2  0  0  0  0  0  0  0  0  0
    6.2518   10.5025   26.1485 N   0  0  0  0  0  0  0  0  0  0  0  0
    8.9046   11.9973   24.2762 N   0  0  0  0  0  0  0  0  0  0  0  0
    8.0514    9.8837   24.0823 N   0  0  0  0  0  0  0  0  0  0  0  0
    9.2070   10.0128   23.4130 N   0  0  0  0  0  0  0  0  0  0  0  0
   10.9490   13.0757   22.4507 N   0  0  0  0  0  0  0  0  0  0  0  0
   10.6491   14.0510   24.5439 O   0  0  0  0  0  0  0  0  0  0  0  0
   12.0044   16.1386   22.7638 O   0  0  0  0  0  0  0  0  0  0  0  0
    3.8199   12.3348   27.6334 H   0  0  0  0  0  0  0  0  0  0  0  0
    6.8069   13.5617   24.7835 H   0  0  0  0  0  0  0  0  0  0  0  0
    4.7788   10.0369   27.5145 H   0  0  0  0  0  0  0  0  0  0  0  0
   12.1317   14.8813   21.0137 H   0  0  0  0  0  0  0  0  0  0  0  0
   11.2543   16.4614   20.7670 H   0  0  0  0  0  0  0  0  0  0  0  0
    9.8509   16.0259   22.8127 H   0  0  0  0  0  0  0  0  0  0  0  0
    5.2254   15.0893   27.0211 H   0  0  0  0  0  0  0  0  0  0  0  0
    4.8663   15.0101   25.2786 H   0  0  0  0  0  0  0  0  0  0  0  0
    3.6412   14.5144   26.4451 H   0  0  0  0  0  0  0  0  0  0  0  0
   12.1332   12.0119   24.7083 H   0  0  0  0  0  0  0  0  0  0  0  0
   12.3110   10.3905   24.0125 H   0  0  0  0  0  0  0  0  0  0  0  0
   13.1520   11.7558   23.2808 H   0  0  0  0  0  0  0  0  0  0  0  0
   11.1459   11.1145   21.9555 H   0  0  0  0  0  0  0  0  0  0  0  0
    9.5809    9.2155   22.9116 H   0  0  0  0  0  0  0  0  0  0  0  0
   11.0423   13.2811   21.4605 H   0  0  0  0  0  0  0  0  0  0  0  0
  1  3  2  0  0  0  0
  1  4  1  0  0  0  0
  2  4  2  0  0  0  0
  2  5  1  0  0  0  0
  3 14  1  0  0  0  0
  4 11  1  0  0  0  0
  5  6  1  0  0  0  0
  5 14  2  0  0  0  0
  6 15  1  0  0  0  0
  6 16  2  0  0  0  0
  7 13  1  0  0  0  0
  7 15  2  0  0  0  0
  7 17  1  0  0  0  0
  8 10  1  0  0  0  0
  8 18  1  0  0  0  0
  8 19  2  0  0  0  0
  9 10  1  0  0  0  0
  9 20  1  0  0  0  0
 10 20  1  0  0  0  0
 12 13  1  0  0  0  0
 13 18  1  0  0  0  0
 16 17  1  0  0  0  0
  1 21  1  0  0  0  0
  2 22  1  0  0  0  0
  3 23  1  0  0  0  0
  9 24  1  0  0  0  0
  9 25  1  0  0  0  0
 10 26  1  0  0  0  0
 11 27  1  0  0  0  0
 11 28  1  0  0  0  0
 11 29  1  0  0  0  0
 12 30  1  0  0  0  0
 12 31  1  0  0  0  0
 12 32  1  0  0  0  0
 13 33  1  0  0  0  0
 17 34  1  0  0  0  0
 18 35  1  0  0  0  0
M  END
> <Catalog ID>
Z3687603761

> <MW>
273.291

> <MW (desalted)>
273.291

> <ClogP>
0.88

> <logS>
-2.533

> <HBD>
2

> <HBA>
5

> <TPSA>
96.09

> <RotBonds>
4

> <ROCS_ShapeQuery>
A71EV2A-x0451_0A_A71EV2A-x0310_0A_A71EV2A-x0416_0A_peptide

> <ROCS_TanimotoCombo>
0.519 

> <ROCS_ShapeTanimoto>
0.334 

> <ROCS_ColorTanimoto>
0.186 

> <ROCS_RefTversky>
0.295 

> <ROCS_RefColorTversky>
0.209 

> <ROCS_RefTverskyCombo>
0.503 

> <ROCS_FitTversky>
1.662 

> <ROCS_FitColorTversky>
0.628 

> <ROCS_FitTverskyCombo>
2.290 

> <ROCS_ColorScore>
-6.375

> <ROCS_Overlap>
2044.941

> <ROCS_Rank>
451                 

$$$$
untitled-dbase-11285_4105
  -OEChem-11132309573D

 50 53  0     1  0  0  0  0  0999 V2000
   16.7071   11.4364   26.6138 C   0  0  0  0  0  0  0  0  0  0  0  0
   15.9532   12.2591   27.4506 C   0  0  0  0  0  0  0  0  0  0  0  0
   16.3600   11.3032   25.2694 C   0  0  0  0  0  0  0  0  0  0  0  0
   14.8521   12.9487   26.9431 C   0  0  0  0  0  0  0  0  0  0  0  0
   15.2588   11.9928   24.7619 C   0  0  0  0  0  0  0  0  0  0  0  0
   10.1647   11.5111   21.7546 C   0  0  0  0  0  0  0  0  0  0  0  0
    9.7627   10.3737   22.4590 C   0  0  0  0  0  0  0  0  0  0  0  0
    8.7511   12.9241   23.1449 C   0  0  0  0  0  0  0  0  0  0  0  0
   14.5049   12.8155   25.5987 C   0  0  0  0  0  0  0  0  0  0  0  0
    9.6618   12.7790   22.0956 C   0  0  0  0  0  0  0  0  0  0  0  0
    8.8626   10.5442   23.4906 C   0  0  0  0  0  0  0  0  0  0  0  0
    8.3704   11.7853   23.8245 C   0  0  0  0  0  0  0  0  0  0  0  0
   13.3419   13.5435   25.0621 C   0  0  0  0  0  0  0  0  0  0  0  0
   13.2157   13.9513   23.7932 C   0  0  0  0  0  0  0  0  0  0  0  0
   14.0124   15.9359   19.4441 C   0  0  0  0  0  0  0  0  0  0  0  0
   12.8742   15.6158   18.4711 C   0  0  0  0  0  0  0  0  0  0  0  0
   13.6003   15.3374   20.7864 C   0  0  0  0  0  0  0  0  0  0  0  0
   11.8346   14.8424   19.2781 C   0  0  0  0  0  0  0  0  0  0  0  0
    7.4971   10.3183   25.1539 C   0  0  0  0  0  0  0  0  0  0  0  0
   12.0787   15.2994   20.7112 C   0  0  0  0  0  0  0  0  0  0  0  0
   10.1076   13.9870   21.3234 C   0  0  0  0  0  0  0  0  0  0  0  0
   11.4899   14.4068   21.6933 N   0  0  2  0  0  0  0  0  0  0  0  0
   12.0033   16.2115   23.4879 O   0  0  0  0  0  0  0  0  0  0  0  0
   10.6683   14.1938   24.1367 O   0  0  0  0  0  0  0  0  0  0  0  0
    8.3609    9.5588   24.2837 O   0  0  0  0  0  0  0  0  0  0  0  0
    7.4987   11.7321   24.8683 O   0  0  0  0  0  0  0  0  0  0  0  0
   11.7535   14.7848   23.3722 S   0  0  0  0  0  0  0  0  0  0  0  0
   17.5652   10.9005   27.0087 H   0  0  0  0  0  0  0  0  0  0  0  0
   16.2241   12.3639   28.4973 H   0  0  0  0  0  0  0  0  0  0  0  0
   16.9476   10.6635   24.6175 H   0  0  0  0  0  0  0  0  0  0  0  0
   14.2740   13.5863   27.6078 H   0  0  0  0  0  0  0  0  0  0  0  0
   15.0009   11.8786   23.7117 H   0  0  0  0  0  0  0  0  0  0  0  0
   10.8742   11.4078   20.9372 H   0  0  0  0  0  0  0  0  0  0  0  0
   10.1488    9.3946   22.1998 H   0  0  0  0  0  0  0  0  0  0  0  0
    8.3564   13.8966   23.4191 H   0  0  0  0  0  0  0  0  0  0  0  0
   12.5396   13.7308   25.7730 H   0  0  0  0  0  0  0  0  0  0  0  0
   13.9606   13.7834   23.0261 H   0  0  0  0  0  0  0  0  0  0  0  0
   14.9676   15.5254   19.1014 H   0  0  0  0  0  0  0  0  0  0  0  0
   14.1330   17.0218   19.5315 H   0  0  0  0  0  0  0  0  0  0  0  0
   12.4426   16.5470   18.0862 H   0  0  0  0  0  0  0  0  0  0  0  0
   13.2234   15.0352   17.6114 H   0  0  0  0  0  0  0  0  0  0  0  0
   14.0185   14.3281   20.8894 H   0  0  0  0  0  0  0  0  0  0  0  0
   13.9609   15.9312   21.6322 H   0  0  0  0  0  0  0  0  0  0  0  0
   10.8135   15.0492   18.9427 H   0  0  0  0  0  0  0  0  0  0  0  0
   12.0045   13.7634   19.1720 H   0  0  0  0  0  0  0  0  0  0  0  0
    6.4735    9.9408   25.0479 H   0  0  0  0  0  0  0  0  0  0  0  0
    7.8229   10.1691   26.1894 H   0  0  0  0  0  0  0  0  0  0  0  0
   11.6693   16.3278   20.8542 H   0  0  0  0  0  0  0  0  0  0  0  0
   10.0934   13.7840   20.2470 H   0  0  0  0  0  0  0  0  0  0  0  0
    9.4404   14.8365   21.5030 H   0  0  0  0  0  0  0  0  0  0  0  0
  1  2  1  0  0  0  0
  1  3  2  0  0  0  0
  2  4  2  0  0  0  0
  3  5  1  0  0  0  0
  4  9  1  0  0  0  0
  5  9  2  0  0  0  0
  6  7  2  0  0  0  0
  6 10  1  0  0  0  0
  7 11  1  0  0  0  0
  8 10  2  0  0  0  0
  8 12  1  0  0  0  0
  9 13  1  0  0  0  0
 10 21  1  0  0  0  0
 11 12  2  0  0  0  0
 11 25  1  0  0  0  0
 12 26  1  0  0  0  0
 13 14  2  0  0  0  0
 14 27  1  4  0  0  0
 15 16  1  0  0  0  0
 15 17  1  0  0  0  0
 16 18  1  0  0  0  0
 17 20  1  0  0  0  0
 18 20  1  0  0  0  0
 19 25  1  0  0  0  0
 19 26  1  0  0  0  0
 20 22  1  0  0  0  0
 21 22  1  0  0  0  0
 22 27  1  0  0  0  0
 23 27  2  0  0  0  0
 24 27  2  0  0  0  0
  1 28  1  0  0  0  0
  2 29  1  0  0  0  0
  3 30  1  0  0  0  0
  4 31  1  0  0  0  0
  5 32  1  0  0  0  0
  6 33  1  0  0  0  0
  7 34  1  0  0  0  0
  8 35  1  0  0  0  0
 13 36  1  0  0  0  0
 14 37  1  0  0  0  0
 15 38  1  0  0  0  0
 15 39  1  0  0  0  0
 16 40  1  0  0  0  0
 16 41  1  0  0  0  0
 17 42  1  0  0  0  0
 17 43  1  0  0  0  0
 18 44  1  0  0  0  0
 18 45  1  0  0  0  0
 19 46  1  0  0  0  0
 19 47  1  0  0  0  0
 20 48  1  0  0  0  0
 21 49  1  0  0  0  0
 21 50  1  0  0  0  0
M  END
> <Catalog ID>
Z53051029

> <MW>
385.477

> <MW (desalted)>
385.477

> <ClogP>
4.711

> <logS>
-5.41

> <HBD>
0

> <HBA>
4

> <TPSA>
55.84

> <RotBonds>
5

> <ROCS_ShapeQuery>
A71EV2A-x0451_0A_A71EV2A-x0310_0A_A71EV2A-x0416_0A_peptide

> <ROCS_TanimotoCombo>
0.519 

> <ROCS_ShapeTanimoto>
0.328 

> <ROCS_ColorTanimoto>
0.191 

> <ROCS_RefTversky>
0.301 

> <ROCS_RefColorTversky>
0.209 

> <ROCS_RefTverskyCombo>
0.510 

> <ROCS_FitTversky>
1.387 

> <ROCS_FitColorTversky>
0.692 

> <ROCS_FitTverskyCombo>
2.079 

> <ROCS_ColorScore>
-6.377

> <ROCS_Overlap>
2091.295

> <ROCS_Rank>
452                 

$$$$
untitled-dbase-10433_7643
  -OEChem-11132309573D

 58 61  0     0  0  0  0  0  0999 V2000
   14.3916   16.7349   18.7621 C   0  0  0  0  0  0  0  0  0  0  0  0
    9.6482    6.9704   23.2866 C   0  0  0  0  0  0  0  0  0  0  0  0
   14.4430   17.1305   20.0987 C   0  0  0  0  0  0  0  0  0  0  0  0
   13.5233   15.7165   18.3690 C   0  0  0  0  0  0  0  0  0  0  0  0
   10.3399    7.2570   22.1097 C   0  0  0  0  0  0  0  0  0  0  0  0
    8.9958    7.9910   23.9783 C   0  0  0  0  0  0  0  0  0  0  0  0
    9.0245   11.0475   25.2243 C   0  0  0  0  0  0  0  0  0  0  0  0
    7.0176   10.6333   23.9445 C   0  0  0  0  0  0  0  0  0  0  0  0
   13.6262   16.5075   21.0423 C   0  0  0  0  0  0  0  0  0  0  0  0
   12.7065   15.0935   19.3126 C   0  0  0  0  0  0  0  0  0  0  0  0
   10.3794    8.5642   21.6246 C   0  0  0  0  0  0  0  0  0  0  0  0
    8.3648   12.0508   25.9341 C   0  0  0  0  0  0  0  0  0  0  0  0
    6.3579   11.6366   24.6543 C   0  0  0  0  0  0  0  0  0  0  0  0
    8.3509   10.3388   24.2295 C   0  0  0  0  0  0  0  0  0  0  0  0
    9.0353    9.2982   23.4932 C   0  0  0  0  0  0  0  0  0  0  0  0
   12.7579   15.4890   20.6493 C   0  0  0  0  0  0  0  0  0  0  0  0
    7.0315   12.3453   25.6491 C   0  0  0  0  0  0  0  0  0  0  0  0
    9.7270    9.5849   22.3164 C   0  0  0  0  0  0  0  0  0  0  0  0
    4.7850   12.3448   28.0985 C   0  0  0  0  0  0  0  0  0  0  0  0
   11.8951   14.8306   21.6455 C   0  0  0  0  0  0  0  0  0  0  0  0
   10.7011   14.2862   21.3803 C   0  0  0  0  0  0  0  0  0  0  0  0
    4.9002   11.9805   29.5601 C   0  0  0  0  0  0  0  0  0  0  0  0
    6.0124   12.8927   30.0636 C   0  0  0  0  0  0  0  0  0  0  0  0
    6.8942   13.0966   28.8480 C   0  0  0  0  0  0  0  0  0  0  0  0
    6.3214   13.4254   26.4129 C   0  0  0  0  0  0  0  0  0  0  0  0
    9.7914   10.9735   21.7660 C   0  0  0  0  0  0  0  0  0  0  0  0
    5.9639   12.9987   27.7483 N   0  0  0  0  0  0  0  0  0  0  0  0
   10.3939   11.8978   22.6906 N   0  0  0  0  0  0  0  0  0  0  0  0
    3.8371   12.0579   27.3828 O   0  0  0  0  0  0  0  0  0  0  0  0
   10.3289   14.1536   23.9377 O   0  0  0  0  0  0  0  0  0  0  0  0
    8.4385   13.5740   22.3904 O   0  0  0  0  0  0  0  0  0  0  0  0
    9.8567   13.5514   22.7033 S   0  0  0  0  0  0  0  0  0  0  0  0
   15.0266   17.2208   18.0272 H   0  0  0  0  0  0  0  0  0  0  0  0
    9.6172    5.9525   23.6640 H   0  0  0  0  0  0  0  0  0  0  0  0
   15.1182   17.9243   20.4048 H   0  0  0  0  0  0  0  0  0  0  0  0
   13.4823   15.4092   17.3282 H   0  0  0  0  0  0  0  0  0  0  0  0
   10.8475    6.4621   21.5712 H   0  0  0  0  0  0  0  0  0  0  0  0
    8.4610    7.7502   24.8941 H   0  0  0  0  0  0  0  0  0  0  0  0
   10.0641   10.8301   25.4577 H   0  0  0  0  0  0  0  0  0  0  0  0
    6.4788   10.0892   23.1724 H   0  0  0  0  0  0  0  0  0  0  0  0
   13.6776   16.8268   22.0806 H   0  0  0  0  0  0  0  0  0  0  0  0
   12.0349   14.3012   18.9907 H   0  0  0  0  0  0  0  0  0  0  0  0
   10.9211    8.7765   20.7066 H   0  0  0  0  0  0  0  0  0  0  0  0
    8.8977   12.5986   26.7067 H   0  0  0  0  0  0  0  0  0  0  0  0
    5.3188   11.8591   24.4260 H   0  0  0  0  0  0  0  0  0  0  0  0
   12.2971   14.7873   22.6558 H   0  0  0  0  0  0  0  0  0  0  0  0
   10.2465   14.2722   20.3982 H   0  0  0  0  0  0  0  0  0  0  0  0
    3.9587   12.1593   30.0849 H   0  0  0  0  0  0  0  0  0  0  0  0
    5.1808   10.9255   29.6386 H   0  0  0  0  0  0  0  0  0  0  0  0
    5.5888   13.8520   30.3853 H   0  0  0  0  0  0  0  0  0  0  0  0
    6.5535   12.4590   30.9093 H   0  0  0  0  0  0  0  0  0  0  0  0
    7.3868   14.0729   28.8533 H   0  0  0  0  0  0  0  0  0  0  0  0
    7.6387   12.3008   28.7432 H   0  0  0  0  0  0  0  0  0  0  0  0
    6.9540   14.3155   26.5012 H   0  0  0  0  0  0  0  0  0  0  0  0
    5.4022   13.7292   25.9012 H   0  0  0  0  0  0  0  0  0  0  0  0
   10.3778   11.0011   20.8384 H   0  0  0  0  0  0  0  0  0  0  0  0
    8.7910   11.3537   21.5238 H   0  0  0  0  0  0  0  0  0  0  0  0
   11.4243   11.7918   22.8179 H   0  0  0  0  0  0  0  0  0  0  0  0
  1  3  1  0  0  0  0
  1  4  2  0  0  0  0
  2  5  1  0  0  0  0
  2  6  2  0  0  0  0
  3  9  2  0  0  0  0
  4 10  1  0  0  0  0
  5 11  2  0  0  0  0
  6 15  1  0  0  0  0
  7 12  2  0  0  0  0
  7 14  1  0  0  0  0
  8 13  1  0  0  0  0
  8 14  2  0  0  0  0
  9 16  1  0  0  0  0
 10 16  2  0  0  0  0
 11 18  1  0  0  0  0
 12 17  1  0  0  0  0
 13 17  2  0  0  0  0
 14 15  1  0  0  0  0
 15 18  2  0  0  0  0
 16 20  1  0  0  0  0
 17 25  1  0  0  0  0
 18 26  1  0  0  0  0
 19 22  1  0  0  0  0
 19 27  1  0  0  0  0
 19 29  2  0  0  0  0
 20 21  2  0  0  0  0
 21 32  1  4  0  0  0
 22 23  1  0  0  0  0
 23 24  1  0  0  0  0
 24 27  1  0  0  0  0
 25 27  1  0  0  0  0
 26 28  1  0  0  0  0
 28 32  1  0  0  0  0
 30 32  2  0  0  0  0
 31 32  2  0  0  0  0
  1 33  1  0  0  0  0
  2 34  1  0  0  0  0
  3 35  1  0  0  0  0
  4 36  1  0  0  0  0
  5 37  1  0  0  0  0
  6 38  1  0  0  0  0
  7 39  1  0  0  0  0
  8 40  1  0  0  0  0
  9 41  1  0  0  0  0
 10 42  1  0  0  0  0
 11 43  1  0  0  0  0
 12 44  1  0  0  0  0
 13 45  1  0  0  0  0
 20 46  1  0  0  0  0
 21 47  1  0  0  0  0
 22 48  1  0  0  0  0
 22 49  1  0  0  0  0
 23 50  1  0  0  0  0
 23 51  1  0  0  0  0
 24 52  1  0  0  0  0
 24 53  1  0  0  0  0
 25 54  1  0  0  0  0
 25 55  1  0  0  0  0
 26 56  1  0  0  0  0
 26 57  1  0  0  0  0
 28 58  1  0  0  0  0
M  END
> <Catalog ID>
Z279900154

> <MW>
446.561

> <MW (desalted)>
446.561

> <ClogP>
3.545

> <logS>
-6.19

> <HBD>
1

> <HBA>
3

> <TPSA>
66.48

> <RotBonds>
7

> <ROCS_ShapeQuery>
A71EV2A-x0451_0A_A71EV2A-x0310_0A_A71EV2A-x0416_0A_peptide

> <ROCS_TanimotoCombo>
0.519 

> <ROCS_ShapeTanimoto>
0.351 

> <ROCS_ColorTanimoto>
0.168 

> <ROCS_RefTversky>
0.324 

> <ROCS_RefColorTversky>
0.187 

> <ROCS_RefTverskyCombo>
0.511 

> <ROCS_FitTversky>
1.317 

> <ROCS_FitColorTversky>
0.622 

> <ROCS_FitTverskyCombo>
1.939 

> <ROCS_ColorScore>
-5.719

> <ROCS_Overlap>
2254.664

> <ROCS_Rank>
453                 

$$$$
untitled-dbase-10380_2326
  -OEChem-11132309573D

 51 53  0     0  0  0  0  0  0999 V2000
    9.2119    9.4254   23.1155 C   0  0  0  0  0  0  0  0  0  0  0  0
    9.9794   10.4869   22.6372 C   0  0  0  0  0  0  0  0  0  0  0  0
    8.7378   12.0562   24.0241 C   0  0  0  0  0  0  0  0  0  0  0  0
    8.2168    9.6953   24.0429 C   0  0  0  0  0  0  0  0  0  0  0  0
    7.9790   10.9947   24.4952 C   0  0  0  0  0  0  0  0  0  0  0  0
    9.7434   11.7928   23.0885 C   0  0  0  0  0  0  0  0  0  0  0  0
   14.7474   11.3516   25.5364 C   0  0  0  0  0  0  0  0  0  0  0  0
   14.6958   12.4908   24.8395 C   0  0  0  0  0  0  0  0  0  0  0  0
   13.7523   12.6334   23.6987 C   0  0  0  0  0  0  0  0  0  0  0  0
    6.4142   12.1089   26.0832 C   0  0  0  0  0  0  0  0  0  0  0  0
   10.8517   14.0095   23.2827 C   0  0  0  0  0  0  0  0  0  0  0  0
    7.2889    8.7114   24.6766 C   0  0  0  0  0  0  0  0  0  0  0  0
    4.8457   13.7820   28.3776 C   0  0  0  0  0  0  0  0  0  0  0  0
    5.1688   12.6430   29.3278 C   0  0  0  0  0  0  0  0  0  0  0  0
    4.3830   13.0592   27.1202 C   0  0  0  0  0  0  0  0  0  0  0  0
    5.8312   11.5933   28.4410 C   0  0  0  0  0  0  0  0  0  0  0  0
    6.4430    9.6057   25.5894 C   0  0  0  0  0  0  0  0  0  0  0  0
    5.2699   11.8207   27.0377 C   0  0  0  0  0  0  0  0  0  0  0  0
   11.7182   14.9087   22.4067 C   0  0  0  0  0  0  0  0  0  0  0  0
   13.0285   14.2629   21.9764 C   0  0  0  0  0  0  0  0  0  0  0  0
    6.9210   10.9950   25.4279 N   0  0  0  0  0  0  0  0  0  0  0  0
   10.5224   12.8422   22.5981 N   0  0  0  0  0  0  0  0  0  0  0  0
   13.8422   13.8821   23.0996 N   0  0  0  0  0  0  0  0  0  0  0  0
   12.9928   11.7337   23.3537 O   0  0  0  0  0  0  0  0  0  0  0  0
    6.8106   13.2669   25.9504 O   0  0  0  0  0  0  0  0  0  0  0  0
   10.5203   14.3348   24.4177 O   0  0  0  0  0  0  0  0  0  0  0  0
    9.3931    8.4143   22.7664 H   0  0  0  0  0  0  0  0  0  0  0  0
   10.7632   10.2891   21.9097 H   0  0  0  0  0  0  0  0  0  0  0  0
    8.5735   13.0743   24.3576 H   0  0  0  0  0  0  0  0  0  0  0  0
   15.4391   11.2547   26.3667 H   0  0  0  0  0  0  0  0  0  0  0  0
   14.1173   10.4986   25.3094 H   0  0  0  0  0  0  0  0  0  0  0  0
   15.3434   13.3209   25.1000 H   0  0  0  0  0  0  0  0  0  0  0  0
    6.6688    8.2177   23.9220 H   0  0  0  0  0  0  0  0  0  0  0  0
    7.8439    7.9668   25.2554 H   0  0  0  0  0  0  0  0  0  0  0  0
    4.0803   14.4537   28.7767 H   0  0  0  0  0  0  0  0  0  0  0  0
    5.7465   14.3710   28.1689 H   0  0  0  0  0  0  0  0  0  0  0  0
    5.8154   12.9570   30.1524 H   0  0  0  0  0  0  0  0  0  0  0  0
    4.2445   12.2385   29.7575 H   0  0  0  0  0  0  0  0  0  0  0  0
    3.3397   12.7446   27.2450 H   0  0  0  0  0  0  0  0  0  0  0  0
    4.4341   13.7062   26.2389 H   0  0  0  0  0  0  0  0  0  0  0  0
    6.9220   11.7063   28.4742 H   0  0  0  0  0  0  0  0  0  0  0  0
    5.6010   10.5841   28.8009 H   0  0  0  0  0  0  0  0  0  0  0  0
    5.3814    9.5589   25.3226 H   0  0  0  0  0  0  0  0  0  0  0  0
    6.5431    9.3126   26.6402 H   0  0  0  0  0  0  0  0  0  0  0  0
    4.7407   10.9679   26.6545 H   0  0  0  0  0  0  0  0  0  0  0  0
   11.9411   15.8130   22.9860 H   0  0  0  0  0  0  0  0  0  0  0  0
   11.1357   15.2068   21.5264 H   0  0  0  0  0  0  0  0  0  0  0  0
   13.6219   14.9370   21.3505 H   0  0  0  0  0  0  0  0  0  0  0  0
   12.8287   13.3505   21.4058 H   0  0  0  0  0  0  0  0  0  0  0  0
   10.8837   12.7452   21.6512 H   0  0  0  0  0  0  0  0  0  0  0  0
   14.4842   14.5763   23.4794 H   0  0  0  0  0  0  0  0  0  0  0  0
  1  2  2  0  0  0  0
  1  4  1  0  0  0  0
  2  6  1  0  0  0  0
  3  5  1  0  0  0  0
  3  6  2  0  0  0  0
  4  5  2  0  0  0  0
  4 12  1  0  0  0  0
  5 21  1  0  0  0  0
  6 22  1  0  0  0  0
  7  8  2  0  0  0  0
  8  9  1  0  0  0  0
  9 23  1  0  0  0  0
  9 24  2  0  0  0  0
 10 18  1  0  0  0  0
 10 21  1  0  0  0  0
 10 25  2  0  0  0  0
 11 19  1  0  0  0  0
 11 22  1  0  0  0  0
 11 26  2  0  0  0  0
 12 17  1  0  0  0  0
 13 14  1  0  0  0  0
 13 15  1  0  0  0  0
 14 16  1  0  0  0  0
 15 18  1  0  0  0  0
 16 18  1  0  0  0  0
 17 21  1  0  0  0  0
 19 20  1  0  0  0  0
 20 23  1  0  0  0  0
  1 27  1  0  0  0  0
  2 28  1  0  0  0  0
  3 29  1  0  0  0  0
  7 30  1  0  0  0  0
  7 31  1  0  0  0  0
  8 32  1  0  0  0  0
 12 33  1  0  0  0  0
 12 34  1  0  0  0  0
 13 35  1  0  0  0  0
 13 36  1  0  0  0  0
 14 37  1  0  0  0  0
 14 38  1  0  0  0  0
 15 39  1  0  0  0  0
 15 40  1  0  0  0  0
 16 41  1  0  0  0  0
 16 42  1  0  0  0  0
 17 43  1  0  0  0  0
 17 44  1  0  0  0  0
 18 45  1  0  0  0  0
 19 46  1  0  0  0  0
 19 47  1  0  0  0  0
 20 48  1  0  0  0  0
 20 49  1  0  0  0  0
 22 50  1  0  0  0  0
 23 51  1  0  0  0  0
M  END
> <Catalog ID>
Z3054930559

> <MW>
355.431

> <MW (desalted)>
355.431

> <ClogP>
1.556

> <logS>
-4.548

> <HBD>
2

> <HBA>
3

> <TPSA>
78.51

> <RotBonds>
6

> <ROCS_ShapeQuery>
A71EV2A-x0451_0A_A71EV2A-x0310_0A_A71EV2A-x0416_0A_peptide

> <ROCS_TanimotoCombo>
0.519 

> <ROCS_ShapeTanimoto>
0.386 

> <ROCS_ColorTanimoto>
0.133 

> <ROCS_RefTversky>
0.337 

> <ROCS_RefColorTversky>
0.157 

> <ROCS_RefTverskyCombo>
0.494 

> <ROCS_FitTversky>
1.601 

> <ROCS_FitColorTversky>
0.472 

> <ROCS_FitTverskyCombo>
2.074 

> <ROCS_ColorScore>
-4.795

> <ROCS_Overlap>
2343.056

> <ROCS_Rank>
454                 

$$$$
untitled-dbase-11423_11553
  -OEChem-11132309573D

 47 49  0     1  0  0  0  0  0999 V2000
    5.5139   11.0071   26.1432 C   0  0  0  0  0  0  0  0  0  0  0  0
    6.3872   10.0829   26.7368 C   0  0  0  0  0  0  0  0  0  0  0  0
    5.9365   11.7993   25.0745 C   0  0  0  0  0  0  0  0  0  0  0  0
    7.6954    9.9360   26.2692 C   0  0  0  0  0  0  0  0  0  0  0  0
   13.8746   15.5870   18.4014 C   0  0  0  0  0  0  0  0  0  0  0  0
   12.7010   16.3311   18.6271 C   0  0  0  0  0  0  0  0  0  0  0  0
   14.3468   15.3008   19.6590 C   0  0  0  0  0  0  0  0  0  0  0  0
    7.2311   11.6379   24.6086 C   0  0  0  0  0  0  0  0  0  0  0  0
    8.1052   10.7117   25.1956 C   0  0  0  0  0  0  0  0  0  0  0  0
   11.5464    7.3085   23.0042 C   0  0  0  0  0  0  0  0  0  0  0  0
   10.3225    7.2607   23.5389 C   0  0  0  0  0  0  0  0  0  0  0  0
    9.4791    8.4843   23.5993 C   0  0  0  0  0  0  0  0  0  0  0  0
   10.8811   13.1978   23.2773 C   0  0  0  0  0  0  0  0  0  0  0  0
    7.9106   12.4013   23.5130 C   0  0  0  0  0  0  0  0  0  0  0  0
    9.4571   10.7778   24.5426 C   0  0  2  0  0  0  0  0  0  0  0  0
    9.0997   11.4726   23.2097 C   0  0  2  0  0  0  0  0  0  0  0  0
   12.2960   15.2693   22.7363 C   0  0  0  0  0  0  0  0  0  0  0  0
   13.5384   15.8334   22.0331 C   0  0  0  0  0  0  0  0  0  0  0  0
   12.0093   13.7924   22.4595 C   0  0  0  0  0  0  0  0  0  0  0  0
   12.4435   16.5065   19.9259 N   0  0  0  0  0  0  0  0  0  0  0  0
   13.4618   15.8685   20.5277 N   0  0  0  0  0  0  0  0  0  0  0  0
   10.0775    9.4984   24.3368 N   0  0  0  0  0  0  0  0  0  0  0  0
   10.2086   12.1741   22.6250 N   0  0  0  0  0  0  0  0  0  0  0  0
    8.3832    8.5584   23.0526 O   0  0  0  0  0  0  0  0  0  0  0  0
   10.6136   13.6132   24.4028 O   0  0  0  0  0  0  0  0  0  0  0  0
   13.1608   13.0987   22.7003 F   0  0  0  0  0  0  0  0  0  0  0  0
   11.7679   13.6408   21.1267 F   0  0  0  0  0  0  0  0  0  0  0  0
    4.5022   11.1120   26.5257 H   0  0  0  0  0  0  0  0  0  0  0  0
    6.0436    9.4814   27.5740 H   0  0  0  0  0  0  0  0  0  0  0  0
    5.2649   12.5236   24.6263 H   0  0  0  0  0  0  0  0  0  0  0  0
    8.3695    9.2309   26.7436 H   0  0  0  0  0  0  0  0  0  0  0  0
   14.3159   15.2989   17.4590 H   0  0  0  0  0  0  0  0  0  0  0  0
   12.0235   16.7517   17.8979 H   0  0  0  0  0  0  0  0  0  0  0  0
   15.2165   14.7557   19.9990 H   0  0  0  0  0  0  0  0  0  0  0  0
   12.1562    6.4119   22.9647 H   0  0  0  0  0  0  0  0  0  0  0  0
   11.9711    8.2195   22.5971 H   0  0  0  0  0  0  0  0  0  0  0  0
    9.9348    6.3284   23.9349 H   0  0  0  0  0  0  0  0  0  0  0  0
    7.2686   12.5300   22.6367 H   0  0  0  0  0  0  0  0  0  0  0  0
    8.2340   13.3775   23.8907 H   0  0  0  0  0  0  0  0  0  0  0  0
   10.1266   11.3952   25.1525 H   0  0  0  0  0  0  0  0  0  0  0  0
    8.7767   10.7270   22.4689 H   0  0  0  0  0  0  0  0  0  0  0  0
   11.4110   15.8788   22.5218 H   0  0  0  0  0  0  0  0  0  0  0  0
   12.4640   15.3647   23.8173 H   0  0  0  0  0  0  0  0  0  0  0  0
   14.4255   15.2750   22.3568 H   0  0  0  0  0  0  0  0  0  0  0  0
   13.6976   16.8645   22.3756 H   0  0  0  0  0  0  0  0  0  0  0  0
   10.9805    9.3274   24.7799 H   0  0  0  0  0  0  0  0  0  0  0  0
   10.4850   11.9313   21.6748 H   0  0  0  0  0  0  0  0  0  0  0  0
  1  2  1  0  0  0  0
  1  3  2  0  0  0  0
  2  4  2  0  0  0  0
  3  8  1  0  0  0  0
  4  9  1  0  0  0  0
  5  6  1  0  0  0  0
  5  7  2  0  0  0  0
  6 20  2  0  0  0  0
  7 21  1  0  0  0  0
  8  9  2  0  0  0  0
  8 14  1  0  0  0  0
  9 15  1  0  0  0  0
 10 11  2  0  0  0  0
 11 12  1  0  0  0  0
 12 22  1  0  0  0  0
 12 24  2  0  0  0  0
 13 19  1  0  0  0  0
 13 23  1  0  0  0  0
 13 25  2  0  0  0  0
 14 16  1  0  0  0  0
 15 16  1  0  0  0  0
 15 22  1  1  0  0  0
 16 23  1  6  0  0  0
 17 18  1  0  0  0  0
 17 19  1  0  0  0  0
 18 21  1  0  0  0  0
 19 26  1  0  0  0  0
 19 27  1  0  0  0  0
 20 21  1  0  0  0  0
  1 28  1  0  0  0  0
  2 29  1  0  0  0  0
  3 30  1  0  0  0  0
  4 31  1  0  0  0  0
  5 32  1  0  0  0  0
  6 33  1  0  0  0  0
  7 34  1  0  0  0  0
 10 35  1  0  0  0  0
 10 36  1  0  0  0  0
 11 37  1  0  0  0  0
 14 38  1  0  0  0  0
 14 39  1  0  0  0  0
 15 40  1  0  0  0  0
 16 41  1  0  0  0  0
 17 42  1  0  0  0  0
 17 43  1  0  0  0  0
 18 44  1  0  0  0  0
 18 45  1  0  0  0  0
 22 46  1  0  0  0  0
 23 47  1  0  0  0  0
M  END
> <Catalog ID>
Z4439296637

> <MW>
374.385

> <MW (desalted)>
374.385

> <ClogP>
1.786

> <logS>
-4.04

> <HBD>
2

> <HBA>
3

> <TPSA>
76.02

> <RotBonds>
7

> <ROCS_ShapeQuery>
A71EV2A-x0451_0A_A71EV2A-x0310_0A_A71EV2A-x0416_0A_peptide

> <ROCS_TanimotoCombo>
0.519 

> <ROCS_ShapeTanimoto>
0.355 

> <ROCS_ColorTanimoto>
0.165 

> <ROCS_RefTversky>
0.319 

> <ROCS_RefColorTversky>
0.188 

> <ROCS_RefTverskyCombo>
0.508 

> <ROCS_FitTversky>
1.450 

> <ROCS_FitColorTversky>
0.567 

> <ROCS_FitTverskyCombo>
2.017 

> <ROCS_ColorScore>
-5.755

> <ROCS_Overlap>
2222.718

> <ROCS_Rank>
455                 

$$$$
untitled-dbase-1786_1140
  -OEChem-11132309573D

 49 52  0     0  0  0  0  0  0999 V2000
   11.6563   15.7268   19.9577 C   0  0  0  0  0  0  0  0  0  0  0  0
   13.9913   16.0487   20.4883 C   0  0  0  0  0  0  0  0  0  0  0  0
   11.9259   15.9864   18.6140 C   0  0  0  0  0  0  0  0  0  0  0  0
   14.2609   16.3082   19.1445 C   0  0  0  0  0  0  0  0  0  0  0  0
   10.8363    9.8086   23.3846 C   0  0  0  0  0  0  0  0  0  0  0  0
   12.6890   15.7580   20.8948 C   0  0  0  0  0  0  0  0  0  0  0  0
    8.8459   10.0318   24.1138 C   0  0  0  0  0  0  0  0  0  0  0  0
   13.2281   16.2770   18.2074 C   0  0  0  0  0  0  0  0  0  0  0  0
    9.3569   11.3152   24.0037 C   0  0  0  0  0  0  0  0  0  0  0  0
    7.5396    9.9125   24.5773 C   0  0  0  0  0  0  0  0  0  0  0  0
    7.4769   12.2231   24.7335 C   0  0  0  0  0  0  0  0  0  0  0  0
   12.0314   16.1558   13.4529 C   0  0  0  0  0  0  0  0  0  0  0  0
   12.9210   16.1853   14.4503 C   0  0  0  0  0  0  0  0  0  0  0  0
   12.4040   15.4837   22.3160 C   0  0  0  0  0  0  0  0  0  0  0  0
   12.4860   16.5229   15.8374 C   0  0  0  0  0  0  0  0  0  0  0  0
   11.5054   13.6837   23.8986 C   0  0  0  0  0  0  0  0  0  0  0  0
   11.5890   13.0502   21.8684 C   0  0  0  0  0  0  0  0  0  0  0  0
   11.6785   12.3014   23.2220 C   0  0  0  0  0  0  0  0  0  0  0  0
   14.8863   16.9323   16.4627 C   0  0  0  0  0  0  0  0  0  0  0  0
    9.7782    9.1028   23.7250 N   0  0  0  0  0  0  0  0  0  0  0  0
    8.7315   12.4656   24.2953 N   0  0  0  0  0  0  0  0  0  0  0  0
    6.8471   11.0338   24.8915 N   0  0  0  0  0  0  0  0  0  0  0  0
   10.6301   11.1542   23.5364 N   0  0  0  0  0  0  0  0  0  0  0  0
   11.8728   14.2577   22.6181 N   0  0  0  0  0  0  0  0  0  0  0  0
    6.9404    8.6490   24.7193 N   0  0  0  0  0  0  0  0  0  0  0  0
    6.7166   13.3652   25.0744 N   0  0  0  0  0  0  0  0  0  0  0  0
   13.4967   16.5363   16.8631 N   0  0  0  0  0  0  0  0  0  0  0  0
   12.6712   16.3511   23.1440 O   0  0  0  0  0  0  0  0  0  0  0  0
   11.2936   16.7460   16.0483 O   0  0  0  0  0  0  0  0  0  0  0  0
   10.6380   15.5019   20.2637 H   0  0  0  0  0  0  0  0  0  0  0  0
   14.8035   16.0756   21.2102 H   0  0  0  0  0  0  0  0  0  0  0  0
   11.1139   15.9591   17.8915 H   0  0  0  0  0  0  0  0  0  0  0  0
   15.2796   16.5336   18.8391 H   0  0  0  0  0  0  0  0  0  0  0  0
   11.7726    9.4047   23.0243 H   0  0  0  0  0  0  0  0  0  0  0  0
   12.3485   15.8871   12.4507 H   0  0  0  0  0  0  0  0  0  0  0  0
   10.9845   16.3988   13.5979 H   0  0  0  0  0  0  0  0  0  0  0  0
   13.9554   15.9195   14.2657 H   0  0  0  0  0  0  0  0  0  0  0  0
   10.4932   13.9642   24.2064 H   0  0  0  0  0  0  0  0  0  0  0  0
   12.2172   13.8960   24.7004 H   0  0  0  0  0  0  0  0  0  0  0  0
   12.3623   12.7755   21.1463 H   0  0  0  0  0  0  0  0  0  0  0  0
   10.6090   13.0799   21.3817 H   0  0  0  0  0  0  0  0  0  0  0  0
   12.7316   11.8558   23.4046 H   0  0  0  0  0  0  0  0  0  0  0  0
   15.4695   16.0315   16.2207 H   0  0  0  0  0  0  0  0  0  0  0  0
   14.8408   17.5875   15.5803 H   0  0  0  0  0  0  0  0  0  0  0  0
   15.3682   17.4688   17.2933 H   0  0  0  0  0  0  0  0  0  0  0  0
    6.0153    8.5823   25.0993 H   0  0  0  0  0  0  0  0  0  0  0  0
    7.4779    7.8249   24.5283 H   0  0  0  0  0  0  0  0  0  0  0  0
    5.7670   13.2478   25.3592 H   0  0  0  0  0  0  0  0  0  0  0  0
    7.1130   14.2706   24.9336 H   0  0  0  0  0  0  0  0  0  0  0  0
  1  3  2  0  0  0  0
  1  6  1  0  0  0  0
  2  4  1  0  0  0  0
  2  6  2  0  0  0  0
  3  8  1  0  0  0  0
  4  8  2  0  0  0  0
  5 20  2  0  0  0  0
  5 23  1  0  0  0  0
  6 14  1  0  0  0  0
  7  9  2  0  0  0  0
  7 10  1  0  0  0  0
  7 20  1  0  0  0  0
  8 27  1  0  0  0  0
  9 21  1  0  0  0  0
  9 23  1  0  0  0  0
 10 22  2  0  0  0  0
 10 25  1  0  0  0  0
 11 21  2  0  0  0  0
 11 22  1  0  0  0  0
 11 26  1  0  0  0  0
 12 13  2  0  0  0  0
 13 15  1  0  0  0  0
 14 24  1  0  0  0  0
 14 28  2  0  0  0  0
 15 27  1  0  0  0  0
 15 29  2  0  0  0  0
 16 18  1  0  0  0  0
 16 24  1  0  0  0  0
 17 18  1  0  0  0  0
 17 24  1  0  0  0  0
 18 23  1  0  0  0  0
 19 27  1  0  0  0  0
  1 30  1  0  0  0  0
  2 31  1  0  0  0  0
  3 32  1  0  0  0  0
  4 33  1  0  0  0  0
  5 34  1  0  0  0  0
 12 35  1  0  0  0  0
 12 36  1  0  0  0  0
 13 37  1  0  0  0  0
 16 38  1  0  0  0  0
 16 39  1  0  0  0  0
 17 40  1  0  0  0  0
 17 41  1  0  0  0  0
 18 42  1  0  0  0  0
 19 43  1  0  0  0  0
 19 44  1  0  0  0  0
 19 45  1  0  0  0  0
 25 46  1  0  0  0  0
 25 47  1  0  0  0  0
 26 48  1  0  0  0  0
 26 49  1  0  0  0  0
M  END
> <Catalog ID>
Z3756726686

> <MW>
392.415

> <MW (desalted)>
392.415

> <ClogP>
0.333

> <logS>
-5.096

> <HBD>
2

> <HBA>
7

> <TPSA>
136.26

> <RotBonds>
4

> <ROCS_ShapeQuery>
A71EV2A-x0451_0A_A71EV2A-x0310_0A_A71EV2A-x0416_0A_peptide

> <ROCS_TanimotoCombo>
0.519 

> <ROCS_ShapeTanimoto>
0.359 

> <ROCS_ColorTanimoto>
0.160 

> <ROCS_RefTversky>
0.326 

> <ROCS_RefColorTversky>
0.209 

> <ROCS_RefTverskyCombo>
0.535 

> <ROCS_FitTversky>
1.385 

> <ROCS_FitColorTversky>
0.406 

> <ROCS_FitTverskyCombo>
1.791 

> <ROCS_ColorScore>
-6.452

> <ROCS_Overlap>
2273.482

> <ROCS_Rank>
456                 

$$$$
untitled-dbase-3897_16244
  -OEChem-11132309573D

 48 50  0     1  0  0  0  0  0999 V2000
    5.9863   10.8441   26.0215 C   0  0  0  0  0  0  0  0  0  0  0  0
    6.2015   12.2151   25.9173 C   0  0  0  0  0  0  0  0  0  0  0  0
    6.8464    9.9513   25.3815 C   0  0  0  0  0  0  0  0  0  0  0  0
    7.2777   12.6986   25.1726 C   0  0  0  0  0  0  0  0  0  0  0  0
    8.8104    9.5361   23.9770 C   0  0  0  0  0  0  0  0  0  0  0  0
    9.8865   10.0196   23.2322 C   0  0  0  0  0  0  0  0  0  0  0  0
    9.2417   12.2834   23.7679 C   0  0  0  0  0  0  0  0  0  0  0  0
    7.9346   10.4203   24.6278 C   0  0  0  0  0  0  0  0  0  0  0  0
    8.1535   11.8145   24.5217 C   0  0  0  0  0  0  0  0  0  0  0  0
   10.1018   11.3906   23.1279 C   0  0  0  0  0  0  0  0  0  0  0  0
   12.0542   17.7238   20.4792 C   0  0  0  0  0  0  0  0  0  0  0  0
   12.1142   16.2892   20.3856 C   0  0  0  0  0  0  0  0  0  0  0  0
   11.5380   18.2976   21.5706 C   0  0  0  0  0  0  0  0  0  0  0  0
   11.6588   15.5141   21.3798 C   0  0  0  0  0  0  0  0  0  0  0  0
   11.0764   16.1422   22.6118 C   0  0  0  0  0  0  0  0  0  0  0  0
   11.7599   14.0543   21.1992 C   0  0  0  0  0  0  0  0  0  0  0  0
   13.4868   12.9864   24.5398 C   0  0  0  0  0  0  0  0  0  0  0  0
   10.5096   18.2621   23.7727 C   0  0  0  0  0  0  0  0  0  0  0  0
   13.6157   13.1770   26.0295 C   0  0  0  0  0  0  0  0  0  0  0  0
   12.6346   11.4130   22.8250 C   0  0  0  0  0  0  0  0  0  0  0  0
   11.2530   11.9056   22.3315 C   0  0  2  0  0  0  0  0  0  0  0  0
   11.0537   17.5443   22.6257 N   0  0  0  0  0  0  0  0  0  0  0  0
   11.2643   13.3823   22.2769 N   0  0  0  0  0  0  0  0  0  0  0  0
   12.8759   11.7903   24.1933 N   0  0  0  0  0  0  0  0  0  0  0  0
   10.6605   15.4234   23.5196 O   0  0  0  0  0  0  0  0  0  0  0  0
   12.2416   13.5834   20.1747 O   0  0  0  0  0  0  0  0  0  0  0  0
   13.8797   13.8347   23.7408 O   0  0  0  0  0  0  0  0  0  0  0  0
   13.7701   11.5769   26.7718 Cl  0  0  0  0  0  0  0  0  0  0  0  0
    5.1482   10.4687   26.6012 H   0  0  0  0  0  0  0  0  0  0  0  0
    5.5312   12.9094   26.4154 H   0  0  0  0  0  0  0  0  0  0  0  0
    6.6588    8.8837   25.4773 H   0  0  0  0  0  0  0  0  0  0  0  0
    7.4265   13.7744   25.1046 H   0  0  0  0  0  0  0  0  0  0  0  0
    8.6611    8.4603   24.0446 H   0  0  0  0  0  0  0  0  0  0  0  0
   10.5516    9.3173   22.7366 H   0  0  0  0  0  0  0  0  0  0  0  0
    9.4215   13.3536   23.6785 H   0  0  0  0  0  0  0  0  0  0  0  0
   12.4324   18.3171   19.6550 H   0  0  0  0  0  0  0  0  0  0  0  0
   12.5426   15.8744   19.4786 H   0  0  0  0  0  0  0  0  0  0  0  0
   11.4796   19.3758   21.6694 H   0  0  0  0  0  0  0  0  0  0  0  0
    9.4332   18.4321   23.6227 H   0  0  0  0  0  0  0  0  0  0  0  0
   10.6629   17.6661   24.6844 H   0  0  0  0  0  0  0  0  0  0  0  0
   11.0225   19.2297   23.8766 H   0  0  0  0  0  0  0  0  0  0  0  0
   14.4885   13.7752   26.3023 H   0  0  0  0  0  0  0  0  0  0  0  0
   12.7149   13.6641   26.4127 H   0  0  0  0  0  0  0  0  0  0  0  0
   12.7080   10.3201   22.7883 H   0  0  0  0  0  0  0  0  0  0  0  0
   13.4545   11.8204   22.2240 H   0  0  0  0  0  0  0  0  0  0  0  0
   11.1574   11.5707   21.2810 H   0  0  0  0  0  0  0  0  0  0  0  0
   10.8988   13.9023   23.0508 H   0  0  0  0  0  0  0  0  0  0  0  0
   12.5873   11.1554   24.9343 H   0  0  0  0  0  0  0  0  0  0  0  0
  1  2  1  0  0  0  0
  1  3  2  0  0  0  0
  2  4  2  0  0  0  0
  3  8  1  0  0  0  0
  4  9  1  0  0  0  0
  5  6  2  0  0  0  0
  5  8  1  0  0  0  0
  6 10  1  0  0  0  0
  7  9  1  0  0  0  0
  7 10  2  0  0  0  0
  8  9  2  0  0  0  0
 10 21  1  0  0  0  0
 11 12  1  0  0  0  0
 11 13  2  0  0  0  0
 12 14  2  0  0  0  0
 13 22  1  0  0  0  0
 14 15  1  0  0  0  0
 14 16  1  0  0  0  0
 15 22  1  0  0  0  0
 15 25  2  0  0  0  0
 16 23  1  0  0  0  0
 16 26  2  0  0  0  0
 17 19  1  0  0  0  0
 17 24  1  0  0  0  0
 17 27  2  0  0  0  0
 18 22  1  0  0  0  0
 19 28  1  0  0  0  0
 20 21  1  0  0  0  0
 20 24  1  0  0  0  0
 21 23  1  0  0  0  0
  1 29  1  0  0  0  0
  2 30  1  0  0  0  0
  3 31  1  0  0  0  0
  4 32  1  0  0  0  0
  5 33  1  0  0  0  0
  6 34  1  0  0  0  0
  7 35  1  0  0  0  0
 11 36  1  0  0  0  0
 12 37  1  0  0  0  0
 13 38  1  0  0  0  0
 18 39  1  0  0  0  0
 18 40  1  0  0  0  0
 18 41  1  0  0  0  0
 19 42  1  0  0  0  0
 19 43  1  0  0  0  0
 20 44  1  0  0  0  0
 20 45  1  0  0  0  0
 21 46  1  0  0  0  0
 23 47  1  0  0  0  0
 24 48  1  0  0  0  0
M  END
> <Catalog ID>
Z4425211507

> <MW>
397.855

> <MW (desalted)>
397.855

> <ClogP>
1.969

> <logS>
-4.747

> <HBD>
2

> <HBA>
3

> <TPSA>
78.51

> <RotBonds>
6

> <ROCS_ShapeQuery>
A71EV2A-x0451_0A_A71EV2A-x0310_0A_A71EV2A-x0416_0A_peptide

> <ROCS_TanimotoCombo>
0.519 

> <ROCS_ShapeTanimoto>
0.346 

> <ROCS_ColorTanimoto>
0.174 

> <ROCS_RefTversky>
0.314 

> <ROCS_RefColorTversky>
0.192 

> <ROCS_RefTverskyCombo>
0.507 

> <ROCS_FitTversky>
1.404 

> <ROCS_FitColorTversky>
0.639 

> <ROCS_FitTverskyCombo>
2.043 

> <ROCS_ColorScore>
-5.874

> <ROCS_Overlap>
2187.222

> <ROCS_Rank>
457                 

$$$$
untitled-dbase-4534_1314
  -OEChem-11132309573D

 45 47  0     1  0  0  0  0  0999 V2000
    7.0855   12.9152   25.9518 C   0  0  0  0  0  0  0  0  0  0  0  0
    8.1986   13.0538   25.1324 C   0  0  0  0  0  0  0  0  0  0  0  0
    6.4553   11.6947   25.9697 C   0  0  0  0  0  0  0  0  0  0  0  0
    8.6709   11.9791   24.3612 C   0  0  0  0  0  0  0  0  0  0  0  0
    7.9557   10.7623   24.4339 C   0  0  0  0  0  0  0  0  0  0  0  0
   14.4998   17.0683   19.2966 C   0  0  0  0  0  0  0  0  0  0  0  0
   13.3149   17.1961   19.8976 C   0  0  0  0  0  0  0  0  0  0  0  0
   12.2861   16.1613   19.6731 C   0  0  0  0  0  0  0  0  0  0  0  0
   10.6964   13.1989   23.5342 C   0  0  0  0  0  0  0  0  0  0  0  0
   11.3116   13.0837   21.1168 C   0  0  0  0  0  0  0  0  0  0  0  0
   12.7819   14.3632   22.7572 C   0  0  0  0  0  0  0  0  0  0  0  0
   10.7975   14.4279   20.6008 C   0  0  0  0  0  0  0  0  0  0  0  0
   12.2187   15.6608   22.1779 C   0  0  0  0  0  0  0  0  0  0  0  0
    9.9897   11.0197   22.5113 C   0  0  0  0  0  0  0  0  0  0  0  0
    9.6865    9.6608   23.1107 C   0  0  0  0  0  0  0  0  0  0  0  0
   11.8460   13.1661   22.5515 C   0  0  0  0  0  0  0  0  0  0  0  0
    7.6642    8.3912   23.8513 C   0  0  0  0  0  0  0  0  0  0  0  0
    6.8576   10.6389   25.2355 N   0  0  0  0  0  0  0  0  0  0  0  0
    9.8112   12.1074   23.4834 N   0  0  0  0  0  0  0  0  0  0  0  0
    8.3542    9.6587   23.6784 N   0  0  1  0  0  0  0  0  0  0  0  0
   11.8130   15.4654   20.7814 N   0  0  0  0  0  0  0  0  0  0  0  0
   11.9111   15.9728   18.5145 O   0  0  0  0  0  0  0  0  0  0  0  0
   10.6257   14.1527   24.3121 O   0  0  0  0  0  0  0  0  0  0  0  0
    6.7204   13.7461   26.5442 H   0  0  0  0  0  0  0  0  0  0  0  0
    8.6484   14.0394   25.0950 H   0  0  0  0  0  0  0  0  0  0  0  0
    5.5788   11.5250   26.5853 H   0  0  0  0  0  0  0  0  0  0  0  0
   15.2950   17.7954   19.4228 H   0  0  0  0  0  0  0  0  0  0  0  0
   14.6956   16.2152   18.6557 H   0  0  0  0  0  0  0  0  0  0  0  0
   13.0823   18.0322   20.5441 H   0  0  0  0  0  0  0  0  0  0  0  0
   10.5110   12.3389   21.0448 H   0  0  0  0  0  0  0  0  0  0  0  0
   12.1245   12.7426   20.4641 H   0  0  0  0  0  0  0  0  0  0  0  0
   13.7380   14.1441   22.2667 H   0  0  0  0  0  0  0  0  0  0  0  0
   12.9941   14.5053   23.8229 H   0  0  0  0  0  0  0  0  0  0  0  0
   10.5190   14.3316   19.5465 H   0  0  0  0  0  0  0  0  0  0  0  0
    9.9001   14.7402   21.1471 H   0  0  0  0  0  0  0  0  0  0  0  0
   11.3254   15.9734   22.7314 H   0  0  0  0  0  0  0  0  0  0  0  0
   12.9440   16.4667   22.2940 H   0  0  0  0  0  0  0  0  0  0  0  0
   11.0161   11.0002   22.1352 H   0  0  0  0  0  0  0  0  0  0  0  0
    9.3329   11.2305   21.6579 H   0  0  0  0  0  0  0  0  0  0  0  0
    9.7708    8.8996   22.3263 H   0  0  0  0  0  0  0  0  0  0  0  0
   10.4228    9.4098   23.8846 H   0  0  0  0  0  0  0  0  0  0  0  0
   12.3943   12.2436   22.7766 H   0  0  0  0  0  0  0  0  0  0  0  0
    8.1058    7.6383   23.1819 H   0  0  0  0  0  0  0  0  0  0  0  0
    7.7652    8.0583   24.8948 H   0  0  0  0  0  0  0  0  0  0  0  0
    6.5988    8.5178   23.6084 H   0  0  0  0  0  0  0  0  0  0  0  0
  1  2  2  0  0  0  0
  1  3  1  0  0  0  0
  2  4  1  0  0  0  0
  3 18  2  0  0  0  0
  4  5  2  0  0  0  0
  4 19  1  0  0  0  0
  5 18  1  0  0  0  0
  5 20  1  0  0  0  0
  6  7  2  0  0  0  0
  7  8  1  0  0  0  0
  8 21  1  0  0  0  0
  8 22  2  0  0  0  0
  9 16  1  0  0  0  0
  9 19  1  0  0  0  0
  9 23  2  0  0  0  0
 10 12  1  0  0  0  0
 10 16  1  0  0  0  0
 11 13  1  0  0  0  0
 11 16  1  0  0  0  0
 12 21  1  0  0  0  0
 13 21  1  0  0  0  0
 14 15  1  0  0  0  0
 14 19  1  0  0  0  0
 15 20  1  0  0  0  0
 17 20  1  0  0  0  0
  1 24  1  0  0  0  0
  2 25  1  0  0  0  0
  3 26  1  0  0  0  0
  6 27  1  0  0  0  0
  6 28  1  0  0  0  0
  7 29  1  0  0  0  0
 10 30  1  0  0  0  0
 10 31  1  0  0  0  0
 11 32  1  0  0  0  0
 11 33  1  0  0  0  0
 12 34  1  0  0  0  0
 12 35  1  0  0  0  0
 13 36  1  0  0  0  0
 13 37  1  0  0  0  0
 14 38  1  0  0  0  0
 14 39  1  0  0  0  0
 15 40  1  0  0  0  0
 15 41  1  0  0  0  0
 16 42  1  0  0  0  0
 17 43  1  0  0  0  0
 17 44  1  0  0  0  0
 17 45  1  0  0  0  0
M  END
> <Catalog ID>
Z3672063588

> <MW>
314.382

> <MW (desalted)>
314.382

> <ClogP>
0.299

> <logS>
-2.707

> <HBD>
0

> <HBA>
4

> <TPSA>
56.75

> <RotBonds>
2

> <ROCS_ShapeQuery>
A71EV2A-x0451_0A_A71EV2A-x0310_0A_A71EV2A-x0416_0A_peptide

> <ROCS_TanimotoCombo>
0.519 

> <ROCS_ShapeTanimoto>
0.378 

> <ROCS_ColorTanimoto>
0.141 

> <ROCS_RefTversky>
0.328 

> <ROCS_RefColorTversky>
0.157 

> <ROCS_RefTverskyCombo>
0.485 

> <ROCS_FitTversky>
1.686 

> <ROCS_FitColorTversky>
0.580 

> <ROCS_FitTverskyCombo>
2.267 

> <ROCS_ColorScore>
-4.783

> <ROCS_Overlap>
2277.158

> <ROCS_Rank>
458                 

$$$$
untitled-dbase-5495_520
  -OEChem-11132309573D

 38 39  0     0  0  0  0  0  0999 V2000
   13.3678   13.6985   22.6199 C   0  0  0  0  0  0  0  0  0  0  0  0
   13.5426   16.2669   20.7919 C   0  0  0  0  0  0  0  0  0  0  0  0
    7.2837   10.1468   24.8028 C   0  0  0  0  0  0  0  0  0  0  0  0
   14.3971   16.8395   19.8498 C   0  0  0  0  0  0  0  0  0  0  0  0
    8.2707    9.4532   24.1027 C   0  0  0  0  0  0  0  0  0  0  0  0
   12.3462   15.1393   19.0216 C   0  0  0  0  0  0  0  0  0  0  0  0
    8.3517   12.2386   24.2365 C   0  0  0  0  0  0  0  0  0  0  0  0
   12.5172   15.4168   20.3778 C   0  0  0  0  0  0  0  0  0  0  0  0
    7.3241   11.5395   24.8697 C   0  0  0  0  0  0  0  0  0  0  0  0
    9.3389   11.5450   23.5364 C   0  0  0  0  0  0  0  0  0  0  0  0
   14.2261   16.5621   18.4936 C   0  0  0  0  0  0  0  0  0  0  0  0
    9.2984   10.1523   23.4695 C   0  0  0  0  0  0  0  0  0  0  0  0
   13.2006   15.7120   18.0794 C   0  0  0  0  0  0  0  0  0  0  0  0
   11.6264   14.8205   21.3608 C   0  0  0  0  0  0  0  0  0  0  0  0
   11.9950   14.0213   22.3945 C   0  0  0  0  0  0  0  0  0  0  0  0
   10.8973   13.5098   23.3029 C   0  0  0  0  0  0  0  0  0  0  0  0
   16.0904   17.9920   18.1255 C   0  0  0  0  0  0  0  0  0  0  0  0
    6.2683   12.2807   25.6180 C   0  0  0  0  0  0  0  0  0  0  0  0
   14.4822   13.4342   22.8076 N   0  0  0  0  0  0  0  0  0  0  0  0
   10.3702   12.2861   22.9051 N   0  0  0  0  0  0  0  0  0  0  0  0
   10.5483   14.1623   24.2836 O   0  0  0  0  0  0  0  0  0  0  0  0
   15.0766   17.1394   17.5982 O   0  0  0  0  0  0  0  0  0  0  0  0
    5.3276   11.4692   26.1859 F   0  0  0  0  0  0  0  0  0  0  0  0
    6.7552   13.0354   26.6472 F   0  0  0  0  0  0  0  0  0  0  0  0
    5.5732   13.1476   24.8253 F   0  0  0  0  0  0  0  0  0  0  0  0
   10.5003    9.2535   22.6138 Cl  0  0  0  0  0  0  0  0  0  0  0  0
   12.9380   15.3149   16.2447 Br  0  0  0  0  0  0  0  0  0  0  0  0
   13.6889   16.4922   21.8458 H   0  0  0  0  0  0  0  0  0  0  0  0
    6.4870    9.5936   25.2931 H   0  0  0  0  0  0  0  0  0  0  0  0
   15.1941   17.5002   20.1804 H   0  0  0  0  0  0  0  0  0  0  0  0
    8.2237    8.3680   24.0594 H   0  0  0  0  0  0  0  0  0  0  0  0
   11.5452   14.4752   18.7018 H   0  0  0  0  0  0  0  0  0  0  0  0
    8.3804   13.3249   24.2914 H   0  0  0  0  0  0  0  0  0  0  0  0
   10.5727   15.0829   21.2237 H   0  0  0  0  0  0  0  0  0  0  0  0
   16.6981   18.3861   17.3073 H   0  0  0  0  0  0  0  0  0  0  0  0
   16.7175   17.4275   18.8202 H   0  0  0  0  0  0  0  0  0  0  0  0
   15.6168   18.8210   18.6567 H   0  0  0  0  0  0  0  0  0  0  0  0
   10.7699   11.8756   22.0655 H   0  0  0  0  0  0  0  0  0  0  0  0
  1 15  1  0  0  0  0
  1 19  3  0  0  0  0
  2  4  2  0  0  0  0
  2  8  1  0  0  0  0
  3  5  2  0  0  0  0
  3  9  1  0  0  0  0
  4 11  1  0  0  0  0
  5 12  1  0  0  0  0
  6  8  2  0  0  0  0
  6 13  1  0  0  0  0
  7  9  2  0  0  0  0
  7 10  1  0  0  0  0
  8 14  1  4  0  0  0
  9 18  1  0  0  0  0
 10 12  2  0  0  0  0
 10 20  1  0  0  0  0
 11 13  2  0  0  0  0
 11 22  1  0  0  0  0
 12 26  1  0  0  0  0
 13 27  1  0  0  0  0
 14 15  2  0  0  0  0
 15 16  1  0  0  0  0
 16 20  1  0  0  0  0
 16 21  2  0  0  0  0
 17 22  1  0  0  0  0
 18 23  1  0  0  0  0
 18 24  1  0  0  0  0
 18 25  1  0  0  0  0
  2 28  1  0  0  0  0
  3 29  1  0  0  0  0
  4 30  1  0  0  0  0
  5 31  1  0  0  0  0
  6 32  1  0  0  0  0
  7 33  1  0  0  0  0
 14 34  1  0  0  0  0
 17 35  1  0  0  0  0
 17 36  1  0  0  0  0
 17 37  1  0  0  0  0
 20 38  1  0  0  0  0
M  END
> <Catalog ID>
Z44308418

> <MW>
459.644

> <MW (desalted)>
459.644

> <ClogP>
4.966

> <logS>
-6.93

> <HBD>
1

> <HBA>
3

> <TPSA>
62.12

> <RotBonds>
5

> <ROCS_ShapeQuery>
A71EV2A-x0451_0A_A71EV2A-x0310_0A_A71EV2A-x0416_0A_peptide

> <ROCS_TanimotoCombo>
0.519 

> <ROCS_ShapeTanimoto>
0.362 

> <ROCS_ColorTanimoto>
0.157 

> <ROCS_RefTversky>
0.323 

> <ROCS_RefColorTversky>
0.172 

> <ROCS_RefTverskyCombo>
0.495 

> <ROCS_FitTversky>
1.503 

> <ROCS_FitColorTversky>
0.637 

> <ROCS_FitTverskyCombo>
2.139 

> <ROCS_ColorScore>
-5.245

> <ROCS_Overlap>
2247.829

> <ROCS_Rank>
459                 

$$$$
untitled-dbase-9363_5010
  -OEChem-11132309573D

 49 50  0     0  0  0  0  0  0999 V2000
    4.7792   11.9736   29.3552 C   0  0  0  0  0  0  0  0  0  0  0  0
    4.3137   13.0704   28.6301 C   0  0  0  0  0  0  0  0  0  0  0  0
    5.7142   11.1080   28.7873 C   0  0  0  0  0  0  0  0  0  0  0  0
    4.7830   13.3018   27.3371 C   0  0  0  0  0  0  0  0  0  0  0  0
    6.1835   11.3393   27.4943 C   0  0  0  0  0  0  0  0  0  0  0  0
    9.0893   10.1792   23.5083 C   0  0  0  0  0  0  0  0  0  0  0  0
    7.8671    9.6450   23.9165 C   0  0  0  0  0  0  0  0  0  0  0  0
    8.4173   12.3478   24.3344 C   0  0  0  0  0  0  0  0  0  0  0  0
    5.7179   12.4362   26.7691 C   0  0  0  0  0  0  0  0  0  0  0  0
    7.1951   11.8137   24.7425 C   0  0  0  0  0  0  0  0  0  0  0  0
    9.3644   11.5306   23.7174 C   0  0  0  0  0  0  0  0  0  0  0  0
    6.9200   10.4622   24.5335 C   0  0  0  0  0  0  0  0  0  0  0  0
   14.4693   16.3648   20.5111 C   0  0  0  0  0  0  0  0  0  0  0  0
   13.2676   16.6916   20.9977 C   0  0  0  0  0  0  0  0  0  0  0  0
    6.2202   12.6839   25.3850 C   0  0  0  0  0  0  0  0  0  0  0  0
   12.6512   15.8715   22.0792 C   0  0  0  0  0  0  0  0  0  0  0  0
   11.0424   13.3874   23.4323 C   0  0  0  0  0  0  0  0  0  0  0  0
   10.6519   13.9843   20.1984 C   0  0  0  0  0  0  0  0  0  0  0  0
    5.5376    8.5320   24.6704 C   0  0  0  0  0  0  0  0  0  0  0  0
   12.4364   13.5418   22.8558 C   0  0  0  0  0  0  0  0  0  0  0  0
   12.1212   13.9998   20.4504 C   0  0  0  0  0  0  0  0  0  0  0  0
   10.6047   12.0719   23.3032 N   0  0  0  0  0  0  0  0  0  0  0  0
   12.4226   14.5253   21.7805 N   0  0  0  0  0  0  0  0  0  0  0  0
    5.7750   13.6717   24.7839 O   0  0  0  0  0  0  0  0  0  0  0  0
   12.3539   16.3994   23.1521 O   0  0  0  0  0  0  0  0  0  0  0  0
   10.4371   14.3261   23.9399 O   0  0  0  0  0  0  0  0  0  0  0  0
    5.7316    9.9216   24.9244 O   0  0  0  0  0  0  0  0  0  0  0  0
    4.4138   11.7935   30.3619 H   0  0  0  0  0  0  0  0  0  0  0  0
    3.5856   13.7441   29.0724 H   0  0  0  0  0  0  0  0  0  0  0  0
    6.0769   10.2541   29.3519 H   0  0  0  0  0  0  0  0  0  0  0  0
    4.4136   14.1595   26.7810 H   0  0  0  0  0  0  0  0  0  0  0  0
    6.9119   10.6582   27.0618 H   0  0  0  0  0  0  0  0  0  0  0  0
    9.8201    9.5330   23.0287 H   0  0  0  0  0  0  0  0  0  0  0  0
    7.6592    8.5914   23.7507 H   0  0  0  0  0  0  0  0  0  0  0  0
    8.6315   13.4022   24.4968 H   0  0  0  0  0  0  0  0  0  0  0  0
   14.9557   16.9319   19.7251 H   0  0  0  0  0  0  0  0  0  0  0  0
   14.9994   15.5051   20.9078 H   0  0  0  0  0  0  0  0  0  0  0  0
   12.7624   17.5760   20.6296 H   0  0  0  0  0  0  0  0  0  0  0  0
   10.2556   15.0076   20.2737 H   0  0  0  0  0  0  0  0  0  0  0  0
   10.4570   13.5889   19.1906 H   0  0  0  0  0  0  0  0  0  0  0  0
   10.1587   13.3444   20.9450 H   0  0  0  0  0  0  0  0  0  0  0  0
    4.5513    8.2292   25.0304 H   0  0  0  0  0  0  0  0  0  0  0  0
    6.3153    7.9558   25.1781 H   0  0  0  0  0  0  0  0  0  0  0  0
    5.6001    8.3552   23.5940 H   0  0  0  0  0  0  0  0  0  0  0  0
   12.7844   12.5796   22.4669 H   0  0  0  0  0  0  0  0  0  0  0  0
   13.1156   13.8685   23.6494 H   0  0  0  0  0  0  0  0  0  0  0  0
   12.5095   12.9735   20.3734 H   0  0  0  0  0  0  0  0  0  0  0  0
   12.6084   14.6338   19.6950 H   0  0  0  0  0  0  0  0  0  0  0  0
   11.2410   11.4116   22.8616 H   0  0  0  0  0  0  0  0  0  0  0  0
  1  2  1  0  0  0  0
  1  3  2  0  0  0  0
  2  4  2  0  0  0  0
  3  5  1  0  0  0  0
  4  9  1  0  0  0  0
  5  9  2  0  0  0  0
  6  7  2  0  0  0  0
  6 11  1  0  0  0  0
  7 12  1  0  0  0  0
  8 10  1  0  0  0  0
  8 11  2  0  0  0  0
  9 15  1  0  0  0  0
 10 12  2  0  0  0  0
 10 15  1  0  0  0  0
 11 22  1  0  0  0  0
 12 27  1  0  0  0  0
 13 14  2  0  0  0  0
 14 16  1  0  0  0  0
 15 24  2  0  0  0  0
 16 23  1  0  0  0  0
 16 25  2  0  0  0  0
 17 20  1  0  0  0  0
 17 22  1  0  0  0  0
 17 26  2  0  0  0  0
 18 21  1  0  0  0  0
 19 27  1  0  0  0  0
 20 23  1  0  0  0  0
 21 23  1  0  0  0  0
  1 28  1  0  0  0  0
  2 29  1  0  0  0  0
  3 30  1  0  0  0  0
  4 31  1  0  0  0  0
  5 32  1  0  0  0  0
  6 33  1  0  0  0  0
  7 34  1  0  0  0  0
  8 35  1  0  0  0  0
 13 36  1  0  0  0  0
 13 37  1  0  0  0  0
 14 38  1  0  0  0  0
 18 39  1  0  0  0  0
 18 40  1  0  0  0  0
 18 41  1  0  0  0  0
 19 42  1  0  0  0  0
 19 43  1  0  0  0  0
 19 44  1  0  0  0  0
 20 45  1  0  0  0  0
 20 46  1  0  0  0  0
 21 47  1  0  0  0  0
 21 48  1  0  0  0  0
 22 49  1  0  0  0  0
M  END
> <Catalog ID>
Z3756168007

> <MW>
366.41

> <MW (desalted)>
366.41

> <ClogP>
3.186

> <logS>
-4.993

> <HBD>
1

> <HBA>
4

> <TPSA>
75.71

> <RotBonds>
8

> <ROCS_ShapeQuery>
A71EV2A-x0451_0A_A71EV2A-x0310_0A_A71EV2A-x0416_0A_peptide

> <ROCS_TanimotoCombo>
0.519 

> <ROCS_ShapeTanimoto>
0.355 

> <ROCS_ColorTanimoto>
0.164 

> <ROCS_RefTversky>
0.319 

> <ROCS_RefColorTversky>
0.183 

> <ROCS_RefTverskyCombo>
0.502 

> <ROCS_FitTversky>
1.477 

> <ROCS_FitColorTversky>
0.608 

> <ROCS_FitTverskyCombo>
2.085 

> <ROCS_ColorScore>
-5.583

> <ROCS_Overlap>
2217.696

> <ROCS_Rank>
460                 

$$$$
untitled-dbase-2502_250
  -OEChem-11132309573D

 41 43  0     0  0  0  0  0  0999 V2000
   11.5869   14.9895   21.0334 C   0  0  0  0  0  0  0  0  0  0  0  0
   13.2994   11.6993   23.6114 C   0  0  0  0  0  0  0  0  0  0  0  0
   13.7599   10.8992   24.6599 C   0  0  0  0  0  0  0  0  0  0  0  0
   14.6458   13.5717   24.3919 C   0  0  0  0  0  0  0  0  0  0  0  0
    8.4499   12.2930   24.1947 C   0  0  0  0  0  0  0  0  0  0  0  0
    8.4757    9.5065   24.0643 C   0  0  0  0  0  0  0  0  0  0  0  0
   13.7398   13.0278   23.4781 C   0  0  0  0  0  0  0  0  0  0  0  0
    7.4831   11.5540   24.8764 C   0  0  0  0  0  0  0  0  0  0  0  0
    9.4296   11.6388   23.4477 C   0  0  0  0  0  0  0  0  0  0  0  0
   14.6540   11.4603   25.5484 C   0  0  0  0  0  0  0  0  0  0  0  0
   15.0852   12.7606   25.4179 C   0  0  0  0  0  0  0  0  0  0  0  0
    9.4425   10.2455   23.3826 C   0  0  0  0  0  0  0  0  0  0  0  0
    7.4960   10.1607   24.8112 C   0  0  0  0  0  0  0  0  0  0  0  0
   13.2455   13.8426   22.3787 C   0  0  0  0  0  0  0  0  0  0  0  0
   11.9505   14.1801   22.1524 C   0  0  0  0  0  0  0  0  0  0  0  0
   10.9148   13.6462   23.1189 C   0  0  0  0  0  0  0  0  0  0  0  0
   16.0357   11.8917   27.1567 C   0  0  0  0  0  0  0  0  0  0  0  0
    6.4498   12.2924   25.6643 C   0  0  0  0  0  0  0  0  0  0  0  0
   10.3250    8.1625   22.6492 C   0  0  0  0  0  0  0  0  0  0  0  0
   11.2865   15.6463   20.1249 N   0  0  0  0  0  0  0  0  0  0  0  0
   10.4057   12.4032   22.7591 N   0  0  0  0  0  0  0  0  0  0  0  0
   10.5953   14.2986   24.1096 O   0  0  0  0  0  0  0  0  0  0  0  0
   15.2081   10.8375   26.6241 O   0  0  0  0  0  0  0  0  0  0  0  0
   15.9629   13.1149   26.3958 O   0  0  0  0  0  0  0  0  0  0  0  0
   10.3905    9.5868   22.6578 O   0  0  0  0  0  0  0  0  0  0  0  0
    6.3167    9.2138   25.6429 Cl  0  0  0  0  0  0  0  0  0  0  0  0
   12.5939   11.2776   22.8984 H   0  0  0  0  0  0  0  0  0  0  0  0
   13.4224    9.8746   24.7666 H   0  0  0  0  0  0  0  0  0  0  0  0
   14.9973   14.5947   24.3054 H   0  0  0  0  0  0  0  0  0  0  0  0
    8.4376   13.3798   24.2454 H   0  0  0  0  0  0  0  0  0  0  0  0
    8.4941    8.4204   24.0067 H   0  0  0  0  0  0  0  0  0  0  0  0
   14.0297   14.2078   21.7085 H   0  0  0  0  0  0  0  0  0  0  0  0
   15.7210   12.0992   28.1859 H   0  0  0  0  0  0  0  0  0  0  0  0
   17.0764   11.5480   27.1692 H   0  0  0  0  0  0  0  0  0  0  0  0
    5.5794   12.5117   25.0358 H   0  0  0  0  0  0  0  0  0  0  0  0
    6.1186   11.7057   26.5295 H   0  0  0  0  0  0  0  0  0  0  0  0
    6.8492   13.2373   26.0522 H   0  0  0  0  0  0  0  0  0  0  0  0
   11.1362    7.7633   22.0355 H   0  0  0  0  0  0  0  0  0  0  0  0
    9.3596    7.8436   22.2481 H   0  0  0  0  0  0  0  0  0  0  0  0
   10.4311    7.7956   23.6728 H   0  0  0  0  0  0  0  0  0  0  0  0
   10.7757   11.9957   21.9045 H   0  0  0  0  0  0  0  0  0  0  0  0
  1 15  1  0  0  0  0
  1 20  3  0  0  0  0
  2  3  2  0  0  0  0
  2  7  1  0  0  0  0
  3 10  1  0  0  0  0
  4  7  2  0  0  0  0
  4 11  1  0  0  0  0
  5  8  2  0  0  0  0
  5  9  1  0  0  0  0
  6 12  1  0  0  0  0
  6 13  2  0  0  0  0
  7 14  1  4  0  0  0
  8 13  1  0  0  0  0
  8 18  1  0  0  0  0
  9 12  2  0  0  0  0
  9 21  1  0  0  0  0
 10 11  2  0  0  0  0
 10 23  1  0  0  0  0
 11 24  1  0  0  0  0
 12 25  1  0  0  0  0
 13 26  1  0  0  0  0
 14 15  2  0  0  0  0
 15 16  1  0  0  0  0
 16 21  1  0  0  0  0
 16 22  2  0  0  0  0
 17 23  1  0  0  0  0
 17 24  1  0  0  0  0
 19 25  1  0  0  0  0
  2 27  1  0  0  0  0
  3 28  1  0  0  0  0
  4 29  1  0  0  0  0
  5 30  1  0  0  0  0
  6 31  1  0  0  0  0
 14 32  1  0  0  0  0
 17 33  1  0  0  0  0
 17 34  1  0  0  0  0
 18 35  1  0  0  0  0
 18 36  1  0  0  0  0
 18 37  1  0  0  0  0
 19 38  1  0  0  0  0
 19 39  1  0  0  0  0
 19 40  1  0  0  0  0
 21 41  1  0  0  0  0
M  END
> <Catalog ID>
Z44321526

> <MW>
370.786

> <MW (desalted)>
370.786

> <ClogP>
3.847

> <logS>
-5.79

> <HBD>
1

> <HBA>
5

> <TPSA>
80.58

> <RotBonds>
4

> <ROCS_ShapeQuery>
A71EV2A-x0451_0A_A71EV2A-x0310_0A_A71EV2A-x0416_0A_peptide

> <ROCS_TanimotoCombo>
0.519 

> <ROCS_ShapeTanimoto>
0.372 

> <ROCS_ColorTanimoto>
0.147 

> <ROCS_RefTversky>
0.329 

> <ROCS_RefColorTversky>
0.171 

> <ROCS_RefTverskyCombo>
0.500 

> <ROCS_FitTversky>
1.543 

> <ROCS_FitColorTversky>
0.513 

> <ROCS_FitTverskyCombo>
2.056 

> <ROCS_ColorScore>
-5.218

> <ROCS_Overlap>
2288.425

> <ROCS_Rank>
461                 

$$$$
untitled-dbase-11043_955
  -OEChem-11132309573D

 46 49  0     0  0  0  0  0  0999 V2000
   11.9489   12.7782   24.5309 C   0  0  0  0  0  0  0  0  0  0  0  0
    6.3948   11.9447   27.7286 C   0  0  0  0  0  0  0  0  0  0  0  0
    4.3780   11.8520   26.4015 C   0  0  0  0  0  0  0  0  0  0  0  0
    5.7611   12.7977   28.6321 C   0  0  0  0  0  0  0  0  0  0  0  0
    3.7443   12.7050   27.3050 C   0  0  0  0  0  0  0  0  0  0  0  0
   13.2917   17.0440   19.3777 C   0  0  0  0  0  0  0  0  0  0  0  0
   13.0305   16.2488   18.2816 C   0  0  0  0  0  0  0  0  0  0  0  0
    5.7033   11.4718   26.6132 C   0  0  0  0  0  0  0  0  0  0  0  0
    9.1719   12.0750   23.8261 C   0  0  0  0  0  0  0  0  0  0  0  0
    7.9350   12.1837   24.5072 C   0  0  0  0  0  0  0  0  0  0  0  0
    4.4358   13.1779   28.4203 C   0  0  0  0  0  0  0  0  0  0  0  0
    9.5300   10.7439   23.8331 C   0  0  0  0  0  0  0  0  0  0  0  0
    7.5684   10.9184   24.9126 C   0  0  0  0  0  0  0  0  0  0  0  0
   12.3889   15.3366   20.4167 C   0  0  0  0  0  0  0  0  0  0  0  0
   10.6381   10.0065   23.3238 C   0  0  0  0  0  0  0  0  0  0  0  0
   10.6889    8.6727   23.5050 C   0  0  0  0  0  0  0  0  0  0  0  0
    9.6359    7.9612   24.2109 C   0  0  0  0  0  0  0  0  0  0  0  0
    8.5895    8.6514   24.6926 C   0  0  0  0  0  0  0  0  0  0  0  0
    9.9213   13.1200   23.2386 C   0  0  0  0  0  0  0  0  0  0  0  0
   11.2176   13.4957   23.5360 C   0  0  0  0  0  0  0  0  0  0  0  0
    6.3873   10.5513   25.6386 C   0  0  0  0  0  0  0  0  0  0  0  0
   11.8315   14.6517   22.7755 C   0  0  0  0  0  0  0  0  0  0  0  0
    7.1706   13.4286   24.7435 C   0  0  0  0  0  0  0  0  0  0  0  0
   12.5475   12.1976   25.3381 N   0  0  0  0  0  0  0  0  0  0  0  0
   12.9242   16.5227   20.6028 N   0  0  0  0  0  0  0  0  0  0  0  0
    8.5395   10.0329   24.5037 N   0  0  0  0  0  0  0  0  0  0  0  0
   11.8768   14.4523   21.4001 N   0  0  0  0  0  0  0  0  0  0  0  0
    5.8628    9.4260   25.4908 O   0  0  0  0  0  0  0  0  0  0  0  0
   12.2351   15.6451   23.3752 O   0  0  0  0  0  0  0  0  0  0  0  0
    3.8272   13.9969   29.2879 F   0  0  0  0  0  0  0  0  0  0  0  0
   12.2966   14.7859   18.7940 S   0  0  0  0  0  0  0  0  0  0  0  0
    7.4276   11.6548   27.9033 H   0  0  0  0  0  0  0  0  0  0  0  0
    3.8294   11.4889   25.5359 H   0  0  0  0  0  0  0  0  0  0  0  0
    6.2992   13.1658   29.5005 H   0  0  0  0  0  0  0  0  0  0  0  0
    2.7124   13.0015   27.1400 H   0  0  0  0  0  0  0  0  0  0  0  0
   13.7543   18.0209   19.3377 H   0  0  0  0  0  0  0  0  0  0  0  0
   13.2314   16.4496   17.2391 H   0  0  0  0  0  0  0  0  0  0  0  0
   11.4336   10.5195   22.7939 H   0  0  0  0  0  0  0  0  0  0  0  0
   11.5233    8.0926   23.1264 H   0  0  0  0  0  0  0  0  0  0  0  0
    9.7187    6.8883   24.3337 H   0  0  0  0  0  0  0  0  0  0  0  0
    7.7771    8.1732   25.2265 H   0  0  0  0  0  0  0  0  0  0  0  0
    9.4100   13.6913   22.4336 H   0  0  0  0  0  0  0  0  0  0  0  0
    6.4665   13.6205   23.9191 H   0  0  0  0  0  0  0  0  0  0  0  0
    6.5910   13.3825   25.6796 H   0  0  0  0  0  0  0  0  0  0  0  0
    7.8325   14.3051   24.8342 H   0  0  0  0  0  0  0  0  0  0  0  0
   11.4997   13.5715   21.0606 H   0  0  0  0  0  0  0  0  0  0  0  0
  1 20  1  0  0  0  0
  1 24  3  0  0  0  0
  2  4  2  0  0  0  0
  2  8  1  0  0  0  0
  3  5  1  0  0  0  0
  3  8  2  0  0  0  0
  4 11  1  0  0  0  0
  5 11  2  0  0  0  0
  6  7  2  0  0  0  0
  6 25  1  0  0  0  0
  7 31  1  0  0  0  0
  8 21  1  0  0  0  0
  9 10  1  0  0  0  0
  9 12  2  0  0  0  0
  9 19  1  4  0  0  0
 10 13  2  0  0  0  0
 10 23  1  0  0  0  0
 11 30  1  0  0  0  0
 12 15  1  0  0  0  0
 12 26  1  0  0  0  0
 13 21  1  0  0  0  0
 13 26  1  0  0  0  0
 14 25  2  0  0  0  0
 14 27  1  0  0  0  0
 14 31  1  0  0  0  0
 15 16  2  0  0  0  0
 16 17  1  0  0  0  0
 17 18  2  0  0  0  0
 18 26  1  0  0  0  0
 19 20  2  0  0  0  0
 20 22  1  0  0  0  0
 21 28  2  0  0  0  0
 22 27  1  0  0  0  0
 22 29  2  0  0  0  0
  2 32  1  0  0  0  0
  3 33  1  0  0  0  0
  4 34  1  0  0  0  0
  5 35  1  0  0  0  0
  6 36  1  0  0  0  0
  7 37  1  0  0  0  0
 15 38  1  0  0  0  0
 16 39  1  0  0  0  0
 17 40  1  0  0  0  0
 18 41  1  0  0  0  0
 19 42  1  0  0  0  0
 23 43  1  0  0  0  0
 23 44  1  0  0  0  0
 23 45  1  0  0  0  0
 27 46  1  0  0  0  0
M  END
> <Catalog ID>
Z46523556

> <MW>
430.454

> <MW (desalted)>
430.454

> <ClogP>
4.56

> <logS>
-6.56

> <HBD>
1

> <HBA>
4

> <TPSA>
87.26

> <RotBonds>
5

> <ROCS_ShapeQuery>
A71EV2A-x0451_0A_A71EV2A-x0310_0A_A71EV2A-x0416_0A_peptide

> <ROCS_TanimotoCombo>
0.519 

> <ROCS_ShapeTanimoto>
0.410 

> <ROCS_ColorTanimoto>
0.109 

> <ROCS_RefTversky>
0.362 

> <ROCS_RefColorTversky>
0.131 

> <ROCS_RefTverskyCombo>
0.493 

> <ROCS_FitTversky>
1.476 

> <ROCS_FitColorTversky>
0.394 

> <ROCS_FitTverskyCombo>
1.870 

> <ROCS_ColorScore>
-3.998

> <ROCS_Overlap>
2523.492

> <ROCS_Rank>
462                 

$$$$
untitled-dbase-6561_14082
  -OEChem-11132309573D

 62 65  0     1  0  0  0  0  0999 V2000
   11.8613   15.7602   22.9743 C   0  0  0  0  0  0  0  0  0  0  0  0
    3.4479   13.0962   28.6177 C   0  0  0  0  0  0  0  0  0  0  0  0
    4.2183   13.7884   27.6834 C   0  0  0  0  0  0  0  0  0  0  0  0
    3.8345   11.8221   29.0338 C   0  0  0  0  0  0  0  0  0  0  0  0
    5.3752   13.2065   27.1650 C   0  0  0  0  0  0  0  0  0  0  0  0
    4.9914   11.2403   28.5155 C   0  0  0  0  0  0  0  0  0  0  0  0
   13.8798   15.6915   20.3822 C   0  0  0  0  0  0  0  0  0  0  0  0
   12.5968   15.1242   20.1837 C   0  0  0  0  0  0  0  0  0  0  0  0
    5.7617   11.9325   27.5811 C   0  0  0  0  0  0  0  0  0  0  0  0
   14.1631   16.4644   19.2778 C   0  0  0  0  0  0  0  0  0  0  0  0
   12.1353   15.5676   18.9639 C   0  0  0  0  0  0  0  0  0  0  0  0
    9.0825    9.8818   24.5804 C   0  0  0  0  0  0  0  0  0  0  0  0
   11.8731   14.2257   21.0965 C   0  0  0  0  0  0  0  0  0  0  0  0
   11.5272   14.5121   22.3669 C   0  0  0  0  0  0  0  0  0  0  0  0
   10.7893   13.4383   23.1255 C   0  0  0  0  0  0  0  0  0  0  0  0
   10.0539   10.4909   23.5950 C   0  0  0  0  0  0  0  0  0  0  0  0
    7.0708    9.8112   26.9032 C   0  0  0  0  0  0  0  0  0  0  0  0
    8.2061   11.9818   23.9365 C   0  0  0  0  0  0  0  0  0  0  0  0
    6.9904   11.3132   27.0298 C   0  0  1  0  0  0  0  0  0  0  0  0
    6.9384   10.6512   25.6674 C   0  0  1  0  0  0  0  0  0  0  0  0
    9.2051   11.5401   22.8814 C   0  0  1  0  0  0  0  0  0  0  0  0
   15.3612   17.2723   18.9704 C   0  0  0  0  0  0  0  0  0  0  0  0
   10.8628   15.2906   18.2607 C   0  0  0  0  0  0  0  0  0  0  0  0
   12.5521   19.2171   15.9412 C   0  0  0  0  0  0  0  0  0  0  0  0
   12.6612   18.5330   17.2940 C   0  0  0  0  0  0  0  0  0  0  0  0
   12.9986   17.0515   17.1425 C   0  0  0  0  0  0  0  0  0  0  0  0
   12.1314   16.7733   23.4718 N   0  0  0  0  0  0  0  0  0  0  0  0
   13.0957   16.3814   18.4222 N   0  0  0  0  0  0  0  0  0  0  0  0
    8.0339   10.7871   24.7322 N   0  0  0  0  0  0  0  0  0  0  0  0
    9.9799   12.6185   22.3420 N   0  0  0  0  0  0  0  0  0  0  0  0
    9.2492    8.8144   25.1515 O   0  0  0  0  0  0  0  0  0  0  0  0
   10.9090   13.3088   24.3429 O   0  0  0  0  0  0  0  0  0  0  0  0
    2.5472   13.5493   29.0214 H   0  0  0  0  0  0  0  0  0  0  0  0
    3.9176   14.7806   27.3593 H   0  0  0  0  0  0  0  0  0  0  0  0
    3.2343   11.2832   29.7613 H   0  0  0  0  0  0  0  0  0  0  0  0
    5.9683   13.7535   26.4371 H   0  0  0  0  0  0  0  0  0  0  0  0
    5.2834   10.2468   28.8459 H   0  0  0  0  0  0  0  0  0  0  0  0
   14.5303   15.5544   21.2358 H   0  0  0  0  0  0  0  0  0  0  0  0
   11.6427   13.2587   20.6547 H   0  0  0  0  0  0  0  0  0  0  0  0
   10.8813   10.9352   24.1585 H   0  0  0  0  0  0  0  0  0  0  0  0
   10.4327    9.7335   22.9038 H   0  0  0  0  0  0  0  0  0  0  0  0
    8.0263    9.3418   27.1073 H   0  0  0  0  0  0  0  0  0  0  0  0
    6.2154    9.2144   27.1981 H   0  0  0  0  0  0  0  0  0  0  0  0
    8.5997   12.7669   24.5915 H   0  0  0  0  0  0  0  0  0  0  0  0
    7.2531   12.2983   23.5018 H   0  0  0  0  0  0  0  0  0  0  0  0
    7.9202   11.8127   27.2895 H   0  0  0  0  0  0  0  0  0  0  0  0
    5.9793   10.6162   25.1609 H   0  0  0  0  0  0  0  0  0  0  0  0
    8.6723   11.0739   22.0430 H   0  0  0  0  0  0  0  0  0  0  0  0
   16.1130   16.6756   18.4293 H   0  0  0  0  0  0  0  0  0  0  0  0
   15.1182   18.1505   18.3490 H   0  0  0  0  0  0  0  0  0  0  0  0
   15.8383   17.6664   19.8835 H   0  0  0  0  0  0  0  0  0  0  0  0
   10.0941   16.0303   18.5324 H   0  0  0  0  0  0  0  0  0  0  0  0
   10.9855   15.3165   17.1660 H   0  0  0  0  0  0  0  0  0  0  0  0
   10.4702   14.2898   18.5030 H   0  0  0  0  0  0  0  0  0  0  0  0
   11.7896   18.7371   15.3196 H   0  0  0  0  0  0  0  0  0  0  0  0
   13.5076   19.1620   15.4102 H   0  0  0  0  0  0  0  0  0  0  0  0
   12.2876   20.2731   16.0560 H   0  0  0  0  0  0  0  0  0  0  0  0
   13.4311   19.0355   17.8918 H   0  0  0  0  0  0  0  0  0  0  0  0
   11.7150   18.6504   17.8359 H   0  0  0  0  0  0  0  0  0  0  0  0
   13.9548   16.9170   16.6229 H   0  0  0  0  0  0  0  0  0  0  0  0
   12.2345   16.5322   16.5519 H   0  0  0  0  0  0  0  0  0  0  0  0
    9.9368   12.7940   21.3377 H   0  0  0  0  0  0  0  0  0  0  0  0
  1 14  1  0  0  0  0
  1 27  3  0  0  0  0
  2  3  1  0  0  0  0
  2  4  2  0  0  0  0
  3  5  2  0  0  0  0
  4  6  1  0  0  0  0
  5  9  1  0  0  0  0
  6  9  2  0  0  0  0
  7  8  1  0  0  0  0
  7 10  2  0  0  0  0
  8 11  2  0  0  0  0
  8 13  1  4  0  0  0
  9 19  1  0  0  0  0
 10 22  1  0  0  0  0
 10 28  1  0  0  0  0
 11 23  1  0  0  0  0
 11 28  1  0  0  0  0
 12 16  1  0  0  0  0
 12 29  1  0  0  0  0
 12 31  2  0  0  0  0
 13 14  2  0  0  0  0
 14 15  1  0  0  0  0
 15 30  1  0  0  0  0
 15 32  2  0  0  0  0
 16 21  1  0  0  0  0
 17 19  1  0  0  0  0
 17 20  1  0  0  0  0
 18 21  1  0  0  0  0
 18 29  1  0  0  0  0
 19 20  1  0  0  0  0
 20 29  1  0  0  0  0
 21 30  1  0  0  0  0
 24 25  1  0  0  0  0
 25 26  1  0  0  0  0
 26 28  1  0  0  0  0
  2 33  1  0  0  0  0
  3 34  1  0  0  0  0
  4 35  1  0  0  0  0
  5 36  1  0  0  0  0
  6 37  1  0  0  0  0
  7 38  1  0  0  0  0
 13 39  1  0  0  0  0
 16 40  1  0  0  0  0
 16 41  1  0  0  0  0
 17 42  1  0  0  0  0
 17 43  1  0  0  0  0
 18 44  1  0  0  0  0
 18 45  1  0  0  0  0
 19 46  1  0  0  0  0
 20 47  1  0  0  0  0
 21 48  1  0  0  0  0
 22 49  1  0  0  0  0
 22 50  1  0  0  0  0
 22 51  1  0  0  0  0
 23 52  1  0  0  0  0
 23 53  1  0  0  0  0
 23 54  1  0  0  0  0
 24 55  1  0  0  0  0
 24 56  1  0  0  0  0
 24 57  1  0  0  0  0
 25 58  1  0  0  0  0
 25 59  1  0  0  0  0
 26 60  1  0  0  0  0
 26 61  1  0  0  0  0
 30 62  1  0  0  0  0
M  END
> <Catalog ID>
Z1275887161

> <MW>
430.542

> <MW (desalted)>
430.542

> <ClogP>
4.568

> <logS>
-4.459

> <HBD>
1

> <HBA>
3

> <TPSA>
78.13

> <RotBonds>
7

> <ROCS_ShapeQuery>
A71EV2A-x0451_0A_A71EV2A-x0310_0A_A71EV2A-x0416_0A_peptide

> <ROCS_TanimotoCombo>
0.519 

> <ROCS_ShapeTanimoto>
0.339 

> <ROCS_ColorTanimoto>
0.180 

> <ROCS_RefTversky>
0.316 

> <ROCS_RefColorTversky>
0.198 

> <ROCS_RefTverskyCombo>
0.514 

> <ROCS_FitTversky>
1.279 

> <ROCS_FitColorTversky>
0.659 

> <ROCS_FitTverskyCombo>
1.938 

> <ROCS_ColorScore>
-6.052

> <ROCS_Overlap>
2200.101

> <ROCS_Rank>
463                 

$$$$
untitled-dbase-64_480
  -OEChem-11132309573D

 34 35  0     0  0  0  0  0  0999 V2000
    6.9992   12.4545   25.2256 C   0  0  0  0  0  0  0  0  0  0  0  0
    8.4905   11.5853   24.0395 C   0  0  0  0  0  0  0  0  0  0  0  0
    9.3483    8.9180   24.0410 C   0  0  0  0  0  0  0  0  0  0  0  0
    8.3714    9.2939   24.8790 C   0  0  0  0  0  0  0  0  0  0  0  0
    9.5330   11.1855   23.1446 C   0  0  0  0  0  0  0  0  0  0  0  0
    9.9570    9.8979   23.1357 C   0  0  0  0  0  0  0  0  0  0  0  0
   14.8028   17.0607   22.2325 C   0  0  0  0  0  0  0  0  0  0  0  0
   14.7270   15.8274   22.7361 C   0  0  0  0  0  0  0  0  0  0  0  0
   10.6521   13.3139   22.8140 C   0  0  0  0  0  0  0  0  0  0  0  0
   11.0377    9.3317   22.2562 C   0  0  0  0  0  0  0  0  0  0  0  0
   11.1186   14.2060   21.6736 C   0  0  0  0  0  0  0  0  0  0  0  0
   12.6161   14.4631   21.6747 C   0  0  0  0  0  0  0  0  0  0  0  0
    7.9017   12.7436   24.2505 N   0  0  0  0  0  0  0  0  0  0  0  0
    6.9770   11.1914   25.6459 N   0  0  0  0  0  0  0  0  0  0  0  0
    7.9404   10.6168   24.8836 N   0  0  0  0  0  0  0  0  0  0  0  0
   10.0444   12.1614   22.3358 N   0  0  0  0  0  0  0  0  0  0  0  0
   10.7898   13.6110   23.9979 O   0  0  0  0  0  0  0  0  0  0  0  0
   13.3178   14.1882   24.1669 O   0  0  0  0  0  0  0  0  0  0  0  0
   12.2856   16.3641   23.4227 O   0  0  0  0  0  0  0  0  0  0  0  0
   13.1605   15.2322   23.1684 S   0  0  0  0  0  0  0  0  0  0  0  0
    6.3314   13.1906   25.6473 H   0  0  0  0  0  0  0  0  0  0  0  0
    9.6967    7.8911   24.0228 H   0  0  0  0  0  0  0  0  0  0  0  0
    7.8902    8.6085   25.5659 H   0  0  0  0  0  0  0  0  0  0  0  0
   15.7647   17.4740   21.9482 H   0  0  0  0  0  0  0  0  0  0  0  0
   13.9261   17.6836   22.0910 H   0  0  0  0  0  0  0  0  0  0  0  0
   15.6036   15.2076   22.8766 H   0  0  0  0  0  0  0  0  0  0  0  0
   10.5958    8.9711   21.3318 H   0  0  0  0  0  0  0  0  0  0  0  0
   11.5292    8.5121   22.7733 H   0  0  0  0  0  0  0  0  0  0  0  0
   11.7661   10.1079   22.0377 H   0  0  0  0  0  0  0  0  0  0  0  0
   10.8081   13.7591   20.7218 H   0  0  0  0  0  0  0  0  0  0  0  0
   10.5930   15.1625   21.7819 H   0  0  0  0  0  0  0  0  0  0  0  0
   12.9285   15.1061   20.8470 H   0  0  0  0  0  0  0  0  0  0  0  0
   13.1619   13.5170   21.6061 H   0  0  0  0  0  0  0  0  0  0  0  0
    9.9760   12.0364   21.3306 H   0  0  0  0  0  0  0  0  0  0  0  0
  1 13  1  0  0  0  0
  1 14  2  0  0  0  0
  2  5  1  0  0  0  0
  2 13  2  0  0  0  0
  2 15  1  0  0  0  0
  3  4  2  0  0  0  0
  3  6  1  0  0  0  0
  4 15  1  0  0  0  0
  5  6  2  0  0  0  0
  5 16  1  0  0  0  0
  6 10  1  0  0  0  0
  7  8  2  0  0  0  0
  8 20  1  0  0  0  0
  9 11  1  0  0  0  0
  9 16  1  0  0  0  0
  9 17  2  0  0  0  0
 11 12  1  0  0  0  0
 12 20  1  0  0  0  0
 14 15  1  0  0  0  0
 18 20  2  0  0  0  0
 19 20  2  0  0  0  0
  1 21  1  0  0  0  0
  3 22  1  0  0  0  0
  4 23  1  0  0  0  0
  7 24  1  0  0  0  0
  7 25  1  0  0  0  0
  8 26  1  0  0  0  0
 10 27  1  0  0  0  0
 10 28  1  0  0  0  0
 10 29  1  0  0  0  0
 11 30  1  0  0  0  0
 11 31  1  0  0  0  0
 12 32  1  0  0  0  0
 12 33  1  0  0  0  0
 16 34  1  0  0  0  0
M  END
> <Catalog ID>
Z3015820963

> <MW>
294.33

> <MW (desalted)>
294.33

> <ClogP>
-0.638

> <logS>
-2.212

> <HBD>
1

> <HBA>
5

> <TPSA>
93.43

> <RotBonds>
5

> <ROCS_ShapeQuery>
A71EV2A-x0451_0A_A71EV2A-x0310_0A_A71EV2A-x0416_0A_peptide

> <ROCS_TanimotoCombo>
0.519 

> <ROCS_ShapeTanimoto>
0.326 

> <ROCS_ColorTanimoto>
0.193 

> <ROCS_RefTversky>
0.288 

> <ROCS_RefColorTversky>
0.211 

> <ROCS_RefTverskyCombo>
0.499 

> <ROCS_FitTversky>
1.662 

> <ROCS_FitColorTversky>
0.698 

> <ROCS_FitTverskyCombo>
2.360 

> <ROCS_ColorScore>
-6.436

> <ROCS_Overlap>
2000.822

> <ROCS_Rank>
464                 

$$$$
untitled-dbase-4650_1048
  -OEChem-11132309573D

 53 56  0     1  0  0  0  0  0999 V2000
    9.4485    9.3390   22.9989 C   0  0  0  0  0  0  0  0  0  0  0  0
    9.8069   10.5864   22.4551 C   0  0  0  0  0  0  0  0  0  0  0  0
    8.5677    9.2575   24.0784 C   0  0  0  0  0  0  0  0  0  0  0  0
    9.3846   13.3022   21.0692 C   0  0  0  0  0  0  0  0  0  0  0  0
   10.3816   15.4935   21.2724 C   0  0  0  0  0  0  0  0  0  0  0  0
    9.2904   11.7751   22.9816 C   0  0  0  0  0  0  0  0  0  0  0  0
    9.6684   13.0486   22.4111 C   0  0  0  0  0  0  0  0  0  0  0  0
    8.0721   10.4456   24.5792 C   0  0  0  0  0  0  0  0  0  0  0  0
    9.7412   14.5246   20.4998 C   0  0  0  0  0  0  0  0  0  0  0  0
    8.4184   11.6897   24.0503 C   0  0  0  0  0  0  0  0  0  0  0  0
   10.6654   15.2399   22.6144 C   0  0  0  0  0  0  0  0  0  0  0  0
   10.3088   14.0174   23.1837 C   0  0  0  0  0  0  0  0  0  0  0  0
    7.1409   10.6601   25.6925 C   0  0  0  0  0  0  0  0  0  0  0  0
    4.3812   12.7055   29.0757 C   0  0  0  0  0  0  0  0  0  0  0  0
    6.6887   12.4280   28.1302 C   0  0  0  0  0  0  0  0  0  0  0  0
    9.4485   14.7886   19.0999 C   0  0  0  0  0  0  0  0  0  0  0  0
    7.7288   12.7821   24.7940 C   0  0  0  0  0  0  0  0  0  0  0  0
    3.8462   12.9510   27.6850 C   0  0  0  0  0  0  0  0  0  0  0  0
    4.6839   12.2444   26.6349 C   0  0  0  0  0  0  0  0  0  0  0  0
    6.1281   12.7058   26.7468 C   0  0  2  0  0  0  0  0  0  0  0  0
   12.5436   18.0933   22.6058 C   0  0  0  0  0  0  0  0  0  0  0  0
   12.5839   16.6124   22.9171 C   0  0  0  0  0  0  0  0  0  0  0  0
   11.8504   13.1927   24.7963 C   0  0  0  0  0  0  0  0  0  0  0  0
    5.7513   12.4783   29.1614 N   0  0  0  0  0  0  0  0  0  0  0  0
    6.9654   12.0362   25.7874 N   0  0  0  0  0  0  0  0  0  0  0  0
    6.6561    9.7640   26.3586 O   0  0  0  0  0  0  0  0  0  0  0  0
    3.6489   12.7583   30.0636 O   0  0  0  0  0  0  0  0  0  0  0  0
    7.8883   12.2486   28.3401 O   0  0  0  0  0  0  0  0  0  0  0  0
    9.7382   15.8492   18.5393 O   0  0  0  0  0  0  0  0  0  0  0  0
   11.2930   16.1948   23.3565 O   0  0  0  0  0  0  0  0  0  0  0  0
   10.5932   13.7838   24.4982 O   0  0  0  0  0  0  0  0  0  0  0  0
   11.6958   12.4577   25.9278 F   0  0  0  0  0  0  0  0  0  0  0  0
   12.1777   12.3203   23.8116 F   0  0  0  0  0  0  0  0  0  0  0  0
    9.8635    8.4301   22.5715 H   0  0  0  0  0  0  0  0  0  0  0  0
   10.4963   10.6088   21.6134 H   0  0  0  0  0  0  0  0  0  0  0  0
    8.2898    8.2979   24.4987 H   0  0  0  0  0  0  0  0  0  0  0  0
    8.8860   12.5500   20.4610 H   0  0  0  0  0  0  0  0  0  0  0  0
   10.6612   16.4481   20.8328 H   0  0  0  0  0  0  0  0  0  0  0  0
    8.9391   13.9858   18.5237 H   0  0  0  0  0  0  0  0  0  0  0  0
    8.4334   13.4429   25.3071 H   0  0  0  0  0  0  0  0  0  0  0  0
    7.0371   13.3427   24.1591 H   0  0  0  0  0  0  0  0  0  0  0  0
    2.8147   12.5852   27.6398 H   0  0  0  0  0  0  0  0  0  0  0  0
    3.8333   14.0328   27.5116 H   0  0  0  0  0  0  0  0  0  0  0  0
    4.6160   11.1588   26.7855 H   0  0  0  0  0  0  0  0  0  0  0  0
    4.2864   12.4661   25.6377 H   0  0  0  0  0  0  0  0  0  0  0  0
    6.2064   13.7832   26.5591 H   0  0  0  0  0  0  0  0  0  0  0  0
   11.8198   18.3061   21.8142 H   0  0  0  0  0  0  0  0  0  0  0  0
   12.2716   18.6679   23.4973 H   0  0  0  0  0  0  0  0  0  0  0  0
   13.5297   18.4476   22.2874 H   0  0  0  0  0  0  0  0  0  0  0  0
   13.3096   16.4064   23.7095 H   0  0  0  0  0  0  0  0  0  0  0  0
   12.8549   16.0397   22.0251 H   0  0  0  0  0  0  0  0  0  0  0  0
   12.6490   13.9239   24.9610 H   0  0  0  0  0  0  0  0  0  0  0  0
    6.1167   12.3295   30.0981 H   0  0  0  0  0  0  0  0  0  0  0  0
  1  2  2  0  0  0  0
  1  3  1  0  0  0  0
  2  6  1  0  0  0  0
  3  8  2  0  0  0  0
  4  7  2  0  0  0  0
  4  9  1  0  0  0  0
  5  9  2  0  0  0  0
  5 11  1  0  0  0  0
  6  7  1  0  0  0  0
  6 10  2  0  0  0  0
  7 12  1  0  0  0  0
  8 10  1  0  0  0  0
  8 13  1  0  0  0  0
  9 16  1  0  0  0  0
 10 17  1  0  0  0  0
 11 12  2  0  0  0  0
 11 30  1  0  0  0  0
 12 31  1  0  0  0  0
 13 25  1  0  0  0  0
 13 26  2  0  0  0  0
 14 18  1  0  0  0  0
 14 24  1  0  0  0  0
 14 27  2  0  0  0  0
 15 20  1  0  0  0  0
 15 24  1  0  0  0  0
 15 28  2  0  0  0  0
 16 29  2  0  0  0  0
 17 25  1  0  0  0  0
 18 19  1  0  0  0  0
 19 20  1  0  0  0  0
 20 25  1  0  0  0  0
 21 22  1  0  0  0  0
 22 30  1  0  0  0  0
 23 31  1  0  0  0  0
 23 32  1  0  0  0  0
 23 33  1  0  0  0  0
  1 34  1  0  0  0  0
  2 35  1  0  0  0  0
  3 36  1  0  0  0  0
  4 37  1  0  0  0  0
  5 38  1  0  0  0  0
 16 39  1  0  0  0  0
 17 40  1  0  0  0  0
 17 41  1  0  0  0  0
 18 42  1  0  0  0  0
 18 43  1  0  0  0  0
 19 44  1  0  0  0  0
 19 45  1  0  0  0  0
 20 46  1  0  0  0  0
 21 47  1  0  0  0  0
 21 48  1  0  0  0  0
 21 49  1  0  0  0  0
 22 50  1  0  0  0  0
 22 51  1  0  0  0  0
 23 52  1  0  0  0  0
 24 53  1  0  0  0  0
M  END
> <Catalog ID>
Z4910994613

> <MW>
458.412

> <MW (desalted)>
458.412

> <ClogP>
1.928

> <logS>
-5.42

> <HBD>
1

> <HBA>
6

> <TPSA>
102.01

> <RotBonds>
7

> <ROCS_ShapeQuery>
A71EV2A-x0451_0A_A71EV2A-x0310_0A_A71EV2A-x0416_0A_peptide

> <ROCS_TanimotoCombo>
0.519 

> <ROCS_ShapeTanimoto>
0.375 

> <ROCS_ColorTanimoto>
0.144 

> <ROCS_RefTversky>
0.344 

> <ROCS_RefColorTversky>
0.175 

> <ROCS_RefTverskyCombo>
0.519 

> <ROCS_FitTversky>
1.321 

> <ROCS_FitColorTversky>
0.445 

> <ROCS_FitTverskyCombo>
1.766 

> <ROCS_ColorScore>
-5.366

> <ROCS_Overlap>
2397.997

> <ROCS_Rank>
465                 

$$$$
untitled-dbase-9531_116
  -OEChem-11132309573D

 49 52  0     0  0  0  0  0  0999 V2000
   12.0814   12.5456   23.9236 C   0  0  0  0  0  0  0  0  0  0  0  0
    6.0717   12.1476   26.3205 C   0  0  0  0  0  0  0  0  0  0  0  0
   10.6209    8.0040   22.3607 C   0  0  0  0  0  0  0  0  0  0  0  0
    6.6697   13.2942   25.8076 C   0  0  0  0  0  0  0  0  0  0  0  0
   11.2187    9.1506   21.8477 C   0  0  0  0  0  0  0  0  0  0  0  0
    6.5231   10.8887   25.9238 C   0  0  0  0  0  0  0  0  0  0  0  0
    9.5700    8.1134   23.2716 C   0  0  0  0  0  0  0  0  0  0  0  0
    7.7205   13.1848   24.8967 C   0  0  0  0  0  0  0  0  0  0  0  0
   10.7673   10.4096   22.2443 C   0  0  0  0  0  0  0  0  0  0  0  0
    8.0462    9.5004   24.5980 C   0  0  0  0  0  0  0  0  0  0  0  0
    7.5802   10.7609   25.0074 C   0  0  0  0  0  0  0  0  0  0  0  0
    9.1034    9.3734   23.6815 C   0  0  0  0  0  0  0  0  0  0  0  0
    8.1871   11.9248   24.4868 C   0  0  0  0  0  0  0  0  0  0  0  0
    9.7103   10.5374   23.1608 C   0  0  0  0  0  0  0  0  0  0  0  0
    9.2443   11.7978   23.5702 C   0  0  0  0  0  0  0  0  0  0  0  0
    9.8759   13.0098   23.0282 C   0  0  0  0  0  0  0  0  0  0  0  0
   11.1707   13.3535   23.1778 C   0  0  0  0  0  0  0  0  0  0  0  0
   11.6061   14.6476   22.5384 C   0  0  0  0  0  0  0  0  0  0  0  0
   14.2918   16.7890   18.3586 C   0  0  0  0  0  0  0  0  0  0  0  0
   14.5770   17.0257   19.8390 C   0  0  0  0  0  0  0  0  0  0  0  0
   12.8072   16.5452   18.1031 C   0  0  0  0  0  0  0  0  0  0  0  0
   14.0379   15.8888   20.7056 C   0  0  0  0  0  0  0  0  0  0  0  0
   12.2663   15.4073   18.9672 C   0  0  0  0  0  0  0  0  0  0  0  0
   12.5442   15.6549   20.4539 C   0  0  0  0  0  0  0  0  0  0  0  0
   12.8246   11.8917   24.5294 N   0  0  0  0  0  0  0  0  0  0  0  0
   12.0801   14.5152   21.2426 N   0  0  0  0  0  0  0  0  0  0  0  0
   11.5330   15.7203   23.1360 O   0  0  0  0  0  0  0  0  0  0  0  0
    5.2535   12.2319   27.0298 H   0  0  0  0  0  0  0  0  0  0  0  0
   10.9720    7.0235   22.0526 H   0  0  0  0  0  0  0  0  0  0  0  0
    6.3185   14.2745   26.1164 H   0  0  0  0  0  0  0  0  0  0  0  0
   12.0369    9.0657   21.1384 H   0  0  0  0  0  0  0  0  0  0  0  0
    6.0408   10.0054   26.3376 H   0  0  0  0  0  0  0  0  0  0  0  0
    9.1174    7.2032   23.6596 H   0  0  0  0  0  0  0  0  0  0  0  0
    8.1527   14.1113   24.5264 H   0  0  0  0  0  0  0  0  0  0  0  0
   11.2681   11.2734   21.8139 H   0  0  0  0  0  0  0  0  0  0  0  0
    7.5777    8.6020   25.0001 H   0  0  0  0  0  0  0  0  0  0  0  0
    9.1835   13.6506   22.4858 H   0  0  0  0  0  0  0  0  0  0  0  0
   14.6293   17.6531   17.7754 H   0  0  0  0  0  0  0  0  0  0  0  0
   14.8683   15.9231   18.0105 H   0  0  0  0  0  0  0  0  0  0  0  0
   15.6570   17.1269   19.9946 H   0  0  0  0  0  0  0  0  0  0  0  0
   14.1185   17.9717   20.1525 H   0  0  0  0  0  0  0  0  0  0  0  0
   12.2447   17.4628   18.3151 H   0  0  0  0  0  0  0  0  0  0  0  0
   12.6491   16.3109   17.0443 H   0  0  0  0  0  0  0  0  0  0  0  0
   14.6029   14.9730   20.4885 H   0  0  0  0  0  0  0  0  0  0  0  0
   14.2088   16.1304   21.7615 H   0  0  0  0  0  0  0  0  0  0  0  0
   11.1874   15.3087   18.7967 H   0  0  0  0  0  0  0  0  0  0  0  0
   12.7308   14.4643   18.6507 H   0  0  0  0  0  0  0  0  0  0  0  0
   11.9731   16.5122   20.7985 H   0  0  0  0  0  0  0  0  0  0  0  0
   12.1060   13.5909   20.8252 H   0  0  0  0  0  0  0  0  0  0  0  0
  1 17  1  0  0  0  0
  1 25  3  0  0  0  0
  2  4  1  0  0  0  0
  2  6  2  0  0  0  0
  3  5  1  0  0  0  0
  3  7  2  0  0  0  0
  4  8  2  0  0  0  0
  5  9  2  0  0  0  0
  6 11  1  0  0  0  0
  7 12  1  0  0  0  0
  8 13  1  0  0  0  0
  9 14  1  0  0  0  0
 10 11  1  0  0  0  0
 10 12  2  0  0  0  0
 11 13  2  0  0  0  0
 12 14  1  0  0  0  0
 13 15  1  0  0  0  0
 14 15  2  0  0  0  0
 15 16  1  4  0  0  0
 16 17  2  0  0  0  0
 17 18  1  0  0  0  0
 18 26  1  0  0  0  0
 18 27  2  0  0  0  0
 19 20  1  0  0  0  0
 19 21  1  0  0  0  0
 20 22  1  0  0  0  0
 21 23  1  0  0  0  0
 22 24  1  0  0  0  0
 23 24  1  0  0  0  0
 24 26  1  0  0  0  0
  2 28  1  0  0  0  0
  3 29  1  0  0  0  0
  4 30  1  0  0  0  0
  5 31  1  0  0  0  0
  6 32  1  0  0  0  0
  7 33  1  0  0  0  0
  8 34  1  0  0  0  0
  9 35  1  0  0  0  0
 10 36  1  0  0  0  0
 16 37  1  0  0  0  0
 19 38  1  0  0  0  0
 19 39  1  0  0  0  0
 20 40  1  0  0  0  0
 20 41  1  0  0  0  0
 21 42  1  0  0  0  0
 21 43  1  0  0  0  0
 22 44  1  0  0  0  0
 22 45  1  0  0  0  0
 23 46  1  0  0  0  0
 23 47  1  0  0  0  0
 24 48  1  0  0  0  0
 26 49  1  0  0  0  0
M  END
> <Catalog ID>
Z56941146

> <MW>
354.444

> <MW (desalted)>
354.444

> <ClogP>
5.605

> <logS>
-7.8

> <HBD>
1

> <HBA>
2

> <TPSA>
52.89

> <RotBonds>
3

> <ROCS_ShapeQuery>
A71EV2A-x0451_0A_A71EV2A-x0310_0A_A71EV2A-x0416_0A_peptide

> <ROCS_TanimotoCombo>
0.519 

> <ROCS_ShapeTanimoto>
0.412 

> <ROCS_ColorTanimoto>
0.107 

> <ROCS_RefTversky>
0.356 

> <ROCS_RefColorTversky>
0.122 

> <ROCS_RefTverskyCombo>
0.478 

> <ROCS_FitTversky>
1.621 

> <ROCS_FitColorTversky>
0.452 

> <ROCS_FitTverskyCombo>
2.074 

> <ROCS_ColorScore>
-3.729

> <ROCS_Overlap>
2477.256

> <ROCS_Rank>
466                 

$$$$
untitled-dbase-554_435
  -OEChem-11132309573D

 43 45  0     0  0  0  0  0  0999 V2000
   14.1453   16.5141   18.5170 C   0  0  0  0  0  0  0  0  0  0  0  0
    9.4445   10.3861   22.9673 C   0  0  0  0  0  0  0  0  0  0  0  0
   14.2657   16.6537   19.8991 C   0  0  0  0  0  0  0  0  0  0  0  0
    8.5585    9.4757   23.5432 C   0  0  0  0  0  0  0  0  0  0  0  0
   12.2981   14.9880   18.8321 C   0  0  0  0  0  0  0  0  0  0  0  0
    8.4915   12.1590   24.3035 C   0  0  0  0  0  0  0  0  0  0  0  0
   12.4161   15.1207   20.2208 C   0  0  0  0  0  0  0  0  0  0  0  0
   13.1632   15.6813   17.9840 C   0  0  0  0  0  0  0  0  0  0  0  0
    9.4111   11.7278   23.3475 C   0  0  0  0  0  0  0  0  0  0  0  0
    7.6054   11.2486   24.8794 C   0  0  0  0  0  0  0  0  0  0  0  0
   13.4070   15.9537   20.7505 C   0  0  0  0  0  0  0  0  0  0  0  0
    7.6389    9.9070   24.4992 C   0  0  0  0  0  0  0  0  0  0  0  0
   11.5061   14.4174   21.1146 C   0  0  0  0  0  0  0  0  0  0  0  0
   11.7412   14.5120   22.4251 C   0  0  0  0  0  0  0  0  0  0  0  0
    3.8681   12.6931   26.9692 C   0  0  0  0  0  0  0  0  0  0  0  0
    5.1584   13.0112   27.1127 C   0  0  0  0  0  0  0  0  0  0  0  0
   10.8409   13.8017   23.3354 C   0  0  0  0  0  0  0  0  0  0  0  0
    6.0902   12.9456   25.9496 C   0  0  0  0  0  0  0  0  0  0  0  0
   12.8746   15.2996   23.0006 C   0  0  0  0  0  0  0  0  0  0  0  0
   13.0345   15.5339   16.5052 C   0  0  0  0  0  0  0  0  0  0  0  0
   10.3108   12.6520   22.7626 N   0  0  0  0  0  0  0  0  0  0  0  0
    6.6865   11.6824   25.8358 N   0  0  0  0  0  0  0  0  0  0  0  0
   10.6351   14.2456   24.4659 O   0  0  0  0  0  0  0  0  0  0  0  0
    6.2673   13.9155   25.2220 O   0  0  0  0  0  0  0  0  0  0  0  0
   13.5803   16.1601   22.0919 O   0  0  0  0  0  0  0  0  0  0  0  0
    6.7920    9.0231   25.0455 F   0  0  0  0  0  0  0  0  0  0  0  0
   14.8204   17.0598   17.8631 H   0  0  0  0  0  0  0  0  0  0  0  0
   10.1568   10.0385   22.2231 H   0  0  0  0  0  0  0  0  0  0  0  0
   15.0325   17.3077   20.3062 H   0  0  0  0  0  0  0  0  0  0  0  0
    8.5844    8.4310   23.2478 H   0  0  0  0  0  0  0  0  0  0  0  0
   11.5301   14.3457   18.4058 H   0  0  0  0  0  0  0  0  0  0  0  0
    8.4657   13.2060   24.5998 H   0  0  0  0  0  0  0  0  0  0  0  0
   10.6876   13.8417   20.6973 H   0  0  0  0  0  0  0  0  0  0  0  0
    3.1618   12.7288   27.7911 H   0  0  0  0  0  0  0  0  0  0  0  0
    3.4904   12.3836   26.0002 H   0  0  0  0  0  0  0  0  0  0  0  0
    5.5367   13.3209   28.0809 H   0  0  0  0  0  0  0  0  0  0  0  0
   12.5016   15.9424   23.8061 H   0  0  0  0  0  0  0  0  0  0  0  0
   13.6101   14.6174   23.4420 H   0  0  0  0  0  0  0  0  0  0  0  0
   13.6596   14.7064   16.1483 H   0  0  0  0  0  0  0  0  0  0  0  0
   11.9950   15.3357   16.2138 H   0  0  0  0  0  0  0  0  0  0  0  0
   13.3409   16.4510   15.9855 H   0  0  0  0  0  0  0  0  0  0  0  0
   10.5927   12.4329   21.8092 H   0  0  0  0  0  0  0  0  0  0  0  0
    6.4135   10.9903   26.5440 H   0  0  0  0  0  0  0  0  0  0  0  0
  1  3  2  0  0  0  0
  1  8  1  0  0  0  0
  2  4  2  0  0  0  0
  2  9  1  0  0  0  0
  3 11  1  0  0  0  0
  4 12  1  0  0  0  0
  5  7  1  0  0  0  0
  5  8  2  0  0  0  0
  6  9  2  0  0  0  0
  6 10  1  0  0  0  0
  7 11  2  0  0  0  0
  7 13  1  0  0  0  0
  8 20  1  0  0  0  0
  9 21  1  0  0  0  0
 10 12  2  0  0  0  0
 10 22  1  0  0  0  0
 11 25  1  0  0  0  0
 12 26  1  0  0  0  0
 13 14  2  0  0  0  0
 14 17  1  0  0  0  0
 14 19  1  0  0  0  0
 15 16  2  0  0  0  0
 16 18  1  0  0  0  0
 17 21  1  0  0  0  0
 17 23  2  0  0  0  0
 18 22  1  0  0  0  0
 18 24  2  0  0  0  0
 19 25  1  0  0  0  0
  1 27  1  0  0  0  0
  2 28  1  0  0  0  0
  3 29  1  0  0  0  0
  4 30  1  0  0  0  0
  5 31  1  0  0  0  0
  6 32  1  0  0  0  0
 13 33  1  0  0  0  0
 15 34  1  0  0  0  0
 15 35  1  0  0  0  0
 16 36  1  0  0  0  0
 19 37  1  0  0  0  0
 19 38  1  0  0  0  0
 20 39  1  0  0  0  0
 20 40  1  0  0  0  0
 20 41  1  0  0  0  0
 21 42  1  0  0  0  0
 22 43  1  0  0  0  0
M  END
> <Catalog ID>
Z4187181402

> <MW>
352.359

> <MW (desalted)>
352.359

> <ClogP>
3.05

> <logS>
-5.938

> <HBD>
2

> <HBA>
3

> <TPSA>
67.43

> <RotBonds>
4

> <ROCS_ShapeQuery>
A71EV2A-x0451_0A_A71EV2A-x0310_0A_A71EV2A-x0416_0A_peptide

> <ROCS_TanimotoCombo>
0.519 

> <ROCS_ShapeTanimoto>
0.374 

> <ROCS_ColorTanimoto>
0.144 

> <ROCS_RefTversky>
0.331 

> <ROCS_RefColorTversky>
0.168 

> <ROCS_RefTverskyCombo>
0.499 

> <ROCS_FitTversky>
1.545 

> <ROCS_FitColorTversky>
0.507 

> <ROCS_FitTverskyCombo>
2.052 

> <ROCS_ColorScore>
-5.139

> <ROCS_Overlap>
2300.291

> <ROCS_Rank>
467                 

$$$$
untitled-dbase-5710_478
  -OEChem-11132309573D

 35 36  0     0  0  0  0  0  0999 V2000
   13.3940   13.7422   22.6020 C   0  0  0  0  0  0  0  0  0  0  0  0
   13.9093   15.7937   20.5788 C   0  0  0  0  0  0  0  0  0  0  0  0
    8.3644   12.2582   24.2019 C   0  0  0  0  0  0  0  0  0  0  0  0
    8.3278    9.4719   24.0696 C   0  0  0  0  0  0  0  0  0  0  0  0
   14.5086   16.3327   19.4617 C   0  0  0  0  0  0  0  0  0  0  0  0
   12.1649   15.7136   19.0449 C   0  0  0  0  0  0  0  0  0  0  0  0
   12.5517   15.4349   20.3374 C   0  0  0  0  0  0  0  0  0  0  0  0
    7.3423   11.5438   24.8267 C   0  0  0  0  0  0  0  0  0  0  0  0
    9.3682   11.5795   23.5108 C   0  0  0  0  0  0  0  0  0  0  0  0
    9.3499   10.1863   23.4448 C   0  0  0  0  0  0  0  0  0  0  0  0
    7.3240   10.1506   24.7606 C   0  0  0  0  0  0  0  0  0  0  0  0
   11.6462   14.8373   21.3312 C   0  0  0  0  0  0  0  0  0  0  0  0
   12.0214   14.0565   22.3638 C   0  0  0  0  0  0  0  0  0  0  0  0
   10.9196   13.5489   23.2693 C   0  0  0  0  0  0  0  0  0  0  0  0
    6.2848   12.3081   25.5557 C   0  0  0  0  0  0  0  0  0  0  0  0
   10.2200    8.0816   22.7600 C   0  0  0  0  0  0  0  0  0  0  0  0
   14.5081   13.4847   22.8001 N   0  0  0  0  0  0  0  0  0  0  0  0
   10.3852   12.3079   22.8892 N   0  0  0  0  0  0  0  0  0  0  0  0
   10.5608   14.2093   24.2412 O   0  0  0  0  0  0  0  0  0  0  0  0
   10.3206    9.5039   22.7741 O   0  0  0  0  0  0  0  0  0  0  0  0
   13.4359   16.4046   18.1288 S   0  0  0  0  0  0  0  0  0  0  0  0
    6.0760    9.2338   25.5229 Cl  0  0  0  0  0  0  0  0  0  0  0  0
   14.4286   15.6671   21.5208 H   0  0  0  0  0  0  0  0  0  0  0  0
    8.3765   13.3449   24.2532 H   0  0  0  0  0  0  0  0  0  0  0  0
    8.3221    8.3856   24.0118 H   0  0  0  0  0  0  0  0  0  0  0  0
   15.5246   16.6883   19.3647 H   0  0  0  0  0  0  0  0  0  0  0  0
   11.1994   15.5495   18.5855 H   0  0  0  0  0  0  0  0  0  0  0  0
   10.6027   15.1004   21.1727 H   0  0  0  0  0  0  0  0  0  0  0  0
    5.4573   12.5490   24.8791 H   0  0  0  0  0  0  0  0  0  0  0  0
    5.8904   11.7300   26.4000 H   0  0  0  0  0  0  0  0  0  0  0  0
    6.6851   13.2427   25.9668 H   0  0  0  0  0  0  0  0  0  0  0  0
   11.0545    7.6622   22.1928 H   0  0  0  0  0  0  0  0  0  0  0  0
    9.2712    7.7871   22.3044 H   0  0  0  0  0  0  0  0  0  0  0  0
   10.2586    7.7123   23.7875 H   0  0  0  0  0  0  0  0  0  0  0  0
   10.7924   11.8827   22.0497 H   0  0  0  0  0  0  0  0  0  0  0  0
  1 13  1  0  0  0  0
  1 17  3  0  0  0  0
  2  5  2  0  0  0  0
  2  7  1  0  0  0  0
  3  8  2  0  0  0  0
  3  9  1  0  0  0  0
  4 10  1  0  0  0  0
  4 11  2  0  0  0  0
  5 21  1  0  0  0  0
  6  7  2  0  0  0  0
  6 21  1  0  0  0  0
  7 12  1  4  0  0  0
  8 11  1  0  0  0  0
  8 15  1  0  0  0  0
  9 10  2  0  0  0  0
  9 18  1  0  0  0  0
 10 20  1  0  0  0  0
 11 22  1  0  0  0  0
 12 13  2  0  0  0  0
 13 14  1  0  0  0  0
 14 18  1  0  0  0  0
 14 19  2  0  0  0  0
 16 20  1  0  0  0  0
  2 23  1  0  0  0  0
  3 24  1  0  0  0  0
  4 25  1  0  0  0  0
  5 26  1  0  0  0  0
  6 27  1  0  0  0  0
 12 28  1  0  0  0  0
 15 29  1  0  0  0  0
 15 30  1  0  0  0  0
 15 31  1  0  0  0  0
 16 32  1  0  0  0  0
 16 33  1  0  0  0  0
 16 34  1  0  0  0  0
 18 35  1  0  0  0  0
M  END
> <Catalog ID>
Z44321613

> <MW>
332.805

> <MW (desalted)>
332.805

> <ClogP>
3.528

> <logS>
-4.908

> <HBD>
1

> <HBA>
3

> <TPSA>
62.12

> <RotBonds>
4

> <ROCS_ShapeQuery>
A71EV2A-x0451_0A_A71EV2A-x0310_0A_A71EV2A-x0416_0A_peptide

> <ROCS_TanimotoCombo>
0.519 

> <ROCS_ShapeTanimoto>
0.356 

> <ROCS_ColorTanimoto>
0.163 

> <ROCS_RefTversky>
0.310 

> <ROCS_RefColorTversky>
0.174 

> <ROCS_RefTverskyCombo>
0.484 

> <ROCS_FitTversky>
1.697 

> <ROCS_FitColorTversky>
0.726 

> <ROCS_FitTverskyCombo>
2.423 

> <ROCS_ColorScore>
-5.292

> <ROCS_Overlap>
2154.457

> <ROCS_Rank>
468                 

$$$$
untitled-dbase-1852_1022
  -OEChem-11132309573D

 39 40  0     1  0  0  0  0  0999 V2000
   13.9751   16.6974   18.7095 C   0  0  0  0  0  0  0  0  0  0  0  0
   14.3080   16.7613   20.0625 C   0  0  0  0  0  0  0  0  0  0  0  0
   12.8369   16.0008   18.3034 C   0  0  0  0  0  0  0  0  0  0  0  0
    7.9965   12.3039   24.8101 C   0  0  0  0  0  0  0  0  0  0  0  0
    7.8953   10.1119   24.3053 C   0  0  0  0  0  0  0  0  0  0  0  0
    7.2246   11.1248   24.9546 C   0  0  0  0  0  0  0  0  0  0  0  0
   12.3646   15.4318   20.6034 C   0  0  0  0  0  0  0  0  0  0  0  0
   13.5028   16.1284   21.0095 C   0  0  0  0  0  0  0  0  0  0  0  0
   12.0317   15.3679   19.2504 C   0  0  0  0  0  0  0  0  0  0  0  0
    9.1154   11.9758   24.0768 C   0  0  0  0  0  0  0  0  0  0  0  0
    5.9750   10.9661   25.6397 C   0  0  0  0  0  0  0  0  0  0  0  0
   10.2241   12.8749   23.6650 C   0  0  0  0  0  0  0  0  0  0  0  0
   13.1472   13.2137   22.9218 C   0  0  0  0  0  0  0  0  0  0  0  0
   10.0188    9.8903   23.0159 C   0  0  0  0  0  0  0  0  0  0  0  0
   11.5143   14.7568   21.6609 C   0  0  1  0  0  0  0  0  0  0  0  0
   11.9679   13.3117   21.9550 C   0  0  2  0  0  0  0  0  0  0  0  0
    9.0431   10.6409   23.7752 N   0  0  0  0  0  0  0  0  0  0  0  0
   10.8541   12.5471   22.4770 N   0  0  0  0  0  0  0  0  0  0  0  0
    5.3811   11.8919   26.2240 O   0  0  0  0  0  0  0  0  0  0  0  0
   10.5291   13.8207   24.3868 O   0  0  0  0  0  0  0  0  0  0  0  0
   11.4973   15.5350   22.8575 O   0  0  0  0  0  0  0  0  0  0  0  0
   13.8328   16.1959   22.3069 F   0  0  0  0  0  0  0  0  0  0  0  0
   10.6321   14.5147   18.7091 Cl  0  0  0  0  0  0  0  0  0  0  0  0
   14.6028   17.1898   17.9728 H   0  0  0  0  0  0  0  0  0  0  0  0
   15.1942   17.3037   20.3787 H   0  0  0  0  0  0  0  0  0  0  0  0
   12.5911   15.9603   17.2452 H   0  0  0  0  0  0  0  0  0  0  0  0
    7.7619   13.2858   25.1994 H   0  0  0  0  0  0  0  0  0  0  0  0
    7.6543    9.0649   24.1755 H   0  0  0  0  0  0  0  0  0  0  0  0
    5.5010    9.9500   25.6531 H   0  0  0  0  0  0  0  0  0  0  0  0
   12.9234   13.6961   23.8776 H   0  0  0  0  0  0  0  0  0  0  0  0
   14.0294   13.7092   22.5005 H   0  0  0  0  0  0  0  0  0  0  0  0
   13.4255   12.1724   23.1167 H   0  0  0  0  0  0  0  0  0  0  0  0
    9.7369    9.9410   21.9609 H   0  0  0  0  0  0  0  0  0  0  0  0
   11.0109   10.3246   23.1678 H   0  0  0  0  0  0  0  0  0  0  0  0
   10.0254    8.8528   23.3616 H   0  0  0  0  0  0  0  0  0  0  0  0
   10.4782   14.7502   21.2967 H   0  0  0  0  0  0  0  0  0  0  0  0
   12.2453   12.8145   21.0176 H   0  0  0  0  0  0  0  0  0  0  0  0
   10.5896   11.7139   21.9643 H   0  0  0  0  0  0  0  0  0  0  0  0
   10.9416   15.0540   23.4892 H   0  0  0  0  0  0  0  0  0  0  0  0
  1  2  1  0  0  0  0
  1  3  2  0  0  0  0
  2  8  2  0  0  0  0
  3  9  1  0  0  0  0
  4  6  1  0  0  0  0
  4 10  2  0  0  0  0
  5  6  2  0  0  0  0
  5 17  1  0  0  0  0
  6 11  1  0  0  0  0
  7  8  1  0  0  0  0
  7  9  2  0  0  0  0
  7 15  1  0  0  0  0
  8 22  1  0  0  0  0
  9 23  1  0  0  0  0
 10 12  1  0  0  0  0
 10 17  1  0  0  0  0
 11 19  2  0  0  0  0
 12 18  1  0  0  0  0
 12 20  2  0  0  0  0
 13 16  1  0  0  0  0
 14 17  1  0  0  0  0
 15 16  1  0  0  0  0
 15 21  1  0  0  0  0
 16 18  1  0  0  0  0
  1 24  1  0  0  0  0
  2 25  1  0  0  0  0
  3 26  1  0  0  0  0
  4 27  1  0  0  0  0
  5 28  1  0  0  0  0
 11 29  1  0  0  0  0
 13 30  1  0  0  0  0
 13 31  1  0  0  0  0
 13 32  1  0  0  0  0
 14 33  1  0  0  0  0
 14 34  1  0  0  0  0
 14 35  1  0  0  0  0
 15 36  1  0  0  0  0
 16 37  1  0  0  0  0
 18 38  1  0  0  0  0
 21 39  1  0  0  0  0
M  END
> <Catalog ID>
Z2271202303

> <MW>
338.761

> <MW (desalted)>
338.761

> <ClogP>
2.489

> <logS>
-3.155

> <HBD>
2

> <HBA>
3

> <TPSA>
71.33

> <RotBonds>
5

> <ROCS_ShapeQuery>
A71EV2A-x0451_0A_A71EV2A-x0310_0A_A71EV2A-x0416_0A_peptide

> <ROCS_TanimotoCombo>
0.519 

> <ROCS_ShapeTanimoto>
0.347 

> <ROCS_ColorTanimoto>
0.172 

> <ROCS_RefTversky>
0.307 

> <ROCS_RefColorTversky>
0.186 

> <ROCS_RefTverskyCombo>
0.493 

> <ROCS_FitTversky>
1.599 

> <ROCS_FitColorTversky>
0.689 

> <ROCS_FitTverskyCombo>
2.288 

> <ROCS_ColorScore>
-5.675

> <ROCS_Overlap>
2133.452

> <ROCS_Rank>
469                 

$$$$
untitled-dbase-10087_6706
  -OEChem-11132309573D

 45 48  0     0  0  0  0  0  0999 V2000
    6.6482   13.0358   25.8094 C   0  0  0  0  0  0  0  0  0  0  0  0
    6.0663   11.7885   25.9989 C   0  0  0  0  0  0  0  0  0  0  0  0
    7.7934   13.1479   25.0263 C   0  0  0  0  0  0  0  0  0  0  0  0
   11.1827    8.0735   23.0467 C   0  0  0  0  0  0  0  0  0  0  0  0
    9.0875    7.7708   21.8823 C   0  0  0  0  0  0  0  0  0  0  0  0
    6.6305   10.6567   25.4051 C   0  0  0  0  0  0  0  0  0  0  0  0
   11.6578    6.8805   22.5020 C   0  0  0  0  0  0  0  0  0  0  0  0
    9.5627    6.5779   21.3375 C   0  0  0  0  0  0  0  0  0  0  0  0
   10.0488   10.9507   23.0600 C   0  0  0  0  0  0  0  0  0  0  0  0
   11.4315   15.4815   19.5324 C   0  0  0  0  0  0  0  0  0  0  0  0
    8.3606   12.0094   24.4291 C   0  0  0  0  0  0  0  0  0  0  0  0
    9.8975    8.5186   22.7369 C   0  0  0  0  0  0  0  0  0  0  0  0
    9.5130   12.0936   23.6360 C   0  0  0  0  0  0  0  0  0  0  0  0
    7.7751   10.7398   24.6170 C   0  0  0  0  0  0  0  0  0  0  0  0
   10.8478    6.1327   21.6474 C   0  0  0  0  0  0  0  0  0  0  0  0
    9.4060    9.7534   23.3007 C   0  0  0  0  0  0  0  0  0  0  0  0
   11.5017   15.3115   20.9001 C   0  0  0  0  0  0  0  0  0  0  0  0
   12.6298   15.7467   18.9015 C   0  0  0  0  0  0  0  0  0  0  0  0
   13.7485   15.6551   20.8782 C   0  0  0  0  0  0  0  0  0  0  0  0
   10.1996   13.3556   23.3771 C   0  0  0  0  0  0  0  0  0  0  0  0
   14.9346   14.6296   23.1264 C   0  0  0  0  0  0  0  0  0  0  0  0
   10.2499   15.0196   21.6743 C   0  0  0  0  0  0  0  0  0  0  0  0
    8.2929    9.6290   24.0593 N   0  0  0  0  0  0  0  0  0  0  0  0
   12.6476   15.3918   21.6076 N   0  0  0  0  0  0  0  0  0  0  0  0
   13.8115   15.8410   19.5459 N   0  0  0  0  0  0  0  0  0  0  0  0
   10.6833   14.0763   24.2558 O   0  0  0  0  0  0  0  0  0  0  0  0
   10.2391   13.6356   22.0405 O   0  0  0  0  0  0  0  0  0  0  0  0
   15.2859   15.7703   21.7706 S   0  0  0  0  0  0  0  0  0  0  0  0
   12.7100   15.9833   17.2049 Cl  0  0  0  0  0  0  0  0  0  0  0  0
   11.4913    4.5168   20.9081 Br  0  0  0  0  0  0  0  0  0  0  0  0
    6.2126   13.9177   26.2691 H   0  0  0  0  0  0  0  0  0  0  0  0
    5.1725   11.6920   26.6083 H   0  0  0  0  0  0  0  0  0  0  0  0
    8.2276   14.1360   24.8950 H   0  0  0  0  0  0  0  0  0  0  0  0
   11.8260    8.6453   23.7114 H   0  0  0  0  0  0  0  0  0  0  0  0
    8.0839    8.1049   21.6305 H   0  0  0  0  0  0  0  0  0  0  0  0
    6.1558    9.6911   25.5694 H   0  0  0  0  0  0  0  0  0  0  0  0
   12.6618    6.5480   22.7530 H   0  0  0  0  0  0  0  0  0  0  0  0
    8.9189    6.0071   20.6734 H   0  0  0  0  0  0  0  0  0  0  0  0
   10.9414   10.9980   22.4432 H   0  0  0  0  0  0  0  0  0  0  0  0
   10.4951   15.4110   18.9924 H   0  0  0  0  0  0  0  0  0  0  0  0
   15.7957   14.5724   23.7967 H   0  0  0  0  0  0  0  0  0  0  0  0
   14.7259   13.6334   22.7286 H   0  0  0  0  0  0  0  0  0  0  0  0
   14.0658   14.9789   23.6896 H   0  0  0  0  0  0  0  0  0  0  0  0
   10.1998   15.6297   22.5826 H   0  0  0  0  0  0  0  0  0  0  0  0
    9.3616   15.2388   21.0722 H   0  0  0  0  0  0  0  0  0  0  0  0
  1  2  1  0  0  0  0
  1  3  2  0  0  0  0
  2  6  2  0  0  0  0
  3 11  1  0  0  0  0
  4  7  2  0  0  0  0
  4 12  1  0  0  0  0
  5  8  1  0  0  0  0
  5 12  2  0  0  0  0
  6 14  1  0  0  0  0
  7 15  1  0  0  0  0
  8 15  2  0  0  0  0
  9 13  1  0  0  0  0
  9 16  2  0  0  0  0
 10 17  2  0  0  0  0
 10 18  1  0  0  0  0
 11 13  2  0  0  0  0
 11 14  1  0  0  0  0
 12 16  1  0  0  0  0
 13 20  1  0  0  0  0
 14 23  2  0  0  0  0
 15 30  1  0  0  0  0
 16 23  1  0  0  0  0
 17 22  1  0  0  0  0
 17 24  1  0  0  0  0
 18 25  2  0  0  0  0
 18 29  1  0  0  0  0
 19 24  2  0  0  0  0
 19 25  1  0  0  0  0
 19 28  1  0  0  0  0
 20 26  2  0  0  0  0
 20 27  1  0  0  0  0
 21 28  1  0  0  0  0
 22 27  1  0  0  0  0
  1 31  1  0  0  0  0
  2 32  1  0  0  0  0
  3 33  1  0  0  0  0
  4 34  1  0  0  0  0
  5 35  1  0  0  0  0
  6 36  1  0  0  0  0
  7 37  1  0  0  0  0
  8 38  1  0  0  0  0
  9 39  1  0  0  0  0
 10 40  1  0  0  0  0
 21 41  1  0  0  0  0
 21 42  1  0  0  0  0
 21 43  1  0  0  0  0
 22 44  1  0  0  0  0
 22 45  1  0  0  0  0
M  END
> <Catalog ID>
Z96341420

> <MW>
500.795

> <MW (desalted)>
500.795

> <ClogP>
6.446

> <logS>
-8.91

> <HBD>
0

> <HBA>
4

> <TPSA>
64.97

> <RotBonds>
6

> <ROCS_ShapeQuery>
A71EV2A-x0451_0A_A71EV2A-x0310_0A_A71EV2A-x0416_0A_peptide

> <ROCS_TanimotoCombo>
0.519 

> <ROCS_ShapeTanimoto>
0.369 

> <ROCS_ColorTanimoto>
0.150 

> <ROCS_RefTversky>
0.334 

> <ROCS_RefColorTversky>
0.177 

> <ROCS_RefTverskyCombo>
0.511 

> <ROCS_FitTversky>
1.407 

> <ROCS_FitColorTversky>
0.489 

> <ROCS_FitTverskyCombo>
1.896 

> <ROCS_ColorScore>
-5.428

> <ROCS_Overlap>
2323.154

> <ROCS_Rank>
470                 

$$$$
untitled-dbase-9714_16557
  -OEChem-11132309573D

 50 51  0     0  0  0  0  0  0999 V2000
    8.1715   12.4029   25.0601 C   0  0  0  0  0  0  0  0  0  0  0  0
    9.3574   12.6186   24.3582 C   0  0  0  0  0  0  0  0  0  0  0  0
    8.0380   10.1695   24.1483 C   0  0  0  0  0  0  0  0  0  0  0  0
    7.5118   11.1783   24.9552 C   0  0  0  0  0  0  0  0  0  0  0  0
    9.8836   11.6098   23.5513 C   0  0  0  0  0  0  0  0  0  0  0  0
    9.2239   10.3852   23.4463 C   0  0  0  0  0  0  0  0  0  0  0  0
    4.1894   13.3884   29.4372 C   0  0  0  0  0  0  0  0  0  0  0  0
    5.2250   12.8804   28.7623 C   0  0  0  0  0  0  0  0  0  0  0  0
   12.3592   15.3668   22.3271 C   0  0  0  0  0  0  0  0  0  0  0  0
    5.0049   12.1394   27.4917 C   0  0  0  0  0  0  0  0  0  0  0  0
   12.4174   13.9775   22.8239 C   0  0  0  0  0  0  0  0  0  0  0  0
   13.3396   17.1842   19.3969 C   0  0  0  0  0  0  0  0  0  0  0  0
   13.3550   14.7275   18.8691 C   0  0  0  0  0  0  0  0  0  0  0  0
   12.2422   16.9298   20.4256 C   0  0  0  0  0  0  0  0  0  0  0  0
   12.2676   14.5107   19.9222 C   0  0  0  0  0  0  0  0  0  0  0  0
   13.2927   16.1402   18.2733 C   0  0  0  0  0  0  0  0  0  0  0  0
   14.4285   16.3613   17.2774 C   0  0  0  0  0  0  0  0  0  0  0  0
    6.2438   10.9478   25.7054 C   0  0  0  0  0  0  0  0  0  0  0  0
   11.1596   11.8452   22.7959 C   0  0  0  0  0  0  0  0  0  0  0  0
   12.3058   15.5626   20.9490 N   0  0  0  0  0  0  0  0  0  0  0  0
    6.1947   11.6899   26.9396 N   0  0  0  0  0  0  0  0  0  0  0  0
   11.3248   13.2344   22.4328 N   0  0  0  0  0  0  0  0  0  0  0  0
   12.3574   16.2708   23.1646 O   0  0  0  0  0  0  0  0  0  0  0  0
    3.8885   11.9661   27.0134 O   0  0  0  0  0  0  0  0  0  0  0  0
   13.3645   13.6020   23.5000 O   0  0  0  0  0  0  0  0  0  0  0  0
    9.7214    9.4103   22.6726 F   0  0  0  0  0  0  0  0  0  0  0  0
    7.7697   13.1944   25.6869 H   0  0  0  0  0  0  0  0  0  0  0  0
    9.8652   13.5753   24.4466 H   0  0  0  0  0  0  0  0  0  0  0  0
    7.5307    9.2125   24.0594 H   0  0  0  0  0  0  0  0  0  0  0  0
    4.3578   13.9269   30.3640 H   0  0  0  0  0  0  0  0  0  0  0  0
    3.1645   13.2882   29.0972 H   0  0  0  0  0  0  0  0  0  0  0  0
    6.2353   13.0036   29.1371 H   0  0  0  0  0  0  0  0  0  0  0  0
   13.2164   18.1896   18.9771 H   0  0  0  0  0  0  0  0  0  0  0  0
   14.3177   17.1635   19.8943 H   0  0  0  0  0  0  0  0  0  0  0  0
   14.3380   14.5539   19.3257 H   0  0  0  0  0  0  0  0  0  0  0  0
   13.2386   13.9827   18.0728 H   0  0  0  0  0  0  0  0  0  0  0  0
   12.3247   17.6537   21.2431 H   0  0  0  0  0  0  0  0  0  0  0  0
   11.2523   17.0596   19.9721 H   0  0  0  0  0  0  0  0  0  0  0  0
   11.2749   14.5499   19.4581 H   0  0  0  0  0  0  0  0  0  0  0  0
   12.3814   13.5177   20.3642 H   0  0  0  0  0  0  0  0  0  0  0  0
   12.3420   16.2496   17.7343 H   0  0  0  0  0  0  0  0  0  0  0  0
   15.3880   16.2593   17.7822 H   0  0  0  0  0  0  0  0  0  0  0  0
   14.3557   17.3600   16.8494 H   0  0  0  0  0  0  0  0  0  0  0  0
   14.3670   15.6253   16.4771 H   0  0  0  0  0  0  0  0  0  0  0  0
    5.3703   11.2439   25.1076 H   0  0  0  0  0  0  0  0  0  0  0  0
    6.1110    9.8863   25.9562 H   0  0  0  0  0  0  0  0  0  0  0  0
   12.0252   11.5488   23.3983 H   0  0  0  0  0  0  0  0  0  0  0  0
   11.1861   11.2531   21.8751 H   0  0  0  0  0  0  0  0  0  0  0  0
    7.0778   11.9101   27.3950 H   0  0  0  0  0  0  0  0  0  0  0  0
   10.6078   13.6801   21.8676 H   0  0  0  0  0  0  0  0  0  0  0  0
  1  2  2  0  0  0  0
  1  4  1  0  0  0  0
  2  5  1  0  0  0  0
  3  4  2  0  0  0  0
  3  6  1  0  0  0  0
  4 18  1  0  0  0  0
  5  6  2  0  0  0  0
  5 19  1  0  0  0  0
  6 26  1  0  0  0  0
  7  8  2  0  0  0  0
  8 10  1  0  0  0  0
  9 11  1  0  0  0  0
  9 20  1  0  0  0  0
  9 23  2  0  0  0  0
 10 21  1  0  0  0  0
 10 24  2  0  0  0  0
 11 22  1  0  0  0  0
 11 25  2  0  0  0  0
 12 14  1  0  0  0  0
 12 16  1  0  0  0  0
 13 15  1  0  0  0  0
 13 16  1  0  0  0  0
 14 20  1  0  0  0  0
 15 20  1  0  0  0  0
 16 17  1  0  0  0  0
 18 21  1  0  0  0  0
 19 22  1  0  0  0  0
  1 27  1  0  0  0  0
  2 28  1  0  0  0  0
  3 29  1  0  0  0  0
  7 30  1  0  0  0  0
  7 31  1  0  0  0  0
  8 32  1  0  0  0  0
 12 33  1  0  0  0  0
 12 34  1  0  0  0  0
 13 35  1  0  0  0  0
 13 36  1  0  0  0  0
 14 37  1  0  0  0  0
 14 38  1  0  0  0  0
 15 39  1  0  0  0  0
 15 40  1  0  0  0  0
 16 41  1  0  0  0  0
 17 42  1  0  0  0  0
 17 43  1  0  0  0  0
 17 44  1  0  0  0  0
 18 45  1  0  0  0  0
 18 46  1  0  0  0  0
 19 47  1  0  0  0  0
 19 48  1  0  0  0  0
 21 49  1  0  0  0  0
 22 50  1  0  0  0  0
M  END
> <Catalog ID>
Z4425283268

> <MW>
361.411

> <MW (desalted)>
361.411

> <ClogP>
1.838

> <logS>
-4.139

> <HBD>
2

> <HBA>
3

> <TPSA>
78.51

> <RotBonds>
6

> <ROCS_ShapeQuery>
A71EV2A-x0451_0A_A71EV2A-x0310_0A_A71EV2A-x0416_0A_peptide

> <ROCS_TanimotoCombo>
0.519 

> <ROCS_ShapeTanimoto>
0.349 

> <ROCS_ColorTanimoto>
0.169 

> <ROCS_RefTversky>
0.313 

> <ROCS_RefColorTversky>
0.188 

> <ROCS_RefTverskyCombo>
0.501 

> <ROCS_FitTversky>
1.508 

> <ROCS_FitColorTversky>
0.626 

> <ROCS_FitTverskyCombo>
2.134 

> <ROCS_ColorScore>
-5.749

> <ROCS_Overlap>
2173.690

> <ROCS_Rank>
471                 

$$$$
untitled-dbase-1266_702
  -OEChem-11132309573D

 35 36  0     0  0  0  0  0  0999 V2000
   13.3736   13.7267   22.5469 C   0  0  0  0  0  0  0  0  0  0  0  0
   13.3476   16.3255   18.3332 C   0  0  0  0  0  0  0  0  0  0  0  0
   12.2187   15.7646   18.9974 C   0  0  0  0  0  0  0  0  0  0  0  0
    8.3661   12.2558   24.2260 C   0  0  0  0  0  0  0  0  0  0  0  0
    8.3156    9.4703   24.0819 C   0  0  0  0  0  0  0  0  0  0  0  0
   14.4482   16.4016   19.1580 C   0  0  0  0  0  0  0  0  0  0  0  0
    7.3519   11.5427   24.8650 C   0  0  0  0  0  0  0  0  0  0  0  0
    9.3551   11.5762   23.5148 C   0  0  0  0  0  0  0  0  0  0  0  0
    9.3299   10.1834   23.4428 C   0  0  0  0  0  0  0  0  0  0  0  0
    7.3266   10.1499   24.7930 C   0  0  0  0  0  0  0  0  0  0  0  0
   12.4997   15.4331   20.3047 C   0  0  0  0  0  0  0  0  0  0  0  0
   11.6089   14.8346   21.3111 C   0  0  0  0  0  0  0  0  0  0  0  0
   11.9985   14.0477   22.3336 C   0  0  0  0  0  0  0  0  0  0  0  0
   10.9102   13.5404   23.2556 C   0  0  0  0  0  0  0  0  0  0  0  0
    6.3101   12.3079   25.6154 C   0  0  0  0  0  0  0  0  0  0  0  0
   10.1795    8.0784   22.7337 C   0  0  0  0  0  0  0  0  0  0  0  0
   14.4899   13.4638   22.7247 N   0  0  0  0  0  0  0  0  0  0  0  0
   10.3642   12.3033   22.8791 N   0  0  0  0  0  0  0  0  0  0  0  0
   10.5708   14.1978   24.2364 O   0  0  0  0  0  0  0  0  0  0  0  0
   10.2862    9.5001   22.7525 O   0  0  0  0  0  0  0  0  0  0  0  0
   14.1187   15.7982   20.7263 S   0  0  0  0  0  0  0  0  0  0  0  0
    6.0881    9.2346   25.5724 Cl  0  0  0  0  0  0  0  0  0  0  0  0
   13.3516   16.6574   17.3030 H   0  0  0  0  0  0  0  0  0  0  0  0
   11.2526   15.6154   18.5314 H   0  0  0  0  0  0  0  0  0  0  0  0
    8.3835   13.3422   24.2820 H   0  0  0  0  0  0  0  0  0  0  0  0
    8.3045    8.3843   24.0192 H   0  0  0  0  0  0  0  0  0  0  0  0
   15.4297   16.7831   18.9149 H   0  0  0  0  0  0  0  0  0  0  0  0
   10.5639   15.1027   21.1717 H   0  0  0  0  0  0  0  0  0  0  0  0
    5.4721   12.5553   24.9542 H   0  0  0  0  0  0  0  0  0  0  0  0
    5.9279   11.7276   26.4637 H   0  0  0  0  0  0  0  0  0  0  0  0
    6.7213   13.2390   26.0238 H   0  0  0  0  0  0  0  0  0  0  0  0
   11.0024    7.6581   22.1505 H   0  0  0  0  0  0  0  0  0  0  0  0
    9.2218    7.7898   22.2931 H   0  0  0  0  0  0  0  0  0  0  0  0
   10.2342    7.7042   23.7588 H   0  0  0  0  0  0  0  0  0  0  0  0
   10.7553   11.8802   22.0309 H   0  0  0  0  0  0  0  0  0  0  0  0
  1 13  1  0  0  0  0
  1 17  3  0  0  0  0
  2  3  1  0  0  0  0
  2  6  2  0  0  0  0
  3 11  2  0  0  0  0
  4  7  2  0  0  0  0
  4  8  1  0  0  0  0
  5  9  1  0  0  0  0
  5 10  2  0  0  0  0
  6 21  1  0  0  0  0
  7 10  1  0  0  0  0
  7 15  1  0  0  0  0
  8  9  2  0  0  0  0
  8 18  1  0  0  0  0
  9 20  1  0  0  0  0
 10 22  1  0  0  0  0
 11 12  1  4  0  0  0
 11 21  1  0  0  0  0
 12 13  2  0  0  0  0
 13 14  1  0  0  0  0
 14 18  1  0  0  0  0
 14 19  2  0  0  0  0
 16 20  1  0  0  0  0
  2 23  1  0  0  0  0
  3 24  1  0  0  0  0
  4 25  1  0  0  0  0
  5 26  1  0  0  0  0
  6 27  1  0  0  0  0
 12 28  1  0  0  0  0
 15 29  1  0  0  0  0
 15 30  1  0  0  0  0
 15 31  1  0  0  0  0
 16 32  1  0  0  0  0
 16 33  1  0  0  0  0
 16 34  1  0  0  0  0
 18 35  1  0  0  0  0
M  END
> <Catalog ID>
Z44321524

> <MW>
332.805

> <MW (desalted)>
332.805

> <ClogP>
3.528

> <logS>
-5.241

> <HBD>
1

> <HBA>
3

> <TPSA>
62.12

> <RotBonds>
4

> <ROCS_ShapeQuery>
A71EV2A-x0451_0A_A71EV2A-x0310_0A_A71EV2A-x0416_0A_peptide

> <ROCS_TanimotoCombo>
0.519 

> <ROCS_ShapeTanimoto>
0.356 

> <ROCS_ColorTanimoto>
0.163 

> <ROCS_RefTversky>
0.310 

> <ROCS_RefColorTversky>
0.174 

> <ROCS_RefTverskyCombo>
0.484 

> <ROCS_FitTversky>
1.700 

> <ROCS_FitColorTversky>
0.725 

> <ROCS_FitTverskyCombo>
2.425 

> <ROCS_ColorScore>
-5.282

> <ROCS_Overlap>
2155.204

> <ROCS_Rank>
472                 

$$$$
untitled-dbase-11336_13402
  -OEChem-11132309573D

 43 45  0     0  0  0  0  0  0999 V2000
    7.5585    8.1380   23.8021 B   0  0  0  0  0  0  0  0  0  0  0  0
    7.6758   11.9062   24.5047 C   0  0  0  0  0  0  0  0  0  0  0  0
    7.2585   10.5799   24.3928 C   0  0  0  0  0  0  0  0  0  0  0  0
    8.9646   12.2674   24.1122 C   0  0  0  0  0  0  0  0  0  0  0  0
    8.1302    9.6148   23.8884 C   0  0  0  0  0  0  0  0  0  0  0  0
    9.4191    9.9760   23.4959 C   0  0  0  0  0  0  0  0  0  0  0  0
    9.8363   11.3023   23.6078 C   0  0  0  0  0  0  0  0  0  0  0  0
   11.2627   14.0124   22.7844 C   0  0  0  0  0  0  0  0  0  0  0  0
   10.3669    8.9968   22.9621 C   0  0  0  0  0  0  0  0  0  0  0  0
   13.6917   16.3473   18.4671 C   0  0  0  0  0  0  0  0  0  0  0  0
   14.6098   16.0457   19.6484 C   0  0  0  0  0  0  0  0  0  0  0  0
   12.5025   15.3917   18.4172 C   0  0  0  0  0  0  0  0  0  0  0  0
   13.8462   16.0479   20.9714 C   0  0  0  0  0  0  0  0  0  0  0  0
   11.7249   15.3895   19.7320 C   0  0  0  0  0  0  0  0  0  0  0  0
   12.6460   15.0875   20.9259 C   0  0  0  0  0  0  0  0  0  0  0  0
   11.1808   12.6654   22.1972 C   0  0  0  0  0  0  0  0  0  0  0  0
   10.7489   14.4291   23.9188 N   0  0  0  0  0  0  0  0  0  0  0  0
   11.0995   15.7565   24.0198 N   0  0  0  0  0  0  0  0  0  0  0  0
   11.8134   16.1425   22.9693 N   0  0  0  0  0  0  0  0  0  0  0  0
   11.9139   15.0506   22.1986 N   0  0  0  0  0  0  0  0  0  0  0  0
   10.3560    7.8129   23.2921 O   0  0  0  0  0  0  0  0  0  0  0  0
    7.1341    7.4934   24.9395 O   0  0  0  0  0  0  0  0  0  0  0  0
    7.4846    7.4952   22.5895 O   0  0  0  0  0  0  0  0  0  0  0  0
   11.0942   11.6824   23.2307 O   0  0  0  0  0  0  0  0  0  0  0  0
    6.9973   12.6581   24.8972 H   0  0  0  0  0  0  0  0  0  0  0  0
    6.2458   10.3343   24.7085 H   0  0  0  0  0  0  0  0  0  0  0  0
    9.2829   13.3024   24.2028 H   0  0  0  0  0  0  0  0  0  0  0  0
   11.1139    9.3668   22.2328 H   0  0  0  0  0  0  0  0  0  0  0  0
   13.3280   17.3795   18.5412 H   0  0  0  0  0  0  0  0  0  0  0  0
   14.2600   16.2749   17.5329 H   0  0  0  0  0  0  0  0  0  0  0  0
   15.0832   15.0669   19.5027 H   0  0  0  0  0  0  0  0  0  0  0  0
   15.4158   16.7873   19.6879 H   0  0  0  0  0  0  0  0  0  0  0  0
   11.8351   15.6759   17.5958 H   0  0  0  0  0  0  0  0  0  0  0  0
   12.8585   14.3764   18.2029 H   0  0  0  0  0  0  0  0  0  0  0  0
   14.5231   15.7667   21.7874 H   0  0  0  0  0  0  0  0  0  0  0  0
   13.5014   17.0673   21.1905 H   0  0  0  0  0  0  0  0  0  0  0  0
   11.2417   16.3658   19.8701 H   0  0  0  0  0  0  0  0  0  0  0  0
   10.9184   14.6480   19.6814 H   0  0  0  0  0  0  0  0  0  0  0  0
   13.0367   14.0438   20.8115 H   0  0  0  0  0  0  0  0  0  0  0  0
   10.2974   12.5449   21.5427 H   0  0  0  0  0  0  0  0  0  0  0  0
   12.0643   12.4274   21.5761 H   0  0  0  0  0  0  0  0  0  0  0  0
    7.2263    8.0292   25.7448 H   0  0  0  0  0  0  0  0  0  0  0  0
    7.8076    8.0322   21.8471 H   0  0  0  0  0  0  0  0  0  0  0  0
  1  5  1  0  0  0  0
  1 22  1  0  0  0  0
  1 23  1  0  0  0  0
  2  3  2  0  0  0  0
  2  4  1  0  0  0  0
  3  5  1  0  0  0  0
  4  7  2  0  0  0  0
  5  6  2  0  0  0  0
  6  7  1  0  0  0  0
  6  9  1  0  0  0  0
  7 24  1  0  0  0  0
  8 16  1  0  0  0  0
  8 17  2  0  0  0  0
  8 20  1  0  0  0  0
  9 21  2  0  0  0  0
 10 11  1  0  0  0  0
 10 12  1  0  0  0  0
 11 13  1  0  0  0  0
 12 14  1  0  0  0  0
 13 15  1  0  0  0  0
 14 15  1  0  0  0  0
 15 20  1  0  0  0  0
 16 24  1  0  0  0  0
 17 18  1  0  0  0  0
 18 19  2  0  0  0  0
 19 20  1  0  0  0  0
  2 25  1  0  0  0  0
  3 26  1  0  0  0  0
  4 27  1  0  0  0  0
  9 28  1  0  0  0  0
 10 29  1  0  0  0  0
 10 30  1  0  0  0  0
 11 31  1  0  0  0  0
 11 32  1  0  0  0  0
 12 33  1  0  0  0  0
 12 34  1  0  0  0  0
 13 35  1  0  0  0  0
 13 36  1  0  0  0  0
 14 37  1  0  0  0  0
 14 38  1  0  0  0  0
 15 39  1  0  0  0  0
 16 40  1  0  0  0  0
 16 41  1  0  0  0  0
 22 42  1  0  0  0  0
 23 43  1  0  0  0  0
M  END
> <Catalog ID>
Z5107363541

> <MW>
330.147

> <MW (desalted)>
330.147

> <ClogP>
2.382

> <logS>
-1.407

> <HBD>
2

> <HBA>
7

> <TPSA>
110.36

> <RotBonds>
6

> <ROCS_ShapeQuery>
A71EV2A-x0451_0A_A71EV2A-x0310_0A_A71EV2A-x0416_0A_peptide

> <ROCS_TanimotoCombo>
0.519 

> <ROCS_ShapeTanimoto>
0.358 

> <ROCS_ColorTanimoto>
0.161 

> <ROCS_RefTversky>
0.316 

> <ROCS_RefColorTversky>
0.183 

> <ROCS_RefTverskyCombo>
0.499 

> <ROCS_FitTversky>
1.585 

> <ROCS_FitColorTversky>
0.571 

> <ROCS_FitTverskyCombo>
2.156 

> <ROCS_ColorScore>
-5.603

> <ROCS_Overlap>
2194.930

> <ROCS_Rank>
473                 

$$$$
untitled-dbase-7140_5389
  -OEChem-11132309573D

 47 48  0     1  0  0  0  0  0999 V2000
    9.1562   10.1938   23.3449 C   0  0  0  0  0  0  0  0  0  0  0  0
    8.2981   12.2448   24.2905 C   0  0  0  0  0  0  0  0  0  0  0  0
    7.2901   10.1292   24.8781 C   0  0  0  0  0  0  0  0  0  0  0  0
    9.2061   11.5826   23.4643 C   0  0  0  0  0  0  0  0  0  0  0  0
    8.1981    9.4671   24.0518 C   0  0  0  0  0  0  0  0  0  0  0  0
    7.3401   11.5180   24.9975 C   0  0  0  0  0  0  0  0  0  0  0  0
   14.0131   13.1242   28.3940 C   0  0  0  0  0  0  0  0  0  0  0  0
   14.0383   12.2385   27.3935 C   0  0  0  0  0  0  0  0  0  0  0  0
   14.9417   12.4428   26.2298 C   0  0  0  0  0  0  0  0  0  0  0  0
   10.7694   13.5212   23.1148 C   0  0  0  0  0  0  0  0  0  0  0  0
   14.0162   14.1127   23.2256 C   0  0  0  0  0  0  0  0  0  0  0  0
   10.7532   16.2402   21.4330 C   0  0  0  0  0  0  0  0  0  0  0  0
   11.9736   16.9085   22.0520 C   0  0  0  0  0  0  0  0  0  0  0  0
   11.0875   14.8193   20.9861 C   0  0  0  0  0  0  0  0  0  0  0  0
   12.5240   16.0766   23.2024 C   0  0  0  0  0  0  0  0  0  0  0  0
   11.7534   13.9796   22.0782 C   0  0  1  0  0  0  0  0  0  0  0  0
   14.2845   12.6996   22.7703 C   0  0  0  0  0  0  0  0  0  0  0  0
   15.1134   11.9625   23.8039 C   0  0  0  0  0  0  0  0  0  0  0  0
   12.8213   14.6989   22.7921 N   0  0  0  0  0  0  0  0  0  0  0  0
   10.1774   12.3199   22.7463 N   0  0  0  0  0  0  0  0  0  0  0  0
   14.4199   11.8966   25.0697 N   0  0  0  0  0  0  0  0  0  0  0  0
   16.0161   13.0277   26.3229 O   0  0  0  0  0  0  0  0  0  0  0  0
   10.5746   14.1805   24.1308 O   0  0  0  0  0  0  0  0  0  0  0  0
   14.8477   14.6814   23.9381 O   0  0  0  0  0  0  0  0  0  0  0  0
    8.1499    8.1334   23.9366 F   0  0  0  0  0  0  0  0  0  0  0  0
    6.4680   12.1540   25.7908 F   0  0  0  0  0  0  0  0  0  0  0  0
    9.8584    9.6667   22.7042 H   0  0  0  0  0  0  0  0  0  0  0  0
    8.3271   13.3267   24.3910 H   0  0  0  0  0  0  0  0  0  0  0  0
    6.5445    9.5628   25.4282 H   0  0  0  0  0  0  0  0  0  0  0  0
   13.3505   12.9689   29.2391 H   0  0  0  0  0  0  0  0  0  0  0  0
   14.6367   14.0114   28.4050 H   0  0  0  0  0  0  0  0  0  0  0  0
   13.3983   11.3633   27.4217 H   0  0  0  0  0  0  0  0  0  0  0  0
    9.9341   16.2176   22.1619 H   0  0  0  0  0  0  0  0  0  0  0  0
   10.4024   16.8253   20.5757 H   0  0  0  0  0  0  0  0  0  0  0  0
   12.7506   17.0470   21.2902 H   0  0  0  0  0  0  0  0  0  0  0  0
   11.7006   17.9053   22.4164 H   0  0  0  0  0  0  0  0  0  0  0  0
   10.1726   14.3311   20.6292 H   0  0  0  0  0  0  0  0  0  0  0  0
   11.7687   14.8752   20.1272 H   0  0  0  0  0  0  0  0  0  0  0  0
   13.4206   16.5601   23.6037 H   0  0  0  0  0  0  0  0  0  0  0  0
   11.7958   16.0242   24.0205 H   0  0  0  0  0  0  0  0  0  0  0  0
   12.1449   13.0686   21.6127 H   0  0  0  0  0  0  0  0  0  0  0  0
   14.8306   12.7732   21.8294 H   0  0  0  0  0  0  0  0  0  0  0  0
   13.3228   12.2169   22.5955 H   0  0  0  0  0  0  0  0  0  0  0  0
   15.2941   10.9419   23.4509 H   0  0  0  0  0  0  0  0  0  0  0  0
   16.0863   12.4425   23.9529 H   0  0  0  0  0  0  0  0  0  0  0  0
   10.4674   11.9116   21.8601 H   0  0  0  0  0  0  0  0  0  0  0  0
   13.5333   11.4010   25.0941 H   0  0  0  0  0  0  0  0  0  0  0  0
  1  4  2  0  0  0  0
  1  5  1  0  0  0  0
  2  4  1  0  0  0  0
  2  6  2  0  0  0  0
  3  5  2  0  0  0  0
  3  6  1  0  0  0  0
  4 20  1  0  0  0  0
  5 25  1  0  0  0  0
  6 26  1  0  0  0  0
  7  8  2  0  0  0  0
  8  9  1  0  0  0  0
  9 21  1  0  0  0  0
  9 22  2  0  0  0  0
 10 16  1  0  0  0  0
 10 20  1  0  0  0  0
 10 23  2  0  0  0  0
 11 17  1  0  0  0  0
 11 19  1  0  0  0  0
 11 24  2  0  0  0  0
 12 13  1  0  0  0  0
 12 14  1  0  0  0  0
 13 15  1  0  0  0  0
 14 16  1  0  0  0  0
 15 19  1  0  0  0  0
 16 19  1  0  0  0  0
 17 18  1  0  0  0  0
 18 21  1  0  0  0  0
  1 27  1  0  0  0  0
  2 28  1  0  0  0  0
  3 29  1  0  0  0  0
  7 30  1  0  0  0  0
  7 31  1  0  0  0  0
  8 32  1  0  0  0  0
 12 33  1  0  0  0  0
 12 34  1  0  0  0  0
 13 35  1  0  0  0  0
 13 36  1  0  0  0  0
 14 37  1  0  0  0  0
 14 38  1  0  0  0  0
 15 39  1  0  0  0  0
 15 40  1  0  0  0  0
 16 41  1  0  0  0  0
 17 42  1  0  0  0  0
 17 43  1  0  0  0  0
 18 44  1  0  0  0  0
 18 45  1  0  0  0  0
 20 46  1  0  0  0  0
 21 47  1  0  0  0  0
M  END
> <Catalog ID>
Z1479071806

> <MW>
365.374

> <MW (desalted)>
365.374

> <ClogP>
2.335

> <logS>
-4.221

> <HBD>
2

> <HBA>
3

> <TPSA>
78.51

> <RotBonds>
6

> <ROCS_ShapeQuery>
A71EV2A-x0451_0A_A71EV2A-x0310_0A_A71EV2A-x0416_0A_peptide

> <ROCS_TanimotoCombo>
0.519 

> <ROCS_ShapeTanimoto>
0.357 

> <ROCS_ColorTanimoto>
0.162 

> <ROCS_RefTversky>
0.318 

> <ROCS_RefColorTversky>
0.181 

> <ROCS_RefTverskyCombo>
0.499 

> <ROCS_FitTversky>
1.524 

> <ROCS_FitColorTversky>
0.602 

> <ROCS_FitTverskyCombo>
2.126 

> <ROCS_ColorScore>
-5.530

> <ROCS_Overlap>
2210.301

> <ROCS_Rank>
474                 

$$$$
untitled-dbase-6712_12649
  -OEChem-11132309573D

 41 42  0     0  0  0  0  0  0999 V2000
    3.8462   11.3816   25.2781 C   0  0  0  0  0  0  0  0  0  0  0  0
    4.2589   12.9372   28.6293 C   0  0  0  0  0  0  0  0  0  0  0  0
    5.4255   12.3184   29.0784 C   0  0  0  0  0  0  0  0  0  0  0  0
    3.7422   12.6230   27.3723 C   0  0  0  0  0  0  0  0  0  0  0  0
    6.0756   11.3855   28.2704 C   0  0  0  0  0  0  0  0  0  0  0  0
    7.8765    9.7128   24.5864 C   0  0  0  0  0  0  0  0  0  0  0  0
    8.3645   12.3971   24.5381 C   0  0  0  0  0  0  0  0  0  0  0  0
    4.3923   11.6901   26.5643 C   0  0  0  0  0  0  0  0  0  0  0  0
    8.8524   10.2134   23.7317 C   0  0  0  0  0  0  0  0  0  0  0  0
    9.1071   11.5799   23.7011 C   0  0  0  0  0  0  0  0  0  0  0  0
    5.5589   11.0713   27.0134 C   0  0  0  0  0  0  0  0  0  0  0  0
    7.1891   10.6135   25.3839 C   0  0  0  0  0  0  0  0  0  0  0  0
   10.0709   17.2957   20.6399 C   0  0  0  0  0  0  0  0  0  0  0  0
   11.2810   17.1821   21.1959 C   0  0  0  0  0  0  0  0  0  0  0  0
   11.6191   15.9962   22.0274 C   0  0  0  0  0  0  0  0  0  0  0  0
   10.8520   13.2822   23.0670 C   0  0  0  0  0  0  0  0  0  0  0  0
    9.6092    9.2652   22.8606 C   0  0  0  0  0  0  0  0  0  0  0  0
   11.7886   13.5264   21.8995 C   0  0  0  0  0  0  0  0  0  0  0  0
    3.4034   11.1314   24.2350 N   0  0  0  0  0  0  0  0  0  0  0  0
    7.4086   11.9474   25.3817 N   0  0  0  0  0  0  0  0  0  0  0  0
   10.0897   12.1377   22.8488 N   0  0  0  0  0  0  0  0  0  0  0  0
   11.5143   14.8167   21.3102 N   0  0  0  0  0  0  0  0  0  0  0  0
   11.9454   16.0881   23.2065 O   0  0  0  0  0  0  0  0  0  0  0  0
   10.8225   14.0199   24.0469 O   0  0  0  0  0  0  0  0  0  0  0  0
    6.2226   10.1445   26.2347 O   0  0  0  0  0  0  0  0  0  0  0  0
    3.7529   13.6635   29.2586 H   0  0  0  0  0  0  0  0  0  0  0  0
    5.8277   12.5630   30.0572 H   0  0  0  0  0  0  0  0  0  0  0  0
    2.8318   13.1144   27.0372 H   0  0  0  0  0  0  0  0  0  0  0  0
    6.9840   10.9073   28.6268 H   0  0  0  0  0  0  0  0  0  0  0  0
    7.6585    8.6505   24.6292 H   0  0  0  0  0  0  0  0  0  0  0  0
    8.5171   13.4721   24.5596 H   0  0  0  0  0  0  0  0  0  0  0  0
    9.8313   18.1643   20.0355 H   0  0  0  0  0  0  0  0  0  0  0  0
    9.2978   16.5454   20.7645 H   0  0  0  0  0  0  0  0  0  0  0  0
   12.0264   17.9556   21.0459 H   0  0  0  0  0  0  0  0  0  0  0  0
    9.0956    9.1392   21.9005 H   0  0  0  0  0  0  0  0  0  0  0  0
   10.6259    9.6292   22.6683 H   0  0  0  0  0  0  0  0  0  0  0  0
    9.7069    8.2817   23.3368 H   0  0  0  0  0  0  0  0  0  0  0  0
   11.6525   12.7439   21.1463 H   0  0  0  0  0  0  0  0  0  0  0  0
   12.8218   13.4943   22.2593 H   0  0  0  0  0  0  0  0  0  0  0  0
   10.2472   11.6331   21.9790 H   0  0  0  0  0  0  0  0  0  0  0  0
   11.2055   14.8348   20.3425 H   0  0  0  0  0  0  0  0  0  0  0  0
  1  8  1  0  0  0  0
  1 19  3  0  0  0  0
  2  3  1  0  0  0  0
  2  4  2  0  0  0  0
  3  5  2  0  0  0  0
  4  8  1  0  0  0  0
  5 11  1  0  0  0  0
  6  9  1  0  0  0  0
  6 12  2  0  0  0  0
  7 10  1  0  0  0  0
  7 20  2  0  0  0  0
  8 11  2  0  0  0  0
  9 10  2  0  0  0  0
  9 17  1  0  0  0  0
 10 21  1  0  0  0  0
 11 25  1  0  0  0  0
 12 20  1  0  0  0  0
 12 25  1  0  0  0  0
 13 14  2  0  0  0  0
 14 15  1  0  0  0  0
 15 22  1  0  0  0  0
 15 23  2  0  0  0  0
 16 18  1  0  0  0  0
 16 21  1  0  0  0  0
 16 24  2  0  0  0  0
 18 22  1  0  0  0  0
  2 26  1  0  0  0  0
  3 27  1  0  0  0  0
  4 28  1  0  0  0  0
  5 29  1  0  0  0  0
  6 30  1  0  0  0  0
  7 31  1  0  0  0  0
 13 32  1  0  0  0  0
 13 33  1  0  0  0  0
 14 34  1  0  0  0  0
 17 35  1  0  0  0  0
 17 36  1  0  0  0  0
 17 37  1  0  0  0  0
 18 38  1  0  0  0  0
 18 39  1  0  0  0  0
 21 40  1  0  0  0  0
 22 41  1  0  0  0  0
M  END
> <Catalog ID>
Z3755912719

> <MW>
336.345

> <MW (desalted)>
336.345

> <ClogP>
1.272

> <logS>
-4.469

> <HBD>
2

> <HBA>
4

> <TPSA>
104.11

> <RotBonds>
6

> <ROCS_ShapeQuery>
A71EV2A-x0451_0A_A71EV2A-x0310_0A_A71EV2A-x0416_0A_peptide

> <ROCS_TanimotoCombo>
0.519 

> <ROCS_ShapeTanimoto>
0.340 

> <ROCS_ColorTanimoto>
0.179 

> <ROCS_RefTversky>
0.306 

> <ROCS_RefColorTversky>
0.207 

> <ROCS_RefTverskyCombo>
0.512 

> <ROCS_FitTversky>
1.489 

> <ROCS_FitColorTversky>
0.570 

> <ROCS_FitTverskyCombo>
2.059 

> <ROCS_ColorScore>
-6.326

> <ROCS_Overlap>
2125.660

> <ROCS_Rank>
475                 

$$$$
untitled-dbase-9092_9177
  -OEChem-11132309573D

 33 34  0     0  0  0  0  0  0999 V2000
   14.0309   14.7585   20.7066 C   0  0  0  0  0  0  0  0  0  0  0  0
   14.3506   14.0144   21.8422 C   0  0  0  0  0  0  0  0  0  0  0  0
   11.6895   14.6447   21.2912 C   0  0  0  0  0  0  0  0  0  0  0  0
    8.2382   12.3030   24.2032 C   0  0  0  0  0  0  0  0  0  0  0  0
    9.1539   10.2011   23.5705 C   0  0  0  0  0  0  0  0  0  0  0  0
    7.1798   10.2432   24.7450 C   0  0  0  0  0  0  0  0  0  0  0  0
   12.0092   13.9005   22.4268 C   0  0  0  0  0  0  0  0  0  0  0  0
    9.2474   11.5835   23.5731 C   0  0  0  0  0  0  0  0  0  0  0  0
    7.1810   11.6276   24.8029 C   0  0  0  0  0  0  0  0  0  0  0  0
   12.7003   15.0737   20.4311 C   0  0  0  0  0  0  0  0  0  0  0  0
   13.3398   13.5854   22.7023 C   0  0  0  0  0  0  0  0  0  0  0  0
   10.9200   13.4716   23.2960 C   0  0  0  0  0  0  0  0  0  0  0  0
   13.9509   16.2649   18.3026 C   0  0  0  0  0  0  0  0  0  0  0  0
    8.1424    9.5100   24.1422 N   0  0  0  0  0  0  0  0  0  0  0  0
   10.3373   12.2438   22.9518 N   0  0  0  0  0  0  0  0  0  0  0  0
   10.5314   14.1702   24.2399 O   0  0  0  0  0  0  0  0  0  0  0  0
    6.7496   12.8901   27.8108 O   0  0  0  0  0  0  0  0  0  0  0  0
    4.3840   12.2153   27.1907 O   0  0  0  0  0  0  0  0  0  0  0  0
    6.1825   12.3031   25.4235 O   0  0  0  0  0  0  0  0  0  0  0  0
    6.1641   10.6020   27.3445 F   0  0  0  0  0  0  0  0  0  0  0  0
   12.2935   16.0227   18.9784 S   0  0  0  0  0  0  0  0  0  0  0  0
    5.8190   12.1170   27.0125 S   0  0  0  0  0  0  0  0  0  0  0  0
   13.7787   12.6662   24.0972 Cl  0  0  0  0  0  0  0  0  0  0  0  0
   14.8328   15.0852   20.0489 H   0  0  0  0  0  0  0  0  0  0  0  0
   15.3924   13.7761   22.0420 H   0  0  0  0  0  0  0  0  0  0  0  0
   10.6494   14.8867   21.0812 H   0  0  0  0  0  0  0  0  0  0  0  0
    8.2713   13.3892   24.2290 H   0  0  0  0  0  0  0  0  0  0  0  0
    9.9119    9.5853   23.0954 H   0  0  0  0  0  0  0  0  0  0  0  0
    6.3802    9.6647   25.1970 H   0  0  0  0  0  0  0  0  0  0  0  0
   13.8945   16.8464   17.3792 H   0  0  0  0  0  0  0  0  0  0  0  0
   14.4087   15.2964   18.0866 H   0  0  0  0  0  0  0  0  0  0  0  0
   14.5716   16.8006   19.0250 H   0  0  0  0  0  0  0  0  0  0  0  0
   10.7492   11.7657   22.1542 H   0  0  0  0  0  0  0  0  0  0  0  0
  1  2  2  0  0  0  0
  1 10  1  0  0  0  0
  2 11  1  0  0  0  0
  3  7  1  0  0  0  0
  3 10  2  0  0  0  0
  4  8  2  0  0  0  0
  4  9  1  0  0  0  0
  5  8  1  0  0  0  0
  5 14  2  0  0  0  0
  6  9  2  0  0  0  0
  6 14  1  0  0  0  0
  7 11  2  0  0  0  0
  7 12  1  0  0  0  0
  8 15  1  0  0  0  0
  9 19  1  0  0  0  0
 10 21  1  0  0  0  0
 11 23  1  0  0  0  0
 12 15  1  0  0  0  0
 12 16  2  0  0  0  0
 13 21  1  0  0  0  0
 17 22  2  0  0  0  0
 18 22  2  0  0  0  0
 19 22  1  0  0  0  0
 20 22  1  0  0  0  0
  1 24  1  0  0  0  0
  2 25  1  0  0  0  0
  3 26  1  0  0  0  0
  4 27  1  0  0  0  0
  5 28  1  0  0  0  0
  6 29  1  0  0  0  0
 13 30  1  0  0  0  0
 13 31  1  0  0  0  0
 13 32  1  0  0  0  0
 15 33  1  0  0  0  0
M  END
> <Catalog ID>
Z4607528849

> <MW>
376.811

> <MW (desalted)>
376.811

> <ClogP>
0.987

> <logS>
-4.415

> <HBD>
1

> <HBA>
4

> <TPSA>
85.36

> <RotBonds>
5

> <ROCS_ShapeQuery>
A71EV2A-x0451_0A_A71EV2A-x0310_0A_A71EV2A-x0416_0A_peptide

> <ROCS_TanimotoCombo>
0.519 

> <ROCS_ShapeTanimoto>
0.341 

> <ROCS_ColorTanimoto>
0.177 

> <ROCS_RefTversky>
0.302 

> <ROCS_RefColorTversky>
0.196 

> <ROCS_RefTverskyCombo>
0.498 

> <ROCS_FitTversky>
1.610 

> <ROCS_FitColorTversky>
0.650 

> <ROCS_FitTverskyCombo>
2.260 

> <ROCS_ColorScore>
-5.976

> <ROCS_Overlap>
2099.996

> <ROCS_Rank>
476                 

$$$$
untitled-dbase-1271_3158
  -OEChem-11132309573D

 54 58  0     0  0  0  0  0  0999 V2000
   11.1100   13.4478   25.2922 C   0  0  0  0  0  0  0  0  0  0  0  0
    3.8178   12.1519   28.8648 C   0  0  0  0  0  0  0  0  0  0  0  0
   11.5460    7.5827   21.2356 C   0  0  0  0  0  0  0  0  0  0  0  0
    3.9601   13.2320   27.9938 C   0  0  0  0  0  0  0  0  0  0  0  0
    4.6762   11.0570   28.7643 C   0  0  0  0  0  0  0  0  0  0  0  0
   10.3790    6.8183   21.3132 C   0  0  0  0  0  0  0  0  0  0  0  0
   11.6306    8.8379   21.8536 C   0  0  0  0  0  0  0  0  0  0  0  0
   13.4555   15.7694   18.5057 C   0  0  0  0  0  0  0  0  0  0  0  0
    4.9608   13.2172   27.0221 C   0  0  0  0  0  0  0  0  0  0  0  0
    5.6769   11.0422   27.7926 C   0  0  0  0  0  0  0  0  0  0  0  0
    9.2564    7.2772   22.0087 C   0  0  0  0  0  0  0  0  0  0  0  0
   12.3792   14.9057   18.3030 C   0  0  0  0  0  0  0  0  0  0  0  0
   10.2052   10.4934   23.2948 C   0  0  0  0  0  0  0  0  0  0  0  0
   13.1843   15.5463   20.8961 C   0  0  0  0  0  0  0  0  0  0  0  0
    7.4540   13.2048   25.4466 C   0  0  0  0  0  0  0  0  0  0  0  0
   10.5135    9.3191   22.5587 C   0  0  0  0  0  0  0  0  0  0  0  0
    8.3540   12.7267   24.5258 C   0  0  0  0  0  0  0  0  0  0  0  0
   13.8581   16.0897   19.8023 C   0  0  0  0  0  0  0  0  0  0  0  0
    5.8192   12.1223   26.9215 C   0  0  0  0  0  0  0  0  0  0  0  0
   12.1079   14.6827   20.6934 C   0  0  0  0  0  0  0  0  0  0  0  0
    9.3704    8.5281   22.6126 C   0  0  0  0  0  0  0  0  0  0  0  0
   11.7053   14.3624   19.3968 C   0  0  0  0  0  0  0  0  0  0  0  0
    8.1779   11.3302   24.5538 C   0  0  0  0  0  0  0  0  0  0  0  0
    8.9133   10.3424   23.7425 C   0  0  0  0  0  0  0  0  0  0  0  0
    9.2324   13.5119   23.7523 C   0  0  0  0  0  0  0  0  0  0  0  0
   10.5282   13.8872   24.0642 C   0  0  0  0  0  0  0  0  0  0  0  0
   11.2987   14.7387   23.0779 C   0  0  0  0  0  0  0  0  0  0  0  0
   15.0092   17.0129   20.0186 C   0  0  0  0  0  0  0  0  0  0  0  0
   11.5874   13.0924   26.2885 N   0  0  0  0  0  0  0  0  0  0  0  0
    7.2398   10.9462   25.4237 N   0  0  0  0  0  0  0  0  0  0  0  0
    6.8185   12.1084   25.9508 N   0  0  0  0  0  0  0  0  0  0  0  0
   11.4439   14.1487   21.8271 N   0  0  0  0  0  0  0  0  0  0  0  0
   11.7313   15.8388   23.4123 O   0  0  0  0  0  0  0  0  0  0  0  0
    8.3979    9.1536   23.3339 O   0  0  0  0  0  0  0  0  0  0  0  0
   15.5722   17.4671   18.8598 F   0  0  0  0  0  0  0  0  0  0  0  0
   14.6832   18.1382   20.7208 F   0  0  0  0  0  0  0  0  0  0  0  0
   16.0272   16.4287   20.7155 F   0  0  0  0  0  0  0  0  0  0  0  0
   10.3776   13.2975   19.1000 Cl  0  0  0  0  0  0  0  0  0  0  0  0
    3.0400   12.1636   29.6226 H   0  0  0  0  0  0  0  0  0  0  0  0
   12.4032    7.1985   20.6884 H   0  0  0  0  0  0  0  0  0  0  0  0
    3.2927   14.0851   28.0727 H   0  0  0  0  0  0  0  0  0  0  0  0
    4.5656   10.2169   29.4439 H   0  0  0  0  0  0  0  0  0  0  0  0
   10.3427    5.8476   20.8247 H   0  0  0  0  0  0  0  0  0  0  0  0
   12.5443    9.4204   21.7851 H   0  0  0  0  0  0  0  0  0  0  0  0
   13.9743   16.1880   17.6474 H   0  0  0  0  0  0  0  0  0  0  0  0
    5.0614   14.0660   26.3500 H   0  0  0  0  0  0  0  0  0  0  0  0
    6.3396   10.1828   27.7257 H   0  0  0  0  0  0  0  0  0  0  0  0
    8.3487    6.6891   22.0734 H   0  0  0  0  0  0  0  0  0  0  0  0
   12.0791   14.6656   17.2861 H   0  0  0  0  0  0  0  0  0  0  0  0
   10.8534   11.3413   23.4710 H   0  0  0  0  0  0  0  0  0  0  0  0
   13.5007   15.7990   21.9060 H   0  0  0  0  0  0  0  0  0  0  0  0
    7.2184   14.2092   25.7755 H   0  0  0  0  0  0  0  0  0  0  0  0
    8.8434   13.8566   22.7675 H   0  0  0  0  0  0  0  0  0  0  0  0
   11.0262   13.2292   21.7121 H   0  0  0  0  0  0  0  0  0  0  0  0
  1 26  1  0  0  0  0
  1 29  3  0  0  0  0
  2  4  1  0  0  0  0
  2  5  2  0  0  0  0
  3  6  1  0  0  0  0
  3  7  2  0  0  0  0
  4  9  2  0  0  0  0
  5 10  1  0  0  0  0
  6 11  2  0  0  0  0
  7 16  1  0  0  0  0
  8 12  2  0  0  0  0
  8 18  1  0  0  0  0
  9 19  1  0  0  0  0
 10 19  2  0  0  0  0
 11 21  1  0  0  0  0
 12 22  1  0  0  0  0
 13 16  1  0  0  0  0
 13 24  2  0  0  0  0
 14 18  2  0  0  0  0
 14 20  1  0  0  0  0
 15 17  2  0  0  0  0
 15 31  1  0  0  0  0
 16 21  2  0  0  0  0
 17 23  1  0  0  0  0
 17 25  1  4  0  0  0
 18 28  1  0  0  0  0
 19 31  1  0  0  0  0
 20 22  2  0  0  0  0
 20 32  1  0  0  0  0
 21 34  1  0  0  0  0
 22 38  1  0  0  0  0
 23 24  1  0  0  0  0
 23 30  2  0  0  0  0
 24 34  1  0  0  0  0
 25 26  2  0  0  0  0
 26 27  1  0  0  0  0
 27 32  1  0  0  0  0
 27 33  2  0  0  0  0
 28 35  1  0  0  0  0
 28 36  1  0  0  0  0
 28 37  1  0  0  0  0
 30 31  1  0  0  0  0
  2 39  1  0  0  0  0
  3 40  1  0  0  0  0
  4 41  1  0  0  0  0
  5 42  1  0  0  0  0
  6 43  1  0  0  0  0
  7 44  1  0  0  0  0
  8 45  1  0  0  0  0
  9 46  1  0  0  0  0
 10 47  1  0  0  0  0
 11 48  1  0  0  0  0
 12 49  1  0  0  0  0
 13 50  1  0  0  0  0
 14 51  1  0  0  0  0
 15 52  1  0  0  0  0
 25 53  1  0  0  0  0
 32 54  1  0  0  0  0
M  END
> <Catalog ID>
Z46073048

> <MW>
532.9

> <MW (desalted)>
532.9

> <ClogP>
7.196

> <logS>
-8.63

> <HBD>
1

> <HBA>
3

> <TPSA>
83.85

> <RotBonds>
6

> <ROCS_ShapeQuery>
A71EV2A-x0451_0A_A71EV2A-x0310_0A_A71EV2A-x0416_0A_peptide

> <ROCS_TanimotoCombo>
0.519 

> <ROCS_ShapeTanimoto>
0.385 

> <ROCS_ColorTanimoto>
0.133 

> <ROCS_RefTversky>
0.360 

> <ROCS_RefColorTversky>
0.160 

> <ROCS_RefTverskyCombo>
0.520 

> <ROCS_FitTversky>
1.226 

> <ROCS_FitColorTversky>
0.441 

> <ROCS_FitTverskyCombo>
1.668 

> <ROCS_ColorScore>
-4.902

> <ROCS_Overlap>
2513.468

> <ROCS_Rank>
477                 

$$$$
untitled-dbase-7019_49
  -OEChem-11132309573D

 44 47  0     0  0  0  0  0  0999 V2000
   11.9838   15.7590   22.9763 C   0  0  0  0  0  0  0  0  0  0  0  0
   13.8693   16.3781   18.2675 C   0  0  0  0  0  0  0  0  0  0  0  0
    7.2649   14.1389   25.0960 C   0  0  0  0  0  0  0  0  0  0  0  0
   12.4836   16.4936   18.3772 C   0  0  0  0  0  0  0  0  0  0  0  0
   14.5673   15.5209   19.1183 C   0  0  0  0  0  0  0  0  0  0  0  0
    6.9679   13.3330   26.1953 C   0  0  0  0  0  0  0  0  0  0  0  0
    8.0471   13.6404   24.0563 C   0  0  0  0  0  0  0  0  0  0  0  0
   11.7958   15.7520   19.3378 C   0  0  0  0  0  0  0  0  0  0  0  0
   13.8795   14.7793   20.0789 C   0  0  0  0  0  0  0  0  0  0  0  0
    7.4592   12.0273   26.2632 C   0  0  0  0  0  0  0  0  0  0  0  0
    8.5207   12.3283   24.1252 C   0  0  0  0  0  0  0  0  0  0  0  0
   12.4938   14.8949   20.1886 C   0  0  0  0  0  0  0  0  0  0  0  0
    8.2482   11.5137   25.2278 C   0  0  0  0  0  0  0  0  0  0  0  0
    7.4301    7.4641   22.2585 C   0  0  0  0  0  0  0  0  0  0  0  0
    7.9792    8.6122   21.8371 C   0  0  0  0  0  0  0  0  0  0  0  0
    7.7105    8.0579   24.5677 C   0  0  0  0  0  0  0  0  0  0  0  0
    9.3383   11.7976   23.0276 C   0  0  0  0  0  0  0  0  0  0  0  0
    7.2755    7.1644   23.6662 C   0  0  0  0  0  0  0  0  0  0  0  0
    8.4397    9.6207   22.8678 C   0  0  0  0  0  0  0  0  0  0  0  0
   11.7690   14.1127   21.2018 C   0  0  0  0  0  0  0  0  0  0  0  0
   11.5281   14.5048   22.4674 C   0  0  0  0  0  0  0  0  0  0  0  0
   10.7678   13.5492   23.3484 C   0  0  0  0  0  0  0  0  0  0  0  0
    8.8301   10.1314   25.3015 C   0  0  0  0  0  0  0  0  0  0  0  0
   12.3540   16.7777   23.3916 N   0  0  0  0  0  0  0  0  0  0  0  0
    8.9143   10.7084   22.3173 N   0  0  0  0  0  0  0  0  0  0  0  0
   10.4219   12.4036   22.6674 N   0  0  0  0  0  0  0  0  0  0  0  0
    8.3004    9.2778   24.2344 N   0  0  0  0  0  0  0  0  0  0  0  0
   10.5156   13.8092   24.5215 O   0  0  0  0  0  0  0  0  0  0  0  0
    6.4932    5.5454   24.1507 Br  0  0  0  0  0  0  0  0  0  0  0  0
   14.4047   16.9545   17.5188 H   0  0  0  0  0  0  0  0  0  0  0  0
    6.8846   15.1552   25.0503 H   0  0  0  0  0  0  0  0  0  0  0  0
   11.9398   17.1601   17.7141 H   0  0  0  0  0  0  0  0  0  0  0  0
   15.6461   15.4299   19.0322 H   0  0  0  0  0  0  0  0  0  0  0  0
    6.3578   13.7243   27.0045 H   0  0  0  0  0  0  0  0  0  0  0  0
    8.2679   14.2729   23.2012 H   0  0  0  0  0  0  0  0  0  0  0  0
   10.7156   15.8528   19.4113 H   0  0  0  0  0  0  0  0  0  0  0  0
   14.4377   14.1154   20.7348 H   0  0  0  0  0  0  0  0  0  0  0  0
    7.2275   11.4195   27.1341 H   0  0  0  0  0  0  0  0  0  0  0  0
    7.0923    6.7362   21.5273 H   0  0  0  0  0  0  0  0  0  0  0  0
    8.0942    8.8415   20.7842 H   0  0  0  0  0  0  0  0  0  0  0  0
    7.6299    7.8787   25.6345 H   0  0  0  0  0  0  0  0  0  0  0  0
   11.4420   13.1390   20.8436 H   0  0  0  0  0  0  0  0  0  0  0  0
    9.9240   10.1844   25.2240 H   0  0  0  0  0  0  0  0  0  0  0  0
    8.6303    9.7022   26.2919 H   0  0  0  0  0  0  0  0  0  0  0  0
  1 21  1  0  0  0  0
  1 24  3  0  0  0  0
  2  4  1  0  0  0  0
  2  5  2  0  0  0  0
  3  6  1  0  0  0  0
  3  7  2  0  0  0  0
  4  8  2  0  0  0  0
  5  9  1  0  0  0  0
  6 10  2  0  0  0  0
  7 11  1  0  0  0  0
  8 12  1  0  0  0  0
  9 12  2  0  0  0  0
 10 13  1  0  0  0  0
 11 13  2  0  0  0  0
 11 17  1  0  0  0  0
 12 20  1  4  0  0  0
 13 23  1  0  0  0  0
 14 15  2  0  0  0  0
 14 18  1  0  0  0  0
 15 19  1  0  0  0  0
 16 18  2  0  0  0  0
 16 27  1  0  0  0  0
 17 25  1  0  0  0  0
 17 26  2  0  0  0  0
 18 29  1  0  0  0  0
 19 25  2  0  0  0  0
 19 27  1  0  0  0  0
 20 21  2  0  0  0  0
 21 22  1  0  0  0  0
 22 26  1  4  0  0  0
 22 28  2  0  0  0  0
 23 27  1  0  0  0  0
  2 30  1  0  0  0  0
  3 31  1  0  0  0  0
  4 32  1  0  0  0  0
  5 33  1  0  0  0  0
  6 34  1  0  0  0  0
  7 35  1  0  0  0  0
  8 36  1  0  0  0  0
  9 37  1  0  0  0  0
 10 38  1  0  0  0  0
 14 39  1  0  0  0  0
 15 40  1  0  0  0  0
 16 41  1  0  0  0  0
 20 42  1  0  0  0  0
 23 43  1  0  0  0  0
 23 44  1  0  0  0  0
M  END
> <Catalog ID>
Z56688718

> <MW>
443.295

> <MW (desalted)>
443.295

> <ClogP>
6.341

> <logS>
-6.83

> <HBD>
0

> <HBA>
5

> <TPSA>
68.82

> <RotBonds>
2

> <ROCS_ShapeQuery>
A71EV2A-x0451_0A_A71EV2A-x0310_0A_A71EV2A-x0416_0A_peptide

> <ROCS_TanimotoCombo>
0.519 

> <ROCS_ShapeTanimoto>
0.352 

> <ROCS_ColorTanimoto>
0.166 

> <ROCS_RefTversky>
0.321 

> <ROCS_RefColorTversky>
0.190 

> <ROCS_RefTverskyCombo>
0.511 

> <ROCS_FitTversky>
1.374 

> <ROCS_FitColorTversky>
0.573 

> <ROCS_FitTverskyCombo>
1.947 

> <ROCS_ColorScore>
-5.809

> <ROCS_Overlap>
2237.052

> <ROCS_Rank>
478                 

$$$$
untitled-dbase-8547_4829
  -OEChem-11132309573D

 51 53  0     0  0  0  0  0  0999 V2000
    9.3844    9.6905   22.8989 C   0  0  0  0  0  0  0  0  0  0  0  0
   16.6290   12.0409   23.8504 C   0  0  0  0  0  0  0  0  0  0  0  0
   10.0886   10.8830   22.8176 C   0  0  0  0  0  0  0  0  0  0  0  0
   16.4185   11.2159   24.9552 C   0  0  0  0  0  0  0  0  0  0  0  0
    8.2709    9.5845   23.7394 C   0  0  0  0  0  0  0  0  0  0  0  0
   15.6421   12.9446   23.4567 C   0  0  0  0  0  0  0  0  0  0  0  0
   14.2341   12.1981   25.2724 C   0  0  0  0  0  0  0  0  0  0  0  0
    9.6825   11.9696   23.5831 C   0  0  0  0  0  0  0  0  0  0  0  0
    8.5570   11.8799   24.4230 C   0  0  0  0  0  0  0  0  0  0  0  0
   15.2210   11.2944   25.6662 C   0  0  0  0  0  0  0  0  0  0  0  0
    7.8235   10.6737   24.5090 C   0  0  0  0  0  0  0  0  0  0  0  0
   14.4446   13.0232   24.1676 C   0  0  0  0  0  0  0  0  0  0  0  0
    3.5231   10.0757   25.9326 C   0  0  0  0  0  0  0  0  0  0  0  0
    4.6704    9.5146   26.3202 C   0  0  0  0  0  0  0  0  0  0  0  0
   10.4848   13.1848   23.4851 C   0  0  0  0  0  0  0  0  0  0  0  0
    5.8048    9.4749   25.3684 C   0  0  0  0  0  0  0  0  0  0  0  0
    8.2058   13.0924   25.2444 C   0  0  0  0  0  0  0  0  0  0  0  0
    6.7620   13.0420   25.7001 C   0  0  0  0  0  0  0  0  0  0  0  0
    6.4780   11.6928   26.3365 C   0  0  0  0  0  0  0  0  0  0  0  0
   14.9958   10.4119   26.8471 C   0  0  0  0  0  0  0  0  0  0  0  0
   11.9773   14.5628   22.0232 C   0  0  0  0  0  0  0  0  0  0  0  0
   13.4093   14.2249   22.3957 C   0  0  0  0  0  0  0  0  0  0  0  0
    6.6820   10.5718   25.3973 N   0  0  0  0  0  0  0  0  0  0  0  0
   11.1298   13.4179   22.2676 N   0  0  0  0  0  0  0  0  0  0  0  0
   10.5888   13.9467   24.4595 O   0  0  0  0  0  0  0  0  0  0  0  0
    5.8788    8.4921   24.6317 O   0  0  0  0  0  0  0  0  0  0  0  0
   13.4754   13.9114   23.7811 O   0  0  0  0  0  0  0  0  0  0  0  0
    9.7063    8.8299   22.3192 H   0  0  0  0  0  0  0  0  0  0  0  0
   17.5615   11.9800   23.2973 H   0  0  0  0  0  0  0  0  0  0  0  0
   10.9574   10.9481   22.1680 H   0  0  0  0  0  0  0  0  0  0  0  0
   17.1930   10.5146   25.2543 H   0  0  0  0  0  0  0  0  0  0  0  0
    7.8026    8.6077   23.7880 H   0  0  0  0  0  0  0  0  0  0  0  0
   15.8122   13.5844   22.5953 H   0  0  0  0  0  0  0  0  0  0  0  0
   13.2993   12.2614   25.8247 H   0  0  0  0  0  0  0  0  0  0  0  0
    2.6577   10.1347   26.5843 H   0  0  0  0  0  0  0  0  0  0  0  0
    3.4311   10.4935   24.9357 H   0  0  0  0  0  0  0  0  0  0  0  0
    4.8007    9.0877   27.3061 H   0  0  0  0  0  0  0  0  0  0  0  0
    8.8729   13.1331   26.1144 H   0  0  0  0  0  0  0  0  0  0  0  0
    8.3422   14.0153   24.6690 H   0  0  0  0  0  0  0  0  0  0  0  0
    6.5711   13.8464   26.4194 H   0  0  0  0  0  0  0  0  0  0  0  0
    6.0838   13.2023   24.8520 H   0  0  0  0  0  0  0  0  0  0  0  0
    7.1231   11.5174   27.2062 H   0  0  0  0  0  0  0  0  0  0  0  0
    5.4411   11.7079   26.6866 H   0  0  0  0  0  0  0  0  0  0  0  0
   15.3492   10.9015   27.7628 H   0  0  0  0  0  0  0  0  0  0  0  0
   13.9313   10.1731   26.9689 H   0  0  0  0  0  0  0  0  0  0  0  0
   15.5250    9.4563   26.7371 H   0  0  0  0  0  0  0  0  0  0  0  0
   11.6002   15.4016   22.6169 H   0  0  0  0  0  0  0  0  0  0  0  0
   11.9098   14.8167   20.9611 H   0  0  0  0  0  0  0  0  0  0  0  0
   14.0575   15.0877   22.2133 H   0  0  0  0  0  0  0  0  0  0  0  0
   13.7832   13.3700   21.8230 H   0  0  0  0  0  0  0  0  0  0  0  0
   11.0601   12.7286   21.5261 H   0  0  0  0  0  0  0  0  0  0  0  0
  1  3  2  0  0  0  0
  1  5  1  0  0  0  0
  2  4  2  0  0  0  0
  2  6  1  0  0  0  0
  3  8  1  0  0  0  0
  4 10  1  0  0  0  0
  5 11  2  0  0  0  0
  6 12  2  0  0  0  0
  7 10  2  0  0  0  0
  7 12  1  0  0  0  0
  8  9  2  0  0  0  0
  8 15  1  0  0  0  0
  9 11  1  0  0  0  0
  9 17  1  0  0  0  0
 10 20  1  0  0  0  0
 11 23  1  0  0  0  0
 12 27  1  0  0  0  0
 13 14  2  0  0  0  0
 14 16  1  0  0  0  0
 15 24  1  0  0  0  0
 15 25  2  0  0  0  0
 16 23  1  0  0  0  0
 16 26  2  0  0  0  0
 17 18  1  0  0  0  0
 18 19  1  0  0  0  0
 19 23  1  0  0  0  0
 21 22  1  0  0  0  0
 21 24  1  0  0  0  0
 22 27  1  0  0  0  0
  1 28  1  0  0  0  0
  2 29  1  0  0  0  0
  3 30  1  0  0  0  0
  4 31  1  0  0  0  0
  5 32  1  0  0  0  0
  6 33  1  0  0  0  0
  7 34  1  0  0  0  0
 13 35  1  0  0  0  0
 13 36  1  0  0  0  0
 14 37  1  0  0  0  0
 17 38  1  0  0  0  0
 17 39  1  0  0  0  0
 18 40  1  0  0  0  0
 18 41  1  0  0  0  0
 19 42  1  0  0  0  0
 19 43  1  0  0  0  0
 20 44  1  0  0  0  0
 20 45  1  0  0  0  0
 20 46  1  0  0  0  0
 21 47  1  0  0  0  0
 21 48  1  0  0  0  0
 22 49  1  0  0  0  0
 22 50  1  0  0  0  0
 24 51  1  0  0  0  0
M  END
> <Catalog ID>
Z4899438120

> <MW>
364.438

> <MW (desalted)>
364.438

> <ClogP>
4.15

> <logS>
-5.666

> <HBD>
1

> <HBA>
3

> <TPSA>
58.64

> <RotBonds>
6

> <ROCS_ShapeQuery>
A71EV2A-x0451_0A_A71EV2A-x0310_0A_A71EV2A-x0416_0A_peptide

> <ROCS_TanimotoCombo>
0.518 

> <ROCS_ShapeTanimoto>
0.342 

> <ROCS_ColorTanimoto>
0.176 

> <ROCS_RefTversky>
0.310 

> <ROCS_RefColorTversky>
0.195 

> <ROCS_RefTverskyCombo>
0.505 

> <ROCS_FitTversky>
1.429 

> <ROCS_FitColorTversky>
0.647 

> <ROCS_FitTverskyCombo>
2.076 

> <ROCS_ColorScore>
-5.947

> <ROCS_Overlap>
2159.383

> <ROCS_Rank>
479                 

$$$$
untitled-dbase-6976_4860
  -OEChem-11132309573D

 41 42  0     0  0  0  0  0  0999 V2000
    8.6559   12.4236   24.6583 C   0  0  0  0  0  0  0  0  0  0  0  0
    8.8946   10.3356   23.5449 C   0  0  0  0  0  0  0  0  0  0  0  0
    7.1914   10.5943   25.0648 C   0  0  0  0  0  0  0  0  0  0  0  0
   12.0811   14.6457   21.1965 C   0  0  0  0  0  0  0  0  0  0  0  0
    9.3419   11.6317   23.7442 C   0  0  0  0  0  0  0  0  0  0  0  0
    7.5590   11.9025   25.3356 C   0  0  0  0  0  0  0  0  0  0  0  0
   10.9024   15.1410   20.6074 C   0  0  0  0  0  0  0  0  0  0  0  0
   13.0843   15.4102   20.6527 C   0  0  0  0  0  0  0  0  0  0  0  0
   11.0220   13.4056   23.1314 C   0  0  0  0  0  0  0  0  0  0  0  0
    9.5194   14.6841   20.8309 C   0  0  0  0  0  0  0  0  0  0  0  0
   14.5449   15.3897   20.8583 C   0  0  0  0  0  0  0  0  0  0  0  0
   13.2067   16.8820   17.5342 C   0  0  0  0  0  0  0  0  0  0  0  0
   12.2159   13.5284   22.1977 C   0  0  0  0  0  0  0  0  0  0  0  0
   13.1024   17.2962   18.9920 C   0  0  0  0  0  0  0  0  0  0  0  0
    7.8332    9.7945   24.1839 N   0  0  0  0  0  0  0  0  0  0  0  0
   11.1337   16.1428   19.7548 N   0  0  0  0  0  0  0  0  0  0  0  0
   12.4693   16.2832   19.8043 N   0  0  0  0  0  0  0  0  0  0  0  0
   10.4433   12.1264   23.0499 N   0  0  0  0  0  0  0  0  0  0  0  0
   10.6486   14.3322   23.8436 O   0  0  0  0  0  0  0  0  0  0  0  0
    4.4900   11.8680   26.5220 O   0  0  0  0  0  0  0  0  0  0  0  0
    5.0308   14.3463   26.5630 O   0  0  0  0  0  0  0  0  0  0  0  0
    6.8704   12.6519   26.2316 O   0  0  0  0  0  0  0  0  0  0  0  0
    5.0155   13.0852   24.5125 F   0  0  0  0  0  0  0  0  0  0  0  0
    5.2751   13.0026   26.0778 S   0  0  0  0  0  0  0  0  0  0  0  0
    8.9721   13.4466   24.8457 H   0  0  0  0  0  0  0  0  0  0  0  0
    9.3901    9.6692   22.8448 H   0  0  0  0  0  0  0  0  0  0  0  0
    6.3439   10.1359   25.5650 H   0  0  0  0  0  0  0  0  0  0  0  0
    9.0447   15.2368   21.6593 H   0  0  0  0  0  0  0  0  0  0  0  0
    8.8869   14.8182   19.9356 H   0  0  0  0  0  0  0  0  0  0  0  0
    9.4710   13.6085   21.0771 H   0  0  0  0  0  0  0  0  0  0  0  0
   15.0378   14.7081   20.1455 H   0  0  0  0  0  0  0  0  0  0  0  0
   14.9956   16.3892   20.7315 H   0  0  0  0  0  0  0  0  0  0  0  0
   14.8157   15.0614   21.8769 H   0  0  0  0  0  0  0  0  0  0  0  0
   13.7864   15.9592   17.4255 H   0  0  0  0  0  0  0  0  0  0  0  0
   13.7003   17.6658   16.9515 H   0  0  0  0  0  0  0  0  0  0  0  0
   12.2163   16.7068   17.1011 H   0  0  0  0  0  0  0  0  0  0  0  0
   12.3491   12.5753   21.6703 H   0  0  0  0  0  0  0  0  0  0  0  0
   13.1204   13.6823   22.7998 H   0  0  0  0  0  0  0  0  0  0  0  0
   12.5210   18.2198   19.0905 H   0  0  0  0  0  0  0  0  0  0  0  0
   14.0964   17.4914   19.4101 H   0  0  0  0  0  0  0  0  0  0  0  0
   10.8902   11.4732   22.3943 H   0  0  0  0  0  0  0  0  0  0  0  0
  1  5  2  0  0  0  0
  1  6  1  0  0  0  0
  2  5  1  0  0  0  0
  2 15  2  0  0  0  0
  3  6  2  0  0  0  0
  3 15  1  0  0  0  0
  4  7  1  0  0  0  0
  4  8  2  0  0  0  0
  4 13  1  0  0  0  0
  5 18  1  0  0  0  0
  6 22  1  0  0  0  0
  7 10  1  0  0  0  0
  7 16  2  0  0  0  0
  8 11  1  0  0  0  0
  8 17  1  0  0  0  0
  9 13  1  0  0  0  0
  9 18  1  0  0  0  0
  9 19  2  0  0  0  0
 12 14  1  0  0  0  0
 14 17  1  0  0  0  0
 16 17  1  0  0  0  0
 20 24  2  0  0  0  0
 21 24  2  0  0  0  0
 22 24  1  0  0  0  0
 23 24  1  0  0  0  0
  1 25  1  0  0  0  0
  2 26  1  0  0  0  0
  3 27  1  0  0  0  0
 10 28  1  0  0  0  0
 10 29  1  0  0  0  0
 10 30  1  0  0  0  0
 11 31  1  0  0  0  0
 11 32  1  0  0  0  0
 11 33  1  0  0  0  0
 12 34  1  0  0  0  0
 12 35  1  0  0  0  0
 12 36  1  0  0  0  0
 13 37  1  0  0  0  0
 13 38  1  0  0  0  0
 14 39  1  0  0  0  0
 14 40  1  0  0  0  0
 18 41  1  0  0  0  0
M  END
> <Catalog ID>
Z4607528882

> <MW>
356.373

> <MW (desalted)>
356.373

> <ClogP>
-0.464

> <logS>
-1.285

> <HBD>
1

> <HBA>
5

> <TPSA>
103.18

> <RotBonds>
6

> <ROCS_ShapeQuery>
A71EV2A-x0451_0A_A71EV2A-x0310_0A_A71EV2A-x0416_0A_peptide

> <ROCS_TanimotoCombo>
0.518 

> <ROCS_ShapeTanimoto>
0.333 

> <ROCS_ColorTanimoto>
0.186 

> <ROCS_RefTversky>
0.299 

> <ROCS_RefColorTversky>
0.204 

> <ROCS_RefTverskyCombo>
0.503 

> <ROCS_FitTversky>
1.517 

> <ROCS_FitColorTversky>
0.677 

> <ROCS_FitTverskyCombo>
2.194 

> <ROCS_ColorScore>
-6.221

> <ROCS_Overlap>
2076.260

> <ROCS_Rank>
480                 

$$$$
untitled-dbase-7003_15662
  -OEChem-11132309573D

 44 46  0     1  0  0  0  0  0999 V2000
   13.4564   16.8811   17.7508 C   0  0  0  0  0  0  0  0  0  0  0  0
   14.4494   17.2528   18.6522 C   0  0  0  0  0  0  0  0  0  0  0  0
   12.5257   15.9026   18.1010 C   0  0  0  0  0  0  0  0  0  0  0  0
   14.5155   16.6474   19.9075 C   0  0  0  0  0  0  0  0  0  0  0  0
   11.6486   14.2959   19.7295 C   0  0  0  0  0  0  0  0  0  0  0  0
   11.7147   13.6904   20.9846 C   0  0  0  0  0  0  0  0  0  0  0  0
   13.6385   15.0406   21.5360 C   0  0  0  0  0  0  0  0  0  0  0  0
    9.4944   10.4604   23.8635 C   0  0  0  0  0  0  0  0  0  0  0  0
   12.5772   15.2826   19.3601 C   0  0  0  0  0  0  0  0  0  0  0  0
   13.5870   15.6606   20.2769 C   0  0  0  0  0  0  0  0  0  0  0  0
   12.7077   14.0621   21.8862 C   0  0  0  0  0  0  0  0  0  0  0  0
    9.4615   11.8014   24.1405 C   0  0  0  0  0  0  0  0  0  0  0  0
    8.2234   10.0066   24.2566 C   0  0  0  0  0  0  0  0  0  0  0  0
   10.4704   12.8784   23.9699 C   0  0  0  0  0  0  0  0  0  0  0  0
   14.6957   11.7463   25.7285 C   0  0  0  0  0  0  0  0  0  0  0  0
   14.3659   10.6210   26.6758 C   0  0  0  0  0  0  0  0  0  0  0  0
   14.1119   12.6841   23.5100 C   0  0  0  0  0  0  0  0  0  0  0  0
   12.7766   13.4138   23.2278 C   0  0  2  0  0  0  0  0  0  0  0  0
    7.6945    8.6351   24.1869 C   0  0  0  0  0  0  0  0  0  0  0  0
    7.4607   10.9909   24.7405 N   0  0  0  0  0  0  0  0  0  0  0  0
   11.6617   12.4667   23.4363 N   0  0  0  0  0  0  0  0  0  0  0  0
   13.9691   11.6967   24.5480 N   0  0  0  0  0  0  0  0  0  0  0  0
   10.1932   14.0217   24.3227 O   0  0  0  0  0  0  0  0  0  0  0  0
   15.5196   12.6137   26.0134 O   0  0  0  0  0  0  0  0  0  0  0  0
    8.2529   12.1301   24.6643 O   0  0  0  0  0  0  0  0  0  0  0  0
    8.5737    7.7135   23.6712 F   0  0  0  0  0  0  0  0  0  0  0  0
    7.3258    8.1077   25.4008 F   0  0  0  0  0  0  0  0  0  0  0  0
    6.5731    8.5227   23.4033 F   0  0  0  0  0  0  0  0  0  0  0  0
   15.3636   10.8192   28.1250 Cl  0  0  0  0  0  0  0  0  0  0  0  0
   13.4060   17.3527   16.7739 H   0  0  0  0  0  0  0  0  0  0  0  0
   15.1739   18.0143   18.3786 H   0  0  0  0  0  0  0  0  0  0  0  0
   11.7580   15.6282   17.3802 H   0  0  0  0  0  0  0  0  0  0  0  0
   15.3005   16.9534   20.5961 H   0  0  0  0  0  0  0  0  0  0  0  0
   10.8640   13.9895   19.0405 H   0  0  0  0  0  0  0  0  0  0  0  0
   10.9860   12.9289   21.2494 H   0  0  0  0  0  0  0  0  0  0  0  0
   14.4101   15.3224   22.2507 H   0  0  0  0  0  0  0  0  0  0  0  0
   10.3133    9.8964   23.4412 H   0  0  0  0  0  0  0  0  0  0  0  0
   13.3142   10.6165   26.9725 H   0  0  0  0  0  0  0  0  0  0  0  0
   14.6076    9.6653   26.2026 H   0  0  0  0  0  0  0  0  0  0  0  0
   14.4731   12.1504   22.6235 H   0  0  0  0  0  0  0  0  0  0  0  0
   14.9001   13.3767   23.8237 H   0  0  0  0  0  0  0  0  0  0  0  0
   12.6655   14.1813   24.0174 H   0  0  0  0  0  0  0  0  0  0  0  0
   11.8648   11.5109   23.2218 H   0  0  0  0  0  0  0  0  0  0  0  0
   13.3102   10.9336   24.4105 H   0  0  0  0  0  0  0  0  0  0  0  0
  1  2  1  0  0  0  0
  1  3  2  0  0  0  0
  2  4  2  0  0  0  0
  3  9  1  0  0  0  0
  4 10  1  0  0  0  0
  5  6  2  0  0  0  0
  5  9  1  0  0  0  0
  6 11  1  0  0  0  0
  7 10  1  0  0  0  0
  7 11  2  0  0  0  0
  8 12  2  0  0  0  0
  8 13  1  0  0  0  0
  9 10  2  0  0  0  0
 11 18  1  0  0  0  0
 12 14  1  0  0  0  0
 12 25  1  0  0  0  0
 13 19  1  0  0  0  0
 13 20  2  0  0  0  0
 14 21  1  0  0  0  0
 14 23  2  0  0  0  0
 15 16  1  0  0  0  0
 15 22  1  0  0  0  0
 15 24  2  0  0  0  0
 16 29  1  0  0  0  0
 17 18  1  0  0  0  0
 17 22  1  0  0  0  0
 18 21  1  0  0  0  0
 19 26  1  0  0  0  0
 19 27  1  0  0  0  0
 19 28  1  0  0  0  0
 20 25  1  0  0  0  0
  1 30  1  0  0  0  0
  2 31  1  0  0  0  0
  3 32  1  0  0  0  0
  4 33  1  0  0  0  0
  5 34  1  0  0  0  0
  6 35  1  0  0  0  0
  7 36  1  0  0  0  0
  8 37  1  0  0  0  0
 16 38  1  0  0  0  0
 16 39  1  0  0  0  0
 17 40  1  0  0  0  0
 17 41  1  0  0  0  0
 18 42  1  0  0  0  0
 21 43  1  0  0  0  0
 22 44  1  0  0  0  0
M  END
> <Catalog ID>
Z4425211924

> <MW>
425.789

> <MW (desalted)>
425.789

> <ClogP>
3.333

> <logS>
-5.971

> <HBD>
2

> <HBA>
3

> <TPSA>
84.23

> <RotBonds>
7

> <ROCS_ShapeQuery>
A71EV2A-x0451_0A_A71EV2A-x0310_0A_A71EV2A-x0416_0A_peptide

> <ROCS_TanimotoCombo>
0.518 

> <ROCS_ShapeTanimoto>
0.339 

> <ROCS_ColorTanimoto>
0.180 

> <ROCS_RefTversky>
0.312 

> <ROCS_RefColorTversky>
0.198 

> <ROCS_RefTverskyCombo>
0.510 

> <ROCS_FitTversky>
1.345 

> <ROCS_FitColorTversky>
0.658 

> <ROCS_FitTverskyCombo>
2.003 

> <ROCS_ColorScore>
-6.051

> <ROCS_Overlap>
2169.547

> <ROCS_Rank>
481                 

$$$$
untitled-dbase-1754_11599
  -OEChem-11132309573D

 65 68  0     1  0  0  0  0  0999 V2000
   13.4711   12.5722   23.2515 C   0  0  0  0  0  0  0  0  0  0  0  0
   12.4296   11.6970   22.9438 C   0  0  0  0  0  0  0  0  0  0  0  0
    4.5174   14.6824   25.7160 C   0  0  0  0  0  0  0  0  0  0  0  0
    4.4222   13.5935   26.5824 C   0  0  0  0  0  0  0  0  0  0  0  0
   14.0954   12.5029   24.4970 C   0  0  0  0  0  0  0  0  0  0  0  0
    9.7924   14.8659   20.7406 C   0  0  0  0  0  0  0  0  0  0  0  0
   10.3381   15.0885   22.0048 C   0  0  0  0  0  0  0  0  0  0  0  0
    8.9281   12.7373   21.4884 C   0  0  0  0  0  0  0  0  0  0  0  0
   12.6365   10.6831   25.1270 C   0  0  0  0  0  0  0  0  0  0  0  0
    6.4611   13.6888   24.6807 C   0  0  0  0  0  0  0  0  0  0  0  0
    9.4739   12.9599   22.7527 C   0  0  0  0  0  0  0  0  0  0  0  0
   12.0122   10.7524   23.8815 C   0  0  0  0  0  0  0  0  0  0  0  0
    5.5368   14.7300   24.7650 C   0  0  0  0  0  0  0  0  0  0  0  0
    5.3465   12.5522   26.4981 C   0  0  0  0  0  0  0  0  0  0  0  0
   13.6781   11.5584   25.4347 C   0  0  0  0  0  0  0  0  0  0  0  0
    9.0874   13.6903   20.4824 C   0  0  0  0  0  0  0  0  0  0  0  0
   10.1789   14.1355   23.0108 C   0  0  0  0  0  0  0  0  0  0  0  0
    6.3660   12.5999   25.5472 C   0  0  0  0  0  0  0  0  0  0  0  0
    8.4064    9.9437   23.9464 C   0  0  0  0  0  0  0  0  0  0  0  0
   15.3565   12.2759   27.1646 C   0  0  0  0  0  0  0  0  0  0  0  0
    9.2839   11.8644   23.8875 C   0  0  1  0  0  0  0  0  0  0  0  0
    7.8260   11.3519   24.1434 C   0  0  2  0  0  0  0  0  0  0  0  0
    5.6377   15.8942   23.8383 C   0  0  0  0  0  0  0  0  0  0  0  0
    5.2301   11.3955   27.4347 C   0  0  0  0  0  0  0  0  0  0  0  0
   15.7482   11.8838   28.5672 C   0  0  0  0  0  0  0  0  0  0  0  0
    8.7558   14.4884   18.2668 C   0  0  0  0  0  0  0  0  0  0  0  0
   11.4224   15.5934   24.4193 C   0  0  0  0  0  0  0  0  0  0  0  0
   10.8911    9.8106   23.5498 C   0  0  0  0  0  0  0  0  0  0  0  0
    9.6125   10.4585   23.6017 N   0  0  0  0  0  0  0  0  0  0  0  0
   14.3032   11.4889   26.6802 N   0  0  0  0  0  0  0  0  0  0  0  0
    8.0001    8.8116   24.0788 O   0  0  0  0  0  0  0  0  0  0  0  0
   15.9349   13.1878   26.5826 O   0  0  0  0  0  0  0  0  0  0  0  0
    7.2772   11.5898   25.4505 O   0  0  0  0  0  0  0  0  0  0  0  0
    8.5550   13.4729   19.2486 O   0  0  0  0  0  0  0  0  0  0  0  0
   10.7174   14.3666   24.2406 O   0  0  0  0  0  0  0  0  0  0  0  0
   13.7964   13.3074   22.5212 H   0  0  0  0  0  0  0  0  0  0  0  0
   11.9490   11.7591   21.9713 H   0  0  0  0  0  0  0  0  0  0  0  0
    3.7930   15.4894   25.7876 H   0  0  0  0  0  0  0  0  0  0  0  0
    3.6236   13.5651   27.3190 H   0  0  0  0  0  0  0  0  0  0  0  0
   14.9060   13.1902   24.7260 H   0  0  0  0  0  0  0  0  0  0  0  0
    9.9199   15.6120   19.9610 H   0  0  0  0  0  0  0  0  0  0  0  0
   10.8862   16.0065   22.1991 H   0  0  0  0  0  0  0  0  0  0  0  0
    8.3773   11.8223   21.2853 H   0  0  0  0  0  0  0  0  0  0  0  0
   12.3087    9.9462   25.8570 H   0  0  0  0  0  0  0  0  0  0  0  0
    7.2562   13.7236   23.9399 H   0  0  0  0  0  0  0  0  0  0  0  0
    9.7724   12.1933   24.8185 H   0  0  0  0  0  0  0  0  0  0  0  0
    7.0975   11.6181   23.3599 H   0  0  0  0  0  0  0  0  0  0  0  0
    6.2700   16.6766   24.2754 H   0  0  0  0  0  0  0  0  0  0  0  0
    6.0675   15.5986   22.8725 H   0  0  0  0  0  0  0  0  0  0  0  0
    4.6490   16.3228   23.6279 H   0  0  0  0  0  0  0  0  0  0  0  0
    4.5933   10.6163   26.9996 H   0  0  0  0  0  0  0  0  0  0  0  0
    6.2136   10.9610   27.6530 H   0  0  0  0  0  0  0  0  0  0  0  0
    4.7977   11.7041   28.3948 H   0  0  0  0  0  0  0  0  0  0  0  0
   16.5227   11.1124   28.5333 H   0  0  0  0  0  0  0  0  0  0  0  0
   14.8773   11.4886   29.0979 H   0  0  0  0  0  0  0  0  0  0  0  0
   16.1246   12.7574   29.1076 H   0  0  0  0  0  0  0  0  0  0  0  0
    8.2808   14.1890   17.3294 H   0  0  0  0  0  0  0  0  0  0  0  0
    9.8270   14.6407   18.1125 H   0  0  0  0  0  0  0  0  0  0  0  0
    8.3048   15.4187   18.6203 H   0  0  0  0  0  0  0  0  0  0  0  0
   11.8002   15.6517   25.4430 H   0  0  0  0  0  0  0  0  0  0  0  0
   10.7516   16.4327   24.2189 H   0  0  0  0  0  0  0  0  0  0  0  0
   12.2621   15.6259   23.7211 H   0  0  0  0  0  0  0  0  0  0  0  0
   11.0191    9.3973   22.5434 H   0  0  0  0  0  0  0  0  0  0  0  0
   10.8673    8.9667   24.2473 H   0  0  0  0  0  0  0  0  0  0  0  0
   13.9513   10.7741   27.3275 H   0  0  0  0  0  0  0  0  0  0  0  0
  1  2  2  0  0  0  0
  1  5  1  0  0  0  0
  2 12  1  0  0  0  0
  3  4  2  0  0  0  0
  3 13  1  0  0  0  0
  4 14  1  0  0  0  0
  5 15  2  0  0  0  0
  6  7  2  0  0  0  0
  6 16  1  0  0  0  0
  7 17  1  0  0  0  0
  8 11  1  0  0  0  0
  8 16  2  0  0  0  0
  9 12  2  0  0  0  0
  9 15  1  0  0  0  0
 10 13  2  0  0  0  0
 10 18  1  0  0  0  0
 11 17  2  0  0  0  0
 11 21  1  0  0  0  0
 12 28  1  0  0  0  0
 13 23  1  0  0  0  0
 14 18  2  0  0  0  0
 14 24  1  0  0  0  0
 15 30  1  0  0  0  0
 16 34  1  0  0  0  0
 17 35  1  0  0  0  0
 18 33  1  0  0  0  0
 19 22  1  0  0  0  0
 19 29  1  0  0  0  0
 19 31  2  0  0  0  0
 20 25  1  0  0  0  0
 20 30  1  0  0  0  0
 20 32  2  0  0  0  0
 21 22  1  0  0  0  0
 21 29  1  0  0  0  0
 22 33  1  0  0  0  0
 26 34  1  0  0  0  0
 27 35  1  0  0  0  0
 28 29  1  0  0  0  0
  1 36  1  0  0  0  0
  2 37  1  0  0  0  0
  3 38  1  0  0  0  0
  4 39  1  0  0  0  0
  5 40  1  0  0  0  0
  6 41  1  0  0  0  0
  7 42  1  0  0  0  0
  8 43  1  0  0  0  0
  9 44  1  0  0  0  0
 10 45  1  0  0  0  0
 21 46  1  0  0  0  0
 22 47  1  0  0  0  0
 23 48  1  0  0  0  0
 23 49  1  0  0  0  0
 23 50  1  0  0  0  0
 24 51  1  0  0  0  0
 24 52  1  0  0  0  0
 24 53  1  0  0  0  0
 25 54  1  0  0  0  0
 25 55  1  0  0  0  0
 25 56  1  0  0  0  0
 26 57  1  0  0  0  0
 26 58  1  0  0  0  0
 26 59  1  0  0  0  0
 27 60  1  0  0  0  0
 27 61  1  0  0  0  0
 27 62  1  0  0  0  0
 28 63  1  0  0  0  0
 28 64  1  0  0  0  0
 30 65  1  0  0  0  0
M  END
> <Catalog ID>
Z780985858

> <MW>
474.548

> <MW (desalted)>
474.548

> <ClogP>
4.828

> <logS>
-6.54

> <HBD>
1

> <HBA>
5

> <TPSA>
77.1

> <RotBonds>
8

> <ROCS_ShapeQuery>
A71EV2A-x0451_0A_A71EV2A-x0310_0A_A71EV2A-x0416_0A_peptide

> <ROCS_TanimotoCombo>
0.518 

> <ROCS_ShapeTanimoto>
0.352 

> <ROCS_ColorTanimoto>
0.166 

> <ROCS_RefTversky>
0.330 

> <ROCS_RefColorTversky>
0.194 

> <ROCS_RefTverskyCombo>
0.524 

> <ROCS_FitTversky>
1.235 

> <ROCS_FitColorTversky>
0.536 

> <ROCS_FitTverskyCombo>
1.771 

> <ROCS_ColorScore>
-5.939

> <ROCS_Overlap>
2303.369

> <ROCS_Rank>
482                 

$$$$
untitled-dbase-9204_1499
  -OEChem-11132309573D

 42 44  0     1  0  0  0  0  0999 V2000
    8.4026   12.1988   24.6428 C   0  0  0  0  0  0  0  0  0  0  0  0
    9.7175   10.8383   23.1403 C   0  0  0  0  0  0  0  0  0  0  0  0
    7.5777   11.1063   24.9102 C   0  0  0  0  0  0  0  0  0  0  0  0
    8.8927    9.7457   23.4078 C   0  0  0  0  0  0  0  0  0  0  0  0
   13.9617   15.8756   25.0963 C   0  0  0  0  0  0  0  0  0  0  0  0
   13.9849   14.5286   24.7976 C   0  0  0  0  0  0  0  0  0  0  0  0
   13.2092   16.6623   24.2482 C   0  0  0  0  0  0  0  0  0  0  0  0
    9.4725   12.0649   23.7578 C   0  0  0  0  0  0  0  0  0  0  0  0
    7.8228    9.8797   24.2928 C   0  0  0  0  0  0  0  0  0  0  0  0
   12.6294   14.8520   23.0018 C   0  0  0  0  0  0  0  0  0  0  0  0
    4.7232    6.9041   24.3778 C   0  0  0  0  0  0  0  0  0  0  0  0
    6.0108    6.6060   24.5777 C   0  0  0  0  0  0  0  0  0  0  0  0
   10.3324   13.2040   23.4788 C   0  0  0  0  0  0  0  0  0  0  0  0
    7.0866    7.4890   24.0407 C   0  0  0  0  0  0  0  0  0  0  0  0
   11.8449   16.1301   19.9556 C   0  0  0  0  0  0  0  0  0  0  0  0
   10.8069   15.1192   19.5699 C   0  0  0  0  0  0  0  0  0  0  0  0
   11.1309   15.3431   21.0256 C   0  0  0  0  0  0  0  0  0  0  0  0
   11.8784   14.2750   21.8212 C   0  0  2  0  0  0  0  0  0  0  0  0
   13.3280   13.9807   23.7543 N   0  0  0  0  0  0  0  0  0  0  0  0
   12.5279   16.1819   23.1874 N   0  0  0  0  0  0  0  0  0  0  0  0
    6.9972    8.7875   24.5611 N   0  0  0  0  0  0  0  0  0  0  0  0
   10.9759   13.2251   22.2359 N   0  0  0  0  0  0  0  0  0  0  0  0
   10.4915   14.0981   24.3287 O   0  0  0  0  0  0  0  0  0  0  0  0
    7.9161    7.0672   23.2436 O   0  0  0  0  0  0  0  0  0  0  0  0
    8.2024   13.1500   25.1289 H   0  0  0  0  0  0  0  0  0  0  0  0
   10.5484   10.7229   22.4490 H   0  0  0  0  0  0  0  0  0  0  0  0
    6.7468   11.2211   25.6019 H   0  0  0  0  0  0  0  0  0  0  0  0
    9.0931    8.7946   22.9208 H   0  0  0  0  0  0  0  0  0  0  0  0
   14.4984   16.2880   25.9401 H   0  0  0  0  0  0  0  0  0  0  0  0
   14.5496   13.8315   25.4076 H   0  0  0  0  0  0  0  0  0  0  0  0
   13.1312   17.7331   24.4031 H   0  0  0  0  0  0  0  0  0  0  0  0
    3.9147    6.2866   24.7527 H   0  0  0  0  0  0  0  0  0  0  0  0
    4.4531    7.7950   23.8203 H   0  0  0  0  0  0  0  0  0  0  0  0
    6.2817    5.7158   25.1351 H   0  0  0  0  0  0  0  0  0  0  0  0
   12.8801   15.8943   19.7422 H   0  0  0  0  0  0  0  0  0  0  0  0
   11.5929   17.1782   19.8487 H   0  0  0  0  0  0  0  0  0  0  0  0
    9.8555   15.4861   19.2048 H   0  0  0  0  0  0  0  0  0  0  0  0
   11.1449   14.2039   19.0999 H   0  0  0  0  0  0  0  0  0  0  0  0
   10.3990   15.8650   21.6297 H   0  0  0  0  0  0  0  0  0  0  0  0
   12.5921   13.7924   21.1422 H   0  0  0  0  0  0  0  0  0  0  0  0
    6.2288    8.9558   25.2218 H   0  0  0  0  0  0  0  0  0  0  0  0
   10.8610   12.4391   21.6044 H   0  0  0  0  0  0  0  0  0  0  0  0
  1  3  2  0  0  0  0
  1  8  1  0  0  0  0
  2  4  1  0  0  0  0
  2  8  2  0  0  0  0
  3  9  1  0  0  0  0
  4  9  2  0  0  0  0
  5  6  1  0  0  0  0
  5  7  2  0  0  0  0
  6 19  2  0  0  0  0
  7 20  1  0  0  0  0
  8 13  1  0  0  0  0
  9 21  1  0  0  0  0
 10 18  1  0  0  0  0
 10 19  1  0  0  0  0
 10 20  2  0  0  0  0
 11 12  2  0  0  0  0
 12 14  1  0  0  0  0
 13 22  1  0  0  0  0
 13 23  2  0  0  0  0
 14 21  1  0  0  0  0
 14 24  2  0  0  0  0
 15 16  1  0  0  0  0
 15 17  1  0  0  0  0
 16 17  1  0  0  0  0
 17 18  1  0  0  0  0
 18 22  1  0  0  0  0
  1 25  1  0  0  0  0
  2 26  1  0  0  0  0
  3 27  1  0  0  0  0
  4 28  1  0  0  0  0
  5 29  1  0  0  0  0
  6 30  1  0  0  0  0
  7 31  1  0  0  0  0
 11 32  1  0  0  0  0
 11 33  1  0  0  0  0
 12 34  1  0  0  0  0
 15 35  1  0  0  0  0
 15 36  1  0  0  0  0
 16 37  1  0  0  0  0
 16 38  1  0  0  0  0
 17 39  1  0  0  0  0
 18 40  1  0  0  0  0
 21 41  1  0  0  0  0
 22 42  1  0  0  0  0
M  END
> <Catalog ID>
Z3755331781

> <MW>
322.361

> <MW (desalted)>
322.361

> <ClogP>
0.696

> <logS>
-3.854

> <HBD>
2

> <HBA>
4

> <TPSA>
83.98

> <RotBonds>
6

> <ROCS_ShapeQuery>
A71EV2A-x0451_0A_A71EV2A-x0310_0A_A71EV2A-x0416_0A_peptide

> <ROCS_TanimotoCombo>
0.518 

> <ROCS_ShapeTanimoto>
0.306 

> <ROCS_ColorTanimoto>
0.212 

> <ROCS_RefTversky>
0.281 

> <ROCS_RefColorTversky>
0.233 

> <ROCS_RefTverskyCombo>
0.514 

> <ROCS_FitTversky>
1.409 

> <ROCS_FitColorTversky>
0.703 

> <ROCS_FitTverskyCombo>
2.112 

> <ROCS_ColorScore>
-7.126

> <ROCS_Overlap>
1954.428

> <ROCS_Rank>
483                 

$$$$
untitled-dbase-7062_566
  -OEChem-11132309573D

 42 44  0     0  0  0  0  0  0999 V2000
    8.2055    9.3758   24.2179 C   0  0  0  0  0  0  0  0  0  0  0  0
    7.4444    9.9747   25.2217 C   0  0  0  0  0  0  0  0  0  0  0  0
    9.0296   10.1568   23.4076 C   0  0  0  0  0  0  0  0  0  0  0  0
    8.3314   12.1357   24.6049 C   0  0  0  0  0  0  0  0  0  0  0  0
   14.1093   15.6438   20.4654 C   0  0  0  0  0  0  0  0  0  0  0  0
   12.7345   15.5087   20.7362 C   0  0  0  0  0  0  0  0  0  0  0  0
    7.5073   11.3546   25.4152 C   0  0  0  0  0  0  0  0  0  0  0  0
    9.0925   11.5368   23.6011 C   0  0  0  0  0  0  0  0  0  0  0  0
   12.1241   15.7088   19.5222 C   0  0  0  0  0  0  0  0  0  0  0  0
    6.1983   13.1763   26.5191 C   0  0  0  0  0  0  0  0  0  0  0  0
   10.5757   13.5218   23.1107 C   0  0  0  0  0  0  0  0  0  0  0  0
    5.6385   12.8148   27.9080 C   0  0  0  0  0  0  0  0  0  0  0  0
    6.3055   11.4409   27.6958 C   0  0  0  0  0  0  0  0  0  0  0  0
   10.7006   15.7000   19.1349 C   0  0  0  0  0  0  0  0  0  0  0  0
   12.9967   16.2100   17.2195 C   0  0  0  0  0  0  0  0  0  0  0  0
   12.0867   15.2122   22.0579 C   0  0  0  0  0  0  0  0  0  0  0  0
   14.3580   15.9090   19.1802 N   0  0  0  0  0  0  0  0  0  0  0  0
   13.1312   15.9421   18.6326 N   0  0  0  0  0  0  0  0  0  0  0  0
    6.7461   11.9530   26.4198 N   0  0  0  0  0  0  0  0  0  0  0  0
    9.9171   12.3175   22.7904 N   0  0  0  0  0  0  0  0  0  0  0  0
   11.3099   13.9946   22.0182 N   0  0  0  0  0  0  0  0  0  0  0  0
    6.1743   14.1450   25.7951 O   0  0  0  0  0  0  0  0  0  0  0  0
   10.5318   14.1030   24.1923 O   0  0  0  0  0  0  0  0  0  0  0  0
    8.1574    8.3013   24.0679 H   0  0  0  0  0  0  0  0  0  0  0  0
    6.8052    9.3558   25.8464 H   0  0  0  0  0  0  0  0  0  0  0  0
    9.6174    9.6788   22.6280 H   0  0  0  0  0  0  0  0  0  0  0  0
    8.3802   13.2123   24.7557 H   0  0  0  0  0  0  0  0  0  0  0  0
   14.9422   15.5603   21.1489 H   0  0  0  0  0  0  0  0  0  0  0  0
    6.0520   13.4153   28.7219 H   0  0  0  0  0  0  0  0  0  0  0  0
    4.5470   12.8033   27.9564 H   0  0  0  0  0  0  0  0  0  0  0  0
    7.1248   11.2084   28.3819 H   0  0  0  0  0  0  0  0  0  0  0  0
    5.6174   10.5950   27.6151 H   0  0  0  0  0  0  0  0  0  0  0  0
   10.2569   16.7052   19.2264 H   0  0  0  0  0  0  0  0  0  0  0  0
   10.5564   15.3643   18.0934 H   0  0  0  0  0  0  0  0  0  0  0  0
   10.1049   15.0131   19.7608 H   0  0  0  0  0  0  0  0  0  0  0  0
   12.9049   17.2915   17.0885 H   0  0  0  0  0  0  0  0  0  0  0  0
   13.8780   15.8344   16.6922 H   0  0  0  0  0  0  0  0  0  0  0  0
   12.1072   15.7008   16.8382 H   0  0  0  0  0  0  0  0  0  0  0  0
   12.8430   15.1044   22.8430 H   0  0  0  0  0  0  0  0  0  0  0  0
   11.4187   16.0258   22.3594 H   0  0  0  0  0  0  0  0  0  0  0  0
   10.0735   11.9824   21.8339 H   0  0  0  0  0  0  0  0  0  0  0  0
   11.2965   13.4572   21.1572 H   0  0  0  0  0  0  0  0  0  0  0  0
  1  2  1  0  0  0  0
  1  3  2  0  0  0  0
  2  7  2  0  0  0  0
  3  8  1  0  0  0  0
  4  7  1  0  0  0  0
  4  8  2  0  0  0  0
  5  6  1  0  0  0  0
  5 17  2  0  0  0  0
  6  9  2  0  0  0  0
  6 16  1  0  0  0  0
  7 19  1  0  0  0  0
  8 20  1  0  0  0  0
  9 14  1  0  0  0  0
  9 18  1  0  0  0  0
 10 12  1  0  0  0  0
 10 19  1  0  0  0  0
 10 22  2  0  0  0  0
 11 20  1  0  0  0  0
 11 21  1  0  0  0  0
 11 23  2  0  0  0  0
 12 13  1  0  0  0  0
 13 19  1  0  0  0  0
 15 18  1  0  0  0  0
 16 21  1  0  0  0  0
 17 18  1  0  0  0  0
  1 24  1  0  0  0  0
  2 25  1  0  0  0  0
  3 26  1  0  0  0  0
  4 27  1  0  0  0  0
  5 28  1  0  0  0  0
 12 29  1  0  0  0  0
 12 30  1  0  0  0  0
 13 31  1  0  0  0  0
 13 32  1  0  0  0  0
 14 33  1  0  0  0  0
 14 34  1  0  0  0  0
 14 35  1  0  0  0  0
 15 36  1  0  0  0  0
 15 37  1  0  0  0  0
 15 38  1  0  0  0  0
 16 39  1  0  0  0  0
 16 40  1  0  0  0  0
 20 41  1  0  0  0  0
 21 42  1  0  0  0  0
M  END
> <Catalog ID>
Z1931409829

> <MW>
313.354

> <MW (desalted)>
313.354

> <ClogP>
0.604

> <logS>
-2.233

> <HBD>
2

> <HBA>
3

> <TPSA>
79.26

> <RotBonds>
4

> <ROCS_ShapeQuery>
A71EV2A-x0451_0A_A71EV2A-x0310_0A_A71EV2A-x0416_0A_peptide

> <ROCS_TanimotoCombo>
0.518 

> <ROCS_ShapeTanimoto>
0.342 

> <ROCS_ColorTanimoto>
0.176 

> <ROCS_RefTversky>
0.305 

> <ROCS_RefColorTversky>
0.195 

> <ROCS_RefTverskyCombo>
0.500 

> <ROCS_FitTversky>
1.559 

> <ROCS_FitColorTversky>
0.647 

> <ROCS_FitTverskyCombo>
2.206 

> <ROCS_ColorScore>
-5.949

> <ROCS_Overlap>
2117.809

> <ROCS_Rank>
484                 

$$$$
untitled-dbase-3817_259
  -OEChem-11132309573D

 47 50  0     0  0  0  0  0  0999 V2000
    9.0462    9.1224   23.0740 C   0  0  0  0  0  0  0  0  0  0  0  0
   11.3897   16.0476   22.5436 C   0  0  0  0  0  0  0  0  0  0  0  0
   12.0844   16.9475   21.7282 C   0  0  0  0  0  0  0  0  0  0  0  0
    9.7600   10.2001   22.5489 C   0  0  0  0  0  0  0  0  0  0  0  0
    8.1327    9.3254   24.1087 C   0  0  0  0  0  0  0  0  0  0  0  0
   12.1069   14.2325   21.1499 C   0  0  0  0  0  0  0  0  0  0  0  0
   11.4029   14.6901   22.2574 C   0  0  0  0  0  0  0  0  0  0  0  0
   12.8199   15.1256   20.3288 C   0  0  0  0  0  0  0  0  0  0  0  0
   12.8235   16.5110   20.6137 C   0  0  0  0  0  0  0  0  0  0  0  0
    9.5549   11.4860   23.0497 C   0  0  0  0  0  0  0  0  0  0  0  0
    7.9366   10.6090   24.6192 C   0  0  0  0  0  0  0  0  0  0  0  0
    8.6316   11.6920   24.0752 C   0  0  0  0  0  0  0  0  0  0  0  0
   14.5906   20.8340   19.1292 C   0  0  0  0  0  0  0  0  0  0  0  0
   13.8387   19.7420   18.9759 C   0  0  0  0  0  0  0  0  0  0  0  0
   10.7009   13.7523   23.1189 C   0  0  0  0  0  0  0  0  0  0  0  0
   13.7362   18.7806   20.0982 C   0  0  0  0  0  0  0  0  0  0  0  0
   13.5274   14.5516   19.1297 C   0  0  0  0  0  0  0  0  0  0  0  0
   14.6132   15.4870   18.6384 C   0  0  0  0  0  0  0  0  0  0  0  0
   14.0435   16.8854   18.4783 C   0  0  0  0  0  0  0  0  0  0  0  0
    7.1747   12.0024   26.3115 C   0  0  0  0  0  0  0  0  0  0  0  0
    7.2711   13.1230   25.2946 C   0  0  0  0  0  0  0  0  0  0  0  0
   13.5324   17.4350   19.7500 N   0  0  0  0  0  0  0  0  0  0  0  0
   10.2848   12.5666   22.4935 N   0  0  0  0  0  0  0  0  0  0  0  0
   10.4642   14.0110   24.3072 O   0  0  0  0  0  0  0  0  0  0  0  0
   13.8445   19.2387   21.2350 O   0  0  0  0  0  0  0  0  0  0  0  0
    7.0416   10.7420   25.6485 O   0  0  0  0  0  0  0  0  0  0  0  0
    8.4587   12.9799   24.5108 O   0  0  0  0  0  0  0  0  0  0  0  0
    9.2051    8.1229   22.6795 H   0  0  0  0  0  0  0  0  0  0  0  0
   10.8534   16.4242   23.4113 H   0  0  0  0  0  0  0  0  0  0  0  0
   12.0488   17.9886   22.0299 H   0  0  0  0  0  0  0  0  0  0  0  0
   10.4719   10.0250   21.7459 H   0  0  0  0  0  0  0  0  0  0  0  0
    7.5873    8.4790   24.5173 H   0  0  0  0  0  0  0  0  0  0  0  0
   12.1083   13.1696   20.9152 H   0  0  0  0  0  0  0  0  0  0  0  0
   14.7045   21.5740   18.3441 H   0  0  0  0  0  0  0  0  0  0  0  0
   15.1145   21.0073   20.0632 H   0  0  0  0  0  0  0  0  0  0  0  0
   13.3010   19.5347   18.0600 H   0  0  0  0  0  0  0  0  0  0  0  0
   13.9622   13.5845   19.4111 H   0  0  0  0  0  0  0  0  0  0  0  0
   12.8161   14.3744   18.3143 H   0  0  0  0  0  0  0  0  0  0  0  0
   15.4448   15.4971   19.3517 H   0  0  0  0  0  0  0  0  0  0  0  0
   15.0174   15.1384   17.6792 H   0  0  0  0  0  0  0  0  0  0  0  0
   14.7985   17.5832   18.0961 H   0  0  0  0  0  0  0  0  0  0  0  0
   13.2370   16.8275   17.7407 H   0  0  0  0  0  0  0  0  0  0  0  0
    8.0599   11.9665   26.9585 H   0  0  0  0  0  0  0  0  0  0  0  0
    6.2934   12.1394   26.9460 H   0  0  0  0  0  0  0  0  0  0  0  0
    6.4055   13.1326   24.6206 H   0  0  0  0  0  0  0  0  0  0  0  0
    7.3214   14.0922   25.8008 H   0  0  0  0  0  0  0  0  0  0  0  0
   10.5401   12.4702   21.5138 H   0  0  0  0  0  0  0  0  0  0  0  0
  1  4  2  0  0  0  0
  1  5  1  0  0  0  0
  2  3  2  0  0  0  0
  2  7  1  0  0  0  0
  3  9  1  0  0  0  0
  4 10  1  0  0  0  0
  5 11  2  0  0  0  0
  6  7  2  0  0  0  0
  6  8  1  0  0  0  0
  7 15  1  0  0  0  0
  8  9  2  0  0  0  0
  8 17  1  0  0  0  0
  9 22  1  0  0  0  0
 10 12  2  0  0  0  0
 10 23  1  0  0  0  0
 11 12  1  0  0  0  0
 11 26  1  0  0  0  0
 12 27  1  0  0  0  0
 13 14  2  0  0  0  0
 14 16  1  0  0  0  0
 15 23  1  0  0  0  0
 15 24  2  0  0  0  0
 16 22  1  0  0  0  0
 16 25  2  0  0  0  0
 17 18  1  0  0  0  0
 18 19  1  0  0  0  0
 19 22  1  0  0  0  0
 20 21  1  0  0  0  0
 20 26  1  0  0  0  0
 21 27  1  0  0  0  0
  1 28  1  0  0  0  0
  2 29  1  0  0  0  0
  3 30  1  0  0  0  0
  4 31  1  0  0  0  0
  5 32  1  0  0  0  0
  6 33  1  0  0  0  0
 13 34  1  0  0  0  0
 13 35  1  0  0  0  0
 14 36  1  0  0  0  0
 17 37  1  0  0  0  0
 17 38  1  0  0  0  0
 18 39  1  0  0  0  0
 18 40  1  0  0  0  0
 19 41  1  0  0  0  0
 19 42  1  0  0  0  0
 20 43  1  0  0  0  0
 20 44  1  0  0  0  0
 21 45  1  0  0  0  0
 21 46  1  0  0  0  0
 23 47  1  0  0  0  0
M  END
> <Catalog ID>
Z3756579514

> <MW>
364.395

> <MW (desalted)>
364.395

> <ClogP>
3.46

> <logS>
-5.454

> <HBD>
1

> <HBA>
4

> <TPSA>
67.87

> <RotBonds>
3

> <ROCS_ShapeQuery>
A71EV2A-x0451_0A_A71EV2A-x0310_0A_A71EV2A-x0416_0A_peptide

> <ROCS_TanimotoCombo>
0.518 

> <ROCS_ShapeTanimoto>
0.349 

> <ROCS_ColorTanimoto>
0.169 

> <ROCS_RefTversky>
0.317 

> <ROCS_RefColorTversky>
0.197 

> <ROCS_RefTverskyCombo>
0.513 

> <ROCS_FitTversky>
1.423 

> <ROCS_FitColorTversky>
0.543 

> <ROCS_FitTverskyCombo>
1.966 

> <ROCS_ColorScore>
-6.030

> <ROCS_Overlap>
2202.456

> <ROCS_Rank>
485                 

$$$$
untitled-dbase-11328_6825
  -OEChem-11132309573D

 56 59  0     0  0  0  0  0  0999 V2000
    8.8836    9.4629   23.5313 C   0  0  0  0  0  0  0  0  0  0  0  0
   13.9883   15.5514   21.6240 C   0  0  0  0  0  0  0  0  0  0  0  0
    7.9565    9.9126   24.4714 C   0  0  0  0  0  0  0  0  0  0  0  0
   13.1411   14.8762   22.4906 C   0  0  0  0  0  0  0  0  0  0  0  0
   13.5272   15.9733   20.3724 C   0  0  0  0  0  0  0  0  0  0  0  0
    9.7271   10.3724   22.8933 C   0  0  0  0  0  0  0  0  0  0  0  0
    8.7161   12.1813   24.1353 C   0  0  0  0  0  0  0  0  0  0  0  0
    7.8726   11.2718   24.7733 C   0  0  0  0  0  0  0  0  0  0  0  0
   11.8322   14.6166   22.1022 C   0  0  0  0  0  0  0  0  0  0  0  0
   11.3523   15.0465   20.8510 C   0  0  0  0  0  0  0  0  0  0  0  0
   12.2015   15.7444   19.9610 C   0  0  0  0  0  0  0  0  0  0  0  0
    9.6433   11.7316   23.1953 C   0  0  0  0  0  0  0  0  0  0  0  0
    5.0587   12.7118   27.5666 C   0  0  0  0  0  0  0  0  0  0  0  0
    6.8848   11.7492   25.7746 C   0  0  0  0  0  0  0  0  0  0  0  0
    5.6049   11.4882   27.6499 C   0  0  0  0  0  0  0  0  0  0  0  0
    5.4510   13.5922   26.4451 C   0  0  0  0  0  0  0  0  0  0  0  0
   14.4454   18.3999   17.8876 C   0  0  0  0  0  0  0  0  0  0  0  0
   13.3350   17.9971   18.5088 C   0  0  0  0  0  0  0  0  0  0  0  0
   10.9996   13.8693   23.0393 C   0  0  0  0  0  0  0  0  0  0  0  0
   12.4465   17.0263   17.8285 C   0  0  0  0  0  0  0  0  0  0  0  0
    9.9323   14.6939   20.4941 C   0  0  0  0  0  0  0  0  0  0  0  0
    9.4059   15.5974   19.3980 C   0  0  0  0  0  0  0  0  0  0  0  0
   10.3992   15.6333   18.2499 C   0  0  0  0  0  0  0  0  0  0  0  0
    6.1611   10.7603   29.9447 C   0  0  0  0  0  0  0  0  0  0  0  0
    5.2343   10.5573   28.7679 C   0  0  0  0  0  0  0  0  0  0  0  0
    6.5235   10.9815   26.7582 N   0  0  0  0  0  0  0  0  0  0  0  0
    6.3764   13.0279   25.5900 N   0  0  0  0  0  0  0  0  0  0  0  0
   11.7162   16.1606   18.6596 N   0  0  0  0  0  0  0  0  0  0  0  0
   10.5009   12.6557   22.5469 N   0  0  0  0  0  0  0  0  0  0  0  0
    4.9715   14.7140   26.3199 O   0  0  0  0  0  0  0  0  0  0  0  0
   10.7385   14.3093   24.1646 O   0  0  0  0  0  0  0  0  0  0  0  0
   12.4287   17.0557   16.5986 O   0  0  0  0  0  0  0  0  0  0  0  0
    8.9492    8.4045   23.2964 H   0  0  0  0  0  0  0  0  0  0  0  0
   15.0188   15.7413   21.9112 H   0  0  0  0  0  0  0  0  0  0  0  0
    7.3038    9.1947   24.9613 H   0  0  0  0  0  0  0  0  0  0  0  0
   13.5157   14.5457   23.4557 H   0  0  0  0  0  0  0  0  0  0  0  0
   14.2602   16.4497   19.7308 H   0  0  0  0  0  0  0  0  0  0  0  0
   10.4458   10.0108   22.1619 H   0  0  0  0  0  0  0  0  0  0  0  0
    8.6501   13.2417   24.3700 H   0  0  0  0  0  0  0  0  0  0  0  0
    4.3376   13.0861   28.2834 H   0  0  0  0  0  0  0  0  0  0  0  0
   15.1348   19.1085   18.3343 H   0  0  0  0  0  0  0  0  0  0  0  0
   14.6862   18.0178   16.9011 H   0  0  0  0  0  0  0  0  0  0  0  0
   13.0612   18.3551   19.4927 H   0  0  0  0  0  0  0  0  0  0  0  0
    9.9017   13.6477   20.1654 H   0  0  0  0  0  0  0  0  0  0  0  0
    9.2677   14.7970   21.3596 H   0  0  0  0  0  0  0  0  0  0  0  0
    8.4357   15.2285   19.0464 H   0  0  0  0  0  0  0  0  0  0  0  0
    9.2436   16.6135   19.7801 H   0  0  0  0  0  0  0  0  0  0  0  0
   10.5595   14.6333   17.8287 H   0  0  0  0  0  0  0  0  0  0  0  0
    9.9687   16.2622   17.4643 H   0  0  0  0  0  0  0  0  0  0  0  0
    7.1948   10.5548   29.6499 H   0  0  0  0  0  0  0  0  0  0  0  0
    5.9003   10.0932   30.7733 H   0  0  0  0  0  0  0  0  0  0  0  0
    6.1088   11.7884   30.3180 H   0  0  0  0  0  0  0  0  0  0  0  0
    4.1987   10.7585   29.0460 H   0  0  0  0  0  0  0  0  0  0  0  0
    5.3063    9.5372   28.3875 H   0  0  0  0  0  0  0  0  0  0  0  0
    6.6919   13.5814   24.7982 H   0  0  0  0  0  0  0  0  0  0  0  0
   10.7911   12.4063   21.6046 H   0  0  0  0  0  0  0  0  0  0  0  0
  1  3  2  0  0  0  0
  1  6  1  0  0  0  0
  2  4  2  0  0  0  0
  2  5  1  0  0  0  0
  3  8  1  0  0  0  0
  4  9  1  0  0  0  0
  5 11  2  0  0  0  0
  6 12  2  0  0  0  0
  7  8  2  0  0  0  0
  7 12  1  0  0  0  0
  8 14  1  0  0  0  0
  9 10  2  0  0  0  0
  9 19  1  0  0  0  0
 10 11  1  0  0  0  0
 10 21  1  0  0  0  0
 11 28  1  0  0  0  0
 12 29  1  0  0  0  0
 13 15  2  0  0  0  0
 13 16  1  0  0  0  0
 14 26  2  0  0  0  0
 14 27  1  0  0  0  0
 15 25  1  0  0  0  0
 15 26  1  0  0  0  0
 16 27  1  0  0  0  0
 16 30  2  0  0  0  0
 17 18  2  0  0  0  0
 18 20  1  0  0  0  0
 19 29  1  0  0  0  0
 19 31  2  0  0  0  0
 20 28  1  0  0  0  0
 20 32  2  0  0  0  0
 21 22  1  0  0  0  0
 22 23  1  0  0  0  0
 23 28  1  0  0  0  0
 24 25  1  0  0  0  0
  1 33  1  0  0  0  0
  2 34  1  0  0  0  0
  3 35  1  0  0  0  0
  4 36  1  0  0  0  0
  5 37  1  0  0  0  0
  6 38  1  0  0  0  0
  7 39  1  0  0  0  0
 13 40  1  0  0  0  0
 17 41  1  0  0  0  0
 17 42  1  0  0  0  0
 18 43  1  0  0  0  0
 21 44  1  0  0  0  0
 21 45  1  0  0  0  0
 22 46  1  0  0  0  0
 22 47  1  0  0  0  0
 23 48  1  0  0  0  0
 23 49  1  0  0  0  0
 24 50  1  0  0  0  0
 24 51  1  0  0  0  0
 24 52  1  0  0  0  0
 25 53  1  0  0  0  0
 25 54  1  0  0  0  0
 27 55  1  0  0  0  0
 29 56  1  0  0  0  0
M  END
> <Catalog ID>
Z4899441972

> <MW>
428.483

> <MW (desalted)>
428.483

> <ClogP>
3.337

> <logS>
-6.755

> <HBD>
2

> <HBA>
4

> <TPSA>
90.87

> <RotBonds>
5

> <ROCS_ShapeQuery>
A71EV2A-x0451_0A_A71EV2A-x0310_0A_A71EV2A-x0416_0A_peptide

> <ROCS_TanimotoCombo>
0.518 

> <ROCS_ShapeTanimoto>
0.366 

> <ROCS_ColorTanimoto>
0.153 

> <ROCS_RefTversky>
0.335 

> <ROCS_RefColorTversky>
0.189 

> <ROCS_RefTverskyCombo>
0.524 

> <ROCS_FitTversky>
1.331 

> <ROCS_FitColorTversky>
0.446 

> <ROCS_FitTverskyCombo>
1.777 

> <ROCS_ColorScore>
-5.792

> <ROCS_Overlap>
2335.592

> <ROCS_Rank>
486                 

$$$$
untitled-dbase-10041_4110
  -OEChem-11132309573D

 55 57  0     0  0  0  0  0  0999 V2000
   12.9907   12.9271   21.7967 C   0  0  0  0  0  0  0  0  0  0  0  0
   13.6537   16.3164   20.8288 C   0  0  0  0  0  0  0  0  0  0  0  0
    7.1970   10.3215   25.1612 C   0  0  0  0  0  0  0  0  0  0  0  0
    8.0544    9.5397   24.3872 C   0  0  0  0  0  0  0  0  0  0  0  0
   14.4843   16.8582   19.8480 C   0  0  0  0  0  0  0  0  0  0  0  0
   12.3096   15.2725   19.1140 C   0  0  0  0  0  0  0  0  0  0  0  0
    8.3332   12.3154   24.4058 C   0  0  0  0  0  0  0  0  0  0  0  0
   12.5663   15.5235   20.4619 C   0  0  0  0  0  0  0  0  0  0  0  0
    7.3363   11.7094   25.1705 C   0  0  0  0  0  0  0  0  0  0  0  0
    9.0513   10.1457   23.6225 C   0  0  0  0  0  0  0  0  0  0  0  0
    9.1907   11.5336   23.6318 C   0  0  0  0  0  0  0  0  0  0  0  0
   14.2276   16.6071   18.5002 C   0  0  0  0  0  0  0  0  0  0  0  0
   13.1403   15.8143   18.1331 C   0  0  0  0  0  0  0  0  0  0  0  0
   11.6919   14.9500   21.4968 C   0  0  0  0  0  0  0  0  0  0  0  0
   11.8737   13.7615   22.1059 C   0  0  0  0  0  0  0  0  0  0  0  0
   10.8490   13.3664   23.1478 C   0  0  0  0  0  0  0  0  0  0  0  0
    9.3708    8.0739   22.3338 C   0  0  0  0  0  0  0  0  0  0  0  0
   11.3461    9.3631   23.0969 C   0  0  0  0  0  0  0  0  0  0  0  0
   10.2121    7.6120   21.1494 C   0  0  0  0  0  0  0  0  0  0  0  0
   12.0822    8.8319   21.8719 C   0  0  0  0  0  0  0  0  0  0  0  0
   13.1469   13.1885   16.9650 C   0  0  0  0  0  0  0  0  0  0  0  0
   12.2515   14.3210   16.5095 C   0  0  0  0  0  0  0  0  0  0  0  0
    6.4193   12.5450   25.9982 C   0  0  0  0  0  0  0  0  0  0  0  0
   13.8973   12.2461   21.5493 N   0  0  0  0  0  0  0  0  0  0  0  0
    9.8996    9.3425   22.8534 N   0  0  0  0  0  0  0  0  0  0  0  0
   10.1816   12.1630   22.8734 N   0  0  0  0  0  0  0  0  0  0  0  0
   10.6569   14.0776   24.1309 O   0  0  0  0  0  0  0  0  0  0  0  0
   11.5904    7.5409   21.5139 O   0  0  0  0  0  0  0  0  0  0  0  0
   15.0465   17.1422   17.5521 O   0  0  0  0  0  0  0  0  0  0  0  0
   12.8796   15.5633   16.8197 O   0  0  0  0  0  0  0  0  0  0  0  0
    5.4944   11.8187   26.6932 F   0  0  0  0  0  0  0  0  0  0  0  0
    7.0639   13.2950   26.9404 F   0  0  0  0  0  0  0  0  0  0  0  0
    5.7010   13.4336   25.2516 F   0  0  0  0  0  0  0  0  0  0  0  0
   13.8670   16.5199   21.8754 H   0  0  0  0  0  0  0  0  0  0  0  0
    6.4236    9.8405   25.7541 H   0  0  0  0  0  0  0  0  0  0  0  0
    7.9366    8.4589   24.3881 H   0  0  0  0  0  0  0  0  0  0  0  0
   15.3296   17.4752   20.1407 H   0  0  0  0  0  0  0  0  0  0  0  0
   11.4641   14.6549   18.8189 H   0  0  0  0  0  0  0  0  0  0  0  0
    8.4389   13.3982   24.4156 H   0  0  0  0  0  0  0  0  0  0  0  0
   10.8573   15.5966   21.7588 H   0  0  0  0  0  0  0  0  0  0  0  0
    8.3270    8.1885   22.0185 H   0  0  0  0  0  0  0  0  0  0  0  0
    9.4094    7.3177   23.1284 H   0  0  0  0  0  0  0  0  0  0  0  0
   11.5731    8.7300   23.9645 H   0  0  0  0  0  0  0  0  0  0  0  0
   11.6892   10.3809   23.3168 H   0  0  0  0  0  0  0  0  0  0  0  0
    9.8976    6.6099   20.8406 H   0  0  0  0  0  0  0  0  0  0  0  0
   10.0899    8.2760   20.2853 H   0  0  0  0  0  0  0  0  0  0  0  0
   11.9894    9.5151   21.0189 H   0  0  0  0  0  0  0  0  0  0  0  0
   13.1488    8.7309   22.0971 H   0  0  0  0  0  0  0  0  0  0  0  0
   14.1142   13.2271   16.4563 H   0  0  0  0  0  0  0  0  0  0  0  0
   13.3137   13.2391   18.0460 H   0  0  0  0  0  0  0  0  0  0  0  0
   12.6785   12.2201   16.7602 H   0  0  0  0  0  0  0  0  0  0  0  0
   11.2859   14.2766   17.0221 H   0  0  0  0  0  0  0  0  0  0  0  0
   12.0866   14.2694   15.4292 H   0  0  0  0  0  0  0  0  0  0  0  0
   10.4550   11.6858   22.0084 H   0  0  0  0  0  0  0  0  0  0  0  0
   14.7471   16.8841   16.6662 H   0  0  0  0  0  0  0  0  0  0  0  0
  1 15  1  0  0  0  0
  1 24  3  0  0  0  0
  2  5  2  0  0  0  0
  2  8  1  0  0  0  0
  3  4  2  0  0  0  0
  3  9  1  0  0  0  0
  4 10  1  0  0  0  0
  5 12  1  0  0  0  0
  6  8  2  0  0  0  0
  6 13  1  0  0  0  0
  7  9  2  0  0  0  0
  7 11  1  0  0  0  0
  8 14  1  4  0  0  0
  9 23  1  0  0  0  0
 10 11  2  0  0  0  0
 10 25  1  0  0  0  0
 11 26  1  0  0  0  0
 12 13  2  0  0  0  0
 12 29  1  0  0  0  0
 13 30  1  0  0  0  0
 14 15  2  0  0  0  0
 15 16  1  0  0  0  0
 16 26  1  0  0  0  0
 16 27  2  0  0  0  0
 17 19  1  0  0  0  0
 17 25  1  0  0  0  0
 18 20  1  0  0  0  0
 18 25  1  0  0  0  0
 19 28  1  0  0  0  0
 20 28  1  0  0  0  0
 21 22  1  0  0  0  0
 22 30  1  0  0  0  0
 23 31  1  0  0  0  0
 23 32  1  0  0  0  0
 23 33  1  0  0  0  0
  2 34  1  0  0  0  0
  3 35  1  0  0  0  0
  4 36  1  0  0  0  0
  5 37  1  0  0  0  0
  6 38  1  0  0  0  0
  7 39  1  0  0  0  0
 14 40  1  0  0  0  0
 17 41  1  0  0  0  0
 17 42  1  0  0  0  0
 18 43  1  0  0  0  0
 18 44  1  0  0  0  0
 19 45  1  0  0  0  0
 19 46  1  0  0  0  0
 20 47  1  0  0  0  0
 20 48  1  0  0  0  0
 21 49  1  0  0  0  0
 21 50  1  0  0  0  0
 21 51  1  0  0  0  0
 22 52  1  0  0  0  0
 22 53  1  0  0  0  0
 26 54  1  0  0  0  0
 29 55  1  0  0  0  0
M  END
> <Catalog ID>
Z56831814

> <MW>
461.434

> <MW (desalted)>
461.434

> <ClogP>
3.578

> <logS>
-5.41

> <HBD>
2

> <HBA>
6

> <TPSA>
94.82

> <RotBonds>
7

> <ROCS_ShapeQuery>
A71EV2A-x0451_0A_A71EV2A-x0310_0A_A71EV2A-x0416_0A_peptide

> <ROCS_TanimotoCombo>
0.518 

> <ROCS_ShapeTanimoto>
0.379 

> <ROCS_ColorTanimoto>
0.139 

> <ROCS_RefTversky>
0.345 

> <ROCS_RefColorTversky>
0.166 

> <ROCS_RefTverskyCombo>
0.511 

> <ROCS_FitTversky>
1.353 

> <ROCS_FitColorTversky>
0.458 

> <ROCS_FitTverskyCombo>
1.812 

> <ROCS_ColorScore>
-5.082

> <ROCS_Overlap>
2406.668

> <ROCS_Rank>
487                 

$$$$
untitled-dbase-10007_5053
  -OEChem-11132309573D

 42 44  0     0  0  0  0  0  0999 V2000
   13.5063   15.8521   20.5074 B   0  0  0  0  0  0  0  0  0  0  0  0
    9.9268   16.4967   21.7232 C   0  0  0  0  0  0  0  0  0  0  0  0
   11.1289   16.5517   21.0179 C   0  0  0  0  0  0  0  0  0  0  0  0
    6.0167    9.5883   25.0913 C   0  0  0  0  0  0  0  0  0  0  0  0
    9.7796   15.6007   22.7820 C   0  0  0  0  0  0  0  0  0  0  0  0
    5.0169   10.1604   25.8770 C   0  0  0  0  0  0  0  0  0  0  0  0
    6.3345   12.1785   26.0984 C   0  0  0  0  0  0  0  0  0  0  0  0
   12.1840   15.7106   21.3715 C   0  0  0  0  0  0  0  0  0  0  0  0
    7.3412   11.6115   25.3112 C   0  0  0  0  0  0  0  0  0  0  0  0
   12.0369   14.8145   22.4303 C   0  0  0  0  0  0  0  0  0  0  0  0
    7.1746   10.3168   24.8120 C   0  0  0  0  0  0  0  0  0  0  0  0
    5.1753   11.4524   26.3796 C   0  0  0  0  0  0  0  0  0  0  0  0
   10.8347   14.7595   23.1356 C   0  0  0  0  0  0  0  0  0  0  0  0
    8.5680   12.3387   24.9948 C   0  0  0  0  0  0  0  0  0  0  0  0
    9.5309   11.7890   24.2385 C   0  0  0  0  0  0  0  0  0  0  0  0
    9.3610   10.3998   23.6980 C   0  0  0  0  0  0  0  0  0  0  0  0
   13.1165   13.9132   22.8353 C   0  0  0  0  0  0  0  0  0  0  0  0
    4.4213   13.3306   27.6284 C   0  0  0  0  0  0  0  0  0  0  0  0
   10.7997   12.5062   23.8952 C   0  0  0  0  0  0  0  0  0  0  0  0
    8.1864    9.7482   24.0212 N   0  0  0  0  0  0  0  0  0  0  0  0
   10.2366    9.8855   23.0034 O   0  0  0  0  0  0  0  0  0  0  0  0
   13.6113   13.9321   23.9603 O   0  0  0  0  0  0  0  0  0  0  0  0
   13.4743   15.6245   19.1522 O   0  0  0  0  0  0  0  0  0  0  0  0
   14.6911   16.2031   21.1093 O   0  0  0  0  0  0  0  0  0  0  0  0
    4.1964   12.0070   27.1465 O   0  0  0  0  0  0  0  0  0  0  0  0
   10.6636   13.8865   24.1812 O   0  0  0  0  0  0  0  0  0  0  0  0
    9.1051   17.1516   21.4483 H   0  0  0  0  0  0  0  0  0  0  0  0
   11.2083   17.2633   20.1976 H   0  0  0  0  0  0  0  0  0  0  0  0
    5.8837    8.5815   24.7048 H   0  0  0  0  0  0  0  0  0  0  0  0
    8.8400   15.5630   23.3264 H   0  0  0  0  0  0  0  0  0  0  0  0
    4.1153    9.5943   26.0950 H   0  0  0  0  0  0  0  0  0  0  0  0
    6.4456   13.1848   26.4961 H   0  0  0  0  0  0  0  0  0  0  0  0
    8.6770   13.3429   25.3927 H   0  0  0  0  0  0  0  0  0  0  0  0
   13.4830   13.1953   22.0756 H   0  0  0  0  0  0  0  0  0  0  0  0
    3.5645   13.6524   28.2254 H   0  0  0  0  0  0  0  0  0  0  0  0
    4.5645   14.0078   26.7826 H   0  0  0  0  0  0  0  0  0  0  0  0
    5.3188   13.3344   28.2515 H   0  0  0  0  0  0  0  0  0  0  0  0
   11.0284   12.3805   22.8371 H   0  0  0  0  0  0  0  0  0  0  0  0
   11.6186   12.1034   24.4902 H   0  0  0  0  0  0  0  0  0  0  0  0
    8.0425    8.8058   23.6697 H   0  0  0  0  0  0  0  0  0  0  0  0
   12.5933   15.3826   18.8216 H   0  0  0  0  0  0  0  0  0  0  0  0
   14.6114   16.3421   22.0676 H   0  0  0  0  0  0  0  0  0  0  0  0
  1  8  1  0  0  0  0
  1 23  1  0  0  0  0
  1 24  1  0  0  0  0
  2  3  1  0  0  0  0
  2  5  2  0  0  0  0
  3  8  2  0  0  0  0
  4  6  2  0  0  0  0
  4 11  1  0  0  0  0
  5 13  1  0  0  0  0
  6 12  1  0  0  0  0
  7  9  1  0  0  0  0
  7 12  2  0  0  0  0
  8 10  1  0  0  0  0
  9 11  2  0  0  0  0
  9 14  1  0  0  0  0
 10 13  2  0  0  0  0
 10 17  1  0  0  0  0
 11 20  1  0  0  0  0
 12 25  1  0  0  0  0
 13 26  1  0  0  0  0
 14 15  2  0  0  0  0
 15 16  1  0  0  0  0
 15 19  1  0  0  0  0
 16 20  1  0  0  0  0
 16 21  2  0  0  0  0
 17 22  2  0  0  0  0
 18 25  1  0  0  0  0
 19 26  1  0  0  0  0
  2 27  1  0  0  0  0
  3 28  1  0  0  0  0
  4 29  1  0  0  0  0
  5 30  1  0  0  0  0
  6 31  1  0  0  0  0
  7 32  1  0  0  0  0
 14 33  1  0  0  0  0
 17 34  1  0  0  0  0
 18 35  1  0  0  0  0
 18 36  1  0  0  0  0
 18 37  1  0  0  0  0
 19 38  1  0  0  0  0
 19 39  1  0  0  0  0
 20 40  1  0  0  0  0
 23 41  1  0  0  0  0
 24 42  1  0  0  0  0
M  END
> <Catalog ID>
Z5108695311

> <MW>
353.134

> <MW (desalted)>
353.134

> <ClogP>
1.866

> <logS>
-3.424

> <HBD>
3

> <HBA>
6

> <TPSA>
105.09

> <RotBonds>
6

> <ROCS_ShapeQuery>
A71EV2A-x0451_0A_A71EV2A-x0310_0A_A71EV2A-x0416_0A_peptide

> <ROCS_TanimotoCombo>
0.518 

> <ROCS_ShapeTanimoto>
0.359 

> <ROCS_ColorTanimoto>
0.160 

> <ROCS_RefTversky>
0.320 

> <ROCS_RefColorTversky>
0.179 

> <ROCS_RefTverskyCombo>
0.499 

> <ROCS_FitTversky>
1.499 

> <ROCS_FitColorTversky>
0.595 

> <ROCS_FitTverskyCombo>
2.094 

> <ROCS_ColorScore>
-5.466

> <ROCS_Overlap>
2228.170

> <ROCS_Rank>
488                 

$$$$
untitled-dbase-7993_3362
  -OEChem-11132309573D

 52 55  0     0  0  0  0  0  0999 V2000
    9.8940   16.8219   20.3340 C   0  0  0  0  0  0  0  0  0  0  0  0
   10.6598   17.0464   19.1902 C   0  0  0  0  0  0  0  0  0  0  0  0
   10.3594   15.9638   21.3273 C   0  0  0  0  0  0  0  0  0  0  0  0
    9.6860   10.7333   23.1254 C   0  0  0  0  0  0  0  0  0  0  0  0
    9.5688   11.9674   23.7753 C   0  0  0  0  0  0  0  0  0  0  0  0
   11.8994   16.4116   19.0281 C   0  0  0  0  0  0  0  0  0  0  0  0
   12.3785   15.5609   20.0432 C   0  0  0  0  0  0  0  0  0  0  0  0
   11.5945   15.3329   21.1823 C   0  0  0  0  0  0  0  0  0  0  0  0
    8.4218   11.8628   24.5286 C   0  0  0  0  0  0  0  0  0  0  0  0
    6.0904   10.9868   25.7540 C   0  0  0  0  0  0  0  0  0  0  0  0
    6.7316   10.1514   24.9220 C   0  0  0  0  0  0  0  0  0  0  0  0
    6.7113   12.3323   25.9387 C   0  0  0  0  0  0  0  0  0  0  0  0
   16.0799   14.4008   15.1524 C   0  0  0  0  0  0  0  0  0  0  0  0
   15.3610   14.4050   16.2769 C   0  0  0  0  0  0  0  0  0  0  0  0
   10.4594   13.1541   23.6992 C   0  0  0  0  0  0  0  0  0  0  0  0
   14.2006   15.3120   16.3780 C   0  0  0  0  0  0  0  0  0  0  0  0
   13.7008   14.8494   19.8915 C   0  0  0  0  0  0  0  0  0  0  0  0
   12.7111   16.6850   17.7838 C   0  0  0  0  0  0  0  0  0  0  0  0
   14.6037   15.5555   18.8855 C   0  0  0  0  0  0  0  0  0  0  0  0
    6.2309    8.7679   24.6361 C   0  0  0  0  0  0  0  0  0  0  0  0
    6.0084   13.2880   26.8702 C   0  0  0  0  0  0  0  0  0  0  0  0
   12.0493   14.4233   22.2789 C   0  0  0  0  0  0  0  0  0  0  0  0
    8.6987    9.8926   23.4288 N   0  0  0  0  0  0  0  0  0  0  0  0
    7.8042   12.7418   25.3646 N   0  0  0  0  0  0  0  0  0  0  0  0
    7.9103   10.5844   24.2978 N   0  0  0  0  0  0  0  0  0  0  0  0
   13.8638   15.7908   17.6407 N   0  0  0  0  0  0  0  0  0  0  0  0
   11.1330   13.3350   22.4981 N   0  0  0  0  0  0  0  0  0  0  0  0
   10.5700   13.8852   24.6799 O   0  0  0  0  0  0  0  0  0  0  0  0
   13.5938   15.5846   15.3409 O   0  0  0  0  0  0  0  0  0  0  0  0
    8.9364   17.3210   20.4521 H   0  0  0  0  0  0  0  0  0  0  0  0
   10.2878   17.7237   18.4258 H   0  0  0  0  0  0  0  0  0  0  0  0
    9.7531   15.7960   22.2140 H   0  0  0  0  0  0  0  0  0  0  0  0
   10.4523   10.4037   22.4381 H   0  0  0  0  0  0  0  0  0  0  0  0
    5.1772   10.7320   26.2752 H   0  0  0  0  0  0  0  0  0  0  0  0
   16.9429   13.7571   15.0188 H   0  0  0  0  0  0  0  0  0  0  0  0
   15.8093   15.0558   14.3311 H   0  0  0  0  0  0  0  0  0  0  0  0
   15.5993   13.7663   17.1174 H   0  0  0  0  0  0  0  0  0  0  0  0
   14.1922   14.7958   20.8733 H   0  0  0  0  0  0  0  0  0  0  0  0
   13.5501   13.8199   19.5397 H   0  0  0  0  0  0  0  0  0  0  0  0
   12.0849   16.5420   16.9052 H   0  0  0  0  0  0  0  0  0  0  0  0
   13.0610   17.7132   17.8281 H   0  0  0  0  0  0  0  0  0  0  0  0
   14.9685   16.4898   19.3072 H   0  0  0  0  0  0  0  0  0  0  0  0
   15.4672   14.9375   18.6333 H   0  0  0  0  0  0  0  0  0  0  0  0
    5.5597    8.7933   23.7802 H   0  0  0  0  0  0  0  0  0  0  0  0
    5.6982    8.3862   25.5050 H   0  0  0  0  0  0  0  0  0  0  0  0
    7.0730    8.1135   24.4190 H   0  0  0  0  0  0  0  0  0  0  0  0
    6.3933   13.1509   27.8752 H   0  0  0  0  0  0  0  0  0  0  0  0
    4.9427   13.0843   26.8499 H   0  0  0  0  0  0  0  0  0  0  0  0
    6.1904   14.3050   26.5384 H   0  0  0  0  0  0  0  0  0  0  0  0
   13.0310   13.9903   22.0474 H   0  0  0  0  0  0  0  0  0  0  0  0
   12.1535   14.9636   23.2282 H   0  0  0  0  0  0  0  0  0  0  0  0
   11.0357   12.6488   21.7533 H   0  0  0  0  0  0  0  0  0  0  0  0
  1  2  1  0  0  0  0
  1  3  2  0  0  0  0
  2  6  2  0  0  0  0
  3  8  1  0  0  0  0
  4  5  1  0  0  0  0
  4 23  2  0  0  0  0
  5  9  2  0  0  0  0
  5 15  1  0  0  0  0
  6  7  1  0  0  0  0
  6 18  1  0  0  0  0
  7  8  2  0  0  0  0
  7 17  1  0  0  0  0
  8 22  1  0  0  0  0
  9 24  1  0  0  0  0
  9 25  1  0  0  0  0
 10 11  2  0  0  0  0
 10 12  1  0  0  0  0
 11 20  1  0  0  0  0
 11 25  1  0  0  0  0
 12 21  1  0  0  0  0
 12 24  2  0  0  0  0
 13 14  2  0  0  0  0
 14 16  1  0  0  0  0
 15 27  1  0  0  0  0
 15 28  2  0  0  0  0
 16 26  1  0  0  0  0
 16 29  2  0  0  0  0
 17 19  1  0  0  0  0
 18 26  1  0  0  0  0
 19 26  1  0  0  0  0
 22 27  1  0  0  0  0
 23 25  1  0  0  0  0
  1 30  1  0  0  0  0
  2 31  1  0  0  0  0
  3 32  1  0  0  0  0
  4 33  1  0  0  0  0
 10 34  1  0  0  0  0
 13 35  1  0  0  0  0
 13 36  1  0  0  0  0
 14 37  1  0  0  0  0
 17 38  1  0  0  0  0
 17 39  1  0  0  0  0
 18 40  1  0  0  0  0
 18 41  1  0  0  0  0
 19 42  1  0  0  0  0
 19 43  1  0  0  0  0
 20 44  1  0  0  0  0
 20 45  1  0  0  0  0
 20 46  1  0  0  0  0
 21 47  1  0  0  0  0
 21 48  1  0  0  0  0
 21 49  1  0  0  0  0
 22 50  1  0  0  0  0
 22 51  1  0  0  0  0
 27 52  1  0  0  0  0
M  END
> <Catalog ID>
Z4942812926

> <MW>
389.45

> <MW (desalted)>
389.45

> <ClogP>
1.887

> <logS>
-3.898

> <HBD>
1

> <HBA>
4

> <TPSA>
79.6

> <RotBonds>
4

> <ROCS_ShapeQuery>
A71EV2A-x0451_0A_A71EV2A-x0310_0A_A71EV2A-x0416_0A_peptide

> <ROCS_TanimotoCombo>
0.518 

> <ROCS_ShapeTanimoto>
0.345 

> <ROCS_ColorTanimoto>
0.173 

> <ROCS_RefTversky>
0.317 

> <ROCS_RefColorTversky>
0.201 

> <ROCS_RefTverskyCombo>
0.518 

> <ROCS_FitTversky>
1.353 

> <ROCS_FitColorTversky>
0.553 

> <ROCS_FitTverskyCombo>
1.907 

> <ROCS_ColorScore>
-6.150

> <ROCS_Overlap>
2205.554

> <ROCS_Rank>
489                 

$$$$
untitled-dbase-7478_3356
  -OEChem-11132309573D

 49 51  0     0  0  0  0  0  0999 V2000
    8.0217   10.6708   24.8300 C   0  0  0  0  0  0  0  0  0  0  0  0
    8.8918   11.6146   23.0694 C   0  0  0  0  0  0  0  0  0  0  0  0
    7.2771   10.6535   26.0237 C   0  0  0  0  0  0  0  0  0  0  0  0
    6.7215   11.7896   26.4598 C   0  0  0  0  0  0  0  0  0  0  0  0
    6.9141   13.0464   25.6537 C   0  0  0  0  0  0  0  0  0  0  0  0
   15.5719   10.0571   26.8474 C   0  0  0  0  0  0  0  0  0  0  0  0
   15.9314   10.8966   25.8741 C   0  0  0  0  0  0  0  0  0  0  0  0
   15.4000   12.2740   25.8879 C   0  0  0  0  0  0  0  0  0  0  0  0
   11.1588   13.6082   23.3661 C   0  0  0  0  0  0  0  0  0  0  0  0
   13.0782   14.6065   24.5941 C   0  0  0  0  0  0  0  0  0  0  0  0
   13.4617   12.7545   22.8873 C   0  0  0  0  0  0  0  0  0  0  0  0
   13.3137   13.5749   25.6976 C   0  0  0  0  0  0  0  0  0  0  0  0
   13.6888   11.7916   24.0526 C   0  0  0  0  0  0  0  0  0  0  0  0
   12.6131   13.9702   23.2790 C   0  0  0  0  0  0  0  0  0  0  0  0
    6.9281   15.4998   25.8531 C   0  0  0  0  0  0  0  0  0  0  0  0
    4.9919   14.1971   26.6749 C   0  0  0  0  0  0  0  0  0  0  0  0
    9.2614   12.6665   22.0639 C   0  0  0  0  0  0  0  0  0  0  0  0
    8.6729    9.7449   24.1585 N   0  0  0  0  0  0  0  0  0  0  0  0
    9.2241   10.3438   23.0439 N   0  0  0  0  0  0  0  0  0  0  0  0
    7.6081   13.0692   24.5387 N   0  0  0  0  0  0  0  0  0  0  0  0
    8.1341   11.8737   24.1744 N   0  0  0  0  0  0  0  0  0  0  0  0
   14.2017   12.5138   25.2223 N   0  0  0  0  0  0  0  0  0  0  0  0
   10.6389   13.0830   22.1985 N   0  0  0  0  0  0  0  0  0  0  0  0
    6.3331   14.2035   26.1205 N   0  0  0  0  0  0  0  0  0  0  0  0
   16.0536   13.1308   26.4855 O   0  0  0  0  0  0  0  0  0  0  0  0
   10.5527   13.7902   24.4155 O   0  0  0  0  0  0  0  0  0  0  0  0
    7.1614    9.7277   26.5753 H   0  0  0  0  0  0  0  0  0  0  0  0
    6.1387   11.8336   27.3717 H   0  0  0  0  0  0  0  0  0  0  0  0
   15.9291    9.0337   26.8912 H   0  0  0  0  0  0  0  0  0  0  0  0
   14.9002   10.3892   27.6319 H   0  0  0  0  0  0  0  0  0  0  0  0
   16.5994   10.6027   25.0750 H   0  0  0  0  0  0  0  0  0  0  0  0
   12.3462   15.3454   24.9420 H   0  0  0  0  0  0  0  0  0  0  0  0
   14.0152   15.1489   24.4136 H   0  0  0  0  0  0  0  0  0  0  0  0
   14.4371   13.1037   22.5250 H   0  0  0  0  0  0  0  0  0  0  0  0
   12.9900   12.2126   22.0588 H   0  0  0  0  0  0  0  0  0  0  0  0
   13.7333   14.0719   26.5781 H   0  0  0  0  0  0  0  0  0  0  0  0
   12.3709   13.1084   26.0058 H   0  0  0  0  0  0  0  0  0  0  0  0
   12.7448   11.3220   24.3532 H   0  0  0  0  0  0  0  0  0  0  0  0
   14.3457   10.9785   23.7419 H   0  0  0  0  0  0  0  0  0  0  0  0
   12.6829   14.7215   22.4823 H   0  0  0  0  0  0  0  0  0  0  0  0
    6.5247   15.9020   24.9121 H   0  0  0  0  0  0  0  0  0  0  0  0
    6.6916   16.1888   26.6774 H   0  0  0  0  0  0  0  0  0  0  0  0
    8.0194   15.3915   25.7674 H   0  0  0  0  0  0  0  0  0  0  0  0
    5.0430   14.0113   27.7578 H   0  0  0  0  0  0  0  0  0  0  0  0
    4.5152   15.1715   26.4923 H   0  0  0  0  0  0  0  0  0  0  0  0
    4.4004   13.4038   26.1944 H   0  0  0  0  0  0  0  0  0  0  0  0
    9.1203   12.2924   21.0440 H   0  0  0  0  0  0  0  0  0  0  0  0
    8.6307   13.5549   22.1746 H   0  0  0  0  0  0  0  0  0  0  0  0
   11.2541   12.9850   21.3964 H   0  0  0  0  0  0  0  0  0  0  0  0
  1  3  1  0  0  0  0
  1 18  2  0  0  0  0
  1 21  1  0  0  0  0
  2 17  1  0  0  0  0
  2 19  2  0  0  0  0
  2 21  1  0  0  0  0
  3  4  2  0  0  0  0
  4  5  1  0  0  0  0
  5 20  2  0  0  0  0
  5 24  1  0  0  0  0
  6  7  2  0  0  0  0
  7  8  1  0  0  0  0
  8 22  1  0  0  0  0
  8 25  2  0  0  0  0
  9 14  1  0  0  0  0
  9 23  1  0  0  0  0
  9 26  2  0  0  0  0
 10 12  1  0  0  0  0
 10 14  1  0  0  0  0
 11 13  1  0  0  0  0
 11 14  1  0  0  0  0
 12 22  1  0  0  0  0
 13 22  1  0  0  0  0
 15 24  1  0  0  0  0
 16 24  1  0  0  0  0
 17 23  1  0  0  0  0
 18 19  1  0  0  0  0
 20 21  1  0  0  0  0
  3 27  1  0  0  0  0
  4 28  1  0  0  0  0
  6 29  1  0  0  0  0
  6 30  1  0  0  0  0
  7 31  1  0  0  0  0
 10 32  1  0  0  0  0
 10 33  1  0  0  0  0
 11 34  1  0  0  0  0
 11 35  1  0  0  0  0
 12 36  1  0  0  0  0
 12 37  1  0  0  0  0
 13 38  1  0  0  0  0
 13 39  1  0  0  0  0
 14 40  1  0  0  0  0
 15 41  1  0  0  0  0
 15 42  1  0  0  0  0
 15 43  1  0  0  0  0
 16 44  1  0  0  0  0
 16 45  1  0  0  0  0
 16 46  1  0  0  0  0
 17 47  1  0  0  0  0
 17 48  1  0  0  0  0
 23 49  1  0  0  0  0
M  END
> <Catalog ID>
Z3205012503

> <MW>
357.41

> <MW (desalted)>
357.41

> <ClogP>
-1.449

> <logS>
-2.317

> <HBD>
1

> <HBA>
6

> <TPSA>
95.73

> <RotBonds>
5

> <ROCS_ShapeQuery>
A71EV2A-x0451_0A_A71EV2A-x0310_0A_A71EV2A-x0416_0A_peptide

> <ROCS_TanimotoCombo>
0.518 

> <ROCS_ShapeTanimoto>
0.327 

> <ROCS_ColorTanimoto>
0.191 

> <ROCS_RefTversky>
0.299 

> <ROCS_RefColorTversky>
0.220 

> <ROCS_RefTverskyCombo>
0.519 

> <ROCS_FitTversky>
1.400 

> <ROCS_FitColorTversky>
0.592 

> <ROCS_FitTverskyCombo>
1.992 

> <ROCS_ColorScore>
-6.747

> <ROCS_Overlap>
2078.850

> <ROCS_Rank>
490                 

$$$$
untitled-dbase-9969_2868
  -OEChem-11132309573D

 46 48  0     1  0  0  0  0  0999 V2000
    7.1436   10.6404   26.4094 C   0  0  0  0  0  0  0  0  0  0  0  0
    7.0068   12.0145   26.2229 C   0  0  0  0  0  0  0  0  0  0  0  0
    7.8439    9.8581   25.4839 C   0  0  0  0  0  0  0  0  0  0  0  0
    7.5636   12.6497   25.1092 C   0  0  0  0  0  0  0  0  0  0  0  0
   12.2938   16.2160   20.5161 C   0  0  0  0  0  0  0  0  0  0  0  0
   13.4108   14.3232   19.5128 C   0  0  0  0  0  0  0  0  0  0  0  0
   12.3965   16.9144   19.3131 C   0  0  0  0  0  0  0  0  0  0  0  0
   13.5135   15.0215   18.3097 C   0  0  0  0  0  0  0  0  0  0  0  0
    9.4545   11.0904   22.4429 C   0  0  0  0  0  0  0  0  0  0  0  0
    8.4138   10.4763   24.3532 C   0  0  0  0  0  0  0  0  0  0  0  0
    9.1691   10.0074   23.2421 C   0  0  0  0  0  0  0  0  0  0  0  0
    8.2609   11.8551   24.1923 C   0  0  0  0  0  0  0  0  0  0  0  0
   12.8010   14.9204   20.6160 C   0  0  0  0  0  0  0  0  0  0  0  0
   13.0063   16.3171   18.2099 C   0  0  0  0  0  0  0  0  0  0  0  0
    9.5850    8.6636   22.9570 C   0  0  0  0  0  0  0  0  0  0  0  0
   15.1522   15.0097   22.6773 C   0  0  0  0  0  0  0  0  0  0  0  0
    8.9907   13.5367   22.4766 C   0  0  0  0  0  0  0  0  0  0  0  0
   11.5051   13.3762   22.0866 C   0  0  0  0  0  0  0  0  0  0  0  0
   10.3628   14.1771   22.7210 C   0  0  2  0  0  0  0  0  0  0  0  0
    8.9027   12.2003   23.0244 N   0  0  0  0  0  0  0  0  0  0  0  0
   12.6937   14.1909   21.8731 N   0  0  2  0  0  0  0  0  0  0  0  0
    9.3237    7.6883   23.6847 O   0  0  0  0  0  0  0  0  0  0  0  0
   13.4268   14.0060   24.3471 O   0  0  0  0  0  0  0  0  0  0  0  0
   13.0043   16.3018   23.4110 O   0  0  0  0  0  0  0  0  0  0  0  0
   10.5885   14.2250   24.1318 O   0  0  0  0  0  0  0  0  0  0  0  0
   13.1049   16.9878   17.0545 F   0  0  0  0  0  0  0  0  0  0  0  0
   13.4623   14.9365   23.2337 S   0  0  0  0  0  0  0  0  0  0  0  0
    6.7018   10.1690   27.2833 H   0  0  0  0  0  0  0  0  0  0  0  0
    6.4587   12.6030   26.9544 H   0  0  0  0  0  0  0  0  0  0  0  0
    7.9417    8.7880   25.6436 H   0  0  0  0  0  0  0  0  0  0  0  0
    7.4541   13.7199   24.9691 H   0  0  0  0  0  0  0  0  0  0  0  0
   11.8166   16.6905   21.3697 H   0  0  0  0  0  0  0  0  0  0  0  0
   13.8094   13.3142   19.5801 H   0  0  0  0  0  0  0  0  0  0  0  0
   12.0016   17.9230   19.2348 H   0  0  0  0  0  0  0  0  0  0  0  0
   13.9883   14.5570   17.4505 H   0  0  0  0  0  0  0  0  0  0  0  0
   10.0021   11.1650   21.5123 H   0  0  0  0  0  0  0  0  0  0  0  0
   10.1801    8.4788   22.0255 H   0  0  0  0  0  0  0  0  0  0  0  0
   15.7538   15.4699   23.4628 H   0  0  0  0  0  0  0  0  0  0  0  0
   15.4942   13.9925   22.4802 H   0  0  0  0  0  0  0  0  0  0  0  0
   15.1892   15.6091   21.7665 H   0  0  0  0  0  0  0  0  0  0  0  0
    8.7757   13.4636   21.4035 H   0  0  0  0  0  0  0  0  0  0  0  0
    8.1818   14.1145   22.9383 H   0  0  0  0  0  0  0  0  0  0  0  0
   11.7602   12.5254   22.7295 H   0  0  0  0  0  0  0  0  0  0  0  0
   11.1767   12.9479   21.1323 H   0  0  0  0  0  0  0  0  0  0  0  0
   10.3770   15.2101   22.3523 H   0  0  0  0  0  0  0  0  0  0  0  0
   11.4586   14.6324   24.2542 H   0  0  0  0  0  0  0  0  0  0  0  0
  1  2  1  0  0  0  0
  1  3  2  0  0  0  0
  2  4  2  0  0  0  0
  3 10  1  0  0  0  0
  4 12  1  0  0  0  0
  5  7  2  0  0  0  0
  5 13  1  0  0  0  0
  6  8  1  0  0  0  0
  6 13  2  0  0  0  0
  7 14  1  0  0  0  0
  8 14  2  0  0  0  0
  9 11  2  0  0  0  0
  9 20  1  0  0  0  0
 10 11  1  0  0  0  0
 10 12  2  0  0  0  0
 11 15  1  0  0  0  0
 12 20  1  0  0  0  0
 13 21  1  0  0  0  0
 14 26  1  0  0  0  0
 15 22  2  0  0  0  0
 16 27  1  0  0  0  0
 17 19  1  0  0  0  0
 17 20  1  0  0  0  0
 18 19  1  0  0  0  0
 18 21  1  0  0  0  0
 19 25  1  0  0  0  0
 21 27  1  0  0  0  0
 23 27  2  0  0  0  0
 24 27  2  0  0  0  0
  1 28  1  0  0  0  0
  2 29  1  0  0  0  0
  3 30  1  0  0  0  0
  4 31  1  0  0  0  0
  5 32  1  0  0  0  0
  6 33  1  0  0  0  0
  7 34  1  0  0  0  0
  8 35  1  0  0  0  0
  9 36  1  0  0  0  0
 15 37  1  0  0  0  0
 16 38  1  0  0  0  0
 16 39  1  0  0  0  0
 16 40  1  0  0  0  0
 17 41  1  0  0  0  0
 17 42  1  0  0  0  0
 18 43  1  0  0  0  0
 18 44  1  0  0  0  0
 19 45  1  0  0  0  0
 25 46  1  0  0  0  0
M  END
> <Catalog ID>
Z108566252

> <MW>
390.429

> <MW (desalted)>
390.429

> <ClogP>
2.839

> <logS>
-3.53

> <HBD>
1

> <HBA>
4

> <TPSA>
79.61

> <RotBonds>
6

> <ROCS_ShapeQuery>
A71EV2A-x0451_0A_A71EV2A-x0310_0A_A71EV2A-x0416_0A_peptide

> <ROCS_TanimotoCombo>
0.518 

> <ROCS_ShapeTanimoto>
0.340 

> <ROCS_ColorTanimoto>
0.178 

> <ROCS_RefTversky>
0.308 

> <ROCS_RefColorTversky>
0.202 

> <ROCS_RefTverskyCombo>
0.510 

> <ROCS_FitTversky>
1.428 

> <ROCS_FitColorTversky>
0.607 

> <ROCS_FitTverskyCombo>
2.036 

> <ROCS_ColorScore>
-6.166

> <ROCS_Overlap>
2143.993

> <ROCS_Rank>
491                 

$$$$
untitled-dbase-4962_377
  -OEChem-11132309573D

 46 47  0     0  0  0  0  0  0999 V2000
   13.3170   14.3085   23.0259 C   0  0  0  0  0  0  0  0  0  0  0  0
   12.2095   15.0742   18.9852 C   0  0  0  0  0  0  0  0  0  0  0  0
   13.5778   15.9607   20.7681 C   0  0  0  0  0  0  0  0  0  0  0  0
   13.0424   15.6802   18.0446 C   0  0  0  0  0  0  0  0  0  0  0  0
   14.4108   16.5667   19.8276 C   0  0  0  0  0  0  0  0  0  0  0  0
    7.2887   10.0136   24.5416 C   0  0  0  0  0  0  0  0  0  0  0  0
    8.2375    9.4219   23.7077 C   0  0  0  0  0  0  0  0  0  0  0  0
    8.3715   12.1542   24.2547 C   0  0  0  0  0  0  0  0  0  0  0  0
   12.4772   15.2145   20.3470 C   0  0  0  0  0  0  0  0  0  0  0  0
   14.1430   16.4264   18.4658 C   0  0  0  0  0  0  0  0  0  0  0  0
    7.3557   11.3797   24.8150 C   0  0  0  0  0  0  0  0  0  0  0  0
    9.3203   11.5625   23.4209 C   0  0  0  0  0  0  0  0  0  0  0  0
    9.2533   10.1964   23.1474 C   0  0  0  0  0  0  0  0  0  0  0  0
   11.6087   14.5828   21.3279 C   0  0  0  0  0  0  0  0  0  0  0  0
   11.9756   14.1514   22.5618 C   0  0  0  0  0  0  0  0  0  0  0  0
   10.9030   13.5218   23.4248 C   0  0  0  0  0  0  0  0  0  0  0  0
   14.5493   16.7822   16.0053 C   0  0  0  0  0  0  0  0  0  0  0  0
   16.4986   16.5465   17.5805 C   0  0  0  0  0  0  0  0  0  0  0  0
   15.1422   18.6301   17.5595 C   0  0  0  0  0  0  0  0  0  0  0  0
   15.0621   17.0922   17.4283 C   0  0  0  0  0  0  0  0  0  0  0  0
    6.3408   12.0120   25.7063 C   0  0  0  0  0  0  0  0  0  0  0  0
   14.4057   14.4347   23.4077 N   0  0  0  0  0  0  0  0  0  0  0  0
   10.3406   12.3782   22.8686 N   0  0  0  0  0  0  0  0  0  0  0  0
   10.6013   14.0232   24.5050 O   0  0  0  0  0  0  0  0  0  0  0  0
    5.4075   11.1352   26.1818 F   0  0  0  0  0  0  0  0  0  0  0  0
    6.8778   12.5974   26.8175 F   0  0  0  0  0  0  0  0  0  0  0  0
    5.6324   12.9965   25.0801 F   0  0  0  0  0  0  0  0  0  0  0  0
   10.4076    9.4227   22.1208 Cl  0  0  0  0  0  0  0  0  0  0  0  0
   11.3551   14.4959   18.6416 H   0  0  0  0  0  0  0  0  0  0  0  0
   13.7997   16.0788   21.8261 H   0  0  0  0  0  0  0  0  0  0  0  0
   12.8266   15.5652   16.9857 H   0  0  0  0  0  0  0  0  0  0  0  0
   15.2662   17.1464   20.1643 H   0  0  0  0  0  0  0  0  0  0  0  0
    6.5010    9.4021   24.9737 H   0  0  0  0  0  0  0  0  0  0  0  0
    8.1701    8.3562   23.5039 H   0  0  0  0  0  0  0  0  0  0  0  0
    8.4209   13.2194   24.4708 H   0  0  0  0  0  0  0  0  0  0  0  0
   10.5685   14.4830   21.0025 H   0  0  0  0  0  0  0  0  0  0  0  0
   15.1884   17.2462   15.2450 H   0  0  0  0  0  0  0  0  0  0  0  0
   14.5322   15.7070   15.7958 H   0  0  0  0  0  0  0  0  0  0  0  0
   13.5307   17.1616   15.8618 H   0  0  0  0  0  0  0  0  0  0  0  0
   17.1908   16.9943   16.8591 H   0  0  0  0  0  0  0  0  0  0  0  0
   16.8975   16.7566   18.5798 H   0  0  0  0  0  0  0  0  0  0  0  0
   16.5257   15.4605   17.4320 H   0  0  0  0  0  0  0  0  0  0  0  0
   15.8079   19.0573   16.7998 H   0  0  0  0  0  0  0  0  0  0  0  0
   14.1599   19.0983   17.4262 H   0  0  0  0  0  0  0  0  0  0  0  0
   15.5347   18.9318   18.5376 H   0  0  0  0  0  0  0  0  0  0  0  0
   10.7023   12.0941   21.9621 H   0  0  0  0  0  0  0  0  0  0  0  0
  1 15  1  0  0  0  0
  1 22  3  0  0  0  0
  2  4  2  0  0  0  0
  2  9  1  0  0  0  0
  3  5  1  0  0  0  0
  3  9  2  0  0  0  0
  4 10  1  0  0  0  0
  5 10  2  0  0  0  0
  6  7  2  0  0  0  0
  6 11  1  0  0  0  0
  7 13  1  0  0  0  0
  8 11  2  0  0  0  0
  8 12  1  0  0  0  0
  9 14  1  4  0  0  0
 10 20  1  0  0  0  0
 11 21  1  0  0  0  0
 12 13  2  0  0  0  0
 12 23  1  0  0  0  0
 13 28  1  0  0  0  0
 14 15  2  0  0  0  0
 15 16  1  0  0  0  0
 16 23  1  0  0  0  0
 16 24  2  0  0  0  0
 17 20  1  0  0  0  0
 18 20  1  0  0  0  0
 19 20  1  0  0  0  0
 21 25  1  0  0  0  0
 21 26  1  0  0  0  0
 21 27  1  0  0  0  0
  2 29  1  0  0  0  0
  3 30  1  0  0  0  0
  4 31  1  0  0  0  0
  5 32  1  0  0  0  0
  6 33  1  0  0  0  0
  7 34  1  0  0  0  0
  8 35  1  0  0  0  0
 14 36  1  0  0  0  0
 17 37  1  0  0  0  0
 17 38  1  0  0  0  0
 17 39  1  0  0  0  0
 18 40  1  0  0  0  0
 18 41  1  0  0  0  0
 18 42  1  0  0  0  0
 19 43  1  0  0  0  0
 19 44  1  0  0  0  0
 19 45  1  0  0  0  0
 23 46  1  0  0  0  0
M  END
> <Catalog ID>
Z44308311

> <MW>
406.829

> <MW (desalted)>
406.829

> <ClogP>
6.1

> <logS>
-7.52

> <HBD>
1

> <HBA>
2

> <TPSA>
52.89

> <RotBonds>
5

> <ROCS_ShapeQuery>
A71EV2A-x0451_0A_A71EV2A-x0310_0A_A71EV2A-x0416_0A_peptide

> <ROCS_TanimotoCombo>
0.518 

> <ROCS_ShapeTanimoto>
0.355 

> <ROCS_ColorTanimoto>
0.163 

> <ROCS_RefTversky>
0.320 

> <ROCS_RefColorTversky>
0.174 

> <ROCS_RefTverskyCombo>
0.494 

> <ROCS_FitTversky>
1.446 

> <ROCS_FitColorTversky>
0.726 

> <ROCS_FitTverskyCombo>
2.172 

> <ROCS_ColorScore>
-5.293

> <ROCS_Overlap>
2224.909

> <ROCS_Rank>
492                 

$$$$
untitled-dbase-5535_3710
  -OEChem-11132309573D

 56 60  0     0  0  0  0  0  0999 V2000
   11.2361   13.0908   25.6636 C   0  0  0  0  0  0  0  0  0  0  0  0
    4.0950   12.4645   28.6220 C   0  0  0  0  0  0  0  0  0  0  0  0
    7.8927    5.7205   20.7950 C   0  0  0  0  0  0  0  0  0  0  0  0
    4.9850   13.4860   28.2903 C   0  0  0  0  0  0  0  0  0  0  0  0
    4.1980   11.2203   27.9999 C   0  0  0  0  0  0  0  0  0  0  0  0
    9.2485    5.6565   20.4667 C   0  0  0  0  0  0  0  0  0  0  0  0
   12.4061   15.4715   18.7585 C   0  0  0  0  0  0  0  0  0  0  0  0
    7.4145    6.7426   21.6202 C   0  0  0  0  0  0  0  0  0  0  0  0
   13.6224   16.1096   19.0010 C   0  0  0  0  0  0  0  0  0  0  0  0
    5.9780   13.2633   27.3363 C   0  0  0  0  0  0  0  0  0  0  0  0
    5.1910   10.9976   27.0459 C   0  0  0  0  0  0  0  0  0  0  0  0
   11.7146   14.8661   19.8078 C   0  0  0  0  0  0  0  0  0  0  0  0
   10.1313    6.6137   20.9617 C   0  0  0  0  0  0  0  0  0  0  0  0
   13.4560   15.5368   21.3423 C   0  0  0  0  0  0  0  0  0  0  0  0
    8.0003   12.7097   25.3512 C   0  0  0  0  0  0  0  0  0  0  0  0
    8.2936    7.7064   22.1200 C   0  0  0  0  0  0  0  0  0  0  0  0
    8.7688   12.0671   24.4115 C   0  0  0  0  0  0  0  0  0  0  0  0
   14.1474   16.1422   20.2929 C   0  0  0  0  0  0  0  0  0  0  0  0
    6.0810   12.0191   26.7142 C   0  0  0  0  0  0  0  0  0  0  0  0
   12.2396   14.8988   21.0997 C   0  0  0  0  0  0  0  0  0  0  0  0
    9.6393    7.6263   21.7828 C   0  0  0  0  0  0  0  0  0  0  0  0
    8.2189   10.7736   24.3320 C   0  0  0  0  0  0  0  0  0  0  0  0
    7.8500    8.7877   22.9844 C   0  0  0  0  0  0  0  0  0  0  0  0
    8.7149    9.7043   23.4454 C   0  0  0  0  0  0  0  0  0  0  0  0
   10.1576    9.6353   23.0845 C   0  0  0  0  0  0  0  0  0  0  0  0
    9.8554   12.6378   23.7170 C   0  0  0  0  0  0  0  0  0  0  0  0
   11.0295   13.1398   24.2513 C   0  0  0  0  0  0  0  0  0  0  0  0
   12.0726   13.7089   23.3133 C   0  0  0  0  0  0  0  0  0  0  0  0
   15.4479   16.8246   20.5517 C   0  0  0  0  0  0  0  0  0  0  0  0
   11.4088   13.0523   26.8105 N   0  0  0  0  0  0  0  0  0  0  0  0
    7.1814   10.6028   25.1556 N   0  0  0  0  0  0  0  0  0  0  0  0
    7.0732   11.7974   25.7616 N   0  0  0  0  0  0  0  0  0  0  0  0
   11.5360   14.2838   22.1665 N   0  0  0  0  0  0  0  0  0  0  0  0
   10.9680   10.4686   23.4772 O   0  0  0  0  0  0  0  0  0  0  0  0
   13.2663   13.6368   23.5946 O   0  0  0  0  0  0  0  0  0  0  0  0
   10.5536    8.5801   22.2669 O   0  0  0  0  0  0  0  0  0  0  0  0
   16.0113   17.3717   19.4339 F   0  0  0  0  0  0  0  0  0  0  0  0
   15.3571   17.8543   21.4446 F   0  0  0  0  0  0  0  0  0  0  0  0
   16.3918   15.9804   21.0613 F   0  0  0  0  0  0  0  0  0  0  0  0
    3.3228   12.6368   29.3659 H   0  0  0  0  0  0  0  0  0  0  0  0
    7.2061    4.9729   20.4079 H   0  0  0  0  0  0  0  0  0  0  0  0
    4.9058   14.4544   28.7755 H   0  0  0  0  0  0  0  0  0  0  0  0
    3.5054   10.4249   28.2598 H   0  0  0  0  0  0  0  0  0  0  0  0
    9.6143    4.8598   19.8256 H   0  0  0  0  0  0  0  0  0  0  0  0
   11.9970   15.4463   17.7526 H   0  0  0  0  0  0  0  0  0  0  0  0
    6.3555    6.7744   21.8639 H   0  0  0  0  0  0  0  0  0  0  0  0
   14.1540   16.5777   18.1771 H   0  0  0  0  0  0  0  0  0  0  0  0
    6.6659   14.0678   27.0876 H   0  0  0  0  0  0  0  0  0  0  0  0
    5.2605   10.0228   26.5693 H   0  0  0  0  0  0  0  0  0  0  0  0
   10.7676   14.3715   19.6072 H   0  0  0  0  0  0  0  0  0  0  0  0
   11.1855    6.5654   20.7070 H   0  0  0  0  0  0  0  0  0  0  0  0
   13.8679   15.5630   22.3488 H   0  0  0  0  0  0  0  0  0  0  0  0
    8.0350   13.7150   25.7518 H   0  0  0  0  0  0  0  0  0  0  0  0
    6.7953    8.8287   23.2414 H   0  0  0  0  0  0  0  0  0  0  0  0
    9.7635   12.6726   22.6082 H   0  0  0  0  0  0  0  0  0  0  0  0
   10.5232   14.2606   22.0832 H   0  0  0  0  0  0  0  0  0  0  0  0
  1 27  1  0  0  0  0
  1 30  3  0  0  0  0
  2  4  1  0  0  0  0
  2  5  2  0  0  0  0
  3  6  1  0  0  0  0
  3  8  2  0  0  0  0
  4 10  2  0  0  0  0
  5 11  1  0  0  0  0
  6 13  2  0  0  0  0
  7  9  2  0  0  0  0
  7 12  1  0  0  0  0
  8 16  1  0  0  0  0
  9 18  1  0  0  0  0
 10 19  1  0  0  0  0
 11 19  2  0  0  0  0
 12 20  2  0  0  0  0
 13 21  1  0  0  0  0
 14 18  2  0  0  0  0
 14 20  1  0  0  0  0
 15 17  2  0  0  0  0
 15 32  1  0  0  0  0
 16 21  2  0  0  0  0
 16 23  1  0  0  0  0
 17 22  1  0  0  0  0
 17 26  1  4  0  0  0
 18 29  1  0  0  0  0
 19 32  1  0  0  0  0
 20 33  1  0  0  0  0
 21 36  1  0  0  0  0
 22 24  1  0  0  0  0
 22 31  2  0  0  0  0
 23 24  2  0  0  0  0
 24 25  1  0  0  0  0
 25 34  2  0  0  0  0
 25 36  1  0  0  0  0
 26 27  2  0  0  0  0
 27 28  1  0  0  0  0
 28 33  1  0  0  0  0
 28 35  2  0  0  0  0
 29 37  1  0  0  0  0
 29 38  1  0  0  0  0
 29 39  1  0  0  0  0
 31 32  1  0  0  0  0
  2 40  1  0  0  0  0
  3 41  1  0  0  0  0
  4 42  1  0  0  0  0
  5 43  1  0  0  0  0
  6 44  1  0  0  0  0
  7 45  1  0  0  0  0
  8 46  1  0  0  0  0
  9 47  1  0  0  0  0
 10 48  1  0  0  0  0
 11 49  1  0  0  0  0
 12 50  1  0  0  0  0
 13 51  1  0  0  0  0
 14 52  1  0  0  0  0
 15 53  1  0  0  0  0
 23 54  1  0  0  0  0
 26 55  1  0  0  0  0
 33 56  1  0  0  0  0
M  END
> <Catalog ID>
Z46073515

> <MW>
526.465

> <MW (desalted)>
526.465

> <ClogP>
6.02

> <logS>
-8.35

> <HBD>
1

> <HBA>
4

> <TPSA>
97.01

> <RotBonds>
6

> <ROCS_ShapeQuery>
A71EV2A-x0451_0A_A71EV2A-x0310_0A_A71EV2A-x0416_0A_peptide

> <ROCS_TanimotoCombo>
0.518 

> <ROCS_ShapeTanimoto>
0.388 

> <ROCS_ColorTanimoto>
0.129 

> <ROCS_RefTversky>
0.364 

> <ROCS_RefColorTversky>
0.156 

> <ROCS_RefTverskyCombo>
0.520 

> <ROCS_FitTversky>
1.212 

> <ROCS_FitColorTversky>
0.431 

> <ROCS_FitTverskyCombo>
1.643 

> <ROCS_ColorScore>
-4.782

> <ROCS_Overlap>
2542.006

> <ROCS_Rank>
493                 

$$$$
untitled-dbase-11042_1416
  -OEChem-11132309573D

 45 47  0     0  0  0  0  0  0999 V2000
   13.8280   16.8453   18.1497 C   0  0  0  0  0  0  0  0  0  0  0  0
    5.0205   11.6018   27.8357 C   0  0  0  0  0  0  0  0  0  0  0  0
   12.6051   16.1797   18.0670 C   0  0  0  0  0  0  0  0  0  0  0  0
   14.6408   16.6744   19.2704 C   0  0  0  0  0  0  0  0  0  0  0  0
    5.1669   12.6302   26.9048 C   0  0  0  0  0  0  0  0  0  0  0  0
    5.7839   10.4403   27.7175 C   0  0  0  0  0  0  0  0  0  0  0  0
   12.1947   15.3433   19.1051 C   0  0  0  0  0  0  0  0  0  0  0  0
   14.2304   15.8380   20.3085 C   0  0  0  0  0  0  0  0  0  0  0  0
    6.0765   12.4971   25.8558 C   0  0  0  0  0  0  0  0  0  0  0  0
    6.6934   10.3072   26.6685 C   0  0  0  0  0  0  0  0  0  0  0  0
   13.0073   15.1724   20.2259 C   0  0  0  0  0  0  0  0  0  0  0  0
    6.8398   11.3356   25.7375 C   0  0  0  0  0  0  0  0  0  0  0  0
    9.6151   11.5960   23.3514 C   0  0  0  0  0  0  0  0  0  0  0  0
    9.5115   10.2801   23.5753 C   0  0  0  0  0  0  0  0  0  0  0  0
    8.4609   12.2354   24.0351 C   0  0  0  0  0  0  0  0  0  0  0  0
   12.5744   14.2892   21.3226 C   0  0  0  0  0  0  0  0  0  0  0  0
   11.8366   14.6782   22.3698 C   0  0  0  0  0  0  0  0  0  0  0  0
   10.4171    9.2038   23.0790 C   0  0  0  0  0  0  0  0  0  0  0  0
    7.5178    8.8528   23.9678 C   0  0  0  0  0  0  0  0  0  0  0  0
    7.7640   11.2007   24.6716 N   0  0  0  0  0  0  0  0  0  0  0  0
    8.3741    9.9793   24.3259 N   0  0  0  0  0  0  0  0  0  0  0  0
   10.5421   12.2927   22.6575 N   0  0  0  0  0  0  0  0  0  0  0  0
    8.2811   13.4421   24.0556 O   0  0  0  0  0  0  0  0  0  0  0  0
   12.6638   12.8483   23.9933 O   0  0  0  0  0  0  0  0  0  0  0  0
   10.5327   14.0772   24.5095 O   0  0  0  0  0  0  0  0  0  0  0  0
   11.4299   13.4682   23.5427 S   0  0  0  0  0  0  0  0  0  0  0  0
   14.1482   17.4955   17.3409 H   0  0  0  0  0  0  0  0  0  0  0  0
    4.3129   11.7054   28.6532 H   0  0  0  0  0  0  0  0  0  0  0  0
   11.9726   16.3117   17.1939 H   0  0  0  0  0  0  0  0  0  0  0  0
   15.5936   17.1917   19.3344 H   0  0  0  0  0  0  0  0  0  0  0  0
    4.5734   13.5350   26.9970 H   0  0  0  0  0  0  0  0  0  0  0  0
    5.6704    9.6400   28.4431 H   0  0  0  0  0  0  0  0  0  0  0  0
   11.2386   14.8312   19.0262 H   0  0  0  0  0  0  0  0  0  0  0  0
   14.8750   15.7151   21.1756 H   0  0  0  0  0  0  0  0  0  0  0  0
    6.1820   13.3053   25.1363 H   0  0  0  0  0  0  0  0  0  0  0  0
    7.2830    9.3974   26.5865 H   0  0  0  0  0  0  0  0  0  0  0  0
   12.8804   13.2488   21.2329 H   0  0  0  0  0  0  0  0  0  0  0  0
   11.4782   15.6889   22.5163 H   0  0  0  0  0  0  0  0  0  0  0  0
   11.2193    9.0342   23.7975 H   0  0  0  0  0  0  0  0  0  0  0  0
   10.8490    9.4948   22.1210 H   0  0  0  0  0  0  0  0  0  0  0  0
    9.8547    8.2793   22.9441 H   0  0  0  0  0  0  0  0  0  0  0  0
    6.6813    8.7868   24.6791 H   0  0  0  0  0  0  0  0  0  0  0  0
    7.1238    9.0004   22.9515 H   0  0  0  0  0  0  0  0  0  0  0  0
    8.1029    7.9220   24.0027 H   0  0  0  0  0  0  0  0  0  0  0  0
   10.9987   11.8128   21.8575 H   0  0  0  0  0  0  0  0  0  0  0  0
  1  3  1  0  0  0  0
  1  4  2  0  0  0  0
  2  5  1  0  0  0  0
  2  6  2  0  0  0  0
  3  7  2  0  0  0  0
  4  8  1  0  0  0  0
  5  9  2  0  0  0  0
  6 10  1  0  0  0  0
  7 11  1  0  0  0  0
  8 11  2  0  0  0  0
  9 12  1  0  0  0  0
 10 12  2  0  0  0  0
 11 16  1  0  0  0  0
 12 20  1  0  0  0  0
 13 14  2  0  0  0  0
 13 15  1  0  0  0  0
 13 22  1  0  0  0  0
 14 18  1  0  0  0  0
 14 21  1  0  0  0  0
 15 20  1  0  0  0  0
 15 23  2  0  0  0  0
 16 17  2  0  0  0  0
 17 26  1  4  0  0  0
 19 21  1  0  0  0  0
 20 21  1  0  0  0  0
 22 26  1  0  0  0  0
 24 26  2  0  0  0  0
 25 26  2  0  0  0  0
  1 27  1  0  0  0  0
  2 28  1  0  0  0  0
  3 29  1  0  0  0  0
  4 30  1  0  0  0  0
  5 31  1  0  0  0  0
  6 32  1  0  0  0  0
  7 33  1  0  0  0  0
  8 34  1  0  0  0  0
  9 35  1  0  0  0  0
 10 36  1  0  0  0  0
 16 37  1  0  0  0  0
 17 38  1  0  0  0  0
 18 39  1  0  0  0  0
 18 40  1  0  0  0  0
 18 41  1  0  0  0  0
 19 42  1  0  0  0  0
 19 43  1  0  0  0  0
 19 44  1  0  0  0  0
 22 45  1  0  0  0  0
M  END
> <Catalog ID>
Z45612785

> <MW>
369.437

> <MW (desalted)>
369.437

> <ClogP>
1.71

> <logS>
-3.699

> <HBD>
1

> <HBA>
4

> <TPSA>
69.72

> <RotBonds>
4

> <ROCS_ShapeQuery>
A71EV2A-x0451_0A_A71EV2A-x0310_0A_A71EV2A-x0416_0A_peptide

> <ROCS_TanimotoCombo>
0.518 

> <ROCS_ShapeTanimoto>
0.390 

> <ROCS_ColorTanimoto>
0.127 

> <ROCS_RefTversky>
0.340 

> <ROCS_RefColorTversky>
0.144 

> <ROCS_RefTverskyCombo>
0.484 

> <ROCS_FitTversky>
1.609 

> <ROCS_FitColorTversky>
0.531 

> <ROCS_FitTverskyCombo>
2.140 

> <ROCS_ColorScore>
-4.375

> <ROCS_Overlap>
2365.979

> <ROCS_Rank>
494                 

$$$$
untitled-dbase-7344_7243
  -OEChem-11132309573D

 45 47  0     1  0  0  0  0  0999 V2000
   14.0155   16.6542   18.4055 C   0  0  0  0  0  0  0  0  0  0  0  0
    5.0238   12.7740   27.3550 C   0  0  0  0  0  0  0  0  0  0  0  0
   14.1464   17.1272   19.7112 C   0  0  0  0  0  0  0  0  0  0  0  0
   13.2174   15.5405   18.1439 C   0  0  0  0  0  0  0  0  0  0  0  0
    4.9626   11.4188   27.0307 C   0  0  0  0  0  0  0  0  0  0  0  0
    6.0251   13.5772   26.8093 C   0  0  0  0  0  0  0  0  0  0  0  0
   13.4791   16.4866   20.7552 C   0  0  0  0  0  0  0  0  0  0  0  0
   12.5502   14.8999   19.1879 C   0  0  0  0  0  0  0  0  0  0  0  0
    5.9028   10.8667   26.1607 C   0  0  0  0  0  0  0  0  0  0  0  0
    6.9653   13.0252   25.9393 C   0  0  0  0  0  0  0  0  0  0  0  0
    8.8430    9.7217   23.5987 C   0  0  0  0  0  0  0  0  0  0  0  0
   12.6810   15.3729   20.4936 C   0  0  0  0  0  0  0  0  0  0  0  0
    6.9042   11.6699   25.6150 C   0  0  0  0  0  0  0  0  0  0  0  0
    9.4608   10.9736   23.4704 C   0  0  0  0  0  0  0  0  0  0  0  0
   10.6506   11.3530   22.6657 C   0  0  0  0  0  0  0  0  0  0  0  0
   10.1186   15.2844   23.1481 C   0  0  0  0  0  0  0  0  0  0  0  0
    8.7970   16.0069   23.2060 C   0  0  0  0  0  0  0  0  0  0  0  0
   11.7524   13.1709   21.3862 C   0  0  0  0  0  0  0  0  0  0  0  0
   11.9675   14.6872   21.6095 C   0  0  2  0  0  0  0  0  0  0  0  0
    7.7969    9.8152   24.4243 N   0  0  0  0  0  0  0  0  0  0  0  0
    8.8131   11.8764   24.2121 N   0  0  0  0  0  0  0  0  0  0  0  0
    7.8425   11.1180   24.7463 N   0  0  0  0  0  0  0  0  0  0  0  0
   10.6793   12.6608   22.1991 N   0  0  0  0  0  0  0  0  0  0  0  0
   10.6615   15.3176   21.8940 N   0  0  0  0  0  0  0  0  0  0  0  0
   11.5161   10.5111   22.4408 O   0  0  0  0  0  0  0  0  0  0  0  0
   10.6145   14.7583   24.1429 O   0  0  0  0  0  0  0  0  0  0  0  0
    7.6910   15.2105   22.0757 Cl  0  0  0  0  0  0  0  0  0  0  0  0
   14.5341   17.1540   17.5925 H   0  0  0  0  0  0  0  0  0  0  0  0
    4.2909   13.2047   28.0309 H   0  0  0  0  0  0  0  0  0  0  0  0
   14.7669   17.9950   19.9149 H   0  0  0  0  0  0  0  0  0  0  0  0
   13.1144   15.1726   17.1273 H   0  0  0  0  0  0  0  0  0  0  0  0
    4.1822   10.7935   27.4545 H   0  0  0  0  0  0  0  0  0  0  0  0
    6.0712   14.6328   27.0612 H   0  0  0  0  0  0  0  0  0  0  0  0
   13.5871   16.8620   21.7694 H   0  0  0  0  0  0  0  0  0  0  0  0
   11.9306   14.0328   18.9746 H   0  0  0  0  0  0  0  0  0  0  0  0
    5.8433    9.8090   25.9156 H   0  0  0  0  0  0  0  0  0  0  0  0
    7.7401   13.6628   25.5204 H   0  0  0  0  0  0  0  0  0  0  0  0
    9.0907    8.7716   23.1488 H   0  0  0  0  0  0  0  0  0  0  0  0
    8.3515   15.9880   24.2037 H   0  0  0  0  0  0  0  0  0  0  0  0
    8.9373   17.0464   22.8972 H   0  0  0  0  0  0  0  0  0  0  0  0
   11.4833   12.9522   20.3465 H   0  0  0  0  0  0  0  0  0  0  0  0
   12.6490   12.5894   21.6256 H   0  0  0  0  0  0  0  0  0  0  0  0
   12.5543   14.7867   22.5426 H   0  0  0  0  0  0  0  0  0  0  0  0
    9.8921   13.2804   22.3761 H   0  0  0  0  0  0  0  0  0  0  0  0
   10.1662   15.7766   21.1561 H   0  0  0  0  0  0  0  0  0  0  0  0
  1  3  1  0  0  0  0
  1  4  2  0  0  0  0
  2  5  1  0  0  0  0
  2  6  2  0  0  0  0
  3  7  2  0  0  0  0
  4  8  1  0  0  0  0
  5  9  2  0  0  0  0
  6 10  1  0  0  0  0
  7 12  1  0  0  0  0
  8 12  2  0  0  0  0
  9 13  1  0  0  0  0
 10 13  2  0  0  0  0
 11 14  1  0  0  0  0
 11 20  2  0  0  0  0
 12 19  1  0  0  0  0
 13 22  1  0  0  0  0
 14 15  1  0  0  0  0
 14 21  2  0  0  0  0
 15 23  1  0  0  0  0
 15 25  2  0  0  0  0
 16 17  1  0  0  0  0
 16 24  1  0  0  0  0
 16 26  2  0  0  0  0
 17 27  1  0  0  0  0
 18 19  1  0  0  0  0
 18 23  1  0  0  0  0
 19 24  1  0  0  0  0
 20 22  1  0  0  0  0
 21 22  1  0  0  0  0
  1 28  1  0  0  0  0
  2 29  1  0  0  0  0
  3 30  1  0  0  0  0
  4 31  1  0  0  0  0
  5 32  1  0  0  0  0
  6 33  1  0  0  0  0
  7 34  1  0  0  0  0
  8 35  1  0  0  0  0
  9 36  1  0  0  0  0
 10 37  1  0  0  0  0
 11 38  1  0  0  0  0
 17 39  1  0  0  0  0
 17 40  1  0  0  0  0
 18 41  1  0  0  0  0
 18 42  1  0  0  0  0
 19 43  1  0  0  0  0
 23 44  1  0  0  0  0
 24 45  1  0  0  0  0
M  END
> <Catalog ID>
Z4425211180

> <MW>
383.832

> <MW (desalted)>
383.832

> <ClogP>
3.194

> <logS>
-4.165

> <HBD>
2

> <HBA>
4

> <TPSA>
88.91

> <RotBonds>
7

> <ROCS_ShapeQuery>
A71EV2A-x0451_0A_A71EV2A-x0310_0A_A71EV2A-x0416_0A_peptide

> <ROCS_TanimotoCombo>
0.518 

> <ROCS_ShapeTanimoto>
0.357 

> <ROCS_ColorTanimoto>
0.161 

> <ROCS_RefTversky>
0.321 

> <ROCS_RefColorTversky>
0.184 

> <ROCS_RefTverskyCombo>
0.505 

> <ROCS_FitTversky>
1.466 

> <ROCS_FitColorTversky>
0.555 

> <ROCS_FitTverskyCombo>
2.022 

> <ROCS_ColorScore>
-5.635

> <ROCS_Overlap>
2231.895

> <ROCS_Rank>
495                 

$$$$
untitled-dbase-8858_3884
  -OEChem-11132309573D

 46 48  0     1  0  0  0  0  0999 V2000
   13.6497   16.1900   16.1004 C   0  0  0  0  0  0  0  0  0  0  0  0
   13.1857   14.8805   16.0179 C   0  0  0  0  0  0  0  0  0  0  0  0
   13.7748   16.8097   17.3441 C   0  0  0  0  0  0  0  0  0  0  0  0
   12.8450   14.1857   17.1788 C   0  0  0  0  0  0  0  0  0  0  0  0
   13.5562   16.7335   19.7832 C   0  0  0  0  0  0  0  0  0  0  0  0
   13.2155   16.0387   20.9441 C   0  0  0  0  0  0  0  0  0  0  0  0
   12.6263   14.1095   19.6179 C   0  0  0  0  0  0  0  0  0  0  0  0
   13.4365   16.1254   18.5230 C   0  0  0  0  0  0  0  0  0  0  0  0
   12.9646   14.7938   18.4390 C   0  0  0  0  0  0  0  0  0  0  0  0
   12.7514   14.7292   20.8615 C   0  0  0  0  0  0  0  0  0  0  0  0
    8.7212   10.6040   23.2421 C   0  0  0  0  0  0  0  0  0  0  0  0
   10.2671   13.5048   23.3104 C   0  0  0  0  0  0  0  0  0  0  0  0
   13.5815   13.0721   24.7663 C   0  0  0  0  0  0  0  0  0  0  0  0
    9.5192   10.2885   22.0465 C   0  0  0  0  0  0  0  0  0  0  0  0
    8.8237   13.1397   23.0377 C   0  0  0  0  0  0  0  0  0  0  0  0
   13.3970   12.4237   26.1145 C   0  0  0  0  0  0  0  0  0  0  0  0
   13.2208   12.7054   22.3419 C   0  0  0  0  0  0  0  0  0  0  0  0
   12.3879   13.9879   22.1038 C   0  0  2  0  0  0  0  0  0  0  0  0
    8.1709    9.7638   24.0880 N   0  0  0  0  0  0  0  0  0  0  0  0
    7.5363   10.5448   25.0273 N   0  0  0  0  0  0  0  0  0  0  0  0
    7.6962   11.8355   24.7614 N   0  0  0  0  0  0  0  0  0  0  0  0
    8.4371   11.8699   23.6449 N   0  0  0  0  0  0  0  0  0  0  0  0
   13.1543   12.2754   23.7143 N   0  0  0  0  0  0  0  0  0  0  0  0
   10.9527   13.6371   22.1321 N   0  0  0  0  0  0  0  0  0  0  0  0
   10.7265   13.6516   24.4398 O   0  0  0  0  0  0  0  0  0  0  0  0
   14.0515   14.2025   24.6489 O   0  0  0  0  0  0  0  0  0  0  0  0
   14.9898   12.2877   26.8757 Cl  0  0  0  0  0  0  0  0  0  0  0  0
   13.9143   16.7302   15.1963 H   0  0  0  0  0  0  0  0  0  0  0  0
   13.0881   14.3990   15.0493 H   0  0  0  0  0  0  0  0  0  0  0  0
   14.1400   17.8340   17.3844 H   0  0  0  0  0  0  0  0  0  0  0  0
   12.4842   13.1629   17.0904 H   0  0  0  0  0  0  0  0  0  0  0  0
   13.9165   17.7565   19.8714 H   0  0  0  0  0  0  0  0  0  0  0  0
   13.3156   16.5289   21.9088 H   0  0  0  0  0  0  0  0  0  0  0  0
   12.2623   13.0845   19.5673 H   0  0  0  0  0  0  0  0  0  0  0  0
    8.8804   10.1909   21.1515 H   0  0  0  0  0  0  0  0  0  0  0  0
   10.2749   11.0654   21.8311 H   0  0  0  0  0  0  0  0  0  0  0  0
   10.0819    9.3438   22.1568 H   0  0  0  0  0  0  0  0  0  0  0  0
    8.6581   13.0648   21.9571 H   0  0  0  0  0  0  0  0  0  0  0  0
    8.1620   13.9194   23.4316 H   0  0  0  0  0  0  0  0  0  0  0  0
   12.7427   13.0012   26.7722 H   0  0  0  0  0  0  0  0  0  0  0  0
   12.9769   11.4229   25.9818 H   0  0  0  0  0  0  0  0  0  0  0  0
   12.8516   11.8688   21.7378 H   0  0  0  0  0  0  0  0  0  0  0  0
   14.2780   12.8507   22.0956 H   0  0  0  0  0  0  0  0  0  0  0  0
   12.5521   14.6368   22.9852 H   0  0  0  0  0  0  0  0  0  0  0  0
   12.7796   11.3520   23.9204 H   0  0  0  0  0  0  0  0  0  0  0  0
   10.5232   13.4687   21.2440 H   0  0  0  0  0  0  0  0  0  0  0  0
  1  2  1  0  0  0  0
  1  3  2  0  0  0  0
  2  4  2  0  0  0  0
  3  8  1  0  0  0  0
  4  9  1  0  0  0  0
  5  6  2  0  0  0  0
  5  8  1  0  0  0  0
  6 10  1  0  0  0  0
  7  9  1  0  0  0  0
  7 10  2  0  0  0  0
  8  9  2  0  0  0  0
 10 18  1  0  0  0  0
 11 14  1  0  0  0  0
 11 19  2  0  0  0  0
 11 22  1  0  0  0  0
 12 15  1  0  0  0  0
 12 24  1  0  0  0  0
 12 25  2  0  0  0  0
 13 16  1  0  0  0  0
 13 23  1  0  0  0  0
 13 26  2  0  0  0  0
 15 22  1  0  0  0  0
 16 27  1  0  0  0  0
 17 18  1  0  0  0  0
 17 23  1  0  0  0  0
 18 24  1  0  0  0  0
 19 20  1  0  0  0  0
 20 21  2  0  0  0  0
 21 22  1  0  0  0  0
  1 28  1  0  0  0  0
  2 29  1  0  0  0  0
  3 30  1  0  0  0  0
  4 31  1  0  0  0  0
  5 32  1  0  0  0  0
  6 33  1  0  0  0  0
  7 34  1  0  0  0  0
 14 35  1  0  0  0  0
 14 36  1  0  0  0  0
 14 37  1  0  0  0  0
 15 38  1  0  0  0  0
 15 39  1  0  0  0  0
 16 40  1  0  0  0  0
 16 41  1  0  0  0  0
 17 42  1  0  0  0  0
 17 43  1  0  0  0  0
 18 44  1  0  0  0  0
 23 45  1  0  0  0  0
 24 46  1  0  0  0  0
M  END
> <Catalog ID>
Z4425211287

> <MW>
386.835

> <MW (desalted)>
386.835

> <ClogP>
1.754

> <logS>
-3.655

> <HBD>
2

> <HBA>
5

> <TPSA>
101.8

> <RotBonds>
7

> <ROCS_ShapeQuery>
A71EV2A-x0451_0A_A71EV2A-x0310_0A_A71EV2A-x0416_0A_peptide

> <ROCS_TanimotoCombo>
0.518 

> <ROCS_ShapeTanimoto>
0.297 

> <ROCS_ColorTanimoto>
0.221 

> <ROCS_RefTversky>
0.279 

> <ROCS_RefColorTversky>
0.250 

> <ROCS_RefTverskyCombo>
0.529 

> <ROCS_FitTversky>
1.278 

> <ROCS_FitColorTversky>
0.655 

> <ROCS_FitTverskyCombo>
1.933 

> <ROCS_ColorScore>
-7.673

> <ROCS_Overlap>
1939.040

> <ROCS_Rank>
496                 

$$$$
untitled-dbase-7110_760
  -OEChem-11132309573D

 39 41  0     0  0  0  0  0  0999 V2000
   15.8891   11.5941   27.2233 C   0  0  0  0  0  0  0  0  0  0  0  0
   15.1131   12.6896   27.6017 C   0  0  0  0  0  0  0  0  0  0  0  0
   15.8597   11.1408   25.9044 C   0  0  0  0  0  0  0  0  0  0  0  0
   14.3075   13.3318   26.6613 C   0  0  0  0  0  0  0  0  0  0  0  0
   15.0541   11.7830   24.9640 C   0  0  0  0  0  0  0  0  0  0  0  0
    9.9551   11.0606   22.9762 C   0  0  0  0  0  0  0  0  0  0  0  0
    9.2052    9.8932   23.1213 C   0  0  0  0  0  0  0  0  0  0  0  0
    8.5308   12.1821   24.5765 C   0  0  0  0  0  0  0  0  0  0  0  0
   14.2780   12.8785   25.3424 C   0  0  0  0  0  0  0  0  0  0  0  0
    9.6182   12.2035   23.7023 C   0  0  0  0  0  0  0  0  0  0  0  0
    8.1249    9.8713   24.0055 C   0  0  0  0  0  0  0  0  0  0  0  0
    7.7895   11.0108   24.7349 C   0  0  0  0  0  0  0  0  0  0  0  0
    6.3283    8.6242   25.0454 C   0  0  0  0  0  0  0  0  0  0  0  0
   13.4273   13.5563   24.3488 C   0  0  0  0  0  0  0  0  0  0  0  0
   13.6862   13.6167   23.0367 C   0  0  0  0  0  0  0  0  0  0  0  0
   10.3961   13.4216   23.5407 C   0  0  0  0  0  0  0  0  0  0  0  0
    6.2574    9.7953   26.0103 C   0  0  0  0  0  0  0  0  0  0  0  0
    7.3491    8.7140   24.1274 N   0  0  0  0  0  0  0  0  0  0  0  0
   11.0695   13.5986   22.2747 N   0  0  0  0  0  0  0  0  0  0  0  0
    5.5781    7.6554   25.1430 O   0  0  0  0  0  0  0  0  0  0  0  0
   10.4819   14.2713   24.4401 O   0  0  0  0  0  0  0  0  0  0  0  0
   12.3609   15.7858   22.6036 O   0  0  0  0  0  0  0  0  0  0  0  0
   12.9445   14.3110   20.6566 O   0  0  0  0  0  0  0  0  0  0  0  0
    6.7077   11.0614   25.5683 O   0  0  0  0  0  0  0  0  0  0  0  0
   12.5422   14.4582   22.0441 S   0  0  0  0  0  0  0  0  0  0  0  0
   16.5173   11.0950   27.9552 H   0  0  0  0  0  0  0  0  0  0  0  0
   15.1367   13.0435   28.6283 H   0  0  0  0  0  0  0  0  0  0  0  0
   16.4648   10.2886   25.6094 H   0  0  0  0  0  0  0  0  0  0  0  0
   13.7080   14.1845   26.9714 H   0  0  0  0  0  0  0  0  0  0  0  0
   15.0420   11.4177   23.9398 H   0  0  0  0  0  0  0  0  0  0  0  0
   10.7972   11.0707   22.2889 H   0  0  0  0  0  0  0  0  0  0  0  0
    9.4698    9.0126   22.5419 H   0  0  0  0  0  0  0  0  0  0  0  0
    8.2585   13.0754   25.1340 H   0  0  0  0  0  0  0  0  0  0  0  0
   12.5230   14.0152   24.7436 H   0  0  0  0  0  0  0  0  0  0  0  0
   14.5527   13.1674   22.5690 H   0  0  0  0  0  0  0  0  0  0  0  0
    5.2088    9.9140   26.3049 H   0  0  0  0  0  0  0  0  0  0  0  0
    6.8200    9.5208   26.9112 H   0  0  0  0  0  0  0  0  0  0  0  0
    7.5374    7.9298   23.5099 H   0  0  0  0  0  0  0  0  0  0  0  0
   10.6340   13.1773   21.4455 H   0  0  0  0  0  0  0  0  0  0  0  0
  1  2  1  0  0  0  0
  1  3  2  0  0  0  0
  2  4  2  0  0  0  0
  3  5  1  0  0  0  0
  4  9  1  0  0  0  0
  5  9  2  0  0  0  0
  6  7  2  0  0  0  0
  6 10  1  0  0  0  0
  7 11  1  0  0  0  0
  8 10  2  0  0  0  0
  8 12  1  0  0  0  0
  9 14  1  0  0  0  0
 10 16  1  0  0  0  0
 11 12  2  0  0  0  0
 11 18  1  0  0  0  0
 12 24  1  0  0  0  0
 13 17  1  0  0  0  0
 13 18  1  0  0  0  0
 13 20  2  0  0  0  0
 14 15  2  0  0  0  0
 15 25  1  4  0  0  0
 16 19  1  0  0  0  0
 16 21  2  0  0  0  0
 17 24  1  0  0  0  0
 19 25  1  0  0  0  0
 22 25  2  0  0  0  0
 23 25  2  0  0  0  0
  1 26  1  0  0  0  0
  2 27  1  0  0  0  0
  3 28  1  0  0  0  0
  4 29  1  0  0  0  0
  5 30  1  0  0  0  0
  6 31  1  0  0  0  0
  7 32  1  0  0  0  0
  8 33  1  0  0  0  0
 14 34  1  0  0  0  0
 15 35  1  0  0  0  0
 17 36  1  0  0  0  0
 17 37  1  0  0  0  0
 18 38  1  0  0  0  0
 19 39  1  0  0  0  0
M  END
> <Catalog ID>
Z477276684

> <MW>
358.368

> <MW (desalted)>
358.368

> <ClogP>
2.412

> <logS>
-4.264

> <HBD>
2

> <HBA>
5

> <TPSA>
101.57

> <RotBonds>
3

> <ROCS_ShapeQuery>
A71EV2A-x0451_0A_A71EV2A-x0310_0A_A71EV2A-x0416_0A_peptide

> <ROCS_TanimotoCombo>
0.518 

> <ROCS_ShapeTanimoto>
0.339 

> <ROCS_ColorTanimoto>
0.179 

> <ROCS_RefTversky>
0.305 

> <ROCS_RefColorTversky>
0.206 

> <ROCS_RefTverskyCombo>
0.512 

> <ROCS_FitTversky>
1.490 

> <ROCS_FitColorTversky>
0.570 

> <ROCS_FitTverskyCombo>
2.060 

> <ROCS_ColorScore>
-6.319

> <ROCS_Overlap>
2122.176

> <ROCS_Rank>
497                 

$$$$
untitled-dbase-712_49
  -OEChem-11132309573D

 40 42  0     1  0  0  0  0  0999 V2000
    7.0619   13.1333   25.8302 C   0  0  0  0  0  0  0  0  0  0  0  0
    8.3087   13.0490   25.2096 C   0  0  0  0  0  0  0  0  0  0  0  0
   11.6208   16.0857   19.8656 C   0  0  0  0  0  0  0  0  0  0  0  0
   12.8209   14.5242   21.2650 C   0  0  0  0  0  0  0  0  0  0  0  0
   12.8310   16.6224   19.4264 C   0  0  0  0  0  0  0  0  0  0  0  0
   14.0312   15.0608   20.8258 C   0  0  0  0  0  0  0  0  0  0  0  0
    6.2085   12.0327   25.8310 C   0  0  0  0  0  0  0  0  0  0  0  0
    8.7147   11.8627   24.5794 C   0  0  0  0  0  0  0  0  0  0  0  0
   11.6157   15.0367   20.7849 C   0  0  0  0  0  0  0  0  0  0  0  0
    7.8417   10.7655   24.5735 C   0  0  0  0  0  0  0  0  0  0  0  0
   14.0363   16.1099   19.9065 C   0  0  0  0  0  0  0  0  0  0  0  0
    6.5985   10.8486   25.2075 C   0  0  0  0  0  0  0  0  0  0  0  0
   10.3740   13.9065   22.6712 C   0  0  0  0  0  0  0  0  0  0  0  0
   10.4403   10.3286   23.6389 C   0  0  0  0  0  0  0  0  0  0  0  0
    9.2372    9.5804   23.0810 C   0  0  0  0  0  0  0  0  0  0  0  0
   10.0704   11.7826   23.9287 C   0  0  1  0  0  0  0  0  0  0  0  0
   10.3093   14.4576   21.2598 C   0  0  0  0  0  0  0  0  0  0  0  0
   10.0746   12.5526   22.7015 N   0  0  0  0  0  0  0  0  0  0  0  0
   10.6612   14.5873   23.6525 O   0  0  0  0  0  0  0  0  0  0  0  0
   16.5777   15.7740   19.5477 O   0  0  0  0  0  0  0  0  0  0  0  0
   15.3153   17.4160   18.0737 O   0  0  0  0  0  0  0  0  0  0  0  0
    8.1434    9.5562   24.0020 O   0  0  0  0  0  0  0  0  0  0  0  0
   15.9367   17.9629   20.3430 F   0  0  0  0  0  0  0  0  0  0  0  0
   15.5512   16.7799   19.3553 S   0  0  0  0  0  0  0  0  0  0  0  0
    5.5062    9.5093   25.2369 Cl  0  0  0  0  0  0  0  0  0  0  0  0
    6.7593   14.0561   26.3164 H   0  0  0  0  0  0  0  0  0  0  0  0
    8.9668   13.9145   25.2250 H   0  0  0  0  0  0  0  0  0  0  0  0
   10.6868   16.4916   19.4863 H   0  0  0  0  0  0  0  0  0  0  0  0
   12.8266   13.7072   21.9817 H   0  0  0  0  0  0  0  0  0  0  0  0
   12.8237   17.4399   18.7104 H   0  0  0  0  0  0  0  0  0  0  0  0
   14.9644   14.6542   21.2067 H   0  0  0  0  0  0  0  0  0  0  0  0
    5.2426   12.1134   26.3232 H   0  0  0  0  0  0  0  0  0  0  0  0
   10.7427    9.8508   24.5805 H   0  0  0  0  0  0  0  0  0  0  0  0
   11.2955   10.2645   22.9566 H   0  0  0  0  0  0  0  0  0  0  0  0
    8.8944   10.0062   22.1304 H   0  0  0  0  0  0  0  0  0  0  0  0
    9.5153    8.5393   22.8849 H   0  0  0  0  0  0  0  0  0  0  0  0
   10.8270   12.2190   24.5753 H   0  0  0  0  0  0  0  0  0  0  0  0
    9.5285   15.2276   21.2162 H   0  0  0  0  0  0  0  0  0  0  0  0
    9.9929   13.6533   20.5837 H   0  0  0  0  0  0  0  0  0  0  0  0
    9.8498   12.0830   21.8300 H   0  0  0  0  0  0  0  0  0  0  0  0
  1  2  2  0  0  0  0
  1  7  1  0  0  0  0
  2  8  1  0  0  0  0
  3  5  2  0  0  0  0
  3  9  1  0  0  0  0
  4  6  1  0  0  0  0
  4  9  2  0  0  0  0
  5 11  1  0  0  0  0
  6 11  2  0  0  0  0
  7 12  2  0  0  0  0
  8 10  2  0  0  0  0
  8 16  1  0  0  0  0
  9 17  1  0  0  0  0
 10 12  1  0  0  0  0
 10 22  1  0  0  0  0
 11 24  1  0  0  0  0
 12 25  1  0  0  0  0
 13 17  1  0  0  0  0
 13 18  1  0  0  0  0
 13 19  2  0  0  0  0
 14 15  1  0  0  0  0
 14 16  1  0  0  0  0
 15 22  1  0  0  0  0
 16 18  1  0  0  0  0
 20 24  2  0  0  0  0
 21 24  2  0  0  0  0
 23 24  1  0  0  0  0
  1 26  1  0  0  0  0
  2 27  1  0  0  0  0
  3 28  1  0  0  0  0
  4 29  1  0  0  0  0
  5 30  1  0  0  0  0
  6 31  1  0  0  0  0
  7 32  1  0  0  0  0
 14 33  1  0  0  0  0
 14 34  1  0  0  0  0
 15 35  1  0  0  0  0
 15 36  1  0  0  0  0
 16 37  1  0  0  0  0
 17 38  1  0  0  0  0
 17 39  1  0  0  0  0
 18 40  1  0  0  0  0
M  END
> <Catalog ID>
Z3292075323

> <MW>
383.822

> <MW (desalted)>
383.822

> <ClogP>
3.598

> <logS>
-4.579

> <HBD>
1

> <HBA>
4

> <TPSA>
72.47

> <RotBonds>
4

> <ROCS_ShapeQuery>
A71EV2A-x0451_0A_A71EV2A-x0310_0A_A71EV2A-x0416_0A_peptide

> <ROCS_TanimotoCombo>
0.518 

> <ROCS_ShapeTanimoto>
0.340 

> <ROCS_ColorTanimoto>
0.178 

> <ROCS_RefTversky>
0.305 

> <ROCS_RefColorTversky>
0.188 

> <ROCS_RefTverskyCombo>
0.492 

> <ROCS_FitTversky>
1.505 

> <ROCS_FitColorTversky>
0.782 

> <ROCS_FitTverskyCombo>
2.287 

> <ROCS_ColorScore>
-5.705

> <ROCS_Overlap>
2118.921

> <ROCS_Rank>
498                 

$$$$
untitled-dbase-1891_77
  -OEChem-11132309573D

 42 44  0     1  0  0  0  0  0999 V2000
   12.5853   14.3278   21.5853 C   0  0  0  0  0  0  0  0  0  0  0  0
   10.3270   15.0510   21.1224 C   0  0  0  0  0  0  0  0  0  0  0  0
   13.0365   15.0159   20.4591 C   0  0  0  0  0  0  0  0  0  0  0  0
   10.7783   15.7393   19.9962 C   0  0  0  0  0  0  0  0  0  0  0  0
   11.2305   14.3452   21.9170 C   0  0  0  0  0  0  0  0  0  0  0  0
   12.1331   15.7217   19.6646 C   0  0  0  0  0  0  0  0  0  0  0  0
   13.2852   16.9878   15.7227 C   0  0  0  0  0  0  0  0  0  0  0  0
   13.9681   17.3370   16.8176 C   0  0  0  0  0  0  0  0  0  0  0  0
   10.7498   13.6121   23.1164 C   0  0  0  0  0  0  0  0  0  0  0  0
   13.8973   16.5049   18.0537 C   0  0  0  0  0  0  0  0  0  0  0  0
    7.0707   10.8116   23.1567 C   0  0  0  0  0  0  0  0  0  0  0  0
    7.4573   12.2310   23.5728 C   0  0  0  0  0  0  0  0  0  0  0  0
    9.4471   10.0508   23.4947 C   0  0  2  0  0  0  0  0  0  0  0  0
    9.8593   11.4594   23.9701 C   0  0  2  0  0  0  0  0  0  0  0  0
    8.0032    9.9601   24.0177 C   0  0  1  0  0  0  0  0  0  0  0  0
    8.5605   11.9756   24.6002 C   0  0  2  0  0  0  0  0  0  0  0  0
   10.3371    8.9736   24.1091 C   0  0  0  0  0  0  0  0  0  0  0  0
   12.5855   16.4099   18.5385 N   0  0  0  0  0  0  0  0  0  0  0  0
   10.3672   12.2893   22.9159 N   0  0  0  0  0  0  0  0  0  0  0  0
   10.6943   14.1971   24.1949 O   0  0  0  0  0  0  0  0  0  0  0  0
   14.9024   15.9954   18.5350 O   0  0  0  0  0  0  0  0  0  0  0  0
    8.0712   10.7606   25.2222 O   0  0  0  0  0  0  0  0  0  0  0  0
   11.5985    9.1146   23.6734 F   0  0  0  0  0  0  0  0  0  0  0  0
   10.3262    9.0750   25.4471 F   0  0  0  0  0  0  0  0  0  0  0  0
    9.8921    7.7559   23.7627 F   0  0  0  0  0  0  0  0  0  0  0  0
   13.2977   13.7806   22.1971 H   0  0  0  0  0  0  0  0  0  0  0  0
    9.2691   15.0713   21.3716 H   0  0  0  0  0  0  0  0  0  0  0  0
   14.0946   14.9963   20.2096 H   0  0  0  0  0  0  0  0  0  0  0  0
   10.0651   16.2859   19.3843 H   0  0  0  0  0  0  0  0  0  0  0  0
   13.3123   17.5674   14.8068 H   0  0  0  0  0  0  0  0  0  0  0  0
   12.6724   16.0924   15.7284 H   0  0  0  0  0  0  0  0  0  0  0  0
   14.5811   18.2317   16.8126 H   0  0  0  0  0  0  0  0  0  0  0  0
    6.0238   10.6259   23.4222 H   0  0  0  0  0  0  0  0  0  0  0  0
    7.1910   10.6301   22.0847 H   0  0  0  0  0  0  0  0  0  0  0  0
    7.7710   12.8558   22.7323 H   0  0  0  0  0  0  0  0  0  0  0  0
    6.5971   12.7137   24.0510 H   0  0  0  0  0  0  0  0  0  0  0  0
    9.4756    9.9431   22.4037 H   0  0  0  0  0  0  0  0  0  0  0  0
   10.6426   11.3986   24.7348 H   0  0  0  0  0  0  0  0  0  0  0  0
    7.6377    8.9487   24.2110 H   0  0  0  0  0  0  0  0  0  0  0  0
    8.6980   12.7800   25.3268 H   0  0  0  0  0  0  0  0  0  0  0  0
   11.8686   16.9086   17.9977 H   0  0  0  0  0  0  0  0  0  0  0  0
   10.3855   11.8983   21.9743 H   0  0  0  0  0  0  0  0  0  0  0  0
  1  3  2  0  0  0  0
  1  5  1  0  0  0  0
  2  4  1  0  0  0  0
  2  5  2  0  0  0  0
  3  6  1  0  0  0  0
  4  6  2  0  0  0  0
  5  9  1  0  0  0  0
  6 18  1  0  0  0  0
  7  8  2  0  0  0  0
  8 10  1  0  0  0  0
  9 19  1  0  0  0  0
  9 20  2  0  0  0  0
 10 18  1  0  0  0  0
 10 21  2  0  0  0  0
 11 12  1  0  0  0  0
 11 15  1  0  0  0  0
 12 16  1  0  0  0  0
 13 14  1  0  0  0  0
 13 15  1  0  0  0  0
 13 17  1  1  0  0  0
 14 16  1  0  0  0  0
 14 19  1  6  0  0  0
 15 22  1  1  0  0  0
 16 22  1  1  0  0  0
 17 23  1  0  0  0  0
 17 24  1  0  0  0  0
 17 25  1  0  0  0  0
  1 26  1  0  0  0  0
  2 27  1  0  0  0  0
  3 28  1  0  0  0  0
  4 29  1  0  0  0  0
  7 30  1  0  0  0  0
  7 31  1  0  0  0  0
  8 32  1  0  0  0  0
 11 33  1  0  0  0  0
 11 34  1  0  0  0  0
 12 35  1  0  0  0  0
 12 36  1  0  0  0  0
 13 37  1  0  0  0  0
 14 38  1  0  0  0  0
 15 39  1  0  0  0  0
 16 40  1  0  0  0  0
 18 41  1  0  0  0  0
 19 42  1  0  0  0  0
M  END
> <Catalog ID>
Z4094485107

> <MW>
354.324

> <MW (desalted)>
354.324

> <ClogP>
1.408

> <logS>
-5.206

> <HBD>
2

> <HBA>
3

> <TPSA>
67.43

> <RotBonds>
5

> <ROCS_ShapeQuery>
A71EV2A-x0451_0A_A71EV2A-x0310_0A_A71EV2A-x0416_0A_peptide

> <ROCS_TanimotoCombo>
0.518 

> <ROCS_ShapeTanimoto>
0.326 

> <ROCS_ColorTanimoto>
0.192 

> <ROCS_RefTversky>
0.297 

> <ROCS_RefColorTversky>
0.236 

> <ROCS_RefTverskyCombo>
0.533 

> <ROCS_FitTversky>
1.422 

> <ROCS_FitColorTversky>
0.509 

> <ROCS_FitTverskyCombo>
1.931 

> <ROCS_ColorScore>
-7.257

> <ROCS_Overlap>
2065.300

> <ROCS_Rank>
499                 

$$$$
untitled-dbase-7921_4567
  -OEChem-11132309573D

 54 56  0     0  0  0  0  0  0999 V2000
    6.9525   13.1087   26.2821 C   0  0  0  0  0  0  0  0  0  0  0  0
    7.9586   13.1922   25.3136 C   0  0  0  0  0  0  0  0  0  0  0  0
    6.6804   10.7758   25.7980 C   0  0  0  0  0  0  0  0  0  0  0  0
    6.3156   11.9009   26.5276 C   0  0  0  0  0  0  0  0  0  0  0  0
    7.6987   10.8434   24.8291 C   0  0  0  0  0  0  0  0  0  0  0  0
    8.3639   12.0659   24.5754 C   0  0  0  0  0  0  0  0  0  0  0  0
   14.1863   17.4809   18.2192 C   0  0  0  0  0  0  0  0  0  0  0  0
   13.3042   16.6953   18.8405 C   0  0  0  0  0  0  0  0  0  0  0  0
    5.2879   11.8090   27.5520 C   0  0  0  0  0  0  0  0  0  0  0  0
   13.4803   16.4255   20.2828 C   0  0  0  0  0  0  0  0  0  0  0  0
   10.2381   13.2558   23.4134 C   0  0  0  0  0  0  0  0  0  0  0  0
    8.0084    9.5857   24.0597 C   0  0  0  0  0  0  0  0  0  0  0  0
    9.3790    9.6587   23.4172 C   0  0  0  0  0  0  0  0  0  0  0  0
   10.2440   14.8948   21.5724 C   0  0  0  0  0  0  0  0  0  0  0  0
   12.2743   13.4025   21.9948 C   0  0  0  0  0  0  0  0  0  0  0  0
    9.5160   10.9712   22.6661 C   0  0  0  0  0  0  0  0  0  0  0  0
   11.1301   15.4966   20.4866 C   0  0  0  0  0  0  0  0  0  0  0  0
   12.9561   14.7671   22.0276 C   0  0  0  0  0  0  0  0  0  0  0  0
   10.7454   13.5211   22.0273 C   0  0  0  0  0  0  0  0  0  0  0  0
    4.9348   11.9745   30.0279 C   0  0  0  0  0  0  0  0  0  0  0  0
    6.8146   10.6292   29.1589 C   0  0  0  0  0  0  0  0  0  0  0  0
    9.3933   12.1394   23.5580 N   0  0  0  0  0  0  0  0  0  0  0  0
   12.5386   15.6004   20.8963 N   0  0  0  0  0  0  0  0  0  0  0  0
    5.6649   11.4830   28.8679 N   0  0  0  0  0  0  0  0  0  0  0  0
    4.1229   12.0399   27.2015 O   0  0  0  0  0  0  0  0  0  0  0  0
   14.4464   16.9346   20.8526 O   0  0  0  0  0  0  0  0  0  0  0  0
   10.6031   14.0098   24.3178 O   0  0  0  0  0  0  0  0  0  0  0  0
    6.6870   13.9983   26.8484 H   0  0  0  0  0  0  0  0  0  0  0  0
    8.4280   14.1628   25.1977 H   0  0  0  0  0  0  0  0  0  0  0  0
    6.1734    9.8296   25.9790 H   0  0  0  0  0  0  0  0  0  0  0  0
   14.1101   17.7154   17.1628 H   0  0  0  0  0  0  0  0  0  0  0  0
   15.0158   17.9104   18.7710 H   0  0  0  0  0  0  0  0  0  0  0  0
   12.4640   16.2492   18.3246 H   0  0  0  0  0  0  0  0  0  0  0  0
    7.9623    8.7349   24.7506 H   0  0  0  0  0  0  0  0  0  0  0  0
    7.2581    9.4229   23.2769 H   0  0  0  0  0  0  0  0  0  0  0  0
   10.1542    9.5806   24.1878 H   0  0  0  0  0  0  0  0  0  0  0  0
    9.5269    8.8183   22.7269 H   0  0  0  0  0  0  0  0  0  0  0  0
   10.1866   15.5852   22.4183 H   0  0  0  0  0  0  0  0  0  0  0  0
    9.2293   14.7795   21.1783 H   0  0  0  0  0  0  0  0  0  0  0  0
   12.5617   12.8851   21.0747 H   0  0  0  0  0  0  0  0  0  0  0  0
   12.6295   12.7985   22.8335 H   0  0  0  0  0  0  0  0  0  0  0  0
   10.4869   11.0429   22.1614 H   0  0  0  0  0  0  0  0  0  0  0  0
    8.7423   10.9938   21.8943 H   0  0  0  0  0  0  0  0  0  0  0  0
   11.0405   14.8953   19.5647 H   0  0  0  0  0  0  0  0  0  0  0  0
   10.7912   16.5144   20.2192 H   0  0  0  0  0  0  0  0  0  0  0  0
   12.6847   15.3119   22.9446 H   0  0  0  0  0  0  0  0  0  0  0  0
   14.0429   14.6401   22.0736 H   0  0  0  0  0  0  0  0  0  0  0  0
   10.3059   12.7505   21.4021 H   0  0  0  0  0  0  0  0  0  0  0  0
    4.1379   11.2626   30.2889 H   0  0  0  0  0  0  0  0  0  0  0  0
    5.6250   12.0799   30.8778 H   0  0  0  0  0  0  0  0  0  0  0  0
    4.4899   12.9529   29.7934 H   0  0  0  0  0  0  0  0  0  0  0  0
    7.7162   11.2506   29.2635 H   0  0  0  0  0  0  0  0  0  0  0  0
    6.6364   10.0812   30.0959 H   0  0  0  0  0  0  0  0  0  0  0  0
    6.9566    9.9128   28.3364 H   0  0  0  0  0  0  0  0  0  0  0  0
  1  2  2  0  0  0  0
  1  4  1  0  0  0  0
  2  6  1  0  0  0  0
  3  4  2  0  0  0  0
  3  5  1  0  0  0  0
  4  9  1  0  0  0  0
  5  6  2  0  0  0  0
  5 12  1  0  0  0  0
  6 22  1  0  0  0  0
  7  8  2  0  0  0  0
  8 10  1  0  0  0  0
  9 24  1  0  0  0  0
  9 25  2  0  0  0  0
 10 23  1  0  0  0  0
 10 26  2  0  0  0  0
 11 19  1  0  0  0  0
 11 22  1  0  0  0  0
 11 27  2  0  0  0  0
 12 13  1  0  0  0  0
 13 16  1  0  0  0  0
 14 17  1  0  0  0  0
 14 19  1  0  0  0  0
 15 18  1  0  0  0  0
 15 19  1  0  0  0  0
 16 22  1  0  0  0  0
 17 23  1  0  0  0  0
 18 23  1  0  0  0  0
 20 24  1  0  0  0  0
 21 24  1  0  0  0  0
  1 28  1  0  0  0  0
  2 29  1  0  0  0  0
  3 30  1  0  0  0  0
  7 31  1  0  0  0  0
  7 32  1  0  0  0  0
  8 33  1  0  0  0  0
 12 34  1  0  0  0  0
 12 35  1  0  0  0  0
 13 36  1  0  0  0  0
 13 37  1  0  0  0  0
 14 38  1  0  0  0  0
 14 39  1  0  0  0  0
 15 40  1  0  0  0  0
 15 41  1  0  0  0  0
 16 42  1  0  0  0  0
 16 43  1  0  0  0  0
 17 44  1  0  0  0  0
 17 45  1  0  0  0  0
 18 46  1  0  0  0  0
 18 47  1  0  0  0  0
 19 48  1  0  0  0  0
 20 49  1  0  0  0  0
 20 50  1  0  0  0  0
 20 51  1  0  0  0  0
 21 52  1  0  0  0  0
 21 53  1  0  0  0  0
 21 54  1  0  0  0  0
M  END
> <Catalog ID>
Z4381784455

> <MW>
369.457

> <MW (desalted)>
369.457

> <ClogP>
-0.061

> <logS>
-3.757

> <HBD>
0

> <HBA>
3

> <TPSA>
60.93

> <RotBonds>
3

> <ROCS_ShapeQuery>
A71EV2A-x0451_0A_A71EV2A-x0310_0A_A71EV2A-x0416_0A_peptide

> <ROCS_TanimotoCombo>
0.518 

> <ROCS_ShapeTanimoto>
0.373 

> <ROCS_ColorTanimoto>
0.144 

> <ROCS_RefTversky>
0.331 

> <ROCS_RefColorTversky>
0.160 

> <ROCS_RefTverskyCombo>
0.491 

> <ROCS_FitTversky>
1.525 

> <ROCS_FitColorTversky>
0.593 

> <ROCS_FitTverskyCombo>
2.118 

> <ROCS_ColorScore>
-4.887

> <ROCS_Overlap>
2300.931

> <ROCS_Rank>
500                 

$$$$
