peptide
     RDKit          3D

 35 35  0  0  0  0  0  0  0  0999 V2000
    9.8900   16.6130   20.9270 N   0  0  0  0  0  0  0  0  0  0  0  0
    9.9550   15.1480   21.0080 C   0  0  2  0  0  0  0  0  0  0  0  0
   10.5420   14.5870   22.3160 C   0  0  0  0  0  0  0  0  0  0  0  0
   10.5850   15.2670   23.3440 O   0  0  0  0  0  0  0  0  0  0  0  0
   10.8120   14.5680   19.9050 C   0  0  0  0  0  0  0  0  0  0  0  0
   12.0600   15.2860   19.7190 C   0  0  0  0  0  0  0  0  0  0  0  0
   12.8230   15.6440   20.7970 C   0  0  0  0  0  0  0  0  0  0  0  0
   12.5300   15.4930   18.4700 C   0  0  0  0  0  0  0  0  0  0  0  0
   13.9490   16.2530   20.6390 C   0  0  0  0  0  0  0  0  0  0  0  0
   13.6890   16.1010   18.3150 C   0  0  0  0  0  0  0  0  0  0  0  0
   14.3990   16.5240   19.4090 C   0  0  0  0  0  0  0  0  0  0  0  0
   11.1390   13.3900   22.2020 N   0  0  0  0  0  0  0  0  0  0  0  0
   11.5750   12.5490   23.3430 C   0  0  2  0  0  0  0  0  0  0  0  0
   13.0470   12.7110   23.8670 C   0  0  0  0  0  0  0  0  0  0  0  0
   13.5710   13.8220   23.9240 O   0  0  0  0  0  0  0  0  0  0  0  0
   11.3010   11.0900   22.9440 C   0  0  0  0  0  0  0  0  0  0  0  0
   11.2020   10.0840   24.0670 C   0  0  0  0  0  0  0  0  0  0  0  0
   10.3540    8.9280   23.6040 C   0  0  0  0  0  0  0  0  0  0  0  0
    9.0490    9.1020   24.2000 N   0  0  0  0  0  0  0  0  0  0  0  0
    7.9750    8.3660   23.9570 C   0  0  0  0  0  0  0  0  0  0  0  0
    8.0100    7.3360   23.0990 N   0  0  0  0  0  0  0  0  0  0  0  0
    6.8580    8.6900   24.5990 N   0  0  0  0  0  0  0  0  0  0  0  0
   13.6630   11.6110   24.3180 N   0  0  0  0  0  0  0  0  0  0  0  0
   15.0420   11.5710   24.7980 C   0  0  0  0  0  0  0  0  0  0  0  0
   15.2760   12.1250   26.2020 C   0  0  0  0  0  0  0  0  0  0  0  0
   15.9390   13.1570   26.3840 O   0  0  0  0  0  0  0  0  0  0  0  0
   14.7400   11.4450   27.2130 N   0  0  0  0  0  0  0  0  0  0  0  0
   14.7770   11.9910   28.5680 C   0  0  2  0  0  0  0  0  0  0  0  0
   15.1630   10.9250   29.6050 C   0  0  0  0  0  0  0  0  0  0  0  0
   14.3340   10.5200   30.4320 O   0  0  0  0  0  0  0  0  0  0  0  0
   13.4100   12.5890   28.9390 C   0  0  0  0  0  0  0  0  0  0  0  0
   12.6790   13.4070   27.8530 C   0  0  0  0  0  0  0  0  0  0  0  0
   12.1420   14.7430   28.3120 C   0  0  0  0  0  0  0  0  0  0  0  0
   11.2350   15.2980   27.2160 C   0  0  0  0  0  0  0  0  0  0  0  0
    9.7680   15.1410   27.4180 N   0  0  0  0  0  0  0  0  0  0  0  0
  2  1  1  1
  3  2  1  0
  4  3  2  0
  5  2  1  0
  6  5  1  0
  7  6  2  0
  8  6  1  0
  9  7  1  0
 10  8  2  0
 11 10  1  0
 11  9  2  0
 12  3  1  0
 13 12  1  0
 14 13  1  0
 15 14  2  0
 13 16  1  6
 17 16  1  0
 18 17  1  0
 19 18  1  0
 20 19  1  0
 21 20  1  0
 22 20  2  0
 23 14  1  0
 24 23  1  0
 25 24  1  0
 26 25  2  0
 27 25  1  0
 28 27  1  0
 29 28  1  0
 30 29  2  0
 28 31  1  1
 32 31  1  0
 33 32  1  0
 34 33  1  0
 35 34  1  0
M  CHG  2  21   1  35   1
M  END
